-Bn
     RDKit          2D

  7  7  0  0  0  0  0  0  0  0999 V2000
    2.5714    0.0000    0.0000 C   0  0  0  0  0  0  0  0  0  0  0  0
    1.0714   -0.0000    0.0000 C   0  0  0  0  0  0  0  0  0  0  0  0
    0.3214   -1.2990    0.0000 C   0  0  0  0  0  0  0  0  0  0  0  0
   -1.1786   -1.2990    0.0000 C   0  0  0  0  0  0  0  0  0  0  0  0
   -1.9286    0.0000    0.0000 C   0  0  0  0  0  0  0  0  0  0  0  0
   -1.1786    1.2990    0.0000 C   0  0  0  0  0  0  0  0  0  0  0  0
    0.3214    1.2990    0.0000 C   0  0  0  0  0  0  0  0  0  0  0  0
  1  2  1  0
  2  3  2  0
  3  4  1  0
  4  5  2  0
  5  6  1  0
  6  7  2  0
  7  2  1  0
M  END
>  <rName>  (1) 
-Bn

>  <PQ_SYMBOL>  (1) 
-Bn

>  <FULL_NAME>  (1) 
C-Terminal toluene

>  <IUPAC_CONDENSED>  (1) 
Bn

>  <IUPAC>  (1) 
methylbenzene

>  <TYPE>  (1) 
C-term cap

>  <CLASS>  (1) 
c_cap

>  <ANALOG>  (1) 
X

>  <MOL_WT>  (1) 
92.14099999999999

>  <LOGP>  (1) 
1.99502

>  <TPSA>  (1) 
0.0

>  <POPULARITY>  (1) 
15.0

>  <PROTECTED>  (1) 
FALSE

>  <SMILES>  (1) 
Cc1ccccc1

>  <INCHIKEY>  (1) 
YXFVVABEGXRONW-UHFFFAOYSA-N

$$$$
-D-Ac3c_2Svinyl
     RDKit          2D

  9  9  0  0  0  0  0  0  0  0999 V2000
   -2.3058    0.6435    0.0000 N   0  0  0  0  0  0  0  0  0  0  0  0
   -0.8074    0.5739    0.0000 C   0  0  0  0  0  0  0  0  0  0  0  0
   -0.6157   -0.9138    0.0000 C   0  0  0  0  0  0  0  0  0  0  0  0
    0.7685   -1.4916    0.0000 O   0  0  0  0  0  0  0  0  0  0  0  0
   -1.8082   -1.8236    0.0000 O   0  0  0  0  0  0  0  0  0  0  0  0
    0.6244    1.0211    0.0000 C   0  0  0  0  0  0  0  0  0  0  0  0
   -0.4787    2.0375    0.0000 C   0  0  0  0  0  0  0  0  0  0  0  0
    2.0879    0.6924    0.0000 C   0  0  0  0  0  0  0  0  0  0  0  0
    2.5351   -0.7394    0.0000 C   0  0  0  0  0  0  0  0  0  0  0  0
  2  1  1  6
  2  3  1  0
  3  4  2  0
  3  5  1  0
  2  6  1  0
  6  7  1  0
  6  8  1  1
  8  9  2  0
  7  2  1  0
M  END
>  <rName>  (2) 
-D-Ac3c_2Svinyl

>  <PQ_SYMBOL>  (2) 
-D-Ac3c_2Svinyl

>  <FULL_NAME>  (2) 
(1R,2S)-1-amino-2-ethenylcyclopropane-1-carboxylic acid

>  <IUPAC_CONDENSED>  (2) 
-D-Ac3c(2S-vinyl)

>  <IUPAC>  (2) 
(1R,2S)-1-amino-2-ethenylcyclopropanecarboxylic acid

>  <TYPE>  (2) 
C-term cap

>  <CLASS>  (2) 
c_cap

>  <ANALOG>  (2) 
X

>  <MOL_WT>  (2) 
127.14299999999999

>  <LOGP>  (2) 
-0.02560000000000029

>  <TPSA>  (2) 
63.32000000000001

>  <POPULARITY>  (2) 
18.7

>  <PROTECTED>  (2) 
TRUE

>  <SMILES>  (2) 
N[C@@]1(C(=O)O)[C@@H](C1)C=C

>  <INCHIKEY>  (2) 
GALLMPFNVWUCGD-INEUFUBQSA-N

$$$$
-D-Met_O2
     RDKit          2D

 11 10  0  0  0  0  0  0  0  0999 V2000
    1.5275   -1.9644    0.0000 N   0  0  0  0  0  0  0  0  0  0  0  0
    1.4450   -0.4666    0.0000 C   0  0  0  0  0  0  0  0  0  0  0  0
    2.7008    0.3537    0.0000 C   0  0  0  0  0  0  0  0  0  0  0  0
    2.6183    1.8514    0.0000 O   0  0  0  0  0  0  0  0  0  0  0  0
    4.0391   -0.3237    0.0000 O   0  0  0  0  0  0  0  0  0  0  0  0
    0.1067    0.2107    0.0000 C   0  0  0  0  0  0  0  0  0  0  0  0
   -1.1491   -0.6096    0.0000 C   0  0  0  0  0  0  0  0  0  0  0  0
   -2.4875    0.0678    0.0000 S   0  0  0  0  0  0  0  0  0  0  0  0
   -3.1649   -1.2706    0.0000 O   0  0  0  0  0  0  0  0  0  0  0  0
   -3.8258    0.7452    0.0000 C   0  0  0  0  0  0  0  0  0  0  0  0
   -1.8101    1.4061    0.0000 O   0  0  0  0  0  0  0  0  0  0  0  0
  2  1  1  6
  2  3  1  0
  3  4  2  0
  3  5  1  0
  2  6  1  0
  6  7  1  0
  7  8  1  0
  8  9  2  0
  8 10  1  0
  8 11  2  0
M  END
>  <rName>  (3) 
-D-Met_O2

>  <PQ_SYMBOL>  (3) 
-D-Met_O2

>  <FULL_NAME>  (3) 
(2R)-2-amino-4-methylsulfonylbutanoic acid

>  <IUPAC_CONDENSED>  (3) 
-D-Met(O2)

>  <IUPAC>  (3) 
(2R)-2-amino-4-(methylsulfonyl)butanoic acid

>  <TYPE>  (3) 
C-term cap

>  <CLASS>  (3) 
c_cap

>  <ANALOG>  (3) 
X

>  <MOL_WT>  (3) 
181.213

>  <LOGP>  (3) 
-1.1670000000000005

>  <TPSA>  (3) 
97.46000000000001

>  <POPULARITY>  (3) 
8.0

>  <PROTECTED>  (3) 
TRUE

>  <SMILES>  (3) 
N[C@@H](C(=O)O)CCS(=O)(C)=O

>  <INCHIKEY>  (3) 
UCUNFLYVYCGDHP-SCSAIBSYSA-N

$$$$
-Et
     RDKit          2D

  2  1  0  0  0  0  0  0  0  0999 V2000
   -0.7500    0.0000    0.0000 C   0  0  0  0  0  0  0  0  0  0  0  0
    0.7500   -0.0000    0.0000 C   0  0  0  0  0  0  0  0  0  0  0  0
  1  2  1  0
M  END
>  <rName>  (4) 
-Et

>  <PQ_SYMBOL>  (4) 
-Et

>  <FULL_NAME>  (4) 
C-Terminal ethyl

>  <IUPAC_CONDENSED>  (4) 
Et

>  <IUPAC>  (4) 
ethane

>  <TYPE>  (4) 
C-term cap

>  <CLASS>  (4) 
c_cap

>  <ANALOG>  (4) 
X

>  <MOL_WT>  (4) 
30.07

>  <LOGP>  (4) 
1.0262

>  <TPSA>  (4) 
0.0

>  <POPULARITY>  (4) 
2.0

>  <PROTECTED>  (4) 
FALSE

>  <SMILES>  (4) 
CC

>  <INCHIKEY>  (4) 
OTMSDBZUPAUEDD-UHFFFAOYSA-N

$$$$
-Glu-OMe
     RDKit          2D

 11 10  0  0  0  0  0  0  0  0999 V2000
    0.7523   -2.0298    0.0000 N   0  0  0  0  0  0  0  0  0  0  0  0
    0.7201   -0.5301    0.0000 C   0  0  0  0  0  0  0  0  0  0  0  0
    2.0028    0.2476    0.0000 C   0  0  0  0  0  0  0  0  0  0  0  0
    1.9706    1.7472    0.0000 O   0  0  0  0  0  0  0  0  0  0  0  0
    3.3176   -0.4744    0.0000 O   0  0  0  0  0  0  0  0  0  0  0  0
    4.6002    0.3033    0.0000 C   0  0  0  0  0  0  0  0  0  0  0  0
   -0.5947    0.1918    0.0000 C   0  0  0  0  0  0  0  0  0  0  0  0
   -1.8774   -0.5859    0.0000 C   0  0  0  0  0  0  0  0  0  0  0  0
   -3.1922    0.1361    0.0000 C   0  0  0  0  0  0  0  0  0  0  0  0
   -3.2244    1.6357    0.0000 O   0  0  0  0  0  0  0  0  0  0  0  0
   -4.4748   -0.6416    0.0000 O   0  0  0  0  0  0  0  0  0  0  0  0
  2  1  1  1
  2  3  1  0
  3  4  2  0
  3  5  1  0
  5  6  1  0
  2  7  1  0
  7  8  1  0
  8  9  1  0
  9 10  2  0
  9 11  1  0
M  END
>  <rName>  (5) 
-Glu-OMe

>  <PQ_SYMBOL>  (5) 
-Glu-OMe

>  <FULL_NAME>  (5) 
Glutamic acid methyl ester

>  <IUPAC_CONDENSED>  (5) 
-Glu-OMe

>  <IUPAC>  (5) 
(4S)-4-amino-4-(methoxycarbonyl)butanoic acid

>  <TYPE>  (5) 
C-term cap

>  <CLASS>  (5) 
c_cap

>  <ANALOG>  (5) 
X

>  <MOL_WT>  (5) 
161.157

>  <LOGP>  (5) 
-0.6484999999999999

>  <TPSA>  (5) 
89.62000000000002

>  <POPULARITY>  (5) 
10.9

>  <PROTECTED>  (5) 
TRUE

>  <SMILES>  (5) 
N[C@H](C(=O)OC)CCC(=O)O

>  <INCHIKEY>  (5) 
SEWIYICDCVPBEW-BYPYZUCNSA-N

$$$$
-Gly-ol
     RDKit          2D

  3  2  0  0  0  0  0  0  0  0999 V2000
    1.2990    0.2500    0.0000 N   0  0  0  0  0  0  0  0  0  0  0  0
   -0.0000   -0.5000    0.0000 C   0  0  0  0  0  0  0  0  0  0  0  0
   -1.2990    0.2500    0.0000 O   0  0  0  0  0  0  0  0  0  0  0  0
  1  2  1  0
  2  3  1  0
M  END
>  <rName>  (6) 
-Gly-ol

>  <PQ_SYMBOL>  (6) 
-Gly-ol

>  <FULL_NAME>  (6) 
aminomethanol

>  <IUPAC_CONDENSED>  (6) 
Gly-ol

>  <IUPAC>  (6) 
1-aminomethanol

>  <TYPE>  (6) 
C-term cap

>  <CLASS>  (6) 
c_cap

>  <ANALOG>  (6) 
X

>  <MOL_WT>  (6) 
47.057

>  <LOGP>  (6) 
-1.1051000000000002

>  <TPSA>  (6) 
46.25

>  <POPULARITY>  (6) 
2.0

>  <PROTECTED>  (6) 
FALSE

>  <SMILES>  (6) 
NCO

>  <INCHIKEY>  (6) 
XMYQHJDBLRZMLW-UHFFFAOYSA-N

$$$$
-Me
     RDKit          2D

  1  0  0  0  0  0  0  0  0  0999 V2000
    0.0000    0.0000    0.0000 C   0  0  0  0  0  0  0  0  0  0  0  0
M  END
>  <rName>  (7) 
-Me

>  <PQ_SYMBOL>  (7) 
-Me

>  <FULL_NAME>  (7) 
C-Terminal methyl

>  <IUPAC_CONDENSED>  (7) 
Me

>  <IUPAC>  (7) 
methane

>  <TYPE>  (7) 
C-term cap

>  <CLASS>  (7) 
c_cap

>  <ANALOG>  (7) 
X

>  <MOL_WT>  (7) 
16.043

>  <LOGP>  (7) 
0.6361

>  <TPSA>  (7) 
0.0

>  <POPULARITY>  (7) 
2.0

>  <PROTECTED>  (7) 
FALSE

>  <SMILES>  (7) 
C

>  <INCHIKEY>  (7) 
VNWKTOKETHGBQD-UHFFFAOYSA-N

$$$$
-OBn
     RDKit          2D

  8  8  0  0  0  0  0  0  0  0999 V2000
   -3.0851    0.4695    0.0000 O   0  0  0  0  0  0  0  0  0  0  0  0
   -2.0677   -0.6327    0.0000 C   0  0  0  0  0  0  0  0  0  0  0  0
   -0.6045   -0.3028    0.0000 C   0  0  0  0  0  0  0  0  0  0  0  0
   -0.1586    1.1294    0.0000 C   0  0  0  0  0  0  0  0  0  0  0  0
    1.3047    1.4594    0.0000 C   0  0  0  0  0  0  0  0  0  0  0  0
    2.3221    0.3572    0.0000 C   0  0  0  0  0  0  0  0  0  0  0  0
    1.8762   -1.0750    0.0000 C   0  0  0  0  0  0  0  0  0  0  0  0
    0.4129   -1.4050    0.0000 C   0  0  0  0  0  0  0  0  0  0  0  0
  1  2  1  0
  2  3  1  0
  3  4  2  0
  4  5  1  0
  5  6  2  0
  6  7  1  0
  7  8  2  0
  8  3  1  0
M  END
>  <rName>  (8) 
-OBn

>  <PQ_SYMBOL>  (8) 
-OBn

>  <FULL_NAME>  (8) 
C-Terminal phenylmethanol

>  <IUPAC_CONDENSED>  (8) 
OBn

>  <IUPAC>  (8) 
1-phenylmethanol

>  <TYPE>  (8) 
C-term cap

>  <CLASS>  (8) 
c_cap

>  <ANALOG>  (8) 
X

>  <MOL_WT>  (8) 
108.13999999999997

>  <LOGP>  (8) 
1.1789

>  <TPSA>  (8) 
20.23

>  <POPULARITY>  (8) 
14.8

>  <PROTECTED>  (8) 
FALSE

>  <SMILES>  (8) 
OCc1ccccc1

>  <INCHIKEY>  (8) 
WVDDGKGOMKODPV-UHFFFAOYSA-N

$$$$
-OMe
     RDKit          2D

  2  1  0  0  0  0  0  0  0  0999 V2000
   -0.7500    0.0000    0.0000 C   0  0  0  0  0  0  0  0  0  0  0  0
    0.7500   -0.0000    0.0000 O   0  0  0  0  0  0  0  0  0  0  0  0
  1  2  1  0
M  END
>  <rName>  (9) 
-OMe

>  <PQ_SYMBOL>  (9) 
-OMe

>  <FULL_NAME>  (9) 
C-Terminal methanol

>  <IUPAC_CONDENSED>  (9) 
OMe

>  <IUPAC>  (9) 
methanol

>  <TYPE>  (9) 
C-term cap

>  <CLASS>  (9) 
c_cap

>  <ANALOG>  (9) 
X

>  <MOL_WT>  (9) 
32.042

>  <LOGP>  (9) 
-0.3915

>  <TPSA>  (9) 
20.23

>  <POPULARITY>  (9) 
2.0

>  <PROTECTED>  (9) 
FALSE

>  <SMILES>  (9) 
CO

>  <INCHIKEY>  (9) 
OKKJLVBELUTLKV-UHFFFAOYSA-N

$$$$
-Phe_2OH
     RDKit          2D

 13 13  0  0  0  0  0  0  0  0999 V2000
   -1.4864    1.8099    0.0000 N   0  0  0  0  0  0  0  0  0  0  0  0
   -1.7669    0.3364    0.0000 C   0  0  0  0  0  0  0  0  0  0  0  0
   -3.1833   -0.1575    0.0000 C   0  0  0  0  0  0  0  0  0  0  0  0
   -3.4638   -1.6310    0.0000 O   0  0  0  0  0  0  0  0  0  0  0  0
   -4.3192    0.8222    0.0000 O   0  0  0  0  0  0  0  0  0  0  0  0
   -0.6311   -0.6433    0.0000 C   0  0  0  0  0  0  0  0  0  0  0  0
    0.7853   -0.1495    0.0000 C   0  0  0  0  0  0  0  0  0  0  0  0
    1.0658    1.3241    0.0000 C   0  0  0  0  0  0  0  0  0  0  0  0
    2.4822    1.8179    0.0000 C   0  0  0  0  0  0  0  0  0  0  0  0
    3.6181    0.8382    0.0000 C   0  0  0  0  0  0  0  0  0  0  0  0
    3.3376   -0.6353    0.0000 C   0  0  0  0  0  0  0  0  0  0  0  0
    1.9212   -1.1292    0.0000 C   0  0  0  0  0  0  0  0  0  0  0  0
    1.6407   -2.6027    0.0000 O   0  0  0  0  0  0  0  0  0  0  0  0
  2  1  1  1
  2  3  1  0
  3  4  2  0
  3  5  1  0
  2  6  1  0
  6  7  1  0
  7  8  2  0
  8  9  1  0
  9 10  2  0
 10 11  1  0
 11 12  2  0
 12 13  1  0
 12  7  1  0
M  END
>  <rName>  (10) 
-Phe_2OH

>  <PQ_SYMBOL>  (10) 
-Phe_2OH

>  <FULL_NAME>  (10) 
(2S)-2-amino-3-(2-hydroxyphenyl)propanoic acid

>  <IUPAC_CONDENSED>  (10) 
-Phe(2-OH)

>  <IUPAC>  (10) 
(2S)-2-amino-3-(2-hydroxyphenyl)propanoic acid

>  <TYPE>  (10) 
C-term cap

>  <CLASS>  (10) 
c_cap

>  <ANALOG>  (10) 
X

>  <MOL_WT>  (10) 
181.191

>  <LOGP>  (10) 
0.3465999999999994

>  <TPSA>  (10) 
83.55000000000001

>  <POPULARITY>  (10) 
8.1

>  <PROTECTED>  (10) 
TRUE

>  <SMILES>  (10) 
N[C@H](C(=O)O)Cc1ccccc1O

>  <INCHIKEY>  (10) 
WRFPVMFCRNYQNR-ZETCQYMHSA-N

$$$$
-Ser-ol
     RDKit          2D

  6  5  0  0  0  0  0  0  0  0999 V2000
    0.0000    1.5000    0.0000 N   0  0  0  0  0  0  0  0  0  0  0  0
    0.0000    0.0000    0.0000 C   0  0  0  0  0  0  0  0  0  0  0  0
   -1.2990   -0.7500    0.0000 C   0  0  0  0  0  0  0  0  0  0  0  0
   -2.5981    0.0000    0.0000 O   0  0  0  0  0  0  0  0  0  0  0  0
    1.2990   -0.7500    0.0000 C   0  0  0  0  0  0  0  0  0  0  0  0
    2.5981   -0.0000    0.0000 O   0  0  0  0  0  0  0  0  0  0  0  0
  1  2  1  0
  2  3  1  0
  3  4  1  0
  2  5  1  0
  5  6  1  0
M  END
>  <rName>  (11) 
-Ser-ol

>  <PQ_SYMBOL>  (11) 
-Ser-ol

>  <FULL_NAME>  (11) 
2-AMINO-1,3-PROPANEDIOL

>  <IUPAC_CONDENSED>  (11) 
-Ser-ol

>  <IUPAC>  (11) 
2-aminopropane-1,3-diol

>  <TYPE>  (11) 
C-term cap

>  <CLASS>  (11) 
c_cap

>  <ANALOG>  (11) 
X

>  <MOL_WT>  (11) 
91.11

>  <LOGP>  (11) 
-1.7017

>  <TPSA>  (11) 
66.48

>  <POPULARITY>  (11) 
20.3

>  <PROTECTED>  (11) 
FALSE

>  <SMILES>  (11) 
NC(CO)CO

>  <INCHIKEY>  (11) 
KJJPLEZQSCZCKE-UHFFFAOYSA-N

$$$$
1-2-aminoethyl-cyclobutane-1-CO2H_33diF
     RDKit          2D

 12 12  0  0  0  0  0  0  0  0999 V2000
    3.6918    1.3753    0.0000 N   0  0  0  0  0  0  0  0  0  0  0  0
    2.5143    0.4460    0.0000 C   0  0  0  0  0  0  0  0  0  0  0  0
    1.1208    1.0011    0.0000 C   0  0  0  0  0  0  0  0  0  0  0  0
   -0.0567    0.0718    0.0000 C   0  0  0  0  0  0  0  0  0  0  0  0
   -1.2342   -0.8574    0.0000 C   0  0  0  0  0  0  0  0  0  0  0  0
   -2.1634    0.3200    0.0000 C   0  0  0  0  0  0  0  0  0  0  0  0
   -3.3409   -0.6093    0.0000 F   0  0  0  0  0  0  0  0  0  0  0  0
   -3.0927    1.4975    0.0000 F   0  0  0  0  0  0  0  0  0  0  0  0
   -0.9860    1.2493    0.0000 C   0  0  0  0  0  0  0  0  0  0  0  0
    0.8726   -1.1056    0.0000 C   0  0  0  0  0  0  0  0  0  0  0  0
    2.3570   -0.8896    0.0000 O   0  0  0  0  0  0  0  0  0  0  0  0
    0.3175   -2.4992    0.0000 O   0  0  0  0  0  0  0  0  0  0  0  0
  1  2  1  0
  2  3  1  0
  3  4  1  0
  4  5  1  0
  5  6  1  0
  6  7  1  0
  6  8  1  0
  6  9  1  0
  4 10  1  0
 10 11  2  0
 10 12  1  0
  9  4  1  0
M  END
>  <rName>  (12) 
1-2-aminoethyl-cyclobutane-1-CO2H_33diF

>  <PQ_SYMBOL>  (12) 
1-2-aminoethyl-cyclobutane-1-CO2H_33diF

>  <FULL_NAME>  (12) 
NCCC1(C(=O)O)CC(F)(F)C1

>  <IUPAC_CONDENSED>  (12) 
1-(2-aminoethyl)-cyclobutane-1-CO2H(3,3-diF)

>  <IUPAC>  (12) 
1-(2-aminoethyl)-3,3-difluorocyclobutanecarboxylic acid

>  <TYPE>  (12) 
Backbone

>  <CLASS>  (12) 
gamma

>  <ANALOG>  (12) 
X

>  <MOL_WT>  (12) 
179.166

>  <LOGP>  (12) 
0.8353000000000004

>  <TPSA>  (12) 
63.32000000000001

>  <POPULARITY>  (12) 
3.3

>  <PROTECTED>  (12) 
TRUE

>  <SMILES>  (12) 
NCCC1(CC(F)(F)C1)C(=O)O

>  <INCHIKEY>  (12) 
AIIQHIIXEOKJMG-UHFFFAOYSA-N

$$$$
1-2-aminoethyl-cyclopentane-1-CO2H
     RDKit          2D

 11 11  0  0  0  0  0  0  0  0999 V2000
    3.3912    1.0833    0.0000 N   0  0  0  0  0  0  0  0  0  0  0  0
    2.1261    0.2773    0.0000 C   0  0  0  0  0  0  0  0  0  0  0  0
    0.7956    0.9700    0.0000 C   0  0  0  0  0  0  0  0  0  0  0  0
   -0.4695    0.1640    0.0000 C   0  0  0  0  0  0  0  0  0  0  0  0
   -1.1388    1.5064    0.0000 C   0  0  0  0  0  0  0  0  0  0  0  0
   -2.6223    1.2847    0.0000 C   0  0  0  0  0  0  0  0  0  0  0  0
   -2.8699   -0.1947    0.0000 C   0  0  0  0  0  0  0  0  0  0  0  0
   -1.5393   -0.8874    0.0000 C   0  0  0  0  0  0  0  0  0  0  0  0
    0.4643   -1.0099    0.0000 C   0  0  0  0  0  0  0  0  0  0  0  0
    1.9478   -0.7882    0.0000 O   0  0  0  0  0  0  0  0  0  0  0  0
   -0.0854   -2.4055    0.0000 O   0  0  0  0  0  0  0  0  0  0  0  0
  1  2  1  0
  2  3  1  0
  3  4  1  0
  4  5  1  0
  5  6  1  0
  6  7  1  0
  7  8  1  0
  4  9  1  0
  9 10  2  0
  9 11  1  0
  8  4  1  0
M  END
>  <rName>  (13) 
1-2-aminoethyl-cyclopentane-1-CO2H

>  <PQ_SYMBOL>  (13) 
1-2-aminoethyl-cyclopentane-1-CO2H

>  <FULL_NAME>  (13) 
1-(2-Aminoethyl)cyclopentane-1-carboxylic acid

>  <IUPAC_CONDENSED>  (13) 
1-(2-aminoethyl)-cyclopentane-1-CO2H

>  <IUPAC>  (13) 
1-(2-aminoethyl)cyclopentanecarboxylic acid

>  <TYPE>  (13) 
Backbone

>  <CLASS>  (13) 
gamma

>  <ANALOG>  (13) 
X

>  <MOL_WT>  (13) 
157.213

>  <LOGP>  (13) 
0.9802

>  <TPSA>  (13) 
63.32000000000001

>  <POPULARITY>  (13) 
7.0

>  <PROTECTED>  (13) 
TRUE

>  <SMILES>  (13) 
NCCC1(CCCC1)C(=O)O

>  <INCHIKEY>  (13) 
MANGVQVYYPCEMF-UHFFFAOYSA-N

$$$$
1-2-aminoethyl-cyclopropane-1-CO2H
     RDKit          2D

  9  9  0  0  0  0  0  0  0  0999 V2000
    3.2436    0.4061    0.0000 N   0  0  0  0  0  0  0  0  0  0  0  0
    1.8112   -0.0391    0.0000 C   0  0  0  0  0  0  0  0  0  0  0  0
    0.7094    0.9788    0.0000 C   0  0  0  0  0  0  0  0  0  0  0  0
   -0.7230    0.5335    0.0000 C   0  0  0  0  0  0  0  0  0  0  0  0
   -1.4102    1.8669    0.0000 C   0  0  0  0  0  0  0  0  0  0  0  0
   -2.2213    0.6051    0.0000 C   0  0  0  0  0  0  0  0  0  0  0  0
   -0.5332   -0.9544    0.0000 C   0  0  0  0  0  0  0  0  0  0  0  0
    0.8503   -1.5341    0.0000 O   0  0  0  0  0  0  0  0  0  0  0  0
   -1.7270   -1.8627    0.0000 O   0  0  0  0  0  0  0  0  0  0  0  0
  1  2  1  0
  2  3  1  0
  3  4  1  0
  4  5  1  0
  5  6  1  0
  4  7  1  0
  7  8  2  0
  7  9  1  0
  6  4  1  0
M  END
>  <rName>  (14) 
1-2-aminoethyl-cyclopropane-1-CO2H

>  <PQ_SYMBOL>  (14) 
1-2-aminoethyl-cyclopropane-1-CO2H

>  <FULL_NAME>  (14) 
1-(2-Aminoethyl)cyclopropanecarboxylic acid

>  <IUPAC_CONDENSED>  (14) 
1-(2-aminoethyl)-cyclopropane-1-CO2H

>  <IUPAC>  (14) 
1-(2-aminoethyl)cyclopropanecarboxylic acid

>  <TYPE>  (14) 
Backbone

>  <CLASS>  (14) 
gamma

>  <ANALOG>  (14) 
X

>  <MOL_WT>  (14) 
129.159

>  <LOGP>  (14) 
0.20000000000000012

>  <TPSA>  (14) 
63.32000000000001

>  <POPULARITY>  (14) 
6.5

>  <PROTECTED>  (14) 
TRUE

>  <SMILES>  (14) 
NCCC1(CC1)C(=O)O

>  <INCHIKEY>  (14) 
BFKGCGPIFIWAKG-UHFFFAOYSA-N

$$$$
1-2OMe-Phcyclopropylamine
     RDKit          2D

 12 13  0  0  0  0  0  0  0  0999 V2000
   -2.0020   -1.9740    0.0000 N   0  0  0  0  0  0  0  0  0  0  0  0
   -1.6760   -0.5099    0.0000 C   0  0  0  0  0  0  0  0  0  0  0  0
   -3.0613    0.0654    0.0000 C   0  0  0  0  0  0  0  0  0  0  0  0
   -1.8704    0.9775    0.0000 C   0  0  0  0  0  0  0  0  0  0  0  0
   -0.1775   -0.5767    0.0000 C   0  0  0  0  0  0  0  0  0  0  0  0
    0.5139   -1.9078    0.0000 C   0  0  0  0  0  0  0  0  0  0  0  0
    2.0124   -1.9746    0.0000 C   0  0  0  0  0  0  0  0  0  0  0  0
    2.8195   -0.7103    0.0000 C   0  0  0  0  0  0  0  0  0  0  0  0
    2.1281    0.6209    0.0000 C   0  0  0  0  0  0  0  0  0  0  0  0
    0.6296    0.6877    0.0000 C   0  0  0  0  0  0  0  0  0  0  0  0
   -0.0618    2.0188    0.0000 O   0  0  0  0  0  0  0  0  0  0  0  0
    0.7453    3.2832    0.0000 C   0  0  0  0  0  0  0  0  0  0  0  0
  1  2  1  0
  2  3  1  0
  3  4  1  0
  2  5  1  0
  5  6  2  0
  6  7  1  0
  7  8  2  0
  8  9  1  0
  9 10  2  0
 10 11  1  0
 11 12  1  0
 10  5  1  0
  4  2  1  0
M  END
>  <rName>  (15) 
1-2OMe-Phcyclopropylamine

>  <PQ_SYMBOL>  (15) 
1-2OMe-Phcyclopropylamine

>  <FULL_NAME>  (15) 
1-(2-Methoxyphenyl)cyclopropanamine

>  <IUPAC_CONDENSED>  (15) 
1-(2OMe-Ph)cyclopropylamine

>  <IUPAC>  (15) 
1-(2-methoxyphenyl)cyclopropanamine

>  <TYPE>  (15) 
C-term cap

>  <CLASS>  (15) 
c_cap

>  <ANALOG>  (15) 
X

>  <MOL_WT>  (15) 
163.21999999999997

>  <LOGP>  (15) 
1.643

>  <TPSA>  (15) 
35.25

>  <POPULARITY>  (15) 
5.9

>  <PROTECTED>  (15) 
TRUE

>  <SMILES>  (15) 
NC2(CC2)c1ccccc1OC

>  <INCHIKEY>  (15) 
OLNNGMGXTFSLEW-UHFFFAOYSA-N

$$$$
1-amino-3-MeS-propylphosphinicacid
     RDKit          2D

  9  8  0  0  0  0  0  0  0  0999 V2000
   -2.2216   -1.7821    0.0000 N   0  0  0  0  0  0  0  0  0  0  0  0
   -1.1527   -0.7297    0.0000 C   0  0  0  0  0  0  0  0  0  0  0  0
   -1.5296    0.7222    0.0000 P   0  0  0  0  0  5  0  0  0  0  0  0
   -2.9754    1.1217    0.0000 O   0  0  0  0  0  0  0  0  0  0  0  0
   -0.4607    1.7745    0.0000 O   0  0  0  0  0  0  0  0  0  0  0  0
    0.2932   -1.1292    0.0000 C   0  0  0  0  0  0  0  0  0  0  0  0
    1.3621   -0.0769    0.0000 C   0  0  0  0  0  0  0  0  0  0  0  0
    2.8079   -0.4764    0.0000 S   0  0  0  0  0  0  0  0  0  0  0  0
    3.8768    0.5760    0.0000 C   0  0  0  0  0  0  0  0  0  0  0  0
  2  1  1  6
  2  3  1  0
  3  4  2  0
  3  5  1  1
  2  6  1  0
  6  7  1  0
  7  8  1  0
  8  9  1  0
M  END
>  <rName>  (16) 
1-amino-3-MeS-propylphosphinicacid

>  <PQ_SYMBOL>  (16) 
1-amino-3-MeS-propylphosphinicacid

>  <FULL_NAME>  (16) 
(1-AMINO-3-METHYLSULFANYL-PROPYL)-PHOSPHINIC ACID

>  <IUPAC_CONDENSED>  (16) 
1-amino-3-MeS-propylphosphinic acid

>  <IUPAC>  (16) 
[(1R)-1-amino-3-methylsulfanyl-propyl]phosphinic acid

>  <TYPE>  (16) 
C-term cap

>  <CLASS>  (16) 
c_cap

>  <ANALOG>  (16) 
X

>  <MOL_WT>  (16) 
169.18599999999998

>  <LOGP>  (16) 
0.49129999999999996

>  <TPSA>  (16) 
63.32000000000001

>  <POPULARITY>  (16) 
6.1

>  <PROTECTED>  (16) 
FALSE

>  <SMILES>  (16) 
N[C@H]([P@@H](=O)O)CCSC

>  <INCHIKEY>  (16) 
CZRBNMUARBZMHQ-SCSAIBSYSA-N

$$$$
1-amino-3-MeS-propylphosphonicacid
     RDKit          2D

 10  9  0  0  0  0  0  0  0  0999 V2000
   -2.0131   -1.9145    0.0000 N   0  0  0  0  0  0  0  0  0  0  0  0
   -0.9756   -0.8310    0.0000 C   0  0  0  0  0  0  0  0  0  0  0  0
   -1.3952    0.6091    0.0000 P   0  0  0  0  0  0  0  0  0  0  0  0
   -1.8147    2.0492    0.0000 O   0  0  0  0  0  0  0  0  0  0  0  0
   -2.8353    0.1895    0.0000 O   0  0  0  0  0  0  0  0  0  0  0  0
    0.0450    1.0286    0.0000 O   0  0  0  0  0  0  0  0  0  0  0  0
    0.4813   -1.1878    0.0000 C   0  0  0  0  0  0  0  0  0  0  0  0
    1.5188   -0.1044    0.0000 C   0  0  0  0  0  0  0  0  0  0  0  0
    2.9757   -0.4611    0.0000 S   0  0  0  0  0  0  0  0  0  0  0  0
    4.0131    0.6223    0.0000 C   0  0  0  0  0  0  0  0  0  0  0  0
  2  1  1  6
  2  3  1  0
  3  4  2  0
  3  5  1  0
  3  6  1  0
  2  7  1  0
  7  8  1  0
  8  9  1  0
  9 10  1  0
M  END
>  <rName>  (17) 
1-amino-3-MeS-propylphosphonicacid

>  <PQ_SYMBOL>  (17) 
1-amino-3-MeS-propylphosphonicacid

>  <FULL_NAME>  (17) 
(1-AMINO-3-METHYLSULFANYL-PROPYL)-PHOSPHONIC ACID

>  <IUPAC_CONDENSED>  (17) 
1-amino-3-MeS-propylphosphonic acid

>  <IUPAC>  (17) 
(1R)-1-(dihydroxyphosphoryl)-3-(methylsulfanyl)propan-1-amine

>  <TYPE>  (17) 
C-term cap

>  <CLASS>  (17) 
c_cap

>  <ANALOG>  (17) 
X

>  <MOL_WT>  (17) 
185.18499999999997

>  <LOGP>  (17) 
0.20200000000000007

>  <TPSA>  (17) 
83.55000000000001

>  <POPULARITY>  (17) 
6.0

>  <PROTECTED>  (17) 
FALSE

>  <SMILES>  (17) 
N[C@H](P(=O)(O)O)CCSC

>  <INCHIKEY>  (17) 
XKCSXHUCPYVQIW-SCSAIBSYSA-N

$$$$
1-amino-cyclobutane-1-CO2H_3CF3_3OH
     RDKit          2D

 13 13  0  0  0  0  0  0  0  0999 V2000
    1.7821   -1.7325    0.0000 N   0  0  0  0  0  0  0  0  0  0  0  0
    1.1718   -0.3623    0.0000 C   0  0  0  0  0  0  0  0  0  0  0  0
   -0.1984   -0.9725    0.0000 C   0  0  0  0  0  0  0  0  0  0  0  0
   -0.8087    0.3977    0.0000 C   0  0  0  0  0  0  0  0  0  0  0  0
   -1.4189    1.7680    0.0000 O   0  0  0  0  0  0  0  0  0  0  0  0
    0.5616    1.0080    0.0000 C   0  0  0  0  0  0  0  0  0  0  0  0
   -2.1789   -0.2125    0.0000 C   0  0  0  0  0  0  0  0  0  0  0  0
   -3.5492   -0.8228    0.0000 F   0  0  0  0  0  0  0  0  0  0  0  0
   -2.7892    1.1577    0.0000 F   0  0  0  0  0  0  0  0  0  0  0  0
   -1.5687   -1.5828    0.0000 F   0  0  0  0  0  0  0  0  0  0  0  0
    2.5421    0.2480    0.0000 C   0  0  0  0  0  0  0  0  0  0  0  0
    2.6987    1.7398    0.0000 O   0  0  0  0  0  0  0  0  0  0  0  0
    3.7557   -0.6336    0.0000 O   0  0  0  0  0  0  0  0  0  0  0  0
  1  2  1  0
  2  3  1  0
  3  4  1  0
  4  5  1  0
  4  6  1  0
  4  7  1  0
  7  8  1  0
  7  9  1  0
  7 10  1  0
  2 11  1  0
 11 12  2  0
 11 13  1  0
  6  2  1  0
M  END
>  <rName>  (18) 
1-amino-cyclobutane-1-CO2H_3CF3_3OH

>  <PQ_SYMBOL>  (18) 
1-amino-cyclobutane-1-CO2H_3CF3_3OH

>  <FULL_NAME>  (18) 
1-Amino-3-hydroxy-3-(trifluoromethyl)cyclobutane-1-carboxylic acid

>  <IUPAC_CONDENSED>  (18) 
1-amino-cyclobutane-1-CO2H(3-CF3,3-OH)

>  <IUPAC>  (18) 
1-amino-3-hydroxy-3-(trifluoromethyl)cyclobutanecarboxylic acid

>  <TYPE>  (18) 
Backbone

>  <CLASS>  (18) 
alpha

>  <ANALOG>  (18) 
Ser

>  <MOL_WT>  (18) 
199.128

>  <LOGP>  (18) 
-0.14430000000000037

>  <TPSA>  (18) 
83.55

>  <POPULARITY>  (18) 
3.2

>  <PROTECTED>  (18) 
TRUE

>  <SMILES>  (18) 
NC1(CC(O)(C1)C(F)(F)F)C(=O)O

>  <INCHIKEY>  (18) 
MULVSPGZPKTWQT-UHFFFAOYSA-N

$$$$
1-amino-cyclobutane-1-CO2H_3CF3_3OH_1s_3s
     RDKit          2D

 13 13  0  0  0  0  0  0  0  0999 V2000
    1.7821   -1.7325    0.0000 N   0  0  0  0  0  0  0  0  0  0  0  0
    1.1718   -0.3623    0.0000 C   0  0  0  0  0  0  0  0  0  0  0  0
   -0.1984   -0.9725    0.0000 C   0  0  0  0  0  0  0  0  0  0  0  0
   -0.8087    0.3977    0.0000 C   0  0  0  0  0  0  0  0  0  0  0  0
   -1.4189    1.7680    0.0000 O   0  0  0  0  0  0  0  0  0  0  0  0
    0.5616    1.0080    0.0000 C   0  0  0  0  0  0  0  0  0  0  0  0
   -2.1789   -0.2125    0.0000 C   0  0  0  0  0  0  0  0  0  0  0  0
   -3.5492   -0.8228    0.0000 F   0  0  0  0  0  0  0  0  0  0  0  0
   -2.7892    1.1577    0.0000 F   0  0  0  0  0  0  0  0  0  0  0  0
   -1.5687   -1.5828    0.0000 F   0  0  0  0  0  0  0  0  0  0  0  0
    2.5421    0.2480    0.0000 C   0  0  0  0  0  0  0  0  0  0  0  0
    2.6987    1.7398    0.0000 O   0  0  0  0  0  0  0  0  0  0  0  0
    3.7557   -0.6336    0.0000 O   0  0  0  0  0  0  0  0  0  0  0  0
  2  1  1  1
  2  3  1  0
  3  4  1  0
  4  5  1  1
  4  6  1  0
  4  7  1  0
  7  8  1  0
  7  9  1  0
  7 10  1  0
  2 11  1  0
 11 12  2  0
 11 13  1  0
  6  2  1  0
M  END
>  <rName>  (19) 
1-amino-cyclobutane-1-CO2H_3CF3_3OH_1s_3s

>  <PQ_SYMBOL>  (19) 
1-amino-cyclobutane-1-CO2H_3CF3_3OH_1s_3s

>  <FULL_NAME>  (19) 
(1s,3s)-1-Amino-3-hydroxy-3-(trifluoromethyl)cyclobutane-1-carboxylic acid

>  <IUPAC_CONDENSED>  (19) 
1-amino-cyclobutane-1-CO2H(3-CF3,3-OH,1s,3s)

>  <IUPAC>  (19) 
1-amino-3-hydroxy-3-(trifluoromethyl)cyclobutane-1-carboxylic acid

>  <TYPE>  (19) 
Backbone

>  <CLASS>  (19) 
alpha

>  <ANALOG>  (19) 
Ser

>  <MOL_WT>  (19) 
199.128

>  <LOGP>  (19) 
-0.14430000000000037

>  <TPSA>  (19) 
83.55

>  <POPULARITY>  (19) 
2.8

>  <PROTECTED>  (19) 
TRUE

>  <SMILES>  (19) 
N[C@]1(C[C@@](O)(C1)C(F)(F)F)C(=O)O

>  <INCHIKEY>  (19) 
MULVSPGZPKTWQT-SYDPRGILSA-N

$$$$
1-amino-cyclohexane-1-CO2H_44diF
     RDKit          2D

 12 12  0  0  0  0  0  0  0  0999 V2000
    1.8973   -1.5208    0.0000 N   0  0  0  0  0  0  0  0  0  0  0  0
    0.9132   -0.3887    0.0000 C   0  0  0  0  0  0  0  0  0  0  0  0
   -0.0308   -1.5544    0.0000 C   0  0  0  0  0  0  0  0  0  0  0  0
   -1.5123   -1.3197    0.0000 C   0  0  0  0  0  0  0  0  0  0  0  0
   -2.0499    0.0806    0.0000 C   0  0  0  0  0  0  0  0  0  0  0  0
   -3.3356   -0.6919    0.0000 F   0  0  0  0  0  0  0  0  0  0  0  0
   -3.0340    1.2127    0.0000 F   0  0  0  0  0  0  0  0  0  0  0  0
   -1.1059    1.2463    0.0000 C   0  0  0  0  0  0  0  0  0  0  0  0
    0.3756    1.0117    0.0000 C   0  0  0  0  0  0  0  0  0  0  0  0
    2.1989    0.3839    0.0000 C   0  0  0  0  0  0  0  0  0  0  0  0
    2.1728    1.8836    0.0000 O   0  0  0  0  0  0  0  0  0  0  0  0
    3.5109   -0.3434    0.0000 O   0  0  0  0  0  0  0  0  0  0  0  0
  1  2  1  0
  2  3  1  0
  3  4  1  0
  4  5  1  0
  5  6  1  0
  5  7  1  0
  5  8  1  0
  8  9  1  0
  2 10  1  0
 10 11  2  0
 10 12  1  0
  9  2  1  0
M  END
>  <rName>  (20) 
1-amino-cyclohexane-1-CO2H_44diF

>  <PQ_SYMBOL>  (20) 
1-amino-cyclohexane-1-CO2H_44diF

>  <FULL_NAME>  (20) 
1-Amino-4,4-difluorocyclohexane-1-carboxylic acid

>  <IUPAC_CONDENSED>  (20) 
1-amino-cyclohexane-1-CO2H(4,4-diF)

>  <IUPAC>  (20) 
1-amino-4,4-difluorocyclohexanecarboxylic acid

>  <TYPE>  (20) 
Backbone

>  <CLASS>  (20) 
alpha

>  <ANALOG>  (20) 
X

>  <MOL_WT>  (20) 
179.166

>  <LOGP>  (20) 
0.9778

>  <TPSA>  (20) 
63.32000000000001

>  <POPULARITY>  (20) 
6.8

>  <PROTECTED>  (20) 
TRUE

>  <SMILES>  (20) 
NC1(CCC(F)(F)CC1)C(=O)O

>  <INCHIKEY>  (20) 
QKHFDEBCLOAUQX-UHFFFAOYSA-N

$$$$
1-amino-cyclohexane-1-CO2H_44diMe
     RDKit          2D

 12 12  0  0  0  0  0  0  0  0999 V2000
    1.8973   -1.5208    0.0000 N   0  0  0  0  0  0  0  0  0  0  0  0
    0.9132   -0.3887    0.0000 C   0  0  0  0  0  0  0  0  0  0  0  0
   -0.0308   -1.5544    0.0000 C   0  0  0  0  0  0  0  0  0  0  0  0
   -1.5123   -1.3197    0.0000 C   0  0  0  0  0  0  0  0  0  0  0  0
   -2.0499    0.0806    0.0000 C   0  0  0  0  0  0  0  0  0  0  0  0
   -3.3356   -0.6919    0.0000 C   0  0  0  0  0  0  0  0  0  0  0  0
   -3.0340    1.2127    0.0000 C   0  0  0  0  0  0  0  0  0  0  0  0
   -1.1059    1.2463    0.0000 C   0  0  0  0  0  0  0  0  0  0  0  0
    0.3756    1.0117    0.0000 C   0  0  0  0  0  0  0  0  0  0  0  0
    2.1989    0.3839    0.0000 C   0  0  0  0  0  0  0  0  0  0  0  0
    2.1728    1.8836    0.0000 O   0  0  0  0  0  0  0  0  0  0  0  0
    3.5109   -0.3434    0.0000 O   0  0  0  0  0  0  0  0  0  0  0  0
  1  2  1  0
  2  3  1  0
  3  4  1  0
  4  5  1  0
  5  6  1  0
  5  7  1  0
  5  8  1  0
  8  9  1  0
  2 10  1  0
 10 11  2  0
 10 12  1  0
  9  2  1  0
M  END
>  <rName>  (21) 
1-amino-cyclohexane-1-CO2H_44diMe

>  <PQ_SYMBOL>  (21) 
1-amino-cyclohexane-1-CO2H_44diMe

>  <FULL_NAME>  (21) 
1-Amino-4,4-dimethylcyclohexane-1-carboxylic acid

>  <IUPAC_CONDENSED>  (21) 
1-amino-cyclohexane-1-CO2H(4,4-diMe)

>  <IUPAC>  (21) 
1-amino-4,4-dimethylcyclohexanecarboxylic acid

>  <TYPE>  (21) 
Backbone

>  <CLASS>  (21) 
alpha

>  <ANALOG>  (21) 
X

>  <MOL_WT>  (21) 
171.24

>  <LOGP>  (21) 
1.3687

>  <TPSA>  (21) 
63.32000000000001

>  <POPULARITY>  (21) 
5.1

>  <PROTECTED>  (21) 
TRUE

>  <SMILES>  (21) 
NC1(CCC(C)(C)CC1)C(=O)O

>  <INCHIKEY>  (21) 
IEFQYFFTBQOEBR-UHFFFAOYSA-N

$$$$
1-amino-pentylphosphonicacid
     RDKit          2D

 10  9  0  0  0  0  0  0  0  0999 V2000
   -2.0131   -1.9145    0.0000 N   0  0  0  0  0  0  0  0  0  0  0  0
   -0.9756   -0.8310    0.0000 C   0  0  0  0  0  0  0  0  0  0  0  0
   -1.3952    0.6091    0.0000 P   0  0  0  0  0  0  0  0  0  0  0  0
   -1.8147    2.0492    0.0000 O   0  0  0  0  0  0  0  0  0  0  0  0
   -2.8353    0.1895    0.0000 O   0  0  0  0  0  0  0  0  0  0  0  0
    0.0450    1.0286    0.0000 O   0  0  0  0  0  0  0  0  0  0  0  0
    0.4813   -1.1878    0.0000 C   0  0  0  0  0  0  0  0  0  0  0  0
    1.5188   -0.1044    0.0000 C   0  0  0  0  0  0  0  0  0  0  0  0
    2.9757   -0.4611    0.0000 C   0  0  0  0  0  0  0  0  0  0  0  0
    4.0131    0.6223    0.0000 C   0  0  0  0  0  0  0  0  0  0  0  0
  2  1  1  6
  2  3  1  0
  3  4  2  0
  3  5  1  0
  3  6  1  0
  2  7  1  0
  7  8  1  0
  8  9  1  0
  9 10  1  0
M  END
>  <rName>  (22) 
1-amino-pentylphosphonicacid

>  <PQ_SYMBOL>  (22) 
1-amino-pentylphosphonicacid

>  <FULL_NAME>  (22) 
(1-AMINO-PENTYL)-PHOSPHONIC ACID

>  <IUPAC_CONDENSED>  (22) 
1-amino-pentylphosphonic acid

>  <IUPAC>  (22) 
(1R)-1-(dihydroxyphosphoryl)pentan-1-amine

>  <TYPE>  (22) 
C-term cap

>  <CLASS>  (22) 
c_cap

>  <ANALOG>  (22) 
X

>  <MOL_WT>  (22) 
167.14499999999995

>  <LOGP>  (22) 
0.6391

>  <TPSA>  (22) 
83.55000000000001

>  <POPULARITY>  (22) 
10.8

>  <PROTECTED>  (22) 
FALSE

>  <SMILES>  (22) 
N[C@H](P(=O)(O)O)CCCC

>  <INCHIKEY>  (22) 
NXTPDFMZKSLVRK-RXMQYKEDSA-N

$$$$
1-amino-spiro25octane-6-CO2H
     RDKit          2D

 12 13  0  0  0  0  0  0  0  0999 V2000
   -3.8729   -1.3918    0.0000 N   0  0  0  0  0  0  0  0  0  0  0  0
   -2.9621   -0.2000    0.0000 C   0  0  0  0  0  0  0  0  0  0  0  0
   -1.5774    0.3767    0.0000 C   0  0  0  0  0  0  0  0  0  0  0  0
   -2.7692    1.2876    0.0000 C   0  0  0  0  0  0  0  0  0  0  0  0
   -1.0007   -1.0080    0.0000 C   0  0  0  0  0  0  0  0  0  0  0  0
    0.4869   -1.2009    0.0000 C   0  0  0  0  0  0  0  0  0  0  0  0
    1.3977   -0.0091    0.0000 C   0  0  0  0  0  0  0  0  0  0  0  0
    0.8210    1.3756    0.0000 C   0  0  0  0  0  0  0  0  0  0  0  0
   -0.6666    1.5685    0.0000 C   0  0  0  0  0  0  0  0  0  0  0  0
    2.8852   -0.2020    0.0000 C   0  0  0  0  0  0  0  0  0  0  0  0
    3.7961    0.9898    0.0000 O   0  0  0  0  0  0  0  0  0  0  0  0
    3.4620   -1.5867    0.0000 O   0  0  0  0  0  0  0  0  0  0  0  0
  1  2  1  0
  2  3  1  0
  3  4  1  0
  3  5  1  0
  5  6  1  0
  6  7  1  0
  7  8  1  0
  8  9  1  0
  7 10  1  0
 10 11  2  0
 10 12  1  0
  9  3  1  0
  4  2  1  0
M  END
>  <rName>  (23) 
1-amino-spiro25octane-6-CO2H

>  <PQ_SYMBOL>  (23) 
1-amino-spiro25octane-6-CO2H

>  <FULL_NAME>  (23) 
1-Aminospiro[2.5]octane-6-carboxylic acid

>  <IUPAC_CONDENSED>  (23) 
1-amino-spiro[2.5]octane-6-CO2H

>  <IUPAC>  (23) 
1-aminospiro[2.5]octane-6-carboxylic acid

>  <TYPE>  (23) 
Backbone

>  <CLASS>  (23) 
epsilon

>  <ANALOG>  (23) 
Val

>  <MOL_WT>  (23) 
169.224

>  <LOGP>  (23) 
0.9785999999999997

>  <TPSA>  (23) 
63.32000000000001

>  <POPULARITY>  (23) 
2.8

>  <PROTECTED>  (23) 
TRUE

>  <SMILES>  (23) 
NC2C1(C2)CCC(CC1)C(=O)O

>  <INCHIKEY>  (23) 
KSJRWIIMZXJGTN-UHFFFAOYSA-N

$$$$
1-amino-spiro33heptane-1-CO2H_3OH_1R_3S
     RDKit          2D

 12 13  0  0  0  0  0  0  0  0999 V2000
    1.2945   -2.0975    0.0000 N   0  0  0  0  0  0  0  0  0  0  0  0
    0.3519   -0.9306    0.0000 C   0  0  0  0  0  0  0  0  0  0  0  0
   -0.8150   -1.8731    0.0000 C   0  0  0  0  0  0  0  0  0  0  0  0
   -1.7575   -0.7062    0.0000 C   0  0  0  0  0  0  0  0  0  0  0  0
   -3.2491   -0.5476    0.0000 O   0  0  0  0  0  0  0  0  0  0  0  0
   -0.5906    0.2363    0.0000 C   0  0  0  0  0  0  0  0  0  0  0  0
    0.5763    1.1789    0.0000 C   0  0  0  0  0  0  0  0  0  0  0  0
   -0.3663    2.3457    0.0000 C   0  0  0  0  0  0  0  0  0  0  0  0
   -1.5331    1.4032    0.0000 C   0  0  0  0  0  0  0  0  0  0  0  0
    1.5188    0.0120    0.0000 C   0  0  0  0  0  0  0  0  0  0  0  0
    2.9185   -0.5273    0.0000 O   0  0  0  0  0  0  0  0  0  0  0  0
    1.6515    1.5061    0.0000 O   0  0  0  0  0  0  0  0  0  0  0  0
  2  1  1  6
  2  3  1  0
  3  4  1  0
  4  5  1  6
  4  6  1  0
  6  7  1  0
  7  8  1  0
  8  9  1  0
  2 10  1  0
 10 11  2  0
 10 12  1  0
  6  2  1  0
  9  6  1  0
M  END
>  <rName>  (24) 
1-amino-spiro33heptane-1-CO2H_3OH_1R_3S

>  <PQ_SYMBOL>  (24) 
1-amino-spiro33heptane-1-CO2H_3OH_1R_3S

>  <FULL_NAME>  (24) 
(1R,3S)-1-amino-3-hydroxyspiro[3.3]heptane-1-carboxylic acid

>  <IUPAC_CONDENSED>  (24) 
1-amino-spiro[3.3]heptane-1-CO2H(3-OH,1R,3S)

>  <IUPAC>  (24) 
(1R,3S)-1-amino-3-hydroxyspiro[3.3]heptane-1-carboxylic acid

>  <TYPE>  (24) 
Backbone

>  <CLASS>  (24) 
alpha

>  <ANALOG>  (24) 
Ser

>  <MOL_WT>  (24) 
171.196

>  <LOGP>  (24) 
-0.2966000000000009

>  <TPSA>  (24) 
83.55

>  <POPULARITY>  (24) 
2.9

>  <PROTECTED>  (24) 
TRUE

>  <SMILES>  (24) 
N[C@@]1(C[C@H](O)C12(CCC2))C(=O)O

>  <INCHIKEY>  (24) 
FPRKZYXRXCWICT-XNCJUZBTSA-N

$$$$
1-amino-spiro33heptane-1-CO2H_3OH_1S_3S
     RDKit          2D

 12 13  0  0  0  0  0  0  0  0999 V2000
    1.2945   -2.0975    0.0000 N   0  0  0  0  0  0  0  0  0  0  0  0
    0.3519   -0.9306    0.0000 C   0  0  0  0  0  0  0  0  0  0  0  0
   -0.8150   -1.8731    0.0000 C   0  0  0  0  0  0  0  0  0  0  0  0
   -1.7575   -0.7062    0.0000 C   0  0  0  0  0  0  0  0  0  0  0  0
   -3.2491   -0.5476    0.0000 O   0  0  0  0  0  0  0  0  0  0  0  0
   -0.5906    0.2363    0.0000 C   0  0  0  0  0  0  0  0  0  0  0  0
    0.5763    1.1789    0.0000 C   0  0  0  0  0  0  0  0  0  0  0  0
   -0.3663    2.3457    0.0000 C   0  0  0  0  0  0  0  0  0  0  0  0
   -1.5331    1.4032    0.0000 C   0  0  0  0  0  0  0  0  0  0  0  0
    1.5188    0.0120    0.0000 C   0  0  0  0  0  0  0  0  0  0  0  0
    2.9185   -0.5273    0.0000 O   0  0  0  0  0  0  0  0  0  0  0  0
    1.6515    1.5061    0.0000 O   0  0  0  0  0  0  0  0  0  0  0  0
  2  1  1  1
  2  3  1  0
  3  4  1  0
  4  5  1  6
  4  6  1  0
  6  7  1  0
  7  8  1  0
  8  9  1  0
  2 10  1  0
 10 11  2  0
 10 12  1  0
  6  2  1  0
  9  6  1  0
M  END
>  <rName>  (25) 
1-amino-spiro33heptane-1-CO2H_3OH_1S_3S

>  <PQ_SYMBOL>  (25) 
1-amino-spiro33heptane-1-CO2H_3OH_1S_3S

>  <FULL_NAME>  (25) 
N[C@@]1(C(=O)O)C[C@H](O)C12CCC2

>  <IUPAC_CONDENSED>  (25) 
1-amino-spiro[3.3]heptane-1-CO2H(3-OH,1S,3S)

>  <IUPAC>  (25) 
(1S,3S)-1-amino-3-hydroxyspiro[3.3]heptane-1-carboxylic acid

>  <TYPE>  (25) 
Backbone

>  <CLASS>  (25) 
alpha

>  <ANALOG>  (25) 
Ser

>  <MOL_WT>  (25) 
171.196

>  <LOGP>  (25) 
-0.2966000000000009

>  <TPSA>  (25) 
83.55

>  <POPULARITY>  (25) 
2.9

>  <PROTECTED>  (25) 
TRUE

>  <SMILES>  (25) 
N[C@]1(C[C@H](O)C12(CCC2))C(=O)O

>  <INCHIKEY>  (25) 
FPRKZYXRXCWICT-YLWLKBPMSA-N

$$$$
1-aminomethyl-2-oxabicyclo211hexane-4-CO2H
     RDKit          2D

 11 12  0  0  0  0  0  0  0  0999 V2000
   -3.7536   -0.5172    0.0000 N   0  0  0  0  0  0  0  0  0  0  0  0
   -2.2541   -0.5538    0.0000 C   0  0  0  0  0  0  0  0  0  0  0  0
   -1.4517    0.7607    0.0000 C   0  0  0  0  0  0  0  0  0  0  0  0
   -0.2824    1.7630    0.0000 C   0  0  0  0  0  0  0  0  0  0  0  0
    1.0321    0.9606    0.0000 C   0  0  0  0  0  0  0  0  0  0  0  0
    0.6752   -0.5375    0.0000 C   0  0  0  0  0  0  0  0  0  0  0  0
   -0.8598   -0.6611    0.0000 O   0  0  0  0  0  0  0  0  0  0  0  0
   -0.1848    0.5502    0.0000 C   0  0  0  0  0  0  0  0  0  0  0  0
    2.0343   -0.2087    0.0000 C   0  0  0  0  0  0  0  0  0  0  0  0
    1.5361   -1.6235    0.0000 O   0  0  0  0  0  0  0  0  0  0  0  0
    3.5087    0.0673    0.0000 O   0  0  0  0  0  0  0  0  0  0  0  0
  1  2  1  0
  2  3  1  0
  3  4  1  0
  4  5  1  0
  5  6  1  0
  6  7  1  0
  5  8  1  0
  5  9  1  0
  9 10  2  0
  9 11  1  0
  7  3  1  0
  8  3  1  0
M  END
>  <rName>  (26) 
1-aminomethyl-2-oxabicyclo211hexane-4-CO2H

>  <PQ_SYMBOL>  (26) 
1-aminomethyl-2-oxabicyclo211hexane-4-CO2H

>  <FULL_NAME>  (26) 
1-(Aminomethyl)-2-oxabicyclo[2.1.1]hexane-4-carboxylic acid

>  <IUPAC_CONDENSED>  (26) 
1-aminomethyl-2-oxabicyclo[2.1.1]hexane-4-CO2H

>  <IUPAC>  (26) 
1-(aminomethyl)-2-oxabicyclo[2.1.1]hexane-4-carboxylic acid

>  <TYPE>  (26) 
Backbone

>  <CLASS>  (26) 
delta

>  <ANALOG>  (26) 
Ser

>  <MOL_WT>  (26) 
157.16899999999998

>  <LOGP>  (26) 
-0.42110000000000053

>  <TPSA>  (26) 
72.55

>  <POPULARITY>  (26) 
3.2

>  <PROTECTED>  (26) 
TRUE

>  <SMILES>  (26) 
NCC12CC(CO1)(C2)C(=O)O

>  <INCHIKEY>  (26) 
OUDYQRJQTDMYSI-UHFFFAOYSA-N

$$$$
1-aminomethyl-2-oxabicyclo211hexane-4-CO2H_33diMe
     RDKit          2D

 13 14  0  0  0  0  0  0  0  0999 V2000
   -3.9144   -0.4998    0.0000 N   0  0  0  0  0  0  0  0  0  0  0  0
   -2.4146   -0.4769    0.0000 C   0  0  0  0  0  0  0  0  0  0  0  0
   -1.6650    0.8684    0.0000 C   0  0  0  0  0  0  0  0  0  0  0  0
   -0.5365    1.9163    0.0000 C   0  0  0  0  0  0  0  0  0  0  0  0
    0.8088    1.1667    0.0000 C   0  0  0  0  0  0  0  0  0  0  0  0
   -0.3908    0.7083    0.0000 C   0  0  0  0  0  0  0  0  0  0  0  0
    0.5117   -0.3444    0.0000 C   0  0  0  0  0  0  0  0  0  0  0  0
   -1.0172   -0.5288    0.0000 O   0  0  0  0  0  0  0  0  0  0  0  0
    0.5353   -1.8842    0.0000 C   0  0  0  0  0  0  0  0  0  0  0  0
    1.2850   -0.6126    0.0000 C   0  0  0  0  0  0  0  0  0  0  0  0
    1.8567    0.0381    0.0000 C   0  0  0  0  0  0  0  0  0  0  0  0
    1.6220   -0.7237    0.0000 O   0  0  0  0  0  0  0  0  0  0  0  0
    3.3190    0.3724    0.0000 O   0  0  0  0  0  0  0  0  0  0  0  0
  1  2  1  0
  2  3  1  0
  3  4  1  0
  4  5  1  0
  5  6  1  0
  5  7  1  0
  7  8  1  0
  7  9  1  0
  7 10  1  0
  5 11  1  0
 11 12  2  0
 11 13  1  0
  6  3  1  0
  8  3  1  0
M  END
>  <rName>  (27) 
1-aminomethyl-2-oxabicyclo211hexane-4-CO2H_33diMe

>  <PQ_SYMBOL>  (27) 
1-aminomethyl-2-oxabicyclo211hexane-4-CO2H_33diMe

>  <FULL_NAME>  (27) 
1-(Aminomethyl)-3,3-dimethyl-2-oxabicyclo[2.1.1]hexane-4-carboxylic acid

>  <IUPAC_CONDENSED>  (27) 
1-aminomethyl-2-oxabicyclo[2.1.1]hexane-4-CO2H(3,3-diMe)

>  <IUPAC>  (27) 
1-(aminomethyl)-3,3-dimethyl-2-oxabicyclo[2.1.1]hexane-4-carboxylic acid

>  <TYPE>  (27) 
Backbone

>  <CLASS>  (27) 
delta

>  <ANALOG>  (27) 
Ser

>  <MOL_WT>  (27) 
185.22299999999998

>  <LOGP>  (27) 
0.35749999999999943

>  <TPSA>  (27) 
72.55

>  <POPULARITY>  (27) 
3.1

>  <PROTECTED>  (27) 
TRUE

>  <SMILES>  (27) 
NCC21CC(C1)(C(O2)(C)C)C(=O)O

>  <INCHIKEY>  (27) 
NPZYXLUYDPBOQH-UHFFFAOYSA-N

$$$$
1-aminomethyl-2-oxabicyclo211hexane-4-CO2H_3Me
     RDKit          2D

 12 13  0  0  0  0  0  0  0  0999 V2000
   -3.8658   -0.5385    0.0000 N   0  0  0  0  0  0  0  0  0  0  0  0
   -2.3658   -0.5480    0.0000 C   0  0  0  0  0  0  0  0  0  0  0  0
   -1.5873    0.7808    0.0000 C   0  0  0  0  0  0  0  0  0  0  0  0
   -0.4363    1.8040    0.0000 C   0  0  0  0  0  0  0  0  0  0  0  0
    0.8924    1.0255    0.0000 C   0  0  0  0  0  0  0  0  0  0  0  0
   -0.3169    0.5931    0.0000 C   0  0  0  0  0  0  0  0  0  0  0  0
    0.5627   -0.4789    0.0000 C   0  0  0  0  0  0  0  0  0  0  0  0
   -0.9699   -0.6301    0.0000 O   0  0  0  0  0  0  0  0  0  0  0  0
    1.0278   -1.1523    0.0000 C   0  0  0  0  0  0  0  0  0  0  0  0
    1.9157   -0.1255    0.0000 C   0  0  0  0  0  0  0  0  0  0  0  0
    1.7586   -0.9071    0.0000 O   0  0  0  0  0  0  0  0  0  0  0  0
    3.3848    0.1770    0.0000 O   0  0  0  0  0  0  0  0  0  0  0  0
  1  2  1  0
  2  3  1  0
  3  4  1  0
  4  5  1  0
  5  6  1  0
  5  7  1  0
  7  8  1  0
  7  9  1  0
  5 10  1  0
 10 11  2  0
 10 12  1  0
  6  3  1  0
  8  3  1  0
M  END
>  <rName>  (28) 
1-aminomethyl-2-oxabicyclo211hexane-4-CO2H_3Me

>  <PQ_SYMBOL>  (28) 
1-aminomethyl-2-oxabicyclo211hexane-4-CO2H_3Me

>  <FULL_NAME>  (28) 
1-(Aminomethyl)-3-methyl-2-oxabicyclo[2.1.1]hexane-4-carboxylic acid

>  <IUPAC_CONDENSED>  (28) 
1-aminomethyl-2-oxabicyclo[2.1.1]hexane-4-CO2H(3-Me)

>  <IUPAC>  (28) 
1-(aminomethyl)-3-methyl-2-oxabicyclo[2.1.1]hexane-4-carboxylic acid

>  <TYPE>  (28) 
Backbone

>  <CLASS>  (28) 
delta

>  <ANALOG>  (28) 
Ser

>  <MOL_WT>  (28) 
171.19599999999997

>  <LOGP>  (28) 
-0.03260000000000046

>  <TPSA>  (28) 
72.55

>  <POPULARITY>  (28) 
3.1

>  <PROTECTED>  (28) 
TRUE

>  <SMILES>  (28) 
NCC21CC(C1)(C(O2)C)C(=O)O

>  <INCHIKEY>  (28) 
LYSWUMTXDAQWQR-UHFFFAOYSA-N

$$$$
1-aminomethyl-2-oxabicyclo221heptane-4-CO2H
     RDKit          2D

 12 13  0  0  0  0  0  0  0  0999 V2000
   -0.4777   -1.4120    0.0000 N   0  0  0  0  0  0  0  0  0  0  0  0
   -0.7723    0.0588    0.0000 C   0  0  0  0  0  0  0  0  0  0  0  0
   -1.9676    0.8255    0.0000 C   0  0  0  0  0  0  0  0  0  0  0  0
   -0.5024    0.4797    0.0000 C   0  0  0  0  0  0  0  0  0  0  0  0
    0.4230   -0.7078    0.0000 C   0  0  0  0  0  0  0  0  0  0  0  0
    0.4893    0.7106    0.0000 C   0  0  0  0  0  0  0  0  0  0  0  0
   -0.7060    1.4773    0.0000 C   0  0  0  0  0  0  0  0  0  0  0  0
   -0.8386   -1.3596    0.0000 C   0  0  0  0  0  0  0  0  0  0  0  0
   -2.0339   -0.5930    0.0000 O   0  0  0  0  0  0  0  0  0  0  0  0
    1.6845   -0.0560    0.0000 C   0  0  0  0  0  0  0  0  0  0  0  0
    1.7546    1.4423    0.0000 O   0  0  0  0  0  0  0  0  0  0  0  0
    2.9471   -0.8659    0.0000 O   0  0  0  0  0  0  0  0  0  0  0  0
  1  2  1  0
  2  3  1  0
  3  4  1  0
  4  5  1  0
  5  6  1  0
  6  7  1  0
  5  8  1  0
  8  9  1  0
  5 10  1  0
 10 11  2  0
 10 12  1  0
  7  3  1  0
  9  3  1  0
M  END
>  <rName>  (29) 
1-aminomethyl-2-oxabicyclo221heptane-4-CO2H

>  <PQ_SYMBOL>  (29) 
1-aminomethyl-2-oxabicyclo221heptane-4-CO2H

>  <FULL_NAME>  (29) 
1-(Aminomethyl)-2-oxabicyclo[2.2.1]heptane-4-carboxylic acid

>  <IUPAC_CONDENSED>  (29) 
1-aminomethyl-2-oxabicyclo[2.2.1]heptane-4-CO2H

>  <IUPAC>  (29) 
1-(aminomethyl)-2-oxabicyclo[2.2.1]heptane-4-carboxylic acid

>  <TYPE>  (29) 
Backbone

>  <CLASS>  (29) 
delta

>  <ANALOG>  (29) 
Ser

>  <MOL_WT>  (29) 
171.196

>  <LOGP>  (29) 
-0.031000000000000194

>  <TPSA>  (29) 
72.55

>  <POPULARITY>  (29) 
2.8

>  <PROTECTED>  (29) 
TRUE

>  <SMILES>  (29) 
NCC21CC(CC1)(CO2)C(=O)O

>  <INCHIKEY>  (29) 
FLJJUDAYWSGEGC-UHFFFAOYSA-N

$$$$
1-aminomethyl-2-oxabicyclo311heptane-4-CO2H
     RDKit          2D

 12 13  0  0  0  0  0  0  0  0999 V2000
    4.0952    0.3483    0.0000 N   0  0  0  0  0  0  0  0  0  0  0  0
    2.6171    0.6035    0.0000 C   0  0  0  0  0  0  0  0  0  0  0  0
    1.7082   -0.4875    0.0000 C   0  0  0  0  0  0  0  0  0  0  0  0
    0.7993   -1.5786    0.0000 C   0  0  0  0  0  0  0  0  0  0  0  0
   -0.6000   -1.3370    0.0000 C   0  0  0  0  0  0  0  0  0  0  0  0
    0.3814   -0.4430    0.0000 C   0  0  0  0  0  0  0  0  0  0  0  0
   -1.0904   -0.0044    0.0000 C   0  0  0  0  0  0  0  0  0  0  0  0
   -0.1815    1.0867    0.0000 C   0  0  0  0  0  0  0  0  0  0  0  0
    1.2178    0.8451    0.0000 O   0  0  0  0  0  0  0  0  0  0  0  0
   -2.4897    0.2372    0.0000 C   0  0  0  0  0  0  0  0  0  0  0  0
   -3.4498   -0.9152    0.0000 O   0  0  0  0  0  0  0  0  0  0  0  0
   -3.0077    1.6449    0.0000 O   0  0  0  0  0  0  0  0  0  0  0  0
  1  2  1  0
  2  3  1  0
  3  4  1  0
  4  5  1  0
  5  6  1  0
  5  7  1  0
  7  8  1  0
  8  9  1  0
  7 10  1  0
 10 11  2  0
 10 12  1  0
  9  3  1  0
  6  3  1  0
M  END
>  <rName>  (30) 
1-aminomethyl-2-oxabicyclo311heptane-4-CO2H

>  <PQ_SYMBOL>  (30) 
1-aminomethyl-2-oxabicyclo311heptane-4-CO2H

>  <FULL_NAME>  (30) 
1-(Aminomethyl)-2-oxabicyclo[3.1.1]heptane-4-carboxylic acid

>  <IUPAC_CONDENSED>  (30) 
1-aminomethyl-2-oxabicyclo[3.1.1]heptane-4-CO2H

>  <IUPAC>  (30) 
1-(aminomethyl)-2-oxabicyclo[3.1.1]heptane-4-carboxylic acid

>  <TYPE>  (30) 
Backbone

>  <CLASS>  (30) 
epsilon

>  <ANALOG>  (30) 
Ser

>  <MOL_WT>  (30) 
171.19599999999997

>  <LOGP>  (30) 
-0.17510000000000053

>  <TPSA>  (30) 
72.55

>  <POPULARITY>  (30) 
2.6

>  <PROTECTED>  (30) 
TRUE

>  <SMILES>  (30) 
NCC12CC(C2)C(CO1)C(=O)O

>  <INCHIKEY>  (30) 
SMEAOJPQZRCLKV-UHFFFAOYSA-N

$$$$
1-aminomethyl-cyclobutane-1-CO2H_3OH
     RDKit          2D

 10 10  0  0  0  0  0  0  0  0999 V2000
   -2.4438   -1.0973    0.0000 N   0  0  0  0  0  0  0  0  0  0  0  0
   -0.9713   -1.3831    0.0000 C   0  0  0  0  0  0  0  0  0  0  0  0
    0.0125   -0.2507    0.0000 C   0  0  0  0  0  0  0  0  0  0  0  0
    0.9962    0.8817    0.0000 C   0  0  0  0  0  0  0  0  0  0  0  0
    2.1286   -0.1021    0.0000 C   0  0  0  0  0  0  0  0  0  0  0  0
    3.6249    0.0030    0.0000 O   0  0  0  0  0  0  0  0  0  0  0  0
    1.1449   -1.2344    0.0000 C   0  0  0  0  0  0  0  0  0  0  0  0
   -1.1199    0.7330    0.0000 C   0  0  0  0  0  0  0  0  0  0  0  0
   -2.5380    0.2443    0.0000 O   0  0  0  0  0  0  0  0  0  0  0  0
   -0.8341    2.2056    0.0000 O   0  0  0  0  0  0  0  0  0  0  0  0
  1  2  1  0
  2  3  1  0
  3  4  1  0
  4  5  1  0
  5  6  1  0
  5  7  1  0
  3  8  1  0
  8  9  2  0
  8 10  1  0
  7  3  1  0
M  END
>  <rName>  (31) 
1-aminomethyl-cyclobutane-1-CO2H_3OH

>  <PQ_SYMBOL>  (31) 
1-aminomethyl-cyclobutane-1-CO2H_3OH

>  <FULL_NAME>  (31) 
1-(Aminomethyl)-3-hydroxycyclobutane-1-carboxylic acid

>  <IUPAC_CONDENSED>  (31) 
1-aminomethyl-cyclobutane-1-CO2H(3-OH)

>  <IUPAC>  (31) 
1-(aminomethyl)-3-hydroxycyclobutanecarboxylic acid

>  <TYPE>  (31) 
Backbone

>  <CLASS>  (31) 
beta

>  <ANALOG>  (31) 
Ser

>  <MOL_WT>  (31) 
145.158

>  <LOGP>  (31) 
-0.8292000000000004

>  <TPSA>  (31) 
83.55

>  <POPULARITY>  (31) 
3.1

>  <PROTECTED>  (31) 
TRUE

>  <SMILES>  (31) 
NCC1(CC(O)C1)C(=O)O

>  <INCHIKEY>  (31) 
QWKPNNFINSRCJX-UHFFFAOYSA-N

$$$$
1-aminomethyl-cycloheptane-1-CO2H
     RDKit          2D

 12 12  0  0  0  0  0  0  0  0999 V2000
   -1.2108   -2.5440    0.0000 N   0  0  0  0  0  0  0  0  0  0  0  0
   -1.5399   -1.0805    0.0000 C   0  0  0  0  0  0  0  0  0  0  0  0
   -0.4372   -0.0637    0.0000 C   0  0  0  0  0  0  0  0  0  0  0  0
    0.3088   -1.3651    0.0000 C   0  0  0  0  0  0  0  0  0  0  0  0
    1.7913   -1.5934    0.0000 C   0  0  0  0  0  0  0  0  0  0  0  0
    2.8941   -0.5766    0.0000 C   0  0  0  0  0  0  0  0  0  0  0  0
    2.7867    0.9196    0.0000 C   0  0  0  0  0  0  0  0  0  0  0  0
    1.5500    1.7685    0.0000 C   0  0  0  0  0  0  0  0  0  0  0  0
    0.1153    1.3309    0.0000 C   0  0  0  0  0  0  0  0  0  0  0  0
   -1.6738    0.7852    0.0000 C   0  0  0  0  0  0  0  0  0  0  0  0
   -1.5570    2.2806    0.0000 O   0  0  0  0  0  0  0  0  0  0  0  0
   -3.0273    0.1386    0.0000 O   0  0  0  0  0  0  0  0  0  0  0  0
  1  2  1  0
  2  3  1  0
  3  4  1  0
  4  5  1  0
  5  6  1  0
  6  7  1  0
  7  8  1  0
  8  9  1  0
  3 10  1  0
 10 11  2  0
 10 12  1  0
  9  3  1  0
M  END
>  <rName>  (32) 
1-aminomethyl-cycloheptane-1-CO2H

>  <PQ_SYMBOL>  (32) 
1-aminomethyl-cycloheptane-1-CO2H

>  <FULL_NAME>  (32) 
1-(Aminomethyl)cycloheptane-1-carboxylic acid

>  <IUPAC_CONDENSED>  (32) 
1-aminomethyl-cycloheptane-1-CO2H

>  <IUPAC>  (32) 
1-(aminomethyl)cycloheptanecarboxylic acid

>  <TYPE>  (32) 
Backbone

>  <CLASS>  (32) 
beta

>  <ANALOG>  (32) 
X

>  <MOL_WT>  (32) 
171.24

>  <LOGP>  (32) 
1.3703000000000003

>  <TPSA>  (32) 
63.32000000000001

>  <POPULARITY>  (32) 
5.3

>  <PROTECTED>  (32) 
TRUE

>  <SMILES>  (32) 
NCC1(CCCCCC1)C(=O)O

>  <INCHIKEY>  (32) 
GUVORSFEILIMIF-UHFFFAOYSA-N

$$$$
1-aminomethyl-cyclopent-3-ene-1-CO2H
     RDKit          2D

 10 10  0  0  0  0  0  0  0  0999 V2000
   -2.2802   -1.0134    0.0000 N   0  0  0  0  0  0  0  0  0  0  0  0
   -0.8154   -1.3362    0.0000 C   0  0  0  0  0  0  0  0  0  0  0  0
    0.1967   -0.2291    0.0000 C   0  0  0  0  0  0  0  0  0  0  0  0
    1.1920   -1.3513    0.0000 C   0  0  0  0  0  0  0  0  0  0  0  0
    2.5668   -0.7515    0.0000 C   0  0  0  0  0  0  0  0  0  0  0  0
    2.4212    0.7414    0.0000 C   0  0  0  0  0  0  0  0  0  0  0  0
    0.9564    1.0643    0.0000 C   0  0  0  0  0  0  0  0  0  0  0  0
   -1.0102    0.6617    0.0000 C   0  0  0  0  0  0  0  0  0  0  0  0
   -2.3851    0.0618    0.0000 O   0  0  0  0  0  0  0  0  0  0  0  0
   -0.8422    2.1522    0.0000 O   0  0  0  0  0  0  0  0  0  0  0  0
  1  2  1  0
  2  3  1  0
  3  4  1  0
  4  5  1  0
  5  6  2  0
  6  7  1  0
  3  8  1  0
  8  9  2  0
  8 10  1  0
  7  3  1  0
M  END
>  <rName>  (33) 
1-aminomethyl-cyclopent-3-ene-1-CO2H

>  <PQ_SYMBOL>  (33) 
1-aminomethyl-cyclopent-3-ene-1-CO2H

>  <FULL_NAME>  (33) 
1-(Aminomethyl)cyclopent-3-ene-1-carboxylic acid

>  <IUPAC_CONDENSED>  (33) 
1-aminomethyl-cyclopent-3-ene-1-CO2H

>  <IUPAC>  (33) 
1-(aminomethyl)cyclopent-3-ene-1-carboxylic acid

>  <TYPE>  (33) 
Backbone

>  <CLASS>  (33) 
beta

>  <ANALOG>  (33) 
X

>  <MOL_WT>  (33) 
141.17

>  <LOGP>  (33) 
0.36610000000000026

>  <TPSA>  (33) 
63.32000000000001

>  <POPULARITY>  (33) 
4.6

>  <PROTECTED>  (33) 
TRUE

>  <SMILES>  (33) 
NCC1(CC=CC1)C(=O)O

>  <INCHIKEY>  (33) 
PTVQJRIMNLPGGI-UHFFFAOYSA-N

$$$$
1-aminomethyl-cyclopropane-1-CO2H_22diF
     RDKit          2D

 10 10  0  0  0  0  0  0  0  0999 V2000
    2.6642    0.6873    0.0000 N   0  0  0  0  0  0  0  0  0  0  0  0
    1.3351    1.3827    0.0000 C   0  0  0  0  0  0  0  0  0  0  0  0
    0.0684    0.5793    0.0000 C   0  0  0  0  0  0  0  0  0  0  0  0
   -0.9428    1.6873    0.0000 C   0  0  0  0  0  0  0  0  0  0  0  0
   -1.3968    0.2577    0.0000 C   0  0  0  0  0  0  0  0  0  0  0  0
   -1.3344   -1.2410    0.0000 F   0  0  0  0  0  0  0  0  0  0  0  0
   -2.8835    0.4565    0.0000 F   0  0  0  0  0  0  0  0  0  0  0  0
    0.6395   -0.8077    0.0000 C   0  0  0  0  0  0  0  0  0  0  0  0
    2.1263   -1.0065    0.0000 O   0  0  0  0  0  0  0  0  0  0  0  0
   -0.2761   -1.9958    0.0000 O   0  0  0  0  0  0  0  0  0  0  0  0
  1  2  1  0
  2  3  1  0
  3  4  1  0
  4  5  1  0
  5  6  1  0
  5  7  1  0
  3  8  1  0
  8  9  2  0
  8 10  1  0
  5  3  1  0
M  END
>  <rName>  (34) 
1-aminomethyl-cyclopropane-1-CO2H_22diF

>  <PQ_SYMBOL>  (34) 
1-aminomethyl-cyclopropane-1-CO2H_22diF

>  <FULL_NAME>  (34) 
1-(Aminomethyl)-2,2-difluorocyclopropane-1-carboxylic acid

>  <IUPAC_CONDENSED>  (34) 
1-aminomethyl-cyclopropane-1-CO2H(2,2-diF)

>  <IUPAC>  (34) 
1-(aminomethyl)-2,2-difluorocyclopropanecarboxylic acid

>  <TYPE>  (34) 
Backbone

>  <CLASS>  (34) 
beta

>  <ANALOG>  (34) 
X

>  <MOL_WT>  (34) 
151.112

>  <LOGP>  (34) 
0.05509999999999987

>  <TPSA>  (34) 
63.32000000000001

>  <POPULARITY>  (34) 
3.0

>  <PROTECTED>  (34) 
TRUE

>  <SMILES>  (34) 
NCC1(CC1(F)F)C(=O)O

>  <INCHIKEY>  (34) 
QFBUGPACSDATGF-UHFFFAOYSA-N

$$$$
1-aminomethyl-cyclopropane-1-CO2H_2CF3_1R_2R
     RDKit          2D

 12 12  0  0  0  0  0  0  0  0999 V2000
    3.3748    0.1558    0.0000 N   0  0  0  0  0  0  0  0  0  0  0  0
    2.2503    1.1485    0.0000 C   0  0  0  0  0  0  0  0  0  0  0  0
    0.8283    0.6709    0.0000 C   0  0  0  0  0  0  0  0  0  0  0  0
    0.1111    1.9884    0.0000 C   0  0  0  0  0  0  0  0  0  0  0  0
   -0.6712    0.7085    0.0000 C   0  0  0  0  0  0  0  0  0  0  0  0
   -1.9886   -0.0087    0.0000 C   0  0  0  0  0  0  0  0  0  0  0  0
   -3.3060   -0.7259    0.0000 F   0  0  0  0  0  0  0  0  0  0  0  0
   -2.7058    1.3088    0.0000 F   0  0  0  0  0  0  0  0  0  0  0  0
   -1.2714   -1.3261    0.0000 F   0  0  0  0  0  0  0  0  0  0  0  0
    1.0517   -0.8123    0.0000 C   0  0  0  0  0  0  0  0  0  0  0  0
   -0.1212   -1.7474    0.0000 O   0  0  0  0  0  0  0  0  0  0  0  0
    2.4479   -1.3605    0.0000 O   0  0  0  0  0  0  0  0  0  0  0  0
  1  2  1  0
  3  2  1  6
  3  4  1  0
  4  5  1  0
  5  6  1  6
  6  7  1  0
  6  8  1  0
  6  9  1  0
  3 10  1  0
 10 11  2  0
 10 12  1  0
  5  3  1  0
M  END
>  <rName>  (35) 
1-aminomethyl-cyclopropane-1-CO2H_2CF3_1R_2R

>  <PQ_SYMBOL>  (35) 
1-aminomethyl-cyclopropane-1-CO2H_2CF3_1R_2R

>  <FULL_NAME>  (35) 
NC[C@@]1(C(=O)O)C[C@H]1C(F)(F)F

>  <IUPAC_CONDENSED>  (35) 
1-aminomethyl-cyclopropane-1-CO2H(2-CF3,1R,2R)

>  <IUPAC>  (35) 
(1R,2R)-1-(aminomethyl)-2-(trifluoromethyl)cyclopropanecarboxylic acid

>  <TYPE>  (35) 
Backbone

>  <CLASS>  (35) 
beta

>  <ANALOG>  (35) 
X

>  <MOL_WT>  (35) 
183.129

>  <LOGP>  (35) 
0.5983

>  <TPSA>  (35) 
63.32000000000001

>  <POPULARITY>  (35) 
2.8

>  <PROTECTED>  (35) 
TRUE

>  <SMILES>  (35) 
NC[C@]1(C[C@H]1C(F)(F)F)C(=O)O

>  <INCHIKEY>  (35) 
OTXPRQAYFXFMGB-WUJLRWPWSA-N

$$$$
1-azaspiro33heptane-6-CO2H
     RDKit          2D

 10 11  0  0  0  0  0  0  0  0999 V2000
    2.2971   -1.0607    0.0000 N   0  0  0  0  0  0  0  0  0  0  0  0
    1.2364   -0.0000    0.0000 C   0  0  0  0  0  0  0  0  0  0  0  0
    2.2971    1.0607    0.0000 C   0  0  0  0  0  0  0  0  0  0  0  0
    3.3577    0.0000    0.0000 C   0  0  0  0  0  0  0  0  0  0  0  0
    0.1757    1.0607    0.0000 C   0  0  0  0  0  0  0  0  0  0  0  0
   -0.8849   -0.0000    0.0000 C   0  0  0  0  0  0  0  0  0  0  0  0
    0.1757   -1.0607    0.0000 C   0  0  0  0  0  0  0  0  0  0  0  0
   -2.3849   -0.0000    0.0000 C   0  0  0  0  0  0  0  0  0  0  0  0
   -3.1349   -1.2990    0.0000 O   0  0  0  0  0  0  0  0  0  0  0  0
   -3.1349    1.2990    0.0000 O   0  0  0  0  0  0  0  0  0  0  0  0
  1  2  1  0
  2  3  1  0
  3  4  1  0
  2  5  1  0
  5  6  1  0
  6  7  1  0
  6  8  1  0
  8  9  2  0
  8 10  1  0
  7  2  1  0
  4  1  1  0
M  END
>  <rName>  (36) 
1-azaspiro33heptane-6-CO2H

>  <PQ_SYMBOL>  (36) 
1-azaspiro33heptane-6-CO2H

>  <FULL_NAME>  (36) 
1-Azaspiro[3.3]heptane-6-carboxylic acid

>  <IUPAC_CONDENSED>  (36) 
1-azaspiro[3.3]heptane-6-CO2H

>  <IUPAC>  (36) 
1-azaspiro[3.3]heptane-6-carboxylic acid

>  <TYPE>  (36) 
Backbone

>  <CLASS>  (36) 
gamma

>  <ANALOG>  (36) 
Pro

>  <MOL_WT>  (36) 
141.17

>  <LOGP>  (36) 
0.2131

>  <TPSA>  (36) 
49.33

>  <POPULARITY>  (36) 
2.9

>  <PROTECTED>  (36) 
TRUE

>  <SMILES>  (36) 
N2C1(CC2)CC(C1)C(=O)O

>  <INCHIKEY>  (36) 
IXWHZPDMYJOEID-UHFFFAOYSA-N

$$$$
1-methylaminomethyl-cyclopropane-1-CO2H
     RDKit          2D

  9  9  0  0  0  0  0  0  0  0999 V2000
    1.8112   -0.0391    0.0000 N   0  0  0  0  0  0  0  0  0  0  0  0
    3.2436    0.4061    0.0000 C   0  0  0  0  0  0  0  0  0  0  0  0
    0.7094    0.9788    0.0000 C   0  0  0  0  0  0  0  0  0  0  0  0
   -0.7230    0.5335    0.0000 C   0  0  0  0  0  0  0  0  0  0  0  0
   -1.4102    1.8669    0.0000 C   0  0  0  0  0  0  0  0  0  0  0  0
   -2.2213    0.6051    0.0000 C   0  0  0  0  0  0  0  0  0  0  0  0
   -0.5332   -0.9544    0.0000 C   0  0  0  0  0  0  0  0  0  0  0  0
    0.8503   -1.5341    0.0000 O   0  0  0  0  0  0  0  0  0  0  0  0
   -1.7270   -1.8627    0.0000 O   0  0  0  0  0  0  0  0  0  0  0  0
  1  2  1  0
  1  3  1  0
  3  4  1  0
  4  5  1  0
  5  6  1  0
  4  7  1  0
  7  8  2  0
  7  9  1  0
  6  4  1  0
M  END
>  <rName>  (37) 
1-methylaminomethyl-cyclopropane-1-CO2H

>  <PQ_SYMBOL>  (37) 
1-methylaminomethyl-cyclopropane-1-CO2H

>  <FULL_NAME>  (37) 
1-[(methylamino)methyl]Cyclopropanecarboxylic acid

>  <IUPAC_CONDENSED>  (37) 
1-methylaminomethyl-cyclopropane-1-CO2H

>  <IUPAC>  (37) 
1-(methylaminomethyl)cyclopropane-1-carboxylic acid

>  <TYPE>  (37) 
Backbone

>  <CLASS>  (37) 
beta

>  <ANALOG>  (37) 
X

>  <MOL_WT>  (37) 
129.159

>  <LOGP>  (37) 
0.07059999999999994

>  <TPSA>  (37) 
49.33

>  <POPULARITY>  (37) 
2.2

>  <PROTECTED>  (37) 
TRUE

>  <SMILES>  (37) 
N(C)CC1(CC1)C(=O)O

>  <INCHIKEY>  (37) 
ZXWYAZUAPCOCRF-UHFFFAOYSA-N

$$$$
1-oxoisoquinolin-2-acetyl
     RDKit          2D

 15 16  0  0  0  0  0  0  0  0999 V2000
    4.1765   -0.6687    0.0000 C   0  0  0  0  0  0  0  0  0  0  0  0
    2.9735   -1.5647    0.0000 C   0  0  0  0  0  0  0  0  0  0  0  0
    1.5960   -0.9709    0.0000 C   0  0  0  0  0  0  0  0  0  0  0  0
    0.3931   -1.8670    0.0000 C   0  0  0  0  0  0  0  0  0  0  0  0
   -0.9844   -1.2732    0.0000 C   0  0  0  0  0  0  0  0  0  0  0  0
   -1.1589    0.2167    0.0000 N   0  0  0  0  0  0  0  0  0  0  0  0
    0.0441    1.1127    0.0000 C   0  0  0  0  0  0  0  0  0  0  0  0
   -0.1304    2.6025    0.0000 O   0  0  0  0  0  0  0  0  0  0  0  0
    1.4215    0.5189    0.0000 C   0  0  0  0  0  0  0  0  0  0  0  0
    2.6245    1.4149    0.0000 C   0  0  0  0  0  0  0  0  0  0  0  0
    4.0020    0.8211    0.0000 C   0  0  0  0  0  0  0  0  0  0  0  0
   -2.5364    0.8105    0.0000 C   0  0  0  0  0  0  0  0  0  0  0  0
   -3.7393   -0.0856    0.0000 C   0  0  0  0  0  0  0  0  0  0  0  0
   -3.5648   -1.5754    0.0000 O   0  0  0  0  0  0  0  0  0  0  0  0
   -5.1168    0.5082    0.0000 O   0  0  0  0  0  0  0  0  0  0  0  0
  1  2  1  0
  2  3  2  0
  3  4  1  0
  4  5  2  0
  5  6  1  0
  6  7  1  0
  7  8  2  0
  7  9  1  0
  9 10  2  0
 10 11  1  0
  6 12  1  0
 12 13  1  0
 13 14  2  0
 13 15  1  0
  9  3  1  0
 11  1  2  0
M  END
>  <rName>  (38) 
1-oxoisoquinolin-2-acetyl

>  <PQ_SYMBOL>  (38) 
1-oxoisoquinolin-2-acetyl

>  <FULL_NAME>  (38) 
2-(1-oxoisoquinolin-2-yl)acetic acid

>  <IUPAC_CONDENSED>  (38) 
1-oxoisoquinolin-2-acetyl

>  <IUPAC>  (38) 
2-(2-oxo-3-azabicyclo[4.4.0]deca-1(6),4,7,9-tetraen-3-yl)acetic acid

>  <TYPE>  (38) 
N-term cap

>  <CLASS>  (38) 
n_cap

>  <ANALOG>  (38) 
X

>  <MOL_WT>  (38) 
203.19699999999997

>  <LOGP>  (38) 
1.0860999999999998

>  <TPSA>  (38) 
59.3

>  <POPULARITY>  (38) 
8.7

>  <PROTECTED>  (38) 
TRUE

>  <SMILES>  (38) 
c2cc1ccn(c(=O)c1cc2)CC(=O)O

>  <INCHIKEY>  (38) 
SMAQTXRPPCAWTK-UHFFFAOYSA-N

$$$$
1-phenyl-2-aminopropane
     RDKit          2D

 10 10  0  0  0  0  0  0  0  0999 V2000
   -2.0977    1.4730    0.0000 N   0  0  0  0  0  0  0  0  0  0  0  0
   -2.3812    0.0000    0.0000 C   0  0  0  0  0  0  0  0  0  0  0  0
   -3.7985   -0.4910    0.0000 C   0  0  0  0  0  0  0  0  0  0  0  0
   -1.2473   -0.9820    0.0000 C   0  0  0  0  0  0  0  0  0  0  0  0
    0.1701   -0.4910    0.0000 C   0  0  0  0  0  0  0  0  0  0  0  0
    0.4536    0.9820    0.0000 C   0  0  0  0  0  0  0  0  0  0  0  0
    1.8709    1.4730    0.0000 C   0  0  0  0  0  0  0  0  0  0  0  0
    3.0048    0.4910    0.0000 C   0  0  0  0  0  0  0  0  0  0  0  0
    2.7213   -0.9820    0.0000 C   0  0  0  0  0  0  0  0  0  0  0  0
    1.3040   -1.4730    0.0000 C   0  0  0  0  0  0  0  0  0  0  0  0
  1  2  1  0
  2  3  1  1
  2  4  1  0
  4  5  1  0
  5  6  2  0
  6  7  1  0
  7  8  2  0
  8  9  1  0
  9 10  2  0
 10  5  1  0
M  END
>  <rName>  (39) 
1-phenyl-2-aminopropane

>  <PQ_SYMBOL>  (39) 
1-phenyl-2-aminopropane

>  <FULL_NAME>  (39) 
1-PHENYL-2-AMINOPROPANE

>  <IUPAC_CONDENSED>  (39) 
1-phenyl-2-aminopropane

>  <IUPAC>  (39) 
(2R)-1-phenylpropan-2-amine

>  <TYPE>  (39) 
C-term cap

>  <CLASS>  (39) 
c_cap

>  <ANALOG>  (39) 
X

>  <MOL_WT>  (39) 
135.20999999999998

>  <LOGP>  (39) 
1.5762999999999998

>  <TPSA>  (39) 
26.02

>  <POPULARITY>  (39) 
21.2

>  <PROTECTED>  (39) 
FALSE

>  <SMILES>  (39) 
N[C@H](C)Cc1ccccc1

>  <INCHIKEY>  (39) 
KWTSXDURSIMDCE-MRVPVSSYSA-N

$$$$
10-amino-bicyclo620decane-9-CO2H_1S_8R_9R_10R
     RDKit          2D

 14 15  0  0  0  0  0  0  0  0999 V2000
   -1.9486    2.7254    0.0000 N   0  0  0  0  0  0  0  0  0  0  0  0
   -1.1901    1.4313    0.0000 C   0  0  0  0  0  0  0  0  0  0  0  0
   -1.5689   -0.0201    0.0000 C   0  0  0  0  0  0  0  0  0  0  0  0
   -0.1175   -0.3988    0.0000 C   0  0  0  0  0  0  0  0  0  0  0  0
    0.6410   -1.6929    0.0000 C   0  0  0  0  0  0  0  0  0  0  0  0
    2.0924   -2.0717    0.0000 C   0  0  0  0  0  0  0  0  0  0  0  0
    3.3865   -1.3132    0.0000 C   0  0  0  0  0  0  0  0  0  0  0  0
    3.7652    0.1382    0.0000 C   0  0  0  0  0  0  0  0  0  0  0  0
    3.0067    1.4323    0.0000 C   0  0  0  0  0  0  0  0  0  0  0  0
    1.5554    1.8110    0.0000 C   0  0  0  0  0  0  0  0  0  0  0  0
    0.2612    1.0526    0.0000 C   0  0  0  0  0  0  0  0  0  0  0  0
   -2.8630   -0.7785    0.0000 C   0  0  0  0  0  0  0  0  0  0  0  0
   -2.8532   -2.2785    0.0000 O   0  0  0  0  0  0  0  0  0  0  0  0
   -4.1669   -0.0370    0.0000 O   0  0  0  0  0  0  0  0  0  0  0  0
  2  1  1  6
  2  3  1  0
  3  4  1  0
  4  5  1  1
  5  6  1  0
  6  7  1  0
  7  8  1  0
  8  9  1  0
  9 10  1  0
 11 10  1  1
  3 12  1  1
 12 13  2  0
 12 14  1  0
 11  2  1  0
 11  4  1  0
M  END
>  <rName>  (40) 
10-amino-bicyclo620decane-9-CO2H_1S_8R_9R_10R

>  <PQ_SYMBOL>  (40) 
10-amino-bicyclo620decane-9-CO2H_1S_8R_9R_10R

>  <FULL_NAME>  (40) 
N[C@@H]1[C@H]2CCCCCC[C@H]2[C@H]1C(=O)O

>  <IUPAC_CONDENSED>  (40) 
10-amino-bicyclo[6.2.0]decane-9-CO2H(1S,8R,9R,10R)

>  <IUPAC>  (40) 
(1S,8R,9R,10R)-10-aminobicyclo[6.2.0]decane-9-carboxylic acid

>  <TYPE>  (40) 
Backbone

>  <CLASS>  (40) 
beta

>  <ANALOG>  (40) 
X

>  <MOL_WT>  (40) 
197.27800000000002

>  <LOGP>  (40) 
1.6147

>  <TPSA>  (40) 
63.32000000000001

>  <POPULARITY>  (40) 
2.6

>  <PROTECTED>  (40) 
TRUE

>  <SMILES>  (40) 
N[C@H]1[C@@H]([C@@H]2(CCCCCC[C@H]12))C(=O)O

>  <INCHIKEY>  (40) 
LEQNUSXOXBASMA-UTINFBMNSA-N

$$$$
12-dimethylpropylamine
     RDKit          2D

  6  5  0  0  0  0  0  0  0  0999 V2000
    1.5000   -1.2990    0.0000 N   0  0  0  0  0  0  0  0  0  0  0  0
    0.7500    0.0000    0.0000 C   0  0  0  0  0  0  0  0  0  0  0  0
    1.5000    1.2990    0.0000 C   0  0  0  0  0  0  0  0  0  0  0  0
   -0.7500   -0.0000    0.0000 C   0  0  0  0  0  0  0  0  0  0  0  0
   -1.5000   -1.2990    0.0000 C   0  0  0  0  0  0  0  0  0  0  0  0
   -1.5000    1.2990    0.0000 C   0  0  0  0  0  0  0  0  0  0  0  0
  1  2  1  0
  2  3  1  1
  2  4  1  0
  4  5  1  0
  4  6  1  0
M  END
>  <rName>  (41) 
12-dimethylpropylamine

>  <PQ_SYMBOL>  (41) 
12-dimethylpropylamine

>  <FULL_NAME>  (41) 
1,2-DIMETHYL-PROPYLAMINE

>  <IUPAC_CONDENSED>  (41) 
1,2-dimethylpropylamine

>  <IUPAC>  (41) 
(2R)-3-methylbutan-2-amine

>  <TYPE>  (41) 
C-term cap

>  <CLASS>  (41) 
c_cap

>  <ANALOG>  (41) 
X

>  <MOL_WT>  (41) 
87.166

>  <LOGP>  (41) 
0.9895999999999998

>  <TPSA>  (41) 
26.02

>  <POPULARITY>  (41) 
17.5

>  <PROTECTED>  (41) 
FALSE

>  <SMILES>  (41) 
N[C@H](C)C(C)C

>  <INCHIKEY>  (41) 
JOZZAIIGWFLONA-RXMQYKEDSA-N

$$$$
1236-tetrahydropyridine-3-CO2H
     RDKit          2D

  9  9  0  0  0  0  0  0  0  0999 V2000
    1.9167   -1.2990    0.0000 N   0  0  0  0  0  0  0  0  0  0  0  0
    0.4167   -1.2990    0.0000 C   0  0  0  0  0  0  0  0  0  0  0  0
   -0.3333    0.0000    0.0000 C   0  0  0  0  0  0  0  0  0  0  0  0
    0.4167    1.2990    0.0000 C   0  0  0  0  0  0  0  0  0  0  0  0
    1.9167    1.2990    0.0000 C   0  0  0  0  0  0  0  0  0  0  0  0
    2.6667    0.0000    0.0000 C   0  0  0  0  0  0  0  0  0  0  0  0
   -1.8333    0.0000    0.0000 C   0  0  0  0  0  0  0  0  0  0  0  0
   -2.5833   -1.2990    0.0000 O   0  0  0  0  0  0  0  0  0  0  0  0
   -2.5833    1.2990    0.0000 O   0  0  0  0  0  0  0  0  0  0  0  0
  1  2  1  0
  2  3  1  0
  3  4  1  0
  4  5  2  0
  5  6  1  0
  3  7  1  0
  7  8  2  0
  7  9  1  0
  6  1  1  0
M  END
>  <rName>  (42) 
1236-tetrahydropyridine-3-CO2H

>  <PQ_SYMBOL>  (42) 
1236-tetrahydropyridine-3-CO2H

>  <FULL_NAME>  (42) 
1,2,3,6-tetrahydropyridine-3-carboxylic Acid

>  <IUPAC_CONDENSED>  (42) 
1,2,3,6-tetrahydropyridine-3-CO2H

>  <IUPAC>  (42) 
1-azacyclohex-4-ene-3-carboxylic acid

>  <TYPE>  (42) 
Backbone

>  <CLASS>  (42) 
beta

>  <ANALOG>  (42) 
Pro

>  <MOL_WT>  (42) 
127.14299999999999

>  <LOGP>  (42) 
-0.15340000000000026

>  <TPSA>  (42) 
49.33

>  <POPULARITY>  (42) 
10.9

>  <PROTECTED>  (42) 
TRUE

>  <SMILES>  (42) 
N1CC(C=CC1)C(=O)O

>  <INCHIKEY>  (42) 
OPSXYAFWJPPHQK-UHFFFAOYSA-N

$$$$
1256-tetrahydropyridin-4-ylAc
     RDKit          2D

 10 10  0  0  0  0  0  0  0  0999 V2000
   -3.0048   -0.4910    0.0000 N   0  0  0  0  0  0  0  0  0  0  0  0
   -2.7213    0.9820    0.0000 C   0  0  0  0  0  0  0  0  0  0  0  0
   -1.3040    1.4730    0.0000 C   0  0  0  0  0  0  0  0  0  0  0  0
   -0.1701    0.4910    0.0000 C   0  0  0  0  0  0  0  0  0  0  0  0
   -0.4536   -0.9820    0.0000 C   0  0  0  0  0  0  0  0  0  0  0  0
   -1.8709   -1.4730    0.0000 C   0  0  0  0  0  0  0  0  0  0  0  0
    1.2473    0.9820    0.0000 C   0  0  0  0  0  0  0  0  0  0  0  0
    2.3812   -0.0000    0.0000 C   0  0  0  0  0  0  0  0  0  0  0  0
    2.0977   -1.4730    0.0000 O   0  0  0  0  0  0  0  0  0  0  0  0
    3.7985    0.4910    0.0000 O   0  0  0  0  0  0  0  0  0  0  0  0
  1  2  1  0
  2  3  1  0
  3  4  2  0
  4  5  1  0
  5  6  1  0
  4  7  1  0
  7  8  1  0
  8  9  2  0
  8 10  1  0
  6  1  1  0
M  END
>  <rName>  (43) 
1256-tetrahydropyridin-4-ylAc

>  <PQ_SYMBOL>  (43) 
1256-tetrahydropyridin-4-ylAc

>  <FULL_NAME>  (43) 
2-(1,2,3,6-Tetrahydropyridin-4-yl)acetic acid

>  <IUPAC_CONDENSED>  (43) 
1,2,5,6-tetrahydropyridin-4-ylAc

>  <IUPAC>  (43) 
2-(1-azacyclohex-3-en-4-yl)acetic acid

>  <TYPE>  (43) 
Backbone

>  <CLASS>  (43) 
delta

>  <ANALOG>  (43) 
Pro

>  <MOL_WT>  (43) 
141.17000000000002

>  <LOGP>  (43) 
0.38079999999999997

>  <TPSA>  (43) 
49.33

>  <POPULARITY>  (43) 
6.0

>  <PROTECTED>  (43) 
TRUE

>  <SMILES>  (43) 
N1CC=C(CC1)CC(=O)O

>  <INCHIKEY>  (43) 
MKDOOLVCMCOALW-UHFFFAOYSA-N

$$$$
1256-tetrahydropyridine-3-CO2H
     RDKit          2D

  9  9  0  0  0  0  0  0  0  0999 V2000
    1.9167   -1.2990    0.0000 N   0  0  0  0  0  0  0  0  0  0  0  0
    0.4167   -1.2990    0.0000 C   0  0  0  0  0  0  0  0  0  0  0  0
   -0.3333    0.0000    0.0000 C   0  0  0  0  0  0  0  0  0  0  0  0
    0.4167    1.2990    0.0000 C   0  0  0  0  0  0  0  0  0  0  0  0
    1.9167    1.2990    0.0000 C   0  0  0  0  0  0  0  0  0  0  0  0
    2.6667    0.0000    0.0000 C   0  0  0  0  0  0  0  0  0  0  0  0
   -1.8333    0.0000    0.0000 C   0  0  0  0  0  0  0  0  0  0  0  0
   -2.5833   -1.2990    0.0000 O   0  0  0  0  0  0  0  0  0  0  0  0
   -2.5833    1.2990    0.0000 O   0  0  0  0  0  0  0  0  0  0  0  0
  1  2  1  0
  2  3  1  0
  3  4  2  0
  4  5  1  0
  5  6  1  0
  3  7  1  0
  7  8  2  0
  7  9  1  0
  6  1  1  0
M  END
>  <rName>  (44) 
1256-tetrahydropyridine-3-CO2H

>  <PQ_SYMBOL>  (44) 
1256-tetrahydropyridine-3-CO2H

>  <FULL_NAME>  (44) 
Guvacine

>  <IUPAC_CONDENSED>  (44) 
1,2,5,6-tetrahydropyridine-3-CO2H

>  <IUPAC>  (44) 
1-azacyclohex-3-ene-3-carboxylic acid

>  <TYPE>  (44) 
Backbone

>  <CLASS>  (44) 
beta

>  <ANALOG>  (44) 
Pro

>  <MOL_WT>  (44) 
127.14299999999999

>  <LOGP>  (44) 
-0.00929999999999992

>  <TPSA>  (44) 
49.33

>  <POPULARITY>  (44) 
9.5

>  <PROTECTED>  (44) 
TRUE

>  <SMILES>  (44) 
N1CC(=CCC1)C(=O)O

>  <INCHIKEY>  (44) 
QTDZOWFRBNTPQR-UHFFFAOYSA-N

$$$$
1256-tetrahydropyridine-4-CO2H
     RDKit          2D

  9  9  0  0  0  0  0  0  0  0999 V2000
    2.6667   -0.0000    0.0000 N   0  0  0  0  0  0  0  0  0  0  0  0
    1.9167   -1.2990    0.0000 C   0  0  0  0  0  0  0  0  0  0  0  0
    0.4167   -1.2990    0.0000 C   0  0  0  0  0  0  0  0  0  0  0  0
   -0.3333    0.0000    0.0000 C   0  0  0  0  0  0  0  0  0  0  0  0
    0.4167    1.2990    0.0000 C   0  0  0  0  0  0  0  0  0  0  0  0
    1.9167    1.2990    0.0000 C   0  0  0  0  0  0  0  0  0  0  0  0
   -1.8333    0.0000    0.0000 C   0  0  0  0  0  0  0  0  0  0  0  0
   -2.5833   -1.2990    0.0000 O   0  0  0  0  0  0  0  0  0  0  0  0
   -2.5833    1.2990    0.0000 O   0  0  0  0  0  0  0  0  0  0  0  0
  1  2  1  0
  2  3  1  0
  3  4  2  0
  4  5  1  0
  5  6  1  0
  4  7  1  0
  7  8  2  0
  7  9  1  0
  6  1  1  0
M  END
>  <rName>  (45) 
1256-tetrahydropyridine-4-CO2H

>  <PQ_SYMBOL>  (45) 
1256-tetrahydropyridine-4-CO2H

>  <FULL_NAME>  (45) 
Isoguvacine

>  <IUPAC_CONDENSED>  (45) 
1,2,5,6-tetrahydropyridine-4-CO2H

>  <IUPAC>  (45) 
1-azacyclohex-3-ene-4-carboxylic acid

>  <TYPE>  (45) 
Backbone

>  <CLASS>  (45) 
gamma

>  <ANALOG>  (45) 
Pro

>  <MOL_WT>  (45) 
127.14299999999999

>  <LOGP>  (45) 
-0.00929999999999992

>  <TPSA>  (45) 
49.33

>  <POPULARITY>  (45) 
7.6

>  <PROTECTED>  (45) 
TRUE

>  <SMILES>  (45) 
N1CC=C(CC1)C(=O)O

>  <INCHIKEY>  (45) 
KRVDMABBKYMBHG-UHFFFAOYSA-N

$$$$
1256-tetrahydropyridine-4-CO2H_3F
     RDKit          2D

 10 10  0  0  0  0  0  0  0  0999 V2000
    2.7096    0.1244    0.0000 N   0  0  0  0  0  0  0  0  0  0  0  0
    1.8956   -1.1355    0.0000 C   0  0  0  0  0  0  0  0  0  0  0  0
    0.3975   -1.0604    0.0000 C   0  0  0  0  0  0  0  0  0  0  0  0
   -0.4166   -2.3203    0.0000 F   0  0  0  0  0  0  0  0  0  0  0  0
   -0.2866    0.2745    0.0000 C   0  0  0  0  0  0  0  0  0  0  0  0
    0.5274    1.5344    0.0000 C   0  0  0  0  0  0  0  0  0  0  0  0
    2.0255    1.4594    0.0000 C   0  0  0  0  0  0  0  0  0  0  0  0
   -1.7848    0.3495    0.0000 C   0  0  0  0  0  0  0  0  0  0  0  0
   -2.5988   -0.9104    0.0000 O   0  0  0  0  0  0  0  0  0  0  0  0
   -2.4688    1.6844    0.0000 O   0  0  0  0  0  0  0  0  0  0  0  0
  1  2  1  0
  2  3  1  0
  3  4  1  0
  3  5  2  0
  5  6  1  0
  6  7  1  0
  5  8  1  0
  8  9  2  0
  8 10  1  0
  7  1  1  0
M  END
>  <rName>  (46) 
1256-tetrahydropyridine-4-CO2H_3F

>  <PQ_SYMBOL>  (46) 
1256-tetrahydropyridine-4-CO2H_3F

>  <FULL_NAME>  (46) 
5-Fluoro-1,2,3,6-tetrahydropyridine-4-carboxylic acid

>  <IUPAC_CONDENSED>  (46) 
1,2,5,6-tetrahydropyridine-4-CO2H(3-F)

>  <IUPAC>  (46) 
3-fluoro-1-azacyclohex-3-ene-4-carboxylic acid

>  <TYPE>  (46) 
Backbone

>  <CLASS>  (46) 
gamma

>  <ANALOG>  (46) 
Pro

>  <MOL_WT>  (46) 
145.133

>  <LOGP>  (46) 
0.2879

>  <TPSA>  (46) 
49.33

>  <POPULARITY>  (46) 
3.7

>  <PROTECTED>  (46) 
TRUE

>  <SMILES>  (46) 
N1CC(F)=C(CC1)C(=O)O

>  <INCHIKEY>  (46) 
KYFCAPPUVOAQMQ-UHFFFAOYSA-N

$$$$
14-oxazepan-6-ylAc
     RDKit          2D

 11 11  0  0  0  0  0  0  0  0999 V2000
   -1.3645   -1.7214    0.0000 N   0  0  0  0  0  0  0  0  0  0  0  0
   -0.0779   -0.9502    0.0000 C   0  0  0  0  0  0  0  0  0  0  0  0
    0.1213    0.5365    0.0000 C   0  0  0  0  0  0  0  0  0  0  0  0
   -0.9169    1.6192    0.0000 C   0  0  0  0  0  0  0  0  0  0  0  0
   -2.4106    1.4826    0.0000 O   0  0  0  0  0  0  0  0  0  0  0  0
   -3.2352    0.2296    0.0000 C   0  0  0  0  0  0  0  0  0  0  0  0
   -2.7696   -1.1963    0.0000 C   0  0  0  0  0  0  0  0  0  0  0  0
    1.5472    1.0021    0.0000 C   0  0  0  0  0  0  0  0  0  0  0  0
    2.6634    0.0000    0.0000 C   0  0  0  0  0  0  0  0  0  0  0  0
    2.3536   -1.4677    0.0000 O   0  0  0  0  0  0  0  0  0  0  0  0
    4.0893    0.4656    0.0000 O   0  0  0  0  0  0  0  0  0  0  0  0
  1  2  1  0
  2  3  1  0
  3  4  1  0
  4  5  1  0
  5  6  1  0
  6  7  1  0
  3  8  1  0
  8  9  1  0
  9 10  2  0
  9 11  1  0
  7  1  1  0
M  END
>  <rName>  (47) 
14-oxazepan-6-ylAc

>  <PQ_SYMBOL>  (47) 
14-oxazepan-6-ylAc

>  <FULL_NAME>  (47) 
2-(1,4-Oxazepan-6-yl)acetic acid

>  <IUPAC_CONDENSED>  (47) 
1,4-oxazepan-6-ylAc

>  <IUPAC>  (47) 
2-(1-oxa-4-azacycloheptan-6-yl)acetic acid

>  <TYPE>  (47) 
Backbone

>  <CLASS>  (47) 
gamma

>  <ANALOG>  (47) 
Pro

>  <MOL_WT>  (47) 
159.185

>  <LOGP>  (47) 
-0.30290000000000045

>  <TPSA>  (47) 
58.56

>  <POPULARITY>  (47) 
4.1

>  <PROTECTED>  (47) 
TRUE

>  <SMILES>  (47) 
N1CC(COCC1)CC(=O)O

>  <INCHIKEY>  (47) 
XYKNLFHQTIJXGY-UHFFFAOYSA-N

$$$$
14-oxazepane-2-CO2H
     RDKit          2D

 10 10  0  0  0  0  0  0  0  0999 V2000
   -1.5032   -1.6852    0.0000 N   0  0  0  0  0  0  0  0  0  0  0  0
   -0.0408   -1.3515    0.0000 C   0  0  0  0  0  0  0  0  0  0  0  0
    0.6100    0.0000    0.0000 C   0  0  0  0  0  0  0  0  0  0  0  0
   -0.0408    1.3515    0.0000 O   0  0  0  0  0  0  0  0  0  0  0  0
   -1.5032    1.6852    0.0000 C   0  0  0  0  0  0  0  0  0  0  0  0
   -2.6760    0.7500    0.0000 C   0  0  0  0  0  0  0  0  0  0  0  0
   -2.6760   -0.7500    0.0000 C   0  0  0  0  0  0  0  0  0  0  0  0
    2.1100    0.0000    0.0000 C   0  0  0  0  0  0  0  0  0  0  0  0
    2.8600    1.2990    0.0000 O   0  0  0  0  0  0  0  0  0  0  0  0
    2.8600   -1.2990    0.0000 O   0  0  0  0  0  0  0  0  0  0  0  0
  1  2  1  0
  2  3  1  0
  3  4  1  0
  4  5  1  0
  5  6  1  0
  6  7  1  0
  3  8  1  0
  8  9  2  0
  8 10  1  0
  7  1  1  0
M  END
>  <rName>  (48) 
14-oxazepane-2-CO2H

>  <PQ_SYMBOL>  (48) 
14-oxazepane-2-CO2H

>  <FULL_NAME>  (48) 
2-Homomorpholinecarboxylic Acid

>  <IUPAC_CONDENSED>  (48) 
1,4-oxazepane-2-CO2H

>  <IUPAC>  (48) 
1-oxa-4-azacycloheptane-2-carboxylic acid

>  <TYPE>  (48) 
Backbone

>  <CLASS>  (48) 
beta

>  <ANALOG>  (48) 
Pro

>  <MOL_WT>  (48) 
145.15800000000002

>  <LOGP>  (48) 
-0.5505000000000002

>  <TPSA>  (48) 
58.56

>  <POPULARITY>  (48) 
6.5

>  <PROTECTED>  (48) 
TRUE

>  <SMILES>  (48) 
N1CC(OCCC1)C(=O)O

>  <INCHIKEY>  (48) 
FDLNENLTODPZIY-UHFFFAOYSA-N

$$$$
14-oxazepane-2-CO2H_S
     RDKit          2D

 10 10  0  0  0  0  0  0  0  0999 V2000
   -1.5032   -1.6852    0.0000 N   0  0  0  0  0  0  0  0  0  0  0  0
   -0.0408   -1.3515    0.0000 C   0  0  0  0  0  0  0  0  0  0  0  0
    0.6100    0.0000    0.0000 C   0  0  0  0  0  0  0  0  0  0  0  0
   -0.0408    1.3515    0.0000 O   0  0  0  0  0  0  0  0  0  0  0  0
   -1.5032    1.6852    0.0000 C   0  0  0  0  0  0  0  0  0  0  0  0
   -2.6760    0.7500    0.0000 C   0  0  0  0  0  0  0  0  0  0  0  0
   -2.6760   -0.7500    0.0000 C   0  0  0  0  0  0  0  0  0  0  0  0
    2.1100    0.0000    0.0000 C   0  0  0  0  0  0  0  0  0  0  0  0
    2.8600    1.2990    0.0000 O   0  0  0  0  0  0  0  0  0  0  0  0
    2.8600   -1.2990    0.0000 O   0  0  0  0  0  0  0  0  0  0  0  0
  1  2  1  0
  2  3  1  0
  3  4  1  0
  4  5  1  0
  5  6  1  0
  6  7  1  0
  3  8  1  6
  8  9  2  0
  8 10  1  0
  7  1  1  0
M  END
>  <rName>  (49) 
14-oxazepane-2-CO2H_S

>  <PQ_SYMBOL>  (49) 
14-oxazepane-2-CO2H_S

>  <FULL_NAME>  (49) 
(2S)-1,4-oxazepane-2-carboxylic acid

>  <IUPAC_CONDENSED>  (49) 
1,4-oxazepane-2-CO2H(S)

>  <IUPAC>  (49) 
(2S)-1-oxa-4-azacycloheptane-2-carboxylic acid

>  <TYPE>  (49) 
Backbone

>  <CLASS>  (49) 
beta

>  <ANALOG>  (49) 
Pro

>  <MOL_WT>  (49) 
145.15800000000002

>  <LOGP>  (49) 
-0.5505000000000002

>  <TPSA>  (49) 
58.56

>  <POPULARITY>  (49) 
6.4

>  <PROTECTED>  (49) 
TRUE

>  <SMILES>  (49) 
N1C[C@H](OCCC1)C(=O)O

>  <INCHIKEY>  (49) 
FDLNENLTODPZIY-YFKPBYRVSA-N

$$$$
14-oxazepane-6-CO2H
     RDKit          2D

 10 10  0  0  0  0  0  0  0  0999 V2000
   -1.5032   -1.6852    0.0000 N   0  0  0  0  0  0  0  0  0  0  0  0
   -0.0408   -1.3515    0.0000 C   0  0  0  0  0  0  0  0  0  0  0  0
    0.6100    0.0000    0.0000 C   0  0  0  0  0  0  0  0  0  0  0  0
   -0.0408    1.3515    0.0000 C   0  0  0  0  0  0  0  0  0  0  0  0
   -1.5032    1.6852    0.0000 O   0  0  0  0  0  0  0  0  0  0  0  0
   -2.6760    0.7500    0.0000 C   0  0  0  0  0  0  0  0  0  0  0  0
   -2.6760   -0.7500    0.0000 C   0  0  0  0  0  0  0  0  0  0  0  0
    2.1100    0.0000    0.0000 C   0  0  0  0  0  0  0  0  0  0  0  0
    2.8600    1.2990    0.0000 O   0  0  0  0  0  0  0  0  0  0  0  0
    2.8600   -1.2990    0.0000 O   0  0  0  0  0  0  0  0  0  0  0  0
  1  2  1  0
  2  3  1  0
  3  4  1  0
  4  5  1  0
  5  6  1  0
  6  7  1  0
  3  8  1  0
  8  9  2  0
  8 10  1  0
  7  1  1  0
M  END
>  <rName>  (50) 
14-oxazepane-6-CO2H

>  <PQ_SYMBOL>  (50) 
14-oxazepane-6-CO2H

>  <FULL_NAME>  (50) 
1,4-Oxazepane-6-carboxylic acid

>  <IUPAC_CONDENSED>  (50) 
1,4-oxazepane-6-CO2H

>  <IUPAC>  (50) 
1-oxa-4-azacycloheptane-6-carboxylic acid

>  <TYPE>  (50) 
Backbone

>  <CLASS>  (50) 
beta

>  <ANALOG>  (50) 
Pro

>  <MOL_WT>  (50) 
145.15800000000002

>  <LOGP>  (50) 
-0.6929999999999998

>  <TPSA>  (50) 
58.56

>  <POPULARITY>  (50) 
5.5

>  <PROTECTED>  (50) 
TRUE

>  <SMILES>  (50) 
N1CC(COCC1)C(=O)O

>  <INCHIKEY>  (50) 
TTXOHZXEGLCPJS-UHFFFAOYSA-N

$$$$
14-oxazepane-6-CO2H_S
     RDKit          2D

 10 10  0  0  0  0  0  0  0  0999 V2000
   -1.5032   -1.6852    0.0000 N   0  0  0  0  0  0  0  0  0  0  0  0
   -0.0408   -1.3515    0.0000 C   0  0  0  0  0  0  0  0  0  0  0  0
    0.6100    0.0000    0.0000 C   0  0  0  0  0  0  0  0  0  0  0  0
   -0.0408    1.3515    0.0000 C   0  0  0  0  0  0  0  0  0  0  0  0
   -1.5032    1.6852    0.0000 O   0  0  0  0  0  0  0  0  0  0  0  0
   -2.6760    0.7500    0.0000 C   0  0  0  0  0  0  0  0  0  0  0  0
   -2.6760   -0.7500    0.0000 C   0  0  0  0  0  0  0  0  0  0  0  0
    2.1100    0.0000    0.0000 C   0  0  0  0  0  0  0  0  0  0  0  0
    2.8600    1.2990    0.0000 O   0  0  0  0  0  0  0  0  0  0  0  0
    2.8600   -1.2990    0.0000 O   0  0  0  0  0  0  0  0  0  0  0  0
  1  2  1  0
  2  3  1  0
  3  4  1  0
  4  5  1  0
  5  6  1  0
  6  7  1  0
  3  8  1  1
  8  9  2  0
  8 10  1  0
  7  1  1  0
M  END
>  <rName>  (51) 
14-oxazepane-6-CO2H_S

>  <PQ_SYMBOL>  (51) 
14-oxazepane-6-CO2H_S

>  <FULL_NAME>  (51) 
(6S)-1,4-oxazepane-6-carboxylic acid

>  <IUPAC_CONDENSED>  (51) 
1,4-oxazepane-6-CO2H(S)

>  <IUPAC>  (51) 
(6S)-1,4-oxazepane-6-carboxylic acid

>  <TYPE>  (51) 
Backbone

>  <CLASS>  (51) 
beta

>  <ANALOG>  (51) 
Pro

>  <MOL_WT>  (51) 
145.15800000000002

>  <LOGP>  (51) 
-0.6929999999999998

>  <TPSA>  (51) 
58.56

>  <POPULARITY>  (51) 
2.2

>  <PROTECTED>  (51) 
TRUE

>  <SMILES>  (51) 
N1C[C@@H](COCC1)C(=O)O

>  <INCHIKEY>  (51) 
TTXOHZXEGLCPJS-YFKPBYRVSA-N

$$$$
14-oxazepane-7-CO2H
     RDKit          2D

 10 10  0  0  0  0  0  0  0  0999 V2000
   -2.6760   -0.7500    0.0000 N   0  0  0  0  0  0  0  0  0  0  0  0
   -1.5032   -1.6852    0.0000 C   0  0  0  0  0  0  0  0  0  0  0  0
   -0.0408   -1.3515    0.0000 C   0  0  0  0  0  0  0  0  0  0  0  0
    0.6100    0.0000    0.0000 C   0  0  0  0  0  0  0  0  0  0  0  0
   -0.0408    1.3515    0.0000 O   0  0  0  0  0  0  0  0  0  0  0  0
   -1.5032    1.6852    0.0000 C   0  0  0  0  0  0  0  0  0  0  0  0
   -2.6760    0.7500    0.0000 C   0  0  0  0  0  0  0  0  0  0  0  0
    2.1100    0.0000    0.0000 C   0  0  0  0  0  0  0  0  0  0  0  0
    2.8600    1.2990    0.0000 O   0  0  0  0  0  0  0  0  0  0  0  0
    2.8600   -1.2990    0.0000 O   0  0  0  0  0  0  0  0  0  0  0  0
  1  2  1  0
  2  3  1  0
  3  4  1  0
  4  5  1  0
  5  6  1  0
  6  7  1  0
  4  8  1  0
  8  9  2  0
  8 10  1  0
  7  1  1  0
M  END
>  <rName>  (52) 
14-oxazepane-7-CO2H

>  <PQ_SYMBOL>  (52) 
14-oxazepane-7-CO2H

>  <FULL_NAME>  (52) 
1,4-Oxazepane-7-carboxylic acid

>  <IUPAC_CONDENSED>  (52) 
1,4-oxazepane-7-CO2H

>  <IUPAC>  (52) 
1-oxa-4-azacycloheptane-7-carboxylic acid

>  <TYPE>  (52) 
Backbone

>  <CLASS>  (52) 
gamma

>  <ANALOG>  (52) 
Pro

>  <MOL_WT>  (52) 
145.15800000000002

>  <LOGP>  (52) 
-0.5505000000000002

>  <TPSA>  (52) 
58.56

>  <POPULARITY>  (52) 
7.1

>  <PROTECTED>  (52) 
TRUE

>  <SMILES>  (52) 
N1CCC(OCC1)C(=O)O

>  <INCHIKEY>  (52) 
ITRSUFTVVQAKQI-UHFFFAOYSA-N

$$$$
14-oxazepane-7-CO2H_R
     RDKit          2D

 10 10  0  0  0  0  0  0  0  0999 V2000
   -2.6760   -0.7500    0.0000 N   0  0  0  0  0  0  0  0  0  0  0  0
   -1.5032   -1.6852    0.0000 C   0  0  0  0  0  0  0  0  0  0  0  0
   -0.0408   -1.3515    0.0000 C   0  0  0  0  0  0  0  0  0  0  0  0
    0.6100    0.0000    0.0000 C   0  0  0  0  0  0  0  0  0  0  0  0
   -0.0408    1.3515    0.0000 O   0  0  0  0  0  0  0  0  0  0  0  0
   -1.5032    1.6852    0.0000 C   0  0  0  0  0  0  0  0  0  0  0  0
   -2.6760    0.7500    0.0000 C   0  0  0  0  0  0  0  0  0  0  0  0
    2.1100    0.0000    0.0000 C   0  0  0  0  0  0  0  0  0  0  0  0
    2.8600    1.2990    0.0000 O   0  0  0  0  0  0  0  0  0  0  0  0
    2.8600   -1.2990    0.0000 O   0  0  0  0  0  0  0  0  0  0  0  0
  1  2  1  0
  2  3  1  0
  3  4  1  0
  4  5  1  0
  5  6  1  0
  6  7  1  0
  4  8  1  1
  8  9  2  0
  8 10  1  0
  7  1  1  0
M  END
>  <rName>  (53) 
14-oxazepane-7-CO2H_R

>  <PQ_SYMBOL>  (53) 
14-oxazepane-7-CO2H_R

>  <FULL_NAME>  (53) 
(7R)-1,4-oxazepane-7-carboxylic acid

>  <IUPAC_CONDENSED>  (53) 
1,4-oxazepane-7-CO2H(R)

>  <IUPAC>  (53) 
(7R)-1-oxa-4-azacycloheptane-7-carboxylic acid

>  <TYPE>  (53) 
Backbone

>  <CLASS>  (53) 
gamma

>  <ANALOG>  (53) 
Pro

>  <MOL_WT>  (53) 
145.15800000000002

>  <LOGP>  (53) 
-0.5505000000000002

>  <TPSA>  (53) 
58.56

>  <POPULARITY>  (53) 
6.1

>  <PROTECTED>  (53) 
TRUE

>  <SMILES>  (53) 
N1CC[C@@H](OCC1)C(=O)O

>  <INCHIKEY>  (53) 
ITRSUFTVVQAKQI-RXMQYKEDSA-N

$$$$
19-dioxa-4-azaspiro55undecane-2-CO2H
     RDKit          2D

 14 15  0  0  0  0  0  0  0  0999 V2000
   -0.4976   -2.4419    0.0000 N   0  0  0  0  0  0  0  0  0  0  0  0
   -1.7563   -1.6260    0.0000 C   0  0  0  0  0  0  0  0  0  0  0  0
   -1.6790   -0.1280    0.0000 C   0  0  0  0  0  0  0  0  0  0  0  0
   -0.3431    0.5541    0.0000 O   0  0  0  0  0  0  0  0  0  0  0  0
    0.9156   -0.2618    0.0000 C   0  0  0  0  0  0  0  0  0  0  0  0
    2.1743   -1.0777    0.0000 C   0  0  0  0  0  0  0  0  0  0  0  0
    3.5102   -0.3956    0.0000 C   0  0  0  0  0  0  0  0  0  0  0  0
    3.5875    1.1024    0.0000 O   0  0  0  0  0  0  0  0  0  0  0  0
    2.3288    1.9183    0.0000 C   0  0  0  0  0  0  0  0  0  0  0  0
    0.9929    1.2362    0.0000 C   0  0  0  0  0  0  0  0  0  0  0  0
    0.8384   -1.7598    0.0000 C   0  0  0  0  0  0  0  0  0  0  0  0
   -2.9377    0.6879    0.0000 C   0  0  0  0  0  0  0  0  0  0  0  0
   -4.2736    0.0058    0.0000 O   0  0  0  0  0  0  0  0  0  0  0  0
   -2.8605    2.1859    0.0000 O   0  0  0  0  0  0  0  0  0  0  0  0
  1  2  1  0
  2  3  1  0
  3  4  1  0
  4  5  1  0
  5  6  1  0
  6  7  1  0
  7  8  1  0
  8  9  1  0
  9 10  1  0
  5 11  1  0
  3 12  1  0
 12 13  2  0
 12 14  1  0
 10  5  1  0
 11  1  1  0
M  END
>  <rName>  (54) 
19-dioxa-4-azaspiro55undecane-2-CO2H

>  <PQ_SYMBOL>  (54) 
19-dioxa-4-azaspiro55undecane-2-CO2H

>  <FULL_NAME>  (54) 
1,9-Dioxa-4-azaspiro[5.5]undecane-2-carboxylic acid

>  <IUPAC_CONDENSED>  (54) 
1,9-dioxa-4-azaspiro[5.5]undecane-2-CO2H

>  <IUPAC>  (54) 
1,9-dioxa-4-azaspiro[5.5]undecane-2-carboxylic acid

>  <TYPE>  (54) 
Backbone

>  <CLASS>  (54) 
beta

>  <ANALOG>  (54) 
Pro

>  <MOL_WT>  (54) 
201.22199999999995

>  <LOGP>  (54) 
-0.3914000000000007

>  <TPSA>  (54) 
67.79

>  <POPULARITY>  (54) 
2.7

>  <PROTECTED>  (54) 
TRUE

>  <SMILES>  (54) 
N2CC(OC1(CCOCC1)C2)C(=O)O

>  <INCHIKEY>  (54) 
XBTBFWMJHOGOBC-UHFFFAOYSA-N

$$$$
1Nal
     RDKit          2D

 16 17  0  0  0  0  0  0  0  0999 V2000
   -2.7457   -1.6512    0.0000 N   0  0  0  0  0  0  0  0  0  0  0  0
   -2.6203   -0.1565    0.0000 C   0  0  0  0  0  0  0  0  0  0  0  0
   -1.2631    0.4823    0.0000 C   0  0  0  0  0  0  0  0  0  0  0  0
   -0.0314   -0.3737    0.0000 C   0  0  0  0  0  0  0  0  0  0  0  0
   -0.1568   -1.8684    0.0000 C   0  0  0  0  0  0  0  0  0  0  0  0
    1.0750   -2.7244    0.0000 C   0  0  0  0  0  0  0  0  0  0  0  0
    2.4322   -2.0856    0.0000 C   0  0  0  0  0  0  0  0  0  0  0  0
    2.5576   -0.5909    0.0000 C   0  0  0  0  0  0  0  0  0  0  0  0
    3.9148    0.0479    0.0000 C   0  0  0  0  0  0  0  0  0  0  0  0
    4.0402    1.5426    0.0000 C   0  0  0  0  0  0  0  0  0  0  0  0
    2.8084    2.3986    0.0000 C   0  0  0  0  0  0  0  0  0  0  0  0
    1.4512    1.7598    0.0000 C   0  0  0  0  0  0  0  0  0  0  0  0
    1.3258    0.2651    0.0000 C   0  0  0  0  0  0  0  0  0  0  0  0
   -3.8521    0.6995    0.0000 C   0  0  0  0  0  0  0  0  0  0  0  0
   -3.7267    2.1942    0.0000 O   0  0  0  0  0  0  0  0  0  0  0  0
   -5.2093    0.0607    0.0000 O   0  0  0  0  0  0  0  0  0  0  0  0
  2  1  1  6
  2  3  1  0
  3  4  1  0
  4  5  2  0
  5  6  1  0
  6  7  2  0
  7  8  1  0
  8  9  2  0
  9 10  1  0
 10 11  2  0
 11 12  1  0
 12 13  2  0
  2 14  1  0
 14 15  2  0
 14 16  1  0
 13  4  1  0
 13  8  1  0
M  END
>  <rName>  (55) 
1Nal

>  <PQ_SYMBOL>  (55) 
1Nal

>  <FULL_NAME>  (55) 
3-(1-naphthyl)-L-Alanine

>  <IUPAC_CONDENSED>  (55) 
1Nal

>  <IUPAC>  (55) 
(2S)-2-amino-3-(naphthalen-1-yl)propanoic acid

>  <TYPE>  (55) 
Backbone

>  <CLASS>  (55) 
alpha

>  <ANALOG>  (55) 
Phe

>  <MOL_WT>  (55) 
215.25199999999998

>  <LOGP>  (55) 
1.7942

>  <TPSA>  (55) 
63.32000000000001

>  <POPULARITY>  (55) 
36.0

>  <PROTECTED>  (55) 
TRUE

>  <SMILES>  (55) 
N[C@@H](Cc1(cccc2(ccccc12)))C(=O)O

>  <INCHIKEY>  (55) 
OFYAYGJCPXRNBL-LBPRGKRZSA-N

$$$$
1Nal_2Me
     RDKit          2D

 17 18  0  0  0  0  0  0  0  0999 V2000
    1.3474   -1.5073    0.0000 N   0  0  0  0  0  0  0  0  0  0  0  0
    2.0769   -0.1966    0.0000 C   0  0  0  0  0  0  0  0  0  0  0  0
    1.3065    1.0905    0.0000 C   0  0  0  0  0  0  0  0  0  0  0  0
   -0.1933    1.0669    0.0000 C   0  0  0  0  0  0  0  0  0  0  0  0
   -0.9636    2.3540    0.0000 C   0  0  0  0  0  0  0  0  0  0  0  0
   -0.2342    3.6646    0.0000 C   0  0  0  0  0  0  0  0  0  0  0  0
   -2.4635    2.3303    0.0000 C   0  0  0  0  0  0  0  0  0  0  0  0
   -3.1929    1.0197    0.0000 C   0  0  0  0  0  0  0  0  0  0  0  0
   -2.4226   -0.2674    0.0000 C   0  0  0  0  0  0  0  0  0  0  0  0
   -3.1520   -1.5781    0.0000 C   0  0  0  0  0  0  0  0  0  0  0  0
   -2.3817   -2.8652    0.0000 C   0  0  0  0  0  0  0  0  0  0  0  0
   -0.8819   -2.8416    0.0000 C   0  0  0  0  0  0  0  0  0  0  0  0
   -0.1524   -1.5309    0.0000 C   0  0  0  0  0  0  0  0  0  0  0  0
   -0.9227   -0.2438    0.0000 C   0  0  0  0  0  0  0  0  0  0  0  0
    3.5767   -0.1730    0.0000 C   0  0  0  0  0  0  0  0  0  0  0  0
    4.3062    1.1377    0.0000 O   0  0  0  0  0  0  0  0  0  0  0  0
    4.3470   -1.4600    0.0000 O   0  0  0  0  0  0  0  0  0  0  0  0
  2  1  1  1
  2  3  1  0
  3  4  1  0
  4  5  2  0
  5  6  1  0
  5  7  1  0
  7  8  2  0
  8  9  1  0
  9 10  2  0
 10 11  1  0
 11 12  2  0
 12 13  1  0
 13 14  2  0
  2 15  1  0
 15 16  2  0
 15 17  1  0
 14  9  1  0
 14  4  1  0
M  END
>  <rName>  (56) 
1Nal_2Me

>  <PQ_SYMBOL>  (56) 
1Nal_2Me

>  <FULL_NAME>  (56) 
(S)-2-amino-3-(2-methylnaphthalen-1-yl)propanoic acid

>  <IUPAC_CONDENSED>  (56) 
1Nal(2-Me)

>  <IUPAC>  (56) 
(2S)-2-amino-3-(2-methylnaphthalen-1-yl)propanoic acid

>  <TYPE>  (56) 
Backbone

>  <CLASS>  (56) 
alpha

>  <ANALOG>  (56) 
Phe

>  <MOL_WT>  (56) 
229.279

>  <LOGP>  (56) 
2.10262

>  <TPSA>  (56) 
63.32000000000001

>  <POPULARITY>  (56) 
4.4

>  <PROTECTED>  (56) 
TRUE

>  <SMILES>  (56) 
N[C@@H](Cc2(c(C)ccc1(ccccc12)))C(=O)O

>  <INCHIKEY>  (56) 
FTKYILMCBINOLV-ZDUSSCGKSA-N

$$$$
1Nal_2OH
     RDKit          2D

 17 18  0  0  0  0  0  0  0  0999 V2000
   -2.7143   -1.3971    0.0000 N   0  0  0  0  0  0  0  0  0  0  0  0
   -2.5296    0.0915    0.0000 C   0  0  0  0  0  0  0  0  0  0  0  0
   -1.1482    0.6759    0.0000 C   0  0  0  0  0  0  0  0  0  0  0  0
    0.0487   -0.2283    0.0000 C   0  0  0  0  0  0  0  0  0  0  0  0
   -0.1359   -1.7169    0.0000 C   0  0  0  0  0  0  0  0  0  0  0  0
   -1.5174   -2.3013    0.0000 O   0  0  0  0  0  0  0  0  0  0  0  0
    1.0609   -2.6211    0.0000 C   0  0  0  0  0  0  0  0  0  0  0  0
    2.4424   -2.0367    0.0000 C   0  0  0  0  0  0  0  0  0  0  0  0
    2.6270   -0.5481    0.0000 C   0  0  0  0  0  0  0  0  0  0  0  0
    4.0085    0.0363    0.0000 C   0  0  0  0  0  0  0  0  0  0  0  0
    4.1931    1.5249    0.0000 C   0  0  0  0  0  0  0  0  0  0  0  0
    2.9963    2.4291    0.0000 C   0  0  0  0  0  0  0  0  0  0  0  0
    1.6148    1.8447    0.0000 C   0  0  0  0  0  0  0  0  0  0  0  0
    1.4302    0.3561    0.0000 C   0  0  0  0  0  0  0  0  0  0  0  0
   -3.7265    0.9957    0.0000 C   0  0  0  0  0  0  0  0  0  0  0  0
   -3.5419    2.4843    0.0000 O   0  0  0  0  0  0  0  0  0  0  0  0
   -5.1080    0.4113    0.0000 O   0  0  0  0  0  0  0  0  0  0  0  0
  2  1  1  6
  2  3  1  0
  3  4  1  0
  4  5  2  0
  5  6  1  0
  5  7  1  0
  7  8  2  0
  8  9  1  0
  9 10  2  0
 10 11  1  0
 11 12  2  0
 12 13  1  0
 13 14  2  0
  2 15  1  0
 15 16  2  0
 15 17  1  0
 14  4  1  0
 14  9  1  0
M  END
>  <rName>  (57) 
1Nal_2OH

>  <PQ_SYMBOL>  (57) 
1Nal_2OH

>  <FULL_NAME>  (57) 
3-(2-hydroxynaphth-1-yl)-L-alanine

>  <IUPAC_CONDENSED>  (57) 
1Nal(2-OH)

>  <IUPAC>  (57) 
(2S)-2-amino-3-(2-hydroxynaphthalen-1-yl)propanoic acid

>  <TYPE>  (57) 
Backbone

>  <CLASS>  (57) 
alpha

>  <ANALOG>  (57) 
Tyr

>  <MOL_WT>  (57) 
231.25099999999998

>  <LOGP>  (57) 
1.4998

>  <TPSA>  (57) 
83.55

>  <POPULARITY>  (57) 
3.3

>  <PROTECTED>  (57) 
TRUE

>  <SMILES>  (57) 
N[C@@H](Cc1(c(O)ccc2(ccccc12)))C(=O)O

>  <INCHIKEY>  (57) 
ULBSHZGEDXSKOL-NSHDSACASA-N

$$$$
1Nal_2OH_3OH
     RDKit          2D

 18 19  0  0  0  0  0  0  0  0999 V2000
   -2.7072   -1.2928    0.0000 N   0  0  0  0  0  0  0  0  0  0  0  0
   -2.5902    0.2027    0.0000 C   0  0  0  0  0  0  0  0  0  0  0  0
   -1.2366    0.8491    0.0000 C   0  0  0  0  0  0  0  0  0  0  0  0
   -0.0000   -0.0000    0.0000 C   0  0  0  0  0  0  0  0  0  0  0  0
   -0.1170   -1.4954    0.0000 C   0  0  0  0  0  0  0  0  0  0  0  0
   -1.4706   -2.1418    0.0000 O   0  0  0  0  0  0  0  0  0  0  0  0
    1.1196   -2.3445    0.0000 C   0  0  0  0  0  0  0  0  0  0  0  0
    1.0025   -3.8399    0.0000 O   0  0  0  0  0  0  0  0  0  0  0  0
    2.4731   -1.6981    0.0000 C   0  0  0  0  0  0  0  0  0  0  0  0
    2.5902   -0.2027    0.0000 C   0  0  0  0  0  0  0  0  0  0  0  0
    3.9437    0.4437    0.0000 C   0  0  0  0  0  0  0  0  0  0  0  0
    4.0608    1.9391    0.0000 C   0  0  0  0  0  0  0  0  0  0  0  0
    2.8242    2.7882    0.0000 C   0  0  0  0  0  0  0  0  0  0  0  0
    1.4706    2.1418    0.0000 C   0  0  0  0  0  0  0  0  0  0  0  0
    1.3536    0.6464    0.0000 C   0  0  0  0  0  0  0  0  0  0  0  0
   -3.8267    1.0517    0.0000 C   0  0  0  0  0  0  0  0  0  0  0  0
   -3.7097    2.5472    0.0000 O   0  0  0  0  0  0  0  0  0  0  0  0
   -5.1803    0.4053    0.0000 O   0  0  0  0  0  0  0  0  0  0  0  0
  2  1  1  6
  2  3  1  0
  3  4  1  0
  4  5  2  0
  5  6  1  0
  5  7  1  0
  7  8  1  0
  7  9  2  0
  9 10  1  0
 10 11  2  0
 11 12  1  0
 12 13  2  0
 13 14  1  0
 14 15  2  0
  2 16  1  0
 16 17  2  0
 16 18  1  0
 15  4  1  0
 15 10  1  0
M  END
>  <rName>  (58) 
1Nal_2OH_3OH

>  <PQ_SYMBOL>  (58) 
1Nal_2OH_3OH

>  <FULL_NAME>  (58) 
3-(2,3-dihydroxynaphth-1-yl)-L-alanine

>  <IUPAC_CONDENSED>  (58) 
1Nal(2-OH,3-OH)

>  <IUPAC>  (58) 
(2S)-2-amino-3-(2,3-dihydroxynaphthalen-1-yl)propanoic acid

>  <TYPE>  (58) 
Backbone

>  <CLASS>  (58) 
alpha

>  <ANALOG>  (58) 
Tyr

>  <MOL_WT>  (58) 
247.24999999999997

>  <LOGP>  (58) 
1.2053999999999998

>  <TPSA>  (58) 
103.78000000000002

>  <POPULARITY>  (58) 
2.9

>  <PROTECTED>  (58) 
TRUE

>  <SMILES>  (58) 
N[C@@H](Cc1(c(O)c(O)cc2(ccccc12)))C(=O)O

>  <INCHIKEY>  (58) 
MSILMXRNDAXRQC-JTQLQIEISA-N

$$$$
1Nal_2OH_7OH
     RDKit          2D

 18 19  0  0  0  0  0  0  0  0999 V2000
   -3.0818   -1.2114    0.0000 N   0  0  0  0  0  0  0  0  0  0  0  0
   -2.6987    0.2388    0.0000 C   0  0  0  0  0  0  0  0  0  0  0  0
   -1.2512    0.6322    0.0000 C   0  0  0  0  0  0  0  0  0  0  0  0
   -0.1868   -0.4247    0.0000 C   0  0  0  0  0  0  0  0  0  0  0  0
   -0.5699   -1.8750    0.0000 C   0  0  0  0  0  0  0  0  0  0  0  0
   -2.0174   -2.2683    0.0000 O   0  0  0  0  0  0  0  0  0  0  0  0
    0.4945   -2.9319    0.0000 C   0  0  0  0  0  0  0  0  0  0  0  0
    1.9420   -2.5385    0.0000 C   0  0  0  0  0  0  0  0  0  0  0  0
    2.3251   -1.0883    0.0000 C   0  0  0  0  0  0  0  0  0  0  0  0
    3.7726   -0.6949    0.0000 C   0  0  0  0  0  0  0  0  0  0  0  0
    4.1557    0.7554    0.0000 C   0  0  0  0  0  0  0  0  0  0  0  0
    3.0913    1.8123    0.0000 C   0  0  0  0  0  0  0  0  0  0  0  0
    3.4744    3.2625    0.0000 O   0  0  0  0  0  0  0  0  0  0  0  0
    1.6438    1.4189    0.0000 C   0  0  0  0  0  0  0  0  0  0  0  0
    1.2607   -0.0313    0.0000 C   0  0  0  0  0  0  0  0  0  0  0  0
   -3.7632    1.2957    0.0000 C   0  0  0  0  0  0  0  0  0  0  0  0
   -3.3801    2.7460    0.0000 O   0  0  0  0  0  0  0  0  0  0  0  0
   -5.2107    0.9024    0.0000 O   0  0  0  0  0  0  0  0  0  0  0  0
  2  1  1  6
  2  3  1  0
  3  4  1  0
  4  5  1  0
  5  6  1  0
  5  7  2  0
  7  8  1  0
  8  9  2  0
  9 10  1  0
 10 11  2  0
 11 12  1  0
 12 13  1  0
 12 14  2  0
 14 15  1  0
  2 16  1  0
 16 17  2  0
 16 18  1  0
 15  4  2  0
 15  9  1  0
M  END
>  <rName>  (59) 
1Nal_2OH_7OH

>  <PQ_SYMBOL>  (59) 
1Nal_2OH_7OH

>  <FULL_NAME>  (59) 
3-(2,7-dihydroxynaphth-1-yl)-L-alanine

>  <IUPAC_CONDENSED>  (59) 
1Nal(2-OH,7-OH)

>  <IUPAC>  (59) 
(2S)-2-amino-3-(2,7-dihydroxynaphthalen-1-yl)propanoic acid

>  <TYPE>  (59) 
Backbone

>  <CLASS>  (59) 
alpha

>  <ANALOG>  (59) 
Tyr

>  <MOL_WT>  (59) 
247.24999999999997

>  <LOGP>  (59) 
1.2054

>  <TPSA>  (59) 
103.78000000000002

>  <POPULARITY>  (59) 
3.0

>  <PROTECTED>  (59) 
TRUE

>  <SMILES>  (59) 
N[C@@H](Cc1(c(O)ccc2(ccc(O)cc12)))C(=O)O

>  <INCHIKEY>  (59) 
FGCUKOUUMCTXJL-NSHDSACASA-N

$$$$
1Nal_2OH_7OMe
     RDKit          2D

 19 20  0  0  0  0  0  0  0  0999 V2000
   -3.5273   -0.8310    0.0000 N   0  0  0  0  0  0  0  0  0  0  0  0
   -2.9092    0.5357    0.0000 C   0  0  0  0  0  0  0  0  0  0  0  0
   -1.4166    0.6839    0.0000 C   0  0  0  0  0  0  0  0  0  0  0  0
   -0.5419   -0.5347    0.0000 C   0  0  0  0  0  0  0  0  0  0  0  0
   -1.1600   -1.9015    0.0000 C   0  0  0  0  0  0  0  0  0  0  0  0
   -2.6526   -2.0496    0.0000 O   0  0  0  0  0  0  0  0  0  0  0  0
   -0.2854   -3.1201    0.0000 C   0  0  0  0  0  0  0  0  0  0  0  0
    1.2073   -2.9720    0.0000 C   0  0  0  0  0  0  0  0  0  0  0  0
    1.8254   -1.6052    0.0000 C   0  0  0  0  0  0  0  0  0  0  0  0
    3.3180   -1.4571    0.0000 C   0  0  0  0  0  0  0  0  0  0  0  0
    3.9361   -0.0903    0.0000 C   0  0  0  0  0  0  0  0  0  0  0  0
    3.0614    1.1283    0.0000 C   0  0  0  0  0  0  0  0  0  0  0  0
    3.6795    2.4951    0.0000 O   0  0  0  0  0  0  0  0  0  0  0  0
    5.1721    2.6432    0.0000 C   0  0  0  0  0  0  0  0  0  0  0  0
    1.5688    0.9802    0.0000 C   0  0  0  0  0  0  0  0  0  0  0  0
    0.9507   -0.3866    0.0000 C   0  0  0  0  0  0  0  0  0  0  0  0
   -3.7839    1.7544    0.0000 C   0  0  0  0  0  0  0  0  0  0  0  0
   -3.1658    3.1211    0.0000 O   0  0  0  0  0  0  0  0  0  0  0  0
   -5.2765    1.6062    0.0000 O   0  0  0  0  0  0  0  0  0  0  0  0
  2  1  1  6
  2  3  1  0
  3  4  1  0
  4  5  1  0
  5  6  1  0
  5  7  2  0
  7  8  1  0
  8  9  2  0
  9 10  1  0
 10 11  2  0
 11 12  1  0
 12 13  1  0
 13 14  1  0
 12 15  2  0
 15 16  1  0
  2 17  1  0
 17 18  2  0
 17 19  1  0
 16  4  2  0
 16  9  1  0
M  END
>  <rName>  (60) 
1Nal_2OH_7OMe

>  <PQ_SYMBOL>  (60) 
1Nal_2OH_7OMe

>  <FULL_NAME>  (60) 
3-(7-methoxy-2-hydroxynaphth-1-yl)-L-alanine

>  <IUPAC_CONDENSED>  (60) 
1Nal(2-OH,7-OMe)

>  <IUPAC>  (60) 
(2S)-2-amino-3-(2-hydroxy-7-methoxynaphthalen-1-yl)propanoic acid

>  <TYPE>  (60) 
Backbone

>  <CLASS>  (60) 
alpha

>  <ANALOG>  (60) 
Tyr

>  <MOL_WT>  (60) 
261.27699999999993

>  <LOGP>  (60) 
1.5084000000000002

>  <TPSA>  (60) 
92.78000000000002

>  <POPULARITY>  (60) 
3.0

>  <PROTECTED>  (60) 
TRUE

>  <SMILES>  (60) 
N[C@@H](Cc1(c(O)ccc2(ccc(OC)cc12)))C(=O)O

>  <INCHIKEY>  (60) 
ATIVPLAWVYOAHI-LBPRGKRZSA-N

$$$$
1Nal_4F
     RDKit          2D

 17 18  0  0  0  0  0  0  0  0999 V2000
   -2.7953   -1.7721    0.0000 N   0  0  0  0  0  0  0  0  0  0  0  0
   -2.8228   -0.2723    0.0000 C   0  0  0  0  0  0  0  0  0  0  0  0
   -1.5377    0.5013    0.0000 C   0  0  0  0  0  0  0  0  0  0  0  0
   -0.2252   -0.2248    0.0000 C   0  0  0  0  0  0  0  0  0  0  0  0
   -0.1977   -1.7245    0.0000 C   0  0  0  0  0  0  0  0  0  0  0  0
    1.1149   -2.4506    0.0000 C   0  0  0  0  0  0  0  0  0  0  0  0
    2.4000   -1.6769    0.0000 C   0  0  0  0  0  0  0  0  0  0  0  0
    3.7125   -2.4030    0.0000 F   0  0  0  0  0  0  0  0  0  0  0  0
    2.3725   -0.1772    0.0000 C   0  0  0  0  0  0  0  0  0  0  0  0
    3.6576    0.5965    0.0000 C   0  0  0  0  0  0  0  0  0  0  0  0
    3.6301    2.0963    0.0000 C   0  0  0  0  0  0  0  0  0  0  0  0
    2.3175    2.8223    0.0000 C   0  0  0  0  0  0  0  0  0  0  0  0
    1.0324    2.0487    0.0000 C   0  0  0  0  0  0  0  0  0  0  0  0
    1.0599    0.5489    0.0000 C   0  0  0  0  0  0  0  0  0  0  0  0
   -4.1354    0.4537    0.0000 C   0  0  0  0  0  0  0  0  0  0  0  0
   -4.1628    1.9535    0.0000 O   0  0  0  0  0  0  0  0  0  0  0  0
   -5.4204   -0.3199    0.0000 O   0  0  0  0  0  0  0  0  0  0  0  0
  2  1  1  6
  2  3  1  0
  3  4  1  0
  4  5  2  0
  5  6  1  0
  6  7  2  0
  7  8  1  0
  7  9  1  0
  9 10  2  0
 10 11  1  0
 11 12  2  0
 12 13  1  0
 13 14  2  0
  2 15  1  0
 15 16  2  0
 15 17  1  0
 14  4  1  0
 14  9  1  0
M  END
>  <rName>  (61) 
1Nal_4F

>  <PQ_SYMBOL>  (61) 
1Nal_4F

>  <FULL_NAME>  (61) 
(2S)-2-amino-3-(4-fluoronaphthalen-1-yl)propanoic acid

>  <IUPAC_CONDENSED>  (61) 
1Nal(4-F)

>  <IUPAC>  (61) 
(2S)-2-amino-3-(4-fluoronaphthalen-1-yl)propanoic acid

>  <TYPE>  (61) 
Backbone

>  <CLASS>  (61) 
alpha

>  <ANALOG>  (61) 
Phe

>  <MOL_WT>  (61) 
233.242

>  <LOGP>  (61) 
1.9333

>  <TPSA>  (61) 
63.32000000000001

>  <POPULARITY>  (61) 
2.7

>  <PROTECTED>  (61) 
TRUE

>  <SMILES>  (61) 
N[C@@H](Cc1(ccc(F)c2(ccccc12)))C(=O)O

>  <INCHIKEY>  (61) 
KAUORQJJAWLFJG-LBPRGKRZSA-N

$$$$
1Nal_4OH
     RDKit          2D

 17 18  0  0  0  0  0  0  0  0999 V2000
   -2.7953   -1.7721    0.0000 N   0  0  0  0  0  0  0  0  0  0  0  0
   -2.8228   -0.2723    0.0000 C   0  0  0  0  0  0  0  0  0  0  0  0
   -1.5377    0.5013    0.0000 C   0  0  0  0  0  0  0  0  0  0  0  0
   -0.2252   -0.2248    0.0000 C   0  0  0  0  0  0  0  0  0  0  0  0
   -0.1977   -1.7245    0.0000 C   0  0  0  0  0  0  0  0  0  0  0  0
    1.1149   -2.4506    0.0000 C   0  0  0  0  0  0  0  0  0  0  0  0
    2.4000   -1.6769    0.0000 C   0  0  0  0  0  0  0  0  0  0  0  0
    3.7125   -2.4030    0.0000 O   0  0  0  0  0  0  0  0  0  0  0  0
    2.3725   -0.1772    0.0000 C   0  0  0  0  0  0  0  0  0  0  0  0
    3.6576    0.5965    0.0000 C   0  0  0  0  0  0  0  0  0  0  0  0
    3.6301    2.0963    0.0000 C   0  0  0  0  0  0  0  0  0  0  0  0
    2.3175    2.8223    0.0000 C   0  0  0  0  0  0  0  0  0  0  0  0
    1.0324    2.0487    0.0000 C   0  0  0  0  0  0  0  0  0  0  0  0
    1.0599    0.5489    0.0000 C   0  0  0  0  0  0  0  0  0  0  0  0
   -4.1354    0.4537    0.0000 C   0  0  0  0  0  0  0  0  0  0  0  0
   -4.1628    1.9535    0.0000 O   0  0  0  0  0  0  0  0  0  0  0  0
   -5.4204   -0.3199    0.0000 O   0  0  0  0  0  0  0  0  0  0  0  0
  2  1  1  6
  2  3  1  0
  3  4  1  0
  4  5  2  0
  5  6  1  0
  6  7  2  0
  7  8  1  0
  7  9  1  0
  9 10  2  0
 10 11  1  0
 11 12  2  0
 12 13  1  0
 13 14  2  0
  2 15  1  0
 15 16  2  0
 15 17  1  0
 14  4  1  0
 14  9  1  0
M  END
>  <rName>  (62) 
1Nal_4OH

>  <PQ_SYMBOL>  (62) 
1Nal_4OH

>  <FULL_NAME>  (62) 
3-(4-hydroxynaphth-1-yl)-L-alanine

>  <IUPAC_CONDENSED>  (62) 
1Nal(4-OH)

>  <IUPAC>  (62) 
(2S)-2-amino-3-(4-hydroxynaphthalen-1-yl)propanoic acid

>  <TYPE>  (62) 
Backbone

>  <CLASS>  (62) 
alpha

>  <ANALOG>  (62) 
Tyr

>  <MOL_WT>  (62) 
231.25099999999998

>  <LOGP>  (62) 
1.4998

>  <TPSA>  (62) 
83.55

>  <POPULARITY>  (62) 
3.3

>  <PROTECTED>  (62) 
TRUE

>  <SMILES>  (62) 
N[C@@H](Cc1(ccc(O)c2(ccccc12)))C(=O)O

>  <INCHIKEY>  (62) 
KHPONCZWNVLISF-NSHDSACASA-N

$$$$
1Nal_4OH_5Br
     RDKit          2D

 18 19  0  0  0  0  0  0  0  0999 V2000
   -3.0627   -1.7800    0.0000 N   0  0  0  0  0  0  0  0  0  0  0  0
   -3.0976   -0.2804    0.0000 C   0  0  0  0  0  0  0  0  0  0  0  0
   -1.8163    0.4996    0.0000 C   0  0  0  0  0  0  0  0  0  0  0  0
   -0.5002   -0.2200    0.0000 C   0  0  0  0  0  0  0  0  0  0  0  0
   -0.4653   -1.7196    0.0000 C   0  0  0  0  0  0  0  0  0  0  0  0
    0.8508   -2.4392    0.0000 C   0  0  0  0  0  0  0  0  0  0  0  0
    2.1320   -1.6592    0.0000 C   0  0  0  0  0  0  0  0  0  0  0  0
    3.4482   -2.3788    0.0000 O   0  0  0  0  0  0  0  0  0  0  0  0
    2.0972   -0.1596    0.0000 C   0  0  0  0  0  0  0  0  0  0  0  0
    3.3784    0.6204    0.0000 C   0  0  0  0  0  0  0  0  0  0  0  0
    4.6945   -0.0992    0.0000 Br  0  0  0  0  0  0  0  0  0  0  0  0
    3.3436    2.1200    0.0000 C   0  0  0  0  0  0  0  0  0  0  0  0
    2.0274    2.8396    0.0000 C   0  0  0  0  0  0  0  0  0  0  0  0
    0.7462    2.0596    0.0000 C   0  0  0  0  0  0  0  0  0  0  0  0
    0.7811    0.5600    0.0000 C   0  0  0  0  0  0  0  0  0  0  0  0
   -4.4137    0.4392    0.0000 C   0  0  0  0  0  0  0  0  0  0  0  0
   -4.4486    1.9388    0.0000 O   0  0  0  0  0  0  0  0  0  0  0  0
   -5.6950   -0.3408    0.0000 O   0  0  0  0  0  0  0  0  0  0  0  0
  2  1  1  6
  2  3  1  0
  3  4  1  0
  4  5  2  0
  5  6  1  0
  6  7  2  0
  7  8  1  0
  7  9  1  0
  9 10  2  0
 10 11  1  0
 10 12  1  0
 12 13  2  0
 13 14  1  0
 14 15  2  0
  2 16  1  0
 16 17  2  0
 16 18  1  0
 15  4  1  0
 15  9  1  0
M  END
>  <rName>  (63) 
1Nal_4OH_5Br

>  <PQ_SYMBOL>  (63) 
1Nal_4OH_5Br

>  <FULL_NAME>  (63) 
3-(5-bromo-4-hydroxynaphth-1-yl)-L-alanine

>  <IUPAC_CONDENSED>  (63) 
1Nal(4-OH,5-Br)

>  <IUPAC>  (63) 
(2S)-2-amino-3-(5-bromo-4-hydroxynaphthalen-1-yl)propanoic acid

>  <TYPE>  (63) 
Backbone

>  <CLASS>  (63) 
alpha

>  <ANALOG>  (63) 
Tyr

>  <MOL_WT>  (63) 
310.14700000000005

>  <LOGP>  (63) 
2.2622999999999998

>  <TPSA>  (63) 
83.55

>  <POPULARITY>  (63) 
3.9

>  <PROTECTED>  (63) 
TRUE

>  <SMILES>  (63) 
N[C@@H](Cc1(ccc(O)c2(c(Br)cccc12)))C(=O)O

>  <INCHIKEY>  (63) 
YQIGFVYOJBIQMC-JTQLQIEISA-N

$$$$
1Nal_4OH_7Br
     RDKit          2D

 18 19  0  0  0  0  0  0  0  0999 V2000
   -3.1179   -1.6938    0.0000 N   0  0  0  0  0  0  0  0  0  0  0  0
   -2.9876   -0.1995    0.0000 C   0  0  0  0  0  0  0  0  0  0  0  0
   -1.6283    0.4348    0.0000 C   0  0  0  0  0  0  0  0  0  0  0  0
   -0.3993   -0.4252    0.0000 C   0  0  0  0  0  0  0  0  0  0  0  0
   -0.5296   -1.9196    0.0000 C   0  0  0  0  0  0  0  0  0  0  0  0
    0.6993   -2.7796    0.0000 C   0  0  0  0  0  0  0  0  0  0  0  0
    2.0586   -2.1453    0.0000 C   0  0  0  0  0  0  0  0  0  0  0  0
    3.2876   -3.0054    0.0000 O   0  0  0  0  0  0  0  0  0  0  0  0
    2.1889   -0.6510    0.0000 C   0  0  0  0  0  0  0  0  0  0  0  0
    3.5482   -0.0167    0.0000 C   0  0  0  0  0  0  0  0  0  0  0  0
    3.6786    1.4776    0.0000 C   0  0  0  0  0  0  0  0  0  0  0  0
    2.4496    2.3376    0.0000 C   0  0  0  0  0  0  0  0  0  0  0  0
    2.5800    3.8320    0.0000 Br  0  0  0  0  0  0  0  0  0  0  0  0
    1.0903    1.7034    0.0000 C   0  0  0  0  0  0  0  0  0  0  0  0
    0.9600    0.2090    0.0000 C   0  0  0  0  0  0  0  0  0  0  0  0
   -4.2165    0.6606    0.0000 C   0  0  0  0  0  0  0  0  0  0  0  0
   -4.0862    2.1549    0.0000 O   0  0  0  0  0  0  0  0  0  0  0  0
   -5.5758    0.0263    0.0000 O   0  0  0  0  0  0  0  0  0  0  0  0
  2  1  1  6
  2  3  1  0
  3  4  1  0
  4  5  1  0
  5  6  2  0
  6  7  1  0
  7  8  1  0
  7  9  2  0
  9 10  1  0
 10 11  2  0
 11 12  1  0
 12 13  1  0
 12 14  2  0
 14 15  1  0
  2 16  1  0
 16 17  2  0
 16 18  1  0
 15  4  2  0
 15  9  1  0
M  END
>  <rName>  (64) 
1Nal_4OH_7Br

>  <PQ_SYMBOL>  (64) 
1Nal_4OH_7Br

>  <FULL_NAME>  (64) 
3-(7-bromo-4-hydroxynaphth-1-yl)-L-alanine

>  <IUPAC_CONDENSED>  (64) 
1Nal(4-OH,7-Br)

>  <IUPAC>  (64) 
(2S)-2-amino-3-(7-bromo-4-hydroxynaphthalen-1-yl)propanoic acid

>  <TYPE>  (64) 
Backbone

>  <CLASS>  (64) 
alpha

>  <ANALOG>  (64) 
Tyr

>  <MOL_WT>  (64) 
310.14700000000005

>  <LOGP>  (64) 
2.2622999999999998

>  <TPSA>  (64) 
83.55

>  <POPULARITY>  (64) 
2.3

>  <PROTECTED>  (64) 
TRUE

>  <SMILES>  (64) 
N[C@@H](Cc1(ccc(O)c2(ccc(Br)cc12)))C(=O)O

>  <INCHIKEY>  (64) 
CKDIPEWMMDTZNQ-NSHDSACASA-N

$$$$
1Nal_4OH_7F
     RDKit          2D

 18 19  0  0  0  0  0  0  0  0999 V2000
   -3.1179   -1.6938    0.0000 N   0  0  0  0  0  0  0  0  0  0  0  0
   -2.9876   -0.1995    0.0000 C   0  0  0  0  0  0  0  0  0  0  0  0
   -1.6283    0.4348    0.0000 C   0  0  0  0  0  0  0  0  0  0  0  0
   -0.3993   -0.4252    0.0000 C   0  0  0  0  0  0  0  0  0  0  0  0
   -0.5296   -1.9196    0.0000 C   0  0  0  0  0  0  0  0  0  0  0  0
    0.6993   -2.7796    0.0000 C   0  0  0  0  0  0  0  0  0  0  0  0
    2.0586   -2.1453    0.0000 C   0  0  0  0  0  0  0  0  0  0  0  0
    3.2876   -3.0054    0.0000 O   0  0  0  0  0  0  0  0  0  0  0  0
    2.1889   -0.6510    0.0000 C   0  0  0  0  0  0  0  0  0  0  0  0
    3.5482   -0.0167    0.0000 C   0  0  0  0  0  0  0  0  0  0  0  0
    3.6786    1.4776    0.0000 C   0  0  0  0  0  0  0  0  0  0  0  0
    2.4496    2.3376    0.0000 C   0  0  0  0  0  0  0  0  0  0  0  0
    2.5800    3.8320    0.0000 F   0  0  0  0  0  0  0  0  0  0  0  0
    1.0903    1.7034    0.0000 C   0  0  0  0  0  0  0  0  0  0  0  0
    0.9600    0.2090    0.0000 C   0  0  0  0  0  0  0  0  0  0  0  0
   -4.2165    0.6606    0.0000 C   0  0  0  0  0  0  0  0  0  0  0  0
   -4.0862    2.1549    0.0000 O   0  0  0  0  0  0  0  0  0  0  0  0
   -5.5758    0.0263    0.0000 O   0  0  0  0  0  0  0  0  0  0  0  0
  2  1  1  6
  2  3  1  0
  3  4  1  0
  4  5  1  0
  5  6  2  0
  6  7  1  0
  7  8  1  0
  7  9  2  0
  9 10  1  0
 10 11  2  0
 11 12  1  0
 12 13  1  0
 12 14  2  0
 14 15  1  0
  2 16  1  0
 16 17  2  0
 16 18  1  0
 15  4  2  0
 15  9  1  0
M  END
>  <rName>  (65) 
1Nal_4OH_7F

>  <PQ_SYMBOL>  (65) 
1Nal_4OH_7F

>  <FULL_NAME>  (65) 
3-(7-fluoro-4-hydroxynaphth-1-yl)-L-alanine

>  <IUPAC_CONDENSED>  (65) 
1Nal(4-OH,7-F)

>  <IUPAC>  (65) 
(2S)-2-amino-3-(7-fluoro-4-hydroxynaphthalen-1-yl)propanoic acid

>  <TYPE>  (65) 
Backbone

>  <CLASS>  (65) 
alpha

>  <ANALOG>  (65) 
Tyr

>  <MOL_WT>  (65) 
249.24099999999996

>  <LOGP>  (65) 
1.6389

>  <TPSA>  (65) 
83.55

>  <POPULARITY>  (65) 
2.6

>  <PROTECTED>  (65) 
TRUE

>  <SMILES>  (65) 
N[C@@H](Cc1(ccc(O)c2(ccc(F)cc12)))C(=O)O

>  <INCHIKEY>  (65) 
IWCSUPJWQDCSNG-NSHDSACASA-N

$$$$
1Nal_4OH_7OMe
     RDKit          2D

 19 20  0  0  0  0  0  0  0  0999 V2000
   -3.6251   -1.2791    0.0000 N   0  0  0  0  0  0  0  0  0  0  0  0
   -3.2201    0.1652    0.0000 C   0  0  0  0  0  0  0  0  0  0  0  0
   -1.7668    0.5365    0.0000 C   0  0  0  0  0  0  0  0  0  0  0  0
   -0.7185   -0.5364    0.0000 C   0  0  0  0  0  0  0  0  0  0  0  0
   -1.1236   -1.9807    0.0000 C   0  0  0  0  0  0  0  0  0  0  0  0
   -0.0754   -3.0536    0.0000 C   0  0  0  0  0  0  0  0  0  0  0  0
    1.3779   -2.6823    0.0000 C   0  0  0  0  0  0  0  0  0  0  0  0
    2.4262   -3.7552    0.0000 O   0  0  0  0  0  0  0  0  0  0  0  0
    1.7830   -1.2380    0.0000 C   0  0  0  0  0  0  0  0  0  0  0  0
    3.2363   -0.8667    0.0000 C   0  0  0  0  0  0  0  0  0  0  0  0
    3.6414    0.5776    0.0000 C   0  0  0  0  0  0  0  0  0  0  0  0
    2.5932    1.6505    0.0000 C   0  0  0  0  0  0  0  0  0  0  0  0
    2.9983    3.0948    0.0000 O   0  0  0  0  0  0  0  0  0  0  0  0
    4.4516    3.4661    0.0000 C   0  0  0  0  0  0  0  0  0  0  0  0
    1.1399    1.2792    0.0000 C   0  0  0  0  0  0  0  0  0  0  0  0
    0.7348   -0.1651    0.0000 C   0  0  0  0  0  0  0  0  0  0  0  0
   -4.2683    1.2381    0.0000 C   0  0  0  0  0  0  0  0  0  0  0  0
   -3.8632    2.6824    0.0000 O   0  0  0  0  0  0  0  0  0  0  0  0
   -5.7216    0.8668    0.0000 O   0  0  0  0  0  0  0  0  0  0  0  0
  2  1  1  6
  2  3  1  0
  3  4  1  0
  4  5  1  0
  5  6  2  0
  6  7  1  0
  7  8  1  0
  7  9  2  0
  9 10  1  0
 10 11  2  0
 11 12  1  0
 12 13  1  0
 13 14  1  0
 12 15  2  0
 15 16  1  0
  2 17  1  0
 17 18  2  0
 17 19  1  0
 16  4  2  0
 16  9  1  0
M  END
>  <rName>  (66) 
1Nal_4OH_7OMe

>  <PQ_SYMBOL>  (66) 
1Nal_4OH_7OMe

>  <FULL_NAME>  (66) 
3-(7-methoxy-4-hydroxynaphth-1-yl)-L-alanine

>  <IUPAC_CONDENSED>  (66) 
1Nal(4-OH,7-OMe)

>  <IUPAC>  (66) 
(2S)-2-amino-3-(4-hydroxy-7-methoxynaphthalen-1-yl)propanoic acid

>  <TYPE>  (66) 
Backbone

>  <CLASS>  (66) 
alpha

>  <ANALOG>  (66) 
Tyr

>  <MOL_WT>  (66) 
261.27699999999993

>  <LOGP>  (66) 
1.5084

>  <TPSA>  (66) 
92.78000000000002

>  <POPULARITY>  (66) 
2.8

>  <PROTECTED>  (66) 
TRUE

>  <SMILES>  (66) 
N[C@@H](Cc1(ccc(O)c2(ccc(OC)cc12)))C(=O)O

>  <INCHIKEY>  (66) 
DKRWDUSSHZDAEX-LBPRGKRZSA-N

$$$$
1Nal_4OMe
     RDKit          2D

 18 19  0  0  0  0  0  0  0  0999 V2000
   -2.7648   -1.9477    0.0000 N   0  0  0  0  0  0  0  0  0  0  0  0
   -2.9951   -0.4655    0.0000 C   0  0  0  0  0  0  0  0  0  0  0  0
   -1.8267    0.4751    0.0000 C   0  0  0  0  0  0  0  0  0  0  0  0
   -0.4279   -0.0665    0.0000 C   0  0  0  0  0  0  0  0  0  0  0  0
   -0.1975   -1.5487    0.0000 C   0  0  0  0  0  0  0  0  0  0  0  0
    1.2013   -2.0903    0.0000 C   0  0  0  0  0  0  0  0  0  0  0  0
    2.3697   -1.1497    0.0000 C   0  0  0  0  0  0  0  0  0  0  0  0
    3.7686   -1.6913    0.0000 O   0  0  0  0  0  0  0  0  0  0  0  0
    3.9989   -3.1735    0.0000 C   0  0  0  0  0  0  0  0  0  0  0  0
    2.1394    0.3325    0.0000 C   0  0  0  0  0  0  0  0  0  0  0  0
    3.3078    1.2731    0.0000 C   0  0  0  0  0  0  0  0  0  0  0  0
    3.0775    2.7553    0.0000 C   0  0  0  0  0  0  0  0  0  0  0  0
    1.6786    3.2969    0.0000 C   0  0  0  0  0  0  0  0  0  0  0  0
    0.5102    2.3563    0.0000 C   0  0  0  0  0  0  0  0  0  0  0  0
    0.7406    0.8741    0.0000 C   0  0  0  0  0  0  0  0  0  0  0  0
   -4.3939    0.0761    0.0000 C   0  0  0  0  0  0  0  0  0  0  0  0
   -4.6243    1.5583    0.0000 O   0  0  0  0  0  0  0  0  0  0  0  0
   -5.5624   -0.8645    0.0000 O   0  0  0  0  0  0  0  0  0  0  0  0
  2  1  1  6
  2  3  1  0
  3  4  1  0
  4  5  2  0
  5  6  1  0
  6  7  2  0
  7  8  1  0
  8  9  1  0
  7 10  1  0
 10 11  2  0
 11 12  1  0
 12 13  2  0
 13 14  1  0
 14 15  2  0
  2 16  1  0
 16 17  2  0
 16 18  1  0
 15  4  1  0
 15 10  1  0
M  END
>  <rName>  (67) 
1Nal_4OMe

>  <PQ_SYMBOL>  (67) 
1Nal_4OMe

>  <FULL_NAME>  (67) 
(2S)-2-amino-3-(4-methoxynaphthalen-1-yl)propanoic acid

>  <IUPAC_CONDENSED>  (67) 
1Nal(4-OMe)

>  <IUPAC>  (67) 
(2S)-2-amino-3-(4-methoxynaphthalen-1-yl)propanoic acid

>  <TYPE>  (67) 
Backbone

>  <CLASS>  (67) 
alpha

>  <ANALOG>  (67) 
Tyr

>  <MOL_WT>  (67) 
245.278

>  <LOGP>  (67) 
1.8028

>  <TPSA>  (67) 
72.55

>  <POPULARITY>  (67) 
2.2

>  <PROTECTED>  (67) 
TRUE

>  <SMILES>  (67) 
N[C@@H](Cc1(ccc(OC)c2(ccccc12)))C(=O)O

>  <INCHIKEY>  (67) 
NTDYNSNZUUPEFO-LBPRGKRZSA-N

$$$$
1Nal_7OMe
     RDKit          2D

 18 19  0  0  0  0  0  0  0  0999 V2000
   -3.4079    1.3959    0.0000 N   0  0  0  0  0  0  0  0  0  0  0  0
   -2.9473   -0.0316    0.0000 C   0  0  0  0  0  0  0  0  0  0  0  0
   -1.4807   -0.3465    0.0000 C   0  0  0  0  0  0  0  0  0  0  0  0
   -0.4748    0.7662    0.0000 C   0  0  0  0  0  0  0  0  0  0  0  0
   -0.9354    2.1937    0.0000 C   0  0  0  0  0  0  0  0  0  0  0  0
    0.0705    3.3064    0.0000 C   0  0  0  0  0  0  0  0  0  0  0  0
    1.5371    2.9916    0.0000 C   0  0  0  0  0  0  0  0  0  0  0  0
    1.9978    1.5641    0.0000 C   0  0  0  0  0  0  0  0  0  0  0  0
    3.4644    1.2493    0.0000 C   0  0  0  0  0  0  0  0  0  0  0  0
    3.9250   -0.1782    0.0000 C   0  0  0  0  0  0  0  0  0  0  0  0
    2.9191   -1.2909    0.0000 C   0  0  0  0  0  0  0  0  0  0  0  0
    3.3797   -2.7184    0.0000 O   0  0  0  0  0  0  0  0  0  0  0  0
    2.3738   -3.8311    0.0000 C   0  0  0  0  0  0  0  0  0  0  0  0
    1.4525   -0.9761    0.0000 C   0  0  0  0  0  0  0  0  0  0  0  0
    0.9918    0.4514    0.0000 C   0  0  0  0  0  0  0  0  0  0  0  0
   -3.9532   -1.1443    0.0000 C   0  0  0  0  0  0  0  0  0  0  0  0
   -3.4926   -2.5719    0.0000 O   0  0  0  0  0  0  0  0  0  0  0  0
   -5.4198   -0.8295    0.0000 O   0  0  0  0  0  0  0  0  0  0  0  0
  2  1  1  1
  2  3  1  0
  3  4  1  0
  4  5  1  0
  5  6  2  0
  6  7  1  0
  7  8  2  0
  8  9  1  0
  9 10  2  0
 10 11  1  0
 11 12  1  0
 12 13  1  0
 11 14  2  0
 14 15  1  0
  2 16  1  0
 16 17  2  0
 16 18  1  0
 15  4  2  0
 15  8  1  0
M  END
>  <rName>  (68) 
1Nal_7OMe

>  <PQ_SYMBOL>  (68) 
1Nal_7OMe

>  <FULL_NAME>  (68) 
(2S)-2-amino-3-(7-methoxynaphthalen-1-yl)propanoic acid

>  <IUPAC_CONDENSED>  (68) 
1Nal(7-OMe)

>  <IUPAC>  (68) 
(2S)-2-amino-3-(7-methoxynaphthalen-1-yl)propanoic acid

>  <TYPE>  (68) 
Backbone

>  <CLASS>  (68) 
alpha

>  <ANALOG>  (68) 
Tyr

>  <MOL_WT>  (68) 
245.27799999999996

>  <LOGP>  (68) 
1.8028

>  <TPSA>  (68) 
72.55

>  <POPULARITY>  (68) 
2.8

>  <PROTECTED>  (68) 
TRUE

>  <SMILES>  (68) 
N[C@@H](Cc1(cccc2(ccc(OC)cc12)))C(=O)O

>  <INCHIKEY>  (68) 
WUSXATBQBUUEFV-ZDUSSCGKSA-N

$$$$
1Nal_8CO2H
     RDKit          2D

 19 20  0  0  0  0  0  0  0  0999 V2000
   -2.7157    2.1091    0.0000 N   0  0  0  0  0  0  0  0  0  0  0  0
   -2.5902    0.6144    0.0000 C   0  0  0  0  0  0  0  0  0  0  0  0
   -1.2330   -0.0243    0.0000 C   0  0  0  0  0  0  0  0  0  0  0  0
   -0.0012    0.8318    0.0000 C   0  0  0  0  0  0  0  0  0  0  0  0
   -0.1267    2.3265    0.0000 C   0  0  0  0  0  0  0  0  0  0  0  0
    1.1050    3.1826    0.0000 C   0  0  0  0  0  0  0  0  0  0  0  0
    2.4622    2.5439    0.0000 C   0  0  0  0  0  0  0  0  0  0  0  0
    2.5877    1.0491    0.0000 C   0  0  0  0  0  0  0  0  0  0  0  0
    3.9450    0.4105    0.0000 C   0  0  0  0  0  0  0  0  0  0  0  0
    4.0705   -1.0843    0.0000 C   0  0  0  0  0  0  0  0  0  0  0  0
    2.8388   -1.9403    0.0000 C   0  0  0  0  0  0  0  0  0  0  0  0
    1.4815   -1.3017    0.0000 C   0  0  0  0  0  0  0  0  0  0  0  0
    0.2498   -2.1577    0.0000 C   0  0  0  0  0  0  0  0  0  0  0  0
   -1.1075   -1.5190    0.0000 O   0  0  0  0  0  0  0  0  0  0  0  0
    0.3753   -3.6525    0.0000 O   0  0  0  0  0  0  0  0  0  0  0  0
    1.3560    0.1931    0.0000 C   0  0  0  0  0  0  0  0  0  0  0  0
   -3.8219   -0.2417    0.0000 C   0  0  0  0  0  0  0  0  0  0  0  0
   -3.6964   -1.7364    0.0000 O   0  0  0  0  0  0  0  0  0  0  0  0
   -5.1792    0.3970    0.0000 O   0  0  0  0  0  0  0  0  0  0  0  0
  2  1  1  1
  2  3  1  0
  3  4  1  0
  4  5  1  0
  5  6  2  0
  6  7  1  0
  7  8  2  0
  8  9  1  0
  9 10  2  0
 10 11  1  0
 11 12  2  0
 12 13  1  0
 13 14  2  0
 13 15  1  0
 12 16  1  0
  2 17  1  0
 17 18  2  0
 17 19  1  0
 16  8  1  0
 16  4  2  0
M  END
>  <rName>  (69) 
1Nal_8CO2H

>  <PQ_SYMBOL>  (69) 
1Nal_8CO2H

>  <FULL_NAME>  (69) 
(S)-8-(2-amino-2-carboxyethyl)-1-naphthoic acid

>  <IUPAC_CONDENSED>  (69) 
1Nal(8-CO2H)

>  <IUPAC>  (69) 
8-((2S)-2-amino-3-hydroxy-3-oxopropyl)naphthalene-1-carboxylic acid

>  <TYPE>  (69) 
Backbone

>  <CLASS>  (69) 
alpha

>  <ANALOG>  (69) 
Phe

>  <MOL_WT>  (69) 
259.26099999999997

>  <LOGP>  (69) 
1.4924000000000002

>  <TPSA>  (69) 
100.62000000000002

>  <POPULARITY>  (69) 
2.3

>  <PROTECTED>  (69) 
TRUE

>  <SMILES>  (69) 
N[C@@H](Cc2(cccc1(cccc(C(=O)O)c12)))C(=O)O

>  <INCHIKEY>  (69) 
IKQCFELVDACWEC-NSHDSACASA-N

$$$$
1S2S-aminohydroxyhexanesulfonicacid
     RDKit          2D

 12 11  0  0  0  0  0  0  0  0999 V2000
   -0.3548   -2.4333    0.0000 N   0  0  0  0  0  0  0  0  0  0  0  0
    0.0557   -0.9906    0.0000 C   0  0  0  0  0  0  0  0  0  0  0  0
    1.5105   -0.6248    0.0000 C   0  0  0  0  0  0  0  0  0  0  0  0
    2.5546   -1.7017    0.0000 O   0  0  0  0  0  0  0  0  0  0  0  0
    1.9210    0.8179    0.0000 S   0  0  0  0  0  0  0  0  0  0  0  0
    3.3638    0.4073    0.0000 O   0  0  0  0  0  0  0  0  0  0  0  0
    0.4783    1.2285    0.0000 O   0  0  0  0  0  0  0  0  0  0  0  0
    2.3316    2.2606    0.0000 O   0  0  0  0  0  0  0  0  0  0  0  0
   -0.9884    0.0863    0.0000 C   0  0  0  0  0  0  0  0  0  0  0  0
   -2.4431   -0.2794    0.0000 C   0  0  0  0  0  0  0  0  0  0  0  0
   -3.4872    0.7975    0.0000 C   0  0  0  0  0  0  0  0  0  0  0  0
   -4.9420    0.4317    0.0000 C   0  0  0  0  0  0  0  0  0  0  0  0
  2  1  1  1
  2  3  1  0
  3  4  1  1
  3  5  1  0
  5  6  2  0
  5  7  2  0
  5  8  1  0
  2  9  1  0
  9 10  1  0
 10 11  1  0
 11 12  1  0
M  END
>  <rName>  (70) 
1S2S-aminohydroxyhexanesulfonicacid

>  <PQ_SYMBOL>  (70) 
1S2S-aminohydroxyhexanesulfonicacid

>  <FULL_NAME>  (70) 
(1S,2S)-2-azanyl-1-oxidanyl-hexane-1-sulfonic acid

>  <IUPAC_CONDENSED>  (70) 
1S,2S-aminohydroxyhexanesulfonic acid

>  <IUPAC>  (70) 
(1R,2S)-2-amino-1-hydroxyhexane-1-sulfonic acid

>  <TYPE>  (70) 
C-term cap

>  <CLASS>  (70) 
c_cap

>  <ANALOG>  (70) 
X

>  <MOL_WT>  (70) 
197.25599999999997

>  <LOGP>  (70) 
-0.2899000000000005

>  <TPSA>  (70) 
100.62

>  <POPULARITY>  (70) 
2.3

>  <PROTECTED>  (70) 
FALSE

>  <SMILES>  (70) 
N[C@H]([C@H](O)S(=O)(=O)O)CCCC

>  <INCHIKEY>  (70) 
VTAATEODKMXWSG-NTSWFWBYSA-N

$$$$
2-2-aminoethyl-oxolane-3-CO2H_2S_3S
     RDKit          2D

 11 11  0  0  0  0  0  0  0  0999 V2000
   -4.0748   -0.9448    0.0000 N   0  0  0  0  0  0  0  0  0  0  0  0
   -2.9302    0.0246    0.0000 C   0  0  0  0  0  0  0  0  0  0  0  0
   -1.5183   -0.4819    0.0000 C   0  0  0  0  0  0  0  0  0  0  0  0
   -0.3737    0.4875    0.0000 C   0  0  0  0  0  0  0  0  0  0  0  0
    1.0834    0.1313    0.0000 C   0  0  0  0  0  0  0  0  0  0  0  0
    1.8724    1.4070    0.0000 C   0  0  0  0  0  0  0  0  0  0  0  0
    0.9030    2.5517    0.0000 C   0  0  0  0  0  0  0  0  0  0  0  0
   -0.4852    1.9834    0.0000 O   0  0  0  0  0  0  0  0  0  0  0  0
    1.6517   -1.2569    0.0000 C   0  0  0  0  0  0  0  0  0  0  0  0
    3.1380   -1.4588    0.0000 O   0  0  0  0  0  0  0  0  0  0  0  0
    0.7336   -2.4431    0.0000 O   0  0  0  0  0  0  0  0  0  0  0  0
  1  2  1  0
  2  3  1  0
  4  3  1  6
  4  5  1  0
  5  6  1  0
  6  7  1  0
  7  8  1  0
  5  9  1  6
  9 10  2  0
  9 11  1  0
  8  4  1  0
M  END
>  <rName>  (71) 
2-2-aminoethyl-oxolane-3-CO2H_2S_3S

>  <PQ_SYMBOL>  (71) 
2-2-aminoethyl-oxolane-3-CO2H_2S_3S

>  <FULL_NAME>  (71) 
NCC[C@@H]1OCC[C@@H]1C(=O)O

>  <IUPAC_CONDENSED>  (71) 
2-(2-aminoethyl)-oxolane-3-CO2H(2S,3S)

>  <IUPAC>  (71) 
(2S,3S)-2-(2-aminoethyl)oxolane-3-carboxylic acid

>  <TYPE>  (71) 
Backbone

>  <CLASS>  (71) 
delta

>  <ANALOG>  (71) 
Ser

>  <MOL_WT>  (71) 
159.185

>  <LOGP>  (71) 
-0.1751000000000001

>  <TPSA>  (71) 
72.55

>  <POPULARITY>  (71) 
5.0

>  <PROTECTED>  (71) 
TRUE

>  <SMILES>  (71) 
NCC[C@H]1[C@H](CCO1)C(=O)O

>  <INCHIKEY>  (71) 
ANTUJQUKLXRZNO-WDSKDSINSA-N

$$$$
2-4F-Phoxan-4-amine
     RDKit          2D

 14 15  0  0  0  0  0  0  0  0999 V2000
    4.0847   -2.0033    0.0000 N   0  0  0  0  0  0  0  0  0  0  0  0
    3.2051   -0.7882    0.0000 C   0  0  0  0  0  0  0  0  0  0  0  0
    1.7131   -0.9424    0.0000 C   0  0  0  0  0  0  0  0  0  0  0  0
    0.8335    0.2727    0.0000 C   0  0  0  0  0  0  0  0  0  0  0  0
    1.4460    1.6419    0.0000 O   0  0  0  0  0  0  0  0  0  0  0  0
    2.9381    1.7961    0.0000 C   0  0  0  0  0  0  0  0  0  0  0  0
    3.8176    0.5810    0.0000 C   0  0  0  0  0  0  0  0  0  0  0  0
   -0.6585    0.1185    0.0000 C   0  0  0  0  0  0  0  0  0  0  0  0
   -1.5381    1.3336    0.0000 C   0  0  0  0  0  0  0  0  0  0  0  0
   -3.0301    1.1794    0.0000 C   0  0  0  0  0  0  0  0  0  0  0  0
   -3.6426   -0.1898    0.0000 C   0  0  0  0  0  0  0  0  0  0  0  0
   -2.7631   -1.4049    0.0000 C   0  0  0  0  0  0  0  0  0  0  0  0
   -1.2710   -1.2507    0.0000 C   0  0  0  0  0  0  0  0  0  0  0  0
   -5.1347   -0.3440    0.0000 F   0  0  0  0  0  0  0  0  0  0  0  0
  1  2  1  0
  2  3  1  0
  3  4  1  0
  4  5  1  0
  5  6  1  0
  6  7  1  0
  4  8  1  0
  8  9  1  0
  9 10  2  0
 10 11  1  0
 11 12  2  0
 12 13  1  0
 11 14  1  0
 13  8  2  0
  7  2  1  0
M  END
>  <rName>  (72) 
2-4F-Phoxan-4-amine

>  <PQ_SYMBOL>  (72) 
2-4F-Phoxan-4-amine

>  <FULL_NAME>  (72) 
2-(4-Fluorophenyl)oxan-4-amine

>  <IUPAC_CONDENSED>  (72) 
2-(4F-Ph)oxan-4-amine

>  <IUPAC>  (72) 
2-(4-fluorophenyl)-oxan-4-amine

>  <TYPE>  (72) 
C-term cap

>  <CLASS>  (72) 
c_cap

>  <ANALOG>  (72) 
X

>  <MOL_WT>  (72) 
195.237

>  <LOGP>  (72) 
2.0044999999999997

>  <TPSA>  (72) 
35.25

>  <POPULARITY>  (72) 
4.7

>  <PROTECTED>  (72) 
TRUE

>  <SMILES>  (72) 
NC2CC(OCC2)c1ccc(cc1)F

>  <INCHIKEY>  (72) 
KLNFGQMAZRFKQP-UHFFFAOYSA-N

$$$$
2-amino-2-deoxyadenosine
     RDKit          2D

 19 21  0  0  0  0  0  0  0  0999 V2000
    5.4486   -0.8786    0.0000 N   0  0  0  0  0  0  0  0  0  0  0  0
    4.1875   -0.0665    0.0000 C   0  0  0  0  0  0  0  0  0  0  0  0
    2.8536   -0.7527    0.0000 C   0  0  0  0  0  0  0  0  0  0  0  0
    1.5924    0.0594    0.0000 C   0  0  0  0  0  0  0  0  0  0  0  0
    1.6651    1.5576    0.0000 N   0  0  0  0  0  0  0  0  0  0  0  0
    2.9990    2.2438    0.0000 C   0  0  0  0  0  0  0  0  0  0  0  0
    4.2602    1.4317    0.0000 N   0  0  0  0  0  0  0  0  0  0  0  0
    0.4304   -0.8891    0.0000 N   0  0  0  0  0  0  0  0  0  0  0  0
    0.9734   -2.2874    0.0000 C   0  0  0  0  0  0  0  0  0  0  0  0
    2.4710   -2.2031    0.0000 N   0  0  0  0  0  0  0  0  0  0  0  0
   -1.0200   -0.5065    0.0000 C   0  0  0  0  0  0  0  0  0  0  0  0
   -2.1820   -1.4550    0.0000 O   0  0  0  0  0  0  0  0  0  0  0  0
   -3.4432   -0.6429    0.0000 C   0  0  0  0  0  0  0  0  0  0  0  0
   -3.0606    0.8075    0.0000 C   0  0  0  0  0  0  0  0  0  0  0  0
   -4.0091    1.9695    0.0000 O   0  0  0  0  0  0  0  0  0  0  0  0
   -1.5630    0.8918    0.0000 C   0  0  0  0  0  0  0  0  0  0  0  0
   -0.7509    2.1529    0.0000 N   0  0  0  0  0  0  0  0  0  0  0  0
   -4.8415   -1.1859    0.0000 C   0  0  0  0  0  0  0  0  0  0  0  0
   -6.0109   -0.2464    0.0000 O   0  0  0  0  0  0  0  0  0  0  0  0
  1  2  1  0
  2  3  2  0
  3  4  1  0
  4  5  2  0
  5  6  1  0
  6  7  2  0
  4  8  1  0
  8  9  1  0
  9 10  2  0
 11  8  1  6
 11 12  1  0
 12 13  1  0
 13 14  1  0
 14 15  1  1
 14 16  1  0
 16 17  1  1
 13 18  1  6
 18 19  1  0
 16 11  1  0
 10  3  1  0
  7  2  1  0
M  END
>  <rName>  (73) 
2-amino-2-deoxyadenosine

>  <PQ_SYMBOL>  (73) 
2-amino-2-deoxyadenosine

>  <FULL_NAME>  (73) 
2'-AMINO-2'-DEOXYADENOSINE

>  <IUPAC_CONDENSED>  (73) 
2-amino-2-deoxyadenosine

>  <IUPAC>  (73) 
(2R,3S,4R,5R)-4-amino-5-(5-amino-2,4,7,9-tetraazabicyclo[4.3.0]nona-1,3,5,7-tetraen-9-yl)-2-(hydroxymethyl)oxolan-3-ol

>  <TYPE>  (73) 
C-term cap

>  <CLASS>  (73) 
c_cap

>  <ANALOG>  (73) 
X

>  <MOL_WT>  (73) 
266.26099999999997

>  <LOGP>  (73) 
-2.0135999999999994

>  <TPSA>  (73) 
145.33

>  <POPULARITY>  (73) 
10.7

>  <PROTECTED>  (73) 
FALSE

>  <SMILES>  (73) 
Nc3c2c(ncn3)n(cn2)[C@@H]1O[C@@H]([C@@H](O)[C@H]1N)CO

>  <INCHIKEY>  (73) 
CQKMBZHLOYVGHW-QYYRPYCUSA-N

$$$$
2-amino-Ac5c_1R_2R
     RDKit          2D

  9  9  0  0  0  0  0  0  0  0999 V2000
   -0.5115   -2.3139    0.0000 N   0  0  0  0  0  0  0  0  0  0  0  0
   -0.8624   -0.8555    0.0000 C   0  0  0  0  0  0  0  0  0  0  0  0
    0.1113    0.2855    0.0000 C   0  0  0  0  0  0  0  0  0  0  0  0
   -0.6730    1.5641    0.0000 C   0  0  0  0  0  0  0  0  0  0  0  0
   -2.1314    1.2133    0.0000 C   0  0  0  0  0  0  0  0  0  0  0  0
   -2.2485   -0.2821    0.0000 C   0  0  0  0  0  0  0  0  0  0  0  0
    1.6067    0.1685    0.0000 C   0  0  0  0  0  0  0  0  0  0  0  0
    2.4558    1.4051    0.0000 O   0  0  0  0  0  0  0  0  0  0  0  0
    2.2531   -1.1851    0.0000 O   0  0  0  0  0  0  0  0  0  0  0  0
  2  1  1  6
  2  3  1  0
  3  4  1  0
  4  5  1  0
  5  6  1  0
  3  7  1  1
  7  8  2  0
  7  9  1  0
  6  2  1  0
M  END
>  <rName>  (74) 
2-amino-Ac5c_1R_2R

>  <PQ_SYMBOL>  (74) 
2-amino-Ac5c_1R_2R

>  <FULL_NAME>  (74) 
(1R,2R)-2-aminocyclopentane-1-carboxylic acid

>  <IUPAC_CONDENSED>  (74) 
2-amino-Ac5c(1R,2R)

>  <IUPAC>  (74) 
(1R,2R)-2-aminocyclopentanecarboxylic acid

>  <TYPE>  (74) 
Backbone

>  <CLASS>  (74) 
beta

>  <ANALOG>  (74) 
Val

>  <MOL_WT>  (74) 
129.15900000000002

>  <LOGP>  (74) 
0.19839999999999985

>  <TPSA>  (74) 
63.32000000000001

>  <POPULARITY>  (74) 
8.4

>  <PROTECTED>  (74) 
TRUE

>  <SMILES>  (74) 
N[C@H]1[C@@H](CCC1)C(=O)O

>  <INCHIKEY>  (74) 
JWYOAMOZLZXDER-RFZPGFLSSA-N

$$$$
2-amino-Ac5c_1R_2S
     RDKit          2D

  9  9  0  0  0  0  0  0  0  0999 V2000
   -0.5115   -2.3139    0.0000 N   0  0  0  0  0  0  0  0  0  0  0  0
   -0.8624   -0.8555    0.0000 C   0  0  0  0  0  0  0  0  0  0  0  0
    0.1113    0.2855    0.0000 C   0  0  0  0  0  0  0  0  0  0  0  0
   -0.6730    1.5641    0.0000 C   0  0  0  0  0  0  0  0  0  0  0  0
   -2.1314    1.2133    0.0000 C   0  0  0  0  0  0  0  0  0  0  0  0
   -2.2485   -0.2821    0.0000 C   0  0  0  0  0  0  0  0  0  0  0  0
    1.6067    0.1685    0.0000 C   0  0  0  0  0  0  0  0  0  0  0  0
    2.4558    1.4051    0.0000 O   0  0  0  0  0  0  0  0  0  0  0  0
    2.2531   -1.1851    0.0000 O   0  0  0  0  0  0  0  0  0  0  0  0
  2  1  1  1
  2  3  1  0
  3  4  1  0
  4  5  1  0
  5  6  1  0
  3  7  1  1
  7  8  2  0
  7  9  1  0
  6  2  1  0
M  END
>  <rName>  (75) 
2-amino-Ac5c_1R_2S

>  <PQ_SYMBOL>  (75) 
2-amino-Ac5c_1R_2S

>  <FULL_NAME>  (75) 
(1R,2S)-2-aminocyclopentane-1-carboxylic acid

>  <IUPAC_CONDENSED>  (75) 
2-amino-Ac5c(1R,2S)

>  <IUPAC>  (75) 
(1R,2S)-2-aminocyclopentanecarboxylic acid

>  <TYPE>  (75) 
Backbone

>  <CLASS>  (75) 
beta

>  <ANALOG>  (75) 
Val

>  <MOL_WT>  (75) 
129.15900000000002

>  <LOGP>  (75) 
0.19839999999999985

>  <TPSA>  (75) 
63.32000000000001

>  <POPULARITY>  (75) 
10.0

>  <PROTECTED>  (75) 
TRUE

>  <SMILES>  (75) 
N[C@@H]1[C@@H](CCC1)C(=O)O

>  <INCHIKEY>  (75) 
JWYOAMOZLZXDER-UHNVWZDZSA-N

$$$$
2-amino-Ac5c_1S_2R
     RDKit          2D

  9  9  0  0  0  0  0  0  0  0999 V2000
   -0.5115   -2.3139    0.0000 N   0  0  0  0  0  0  0  0  0  0  0  0
   -0.8624   -0.8555    0.0000 C   0  0  0  0  0  0  0  0  0  0  0  0
    0.1113    0.2855    0.0000 C   0  0  0  0  0  0  0  0  0  0  0  0
   -0.6730    1.5641    0.0000 C   0  0  0  0  0  0  0  0  0  0  0  0
   -2.1314    1.2133    0.0000 C   0  0  0  0  0  0  0  0  0  0  0  0
   -2.2485   -0.2821    0.0000 C   0  0  0  0  0  0  0  0  0  0  0  0
    1.6067    0.1685    0.0000 C   0  0  0  0  0  0  0  0  0  0  0  0
    2.4558    1.4051    0.0000 O   0  0  0  0  0  0  0  0  0  0  0  0
    2.2531   -1.1851    0.0000 O   0  0  0  0  0  0  0  0  0  0  0  0
  2  1  1  6
  2  3  1  0
  3  4  1  0
  4  5  1  0
  5  6  1  0
  3  7  1  6
  7  8  2  0
  7  9  1  0
  6  2  1  0
M  END
>  <rName>  (76) 
2-amino-Ac5c_1S_2R

>  <PQ_SYMBOL>  (76) 
2-amino-Ac5c_1S_2R

>  <FULL_NAME>  (76) 
(1S,2R)-2-aminocyclopentane-1-carboxylic acid

>  <IUPAC_CONDENSED>  (76) 
2-amino-Ac5c(1S,2R)

>  <IUPAC>  (76) 
(1S,2R)-2-aminocyclopentanecarboxylic acid

>  <TYPE>  (76) 
Backbone

>  <CLASS>  (76) 
beta

>  <ANALOG>  (76) 
Val

>  <MOL_WT>  (76) 
129.15900000000002

>  <LOGP>  (76) 
0.19839999999999985

>  <TPSA>  (76) 
63.32000000000001

>  <POPULARITY>  (76) 
9.8

>  <PROTECTED>  (76) 
TRUE

>  <SMILES>  (76) 
N[C@H]1[C@H](CCC1)C(=O)O

>  <INCHIKEY>  (76) 
JWYOAMOZLZXDER-CRCLSJGQSA-N

$$$$
2-amino-Ac5c_1S_2S
     RDKit          2D

  9  9  0  0  0  0  0  0  0  0999 V2000
   -0.5115   -2.3139    0.0000 N   0  0  0  0  0  0  0  0  0  0  0  0
   -0.8624   -0.8555    0.0000 C   0  0  0  0  0  0  0  0  0  0  0  0
    0.1113    0.2855    0.0000 C   0  0  0  0  0  0  0  0  0  0  0  0
   -0.6730    1.5641    0.0000 C   0  0  0  0  0  0  0  0  0  0  0  0
   -2.1314    1.2133    0.0000 C   0  0  0  0  0  0  0  0  0  0  0  0
   -2.2485   -0.2821    0.0000 C   0  0  0  0  0  0  0  0  0  0  0  0
    1.6067    0.1685    0.0000 C   0  0  0  0  0  0  0  0  0  0  0  0
    2.4558    1.4051    0.0000 O   0  0  0  0  0  0  0  0  0  0  0  0
    2.2531   -1.1851    0.0000 O   0  0  0  0  0  0  0  0  0  0  0  0
  2  1  1  1
  2  3  1  0
  3  4  1  0
  4  5  1  0
  5  6  1  0
  3  7  1  6
  7  8  2  0
  7  9  1  0
  6  2  1  0
M  END
>  <rName>  (77) 
2-amino-Ac5c_1S_2S

>  <PQ_SYMBOL>  (77) 
2-amino-Ac5c_1S_2S

>  <FULL_NAME>  (77) 
(1S,2S)-2-Aminocyclopentanecarboxylic acid, (+)-Transpentacin

>  <IUPAC_CONDENSED>  (77) 
2-amino-Ac5c(1S,2S)

>  <IUPAC>  (77) 
(1S,2S)-2-aminocyclopentanecarboxylic acid

>  <TYPE>  (77) 
Backbone

>  <CLASS>  (77) 
beta

>  <ANALOG>  (77) 
Val

>  <MOL_WT>  (77) 
129.15900000000002

>  <LOGP>  (77) 
0.19839999999999985

>  <TPSA>  (77) 
63.32000000000001

>  <POPULARITY>  (77) 
8.5

>  <PROTECTED>  (77) 
TRUE

>  <SMILES>  (77) 
N[C@@H]1[C@H](CCC1)C(=O)O

>  <INCHIKEY>  (77) 
JWYOAMOZLZXDER-WHFBIAKZSA-N

$$$$
2-amino-bicyclo221heptane-1-CO2H
     RDKit          2D

 11 12  0  0  0  0  0  0  0  0999 V2000
    0.8351    1.0237    0.0000 N   0  0  0  0  0  0  0  0  0  0  0  0
    0.2370    0.5635    0.0000 C   0  0  0  0  0  0  0  0  0  0  0  0
    0.2514   -0.8564    0.0000 C   0  0  0  0  0  0  0  0  0  0  0  0
   -0.9711   -1.5789    0.0000 C   0  0  0  0  0  0  0  0  0  0  0  0
   -2.2080   -0.8814    0.0000 C   0  0  0  0  0  0  0  0  0  0  0  0
   -2.2223    0.5386    0.0000 C   0  0  0  0  0  0  0  0  0  0  0  0
   -0.9998    1.2610    0.0000 C   0  0  0  0  0  0  0  0  0  0  0  0
   -0.7399    0.2766    0.0000 C   0  0  0  0  0  0  0  0  0  0  0  0
    1.4739   -0.1340    0.0000 C   0  0  0  0  0  0  0  0  0  0  0  0
    2.7805   -0.8708    0.0000 O   0  0  0  0  0  0  0  0  0  0  0  0
    1.5631    0.6581    0.0000 O   0  0  0  0  0  0  0  0  0  0  0  0
  1  2  1  0
  2  3  1  0
  3  4  1  0
  4  5  1  0
  5  6  1  0
  6  7  1  0
  6  8  1  0
  3  9  1  0
  9 10  2  0
  9 11  1  0
  7  2  1  0
  8  3  1  0
M  END
>  <rName>  (78) 
2-amino-bicyclo221heptane-1-CO2H

>  <PQ_SYMBOL>  (78) 
2-amino-bicyclo221heptane-1-CO2H

>  <FULL_NAME>  (78) 
2-Aminobicyclo[2.2.1]heptane-1-carboxylic acid

>  <IUPAC_CONDENSED>  (78) 
2-amino-bicyclo[2.2.1]heptane-1-CO2H

>  <IUPAC>  (78) 
2-aminobicyclo[2.2.1]heptane-1-carboxylic acid

>  <TYPE>  (78) 
Backbone

>  <CLASS>  (78) 
beta

>  <ANALOG>  (78) 
Leu

>  <MOL_WT>  (78) 
155.197

>  <LOGP>  (78) 
0.5884999999999998

>  <TPSA>  (78) 
63.32000000000001

>  <POPULARITY>  (78) 
3.4

>  <PROTECTED>  (78) 
TRUE

>  <SMILES>  (78) 
NC1C2(CCC(C1)C2)C(=O)O

>  <INCHIKEY>  (78) 
WBXOONOXOHMGQW-UHFFFAOYSA-N

$$$$
2-amino-bicyclo310hexane-6-CO2H_1R_2S_5S_6R
     RDKit          2D

 10 11  0  0  0  0  0  0  0  0999 V2000
   -2.6935   -1.9240    0.0000 N   0  0  0  0  0  0  0  0  0  0  0  0
   -1.9815   -0.6038    0.0000 C   0  0  0  0  0  0  0  0  0  0  0  0
   -0.4949   -0.4037    0.0000 C   0  0  0  0  0  0  0  0  0  0  0  0
    0.9176    0.1010    0.0000 C   0  0  0  0  0  0  0  0  0  0  0  0
   -0.2258    1.0719    0.0000 C   0  0  0  0  0  0  0  0  0  0  0  0
   -1.5460    1.7839    0.0000 C   0  0  0  0  0  0  0  0  0  0  0  0
   -2.6312    0.7483    0.0000 C   0  0  0  0  0  0  0  0  0  0  0  0
    2.3932   -0.1682    0.0000 C   0  0  0  0  0  0  0  0  0  0  0  0
    3.3642    0.9752    0.0000 O   0  0  0  0  0  0  0  0  0  0  0  0
    2.8980   -1.5807    0.0000 O   0  0  0  0  0  0  0  0  0  0  0  0
  2  1  1  1
  3  2  1  6
  3  4  1  0
  4  5  1  0
  5  6  1  6
  6  7  1  0
  4  8  1  1
  8  9  2  0
  8 10  1  0
  5  3  1  0
  7  2  1  0
M  END
>  <rName>  (79) 
2-amino-bicyclo310hexane-6-CO2H_1R_2S_5S_6R

>  <PQ_SYMBOL>  (79) 
2-amino-bicyclo310hexane-6-CO2H_1R_2S_5S_6R

>  <FULL_NAME>  (79) 
(1R,2S,5S,6R)-2-aminobicyclo[3.1.0]hexane-6-carboxylic acid

>  <IUPAC_CONDENSED>  (79) 
2-amino-bicyclo[3.1.0]hexane-6-CO2H(1R,2S,5S,6R)

>  <IUPAC>  (79) 
(1R,2S,5S,6R)-2-aminobicyclo[3.1.0]hexane-6-carboxylic acid

>  <TYPE>  (79) 
Backbone

>  <CLASS>  (79) 
gamma

>  <ANALOG>  (79) 
Val

>  <MOL_WT>  (79) 
141.17000000000002

>  <LOGP>  (79) 
0.05429999999999996

>  <TPSA>  (79) 
63.32000000000001

>  <POPULARITY>  (79) 
4.9

>  <PROTECTED>  (79) 
TRUE

>  <SMILES>  (79) 
N[C@@H]2[C@H]1[C@@H]([C@H]1CC2)C(=O)O

>  <INCHIKEY>  (79) 
BMSACDGIWRRFKP-OMMKOOBNSA-N

$$$$
2-amino-bicyclo310hexane-6-CO2H_1S_2R_5R_6S
     RDKit          2D

 10 11  0  0  0  0  0  0  0  0999 V2000
   -2.6935   -1.9240    0.0000 N   0  0  0  0  0  0  0  0  0  0  0  0
   -1.9815   -0.6038    0.0000 C   0  0  0  0  0  0  0  0  0  0  0  0
   -0.4949   -0.4037    0.0000 C   0  0  0  0  0  0  0  0  0  0  0  0
    0.9176    0.1010    0.0000 C   0  0  0  0  0  0  0  0  0  0  0  0
   -0.2258    1.0719    0.0000 C   0  0  0  0  0  0  0  0  0  0  0  0
   -1.5460    1.7839    0.0000 C   0  0  0  0  0  0  0  0  0  0  0  0
   -2.6312    0.7483    0.0000 C   0  0  0  0  0  0  0  0  0  0  0  0
    2.3932   -0.1682    0.0000 C   0  0  0  0  0  0  0  0  0  0  0  0
    3.3642    0.9752    0.0000 O   0  0  0  0  0  0  0  0  0  0  0  0
    2.8980   -1.5807    0.0000 O   0  0  0  0  0  0  0  0  0  0  0  0
  2  1  1  6
  3  2  1  1
  3  4  1  0
  4  5  1  0
  5  6  1  1
  6  7  1  0
  4  8  1  6
  8  9  2  0
  8 10  1  0
  5  3  1  0
  7  2  1  0
M  END
>  <rName>  (80) 
2-amino-bicyclo310hexane-6-CO2H_1S_2R_5R_6S

>  <PQ_SYMBOL>  (80) 
2-amino-bicyclo310hexane-6-CO2H_1S_2R_5R_6S

>  <FULL_NAME>  (80) 
(1S,2R,5R,6S)-2-aminobicyclo[3.1.0]hexane-6-carboxylic acid

>  <IUPAC_CONDENSED>  (80) 
2-amino-bicyclo[3.1.0]hexane-6-CO2H(1S,2R,5R,6S)

>  <IUPAC>  (80) 
(1S,2R,5R,6S)-2-aminobicyclo[3.1.0]hexane-6-carboxylic acid

>  <TYPE>  (80) 
Backbone

>  <CLASS>  (80) 
gamma

>  <ANALOG>  (80) 
Val

>  <MOL_WT>  (80) 
141.17000000000002

>  <LOGP>  (80) 
0.05429999999999996

>  <TPSA>  (80) 
63.32000000000001

>  <POPULARITY>  (80) 
3.8

>  <PROTECTED>  (80) 
TRUE

>  <SMILES>  (80) 
N[C@H]2[C@@H]1[C@H]([C@@H]1CC2)C(=O)O

>  <INCHIKEY>  (80) 
BMSACDGIWRRFKP-KAZBKCHUSA-N

$$$$
2-amino-bicyclo311heptane-3-CO2H_2Me_66diMe_1R_2R_3S_5R
     RDKit          2D

 14 15  0  0  0  0  0  0  0  0999 V2000
   -1.6211   -1.2906    0.0000 N   0  0  0  0  0  0  0  0  0  0  0  0
   -0.2549   -0.9033    0.0000 C   0  0  0  0  0  0  0  0  0  0  0  0
   -0.1108   -2.3160    0.0000 C   0  0  0  0  0  0  0  0  0  0  0  0
   -0.8734    0.3749    0.0000 C   0  0  0  0  0  0  0  0  0  0  0  0
   -0.0758    1.5496    0.0000 C   0  0  0  0  0  0  0  0  0  0  0  0
    1.3405    1.4463    0.0000 C   0  0  0  0  0  0  0  0  0  0  0  0
    0.7522    0.2562    0.0000 C   0  0  0  0  0  0  0  0  0  0  0  0
    1.1614   -1.0067    0.0000 C   0  0  0  0  0  0  0  0  0  0  0  0
    1.9590    0.1681    0.0000 C   0  0  0  0  0  0  0  0  0  0  0  0
    3.1104    0.9992    0.0000 C   0  0  0  0  0  0  0  0  0  0  0  0
    2.9775   -0.8215    0.0000 C   0  0  0  0  0  0  0  0  0  0  0  0
   -2.2897    0.4783    0.0000 C   0  0  0  0  0  0  0  0  0  0  0  0
   -3.1323   -0.7627    0.0000 O   0  0  0  0  0  0  0  0  0  0  0  0
   -2.9431    1.8285    0.0000 O   0  0  0  0  0  0  0  0  0  0  0  0
  1  2  1  0
  2  3  1  6
  2  4  1  0
  4  5  1  0
  6  5  1  6
  6  7  1  0
  8  7  1  1
  8  9  1  0
  9 10  1  0
  9 11  1  0
  4 12  1  1
 12 13  2  0
 12 14  1  0
  8  2  1  0
  9  6  1  0
M  END
>  <rName>  (81) 
2-amino-bicyclo311heptane-3-CO2H_2Me_66diMe_1R_2R_3S_5R

>  <PQ_SYMBOL>  (81) 
2-amino-bicyclo311heptane-3-CO2H_2Me_66diMe_1R_2R_3S_5R

>  <FULL_NAME>  (81) 
(1R,2R,3S,5R)-2-amino-2,6,6-trimethylbicyclo[3.1.1]heptane-3-carboxylic acid

>  <IUPAC_CONDENSED>  (81) 
2-amino-bicyclo[3.1.1]heptane-3-CO2H(2-Me,6,6-diMe,1R,2R,3S,5R)

>  <IUPAC>  (81) 
(1R,2R,3S,5R)-2-amino-2,6,6-trimethylbicyclo[3.1.1]heptane-3-carboxylic acid

>  <TYPE>  (81) 
Backbone

>  <CLASS>  (81) 
beta

>  <ANALOG>  (81) 
X

>  <MOL_WT>  (81) 
197.278

>  <LOGP>  (81) 
1.4705999999999997

>  <TPSA>  (81) 
63.32000000000001

>  <POPULARITY>  (81) 
2.2

>  <PROTECTED>  (81) 
TRUE

>  <SMILES>  (81) 
N[C@@]1(C)[C@H](C[C@H]2(C[C@@H]1C2(C)C))C(=O)O

>  <INCHIKEY>  (81) 
RVNVDAUGIAPWLP-RFOGZPIASA-N

$$$$
2-amino-bicyclo410heptane-7-CO2H
     RDKit          2D

 11 12  0  0  0  0  0  0  0  0999 V2000
    1.8225   -2.5174    0.0000 N   0  0  0  0  0  0  0  0  0  0  0  0
    1.6332   -1.0294    0.0000 C   0  0  0  0  0  0  0  0  0  0  0  0
    0.2499   -0.4493    0.0000 C   0  0  0  0  0  0  0  0  0  0  0  0
   -1.1334    0.1307    0.0000 C   0  0  0  0  0  0  0  0  0  0  0  0
    0.0606    1.0387    0.0000 C   0  0  0  0  0  0  0  0  0  0  0  0
    1.2545    1.9466    0.0000 C   0  0  0  0  0  0  0  0  0  0  0  0
    2.6379    1.3666    0.0000 C   0  0  0  0  0  0  0  0  0  0  0  0
    2.8272   -0.1214    0.0000 C   0  0  0  0  0  0  0  0  0  0  0  0
   -2.6214   -0.0586    0.0000 C   0  0  0  0  0  0  0  0  0  0  0  0
   -3.2015   -1.4419    0.0000 O   0  0  0  0  0  0  0  0  0  0  0  0
   -3.5294    1.1354    0.0000 O   0  0  0  0  0  0  0  0  0  0  0  0
  1  2  1  0
  2  3  1  0
  3  4  1  0
  4  5  1  0
  5  6  1  0
  6  7  1  0
  7  8  1  0
  4  9  1  0
  9 10  2  0
  9 11  1  0
  5  3  1  0
  8  2  1  0
M  END
>  <rName>  (82) 
2-amino-bicyclo410heptane-7-CO2H

>  <PQ_SYMBOL>  (82) 
2-amino-bicyclo410heptane-7-CO2H

>  <FULL_NAME>  (82) 
2-Aminobicyclo[4.1.0]heptane-7-carboxylic acid

>  <IUPAC_CONDENSED>  (82) 
2-amino-bicyclo[4.1.0]heptane-7-CO2H

>  <IUPAC>  (82) 
2-aminobicyclo[4.1.0]heptane-7-carboxylic acid

>  <TYPE>  (82) 
Backbone

>  <CLASS>  (82) 
gamma

>  <ANALOG>  (82) 
Leu

>  <MOL_WT>  (82) 
155.197

>  <LOGP>  (82) 
0.44439999999999985

>  <TPSA>  (82) 
63.32000000000001

>  <POPULARITY>  (82) 
2.9

>  <PROTECTED>  (82) 
TRUE

>  <SMILES>  (82) 
NC2C1C(C1CCC2)C(=O)O

>  <INCHIKEY>  (82) 
KELLNBGRTNULMZ-UHFFFAOYSA-N

$$$$
2-amino-cycloheptane-1-CO2H_1R_2S
     RDKit          2D

 11 11  0  0  0  0  0  0  0  0999 V2000
    1.0292   -2.2063    0.0000 N   0  0  0  0  0  0  0  0  0  0  0  0
   -0.0141   -1.1285    0.0000 C   0  0  0  0  0  0  0  0  0  0  0  0
    0.5043    0.2791    0.0000 C   0  0  0  0  0  0  0  0  0  0  0  0
   -0.2730    1.5620    0.0000 C   0  0  0  0  0  0  0  0  0  0  0  0
   -1.7607    1.7541    0.0000 C   0  0  0  0  0  0  0  0  0  0  0  0
   -2.8384    0.7108    0.0000 C   0  0  0  0  0  0  0  0  0  0  0  0
   -2.6947   -0.7823    0.0000 C   0  0  0  0  0  0  0  0  0  0  0  0
   -1.4378   -1.6009    0.0000 C   0  0  0  0  0  0  0  0  0  0  0  0
    1.9974    0.4228    0.0000 C   0  0  0  0  0  0  0  0  0  0  0  0
    2.6195    1.7877    0.0000 O   0  0  0  0  0  0  0  0  0  0  0  0
    2.8684   -0.7985    0.0000 O   0  0  0  0  0  0  0  0  0  0  0  0
  2  1  1  1
  2  3  1  0
  3  4  1  0
  4  5  1  0
  5  6  1  0
  6  7  1  0
  7  8  1  0
  3  9  1  1
  9 10  2  0
  9 11  1  0
  8  2  1  0
M  END
>  <rName>  (83) 
2-amino-cycloheptane-1-CO2H_1R_2S

>  <PQ_SYMBOL>  (83) 
2-amino-cycloheptane-1-CO2H_1R_2S

>  <FULL_NAME>  (83) 
(1R,2S)-2-aminocycloheptane-1-carboxylic acid

>  <IUPAC_CONDENSED>  (83) 
2-amino-cycloheptane-1-CO2H(1R,2S)

>  <IUPAC>  (83) 
cis-(1R,2S)-2-aminocycloheptane-1-carboxylic acid

>  <TYPE>  (83) 
Backbone

>  <CLASS>  (83) 
beta

>  <ANALOG>  (83) 
Leu

>  <MOL_WT>  (83) 
157.21300000000002

>  <LOGP>  (83) 
0.9785999999999997

>  <TPSA>  (83) 
63.32000000000001

>  <POPULARITY>  (83) 
2.2

>  <PROTECTED>  (83) 
TRUE

>  <SMILES>  (83) 
N[C@@H]1[C@@H](CCCCC1)C(=O)O

>  <INCHIKEY>  (83) 
QKYSUVFRBTZYIQ-RQJHMYQMSA-N

$$$$
2-amino-cycloheptane-1-CO2H_1S_2R
     RDKit          2D

 11 11  0  0  0  0  0  0  0  0999 V2000
    1.0292   -2.2063    0.0000 N   0  0  0  0  0  0  0  0  0  0  0  0
   -0.0141   -1.1285    0.0000 C   0  0  0  0  0  0  0  0  0  0  0  0
    0.5043    0.2791    0.0000 C   0  0  0  0  0  0  0  0  0  0  0  0
   -0.2730    1.5620    0.0000 C   0  0  0  0  0  0  0  0  0  0  0  0
   -1.7607    1.7541    0.0000 C   0  0  0  0  0  0  0  0  0  0  0  0
   -2.8384    0.7108    0.0000 C   0  0  0  0  0  0  0  0  0  0  0  0
   -2.6947   -0.7823    0.0000 C   0  0  0  0  0  0  0  0  0  0  0  0
   -1.4378   -1.6009    0.0000 C   0  0  0  0  0  0  0  0  0  0  0  0
    1.9974    0.4228    0.0000 C   0  0  0  0  0  0  0  0  0  0  0  0
    2.6195    1.7877    0.0000 O   0  0  0  0  0  0  0  0  0  0  0  0
    2.8684   -0.7985    0.0000 O   0  0  0  0  0  0  0  0  0  0  0  0
  2  1  1  6
  2  3  1  0
  3  4  1  0
  4  5  1  0
  5  6  1  0
  6  7  1  0
  7  8  1  0
  3  9  1  6
  9 10  2  0
  9 11  1  0
  8  2  1  0
M  END
>  <rName>  (84) 
2-amino-cycloheptane-1-CO2H_1S_2R

>  <PQ_SYMBOL>  (84) 
2-amino-cycloheptane-1-CO2H_1S_2R

>  <FULL_NAME>  (84) 
(1S,2R)-2-aminocycloheptane-1-carboxylic acid

>  <IUPAC_CONDENSED>  (84) 
2-amino-cycloheptane-1-CO2H(1S,2R)

>  <IUPAC>  (84) 
(1S,2R)-2-aminocycloheptanecarboxylic acid

>  <TYPE>  (84) 
Backbone

>  <CLASS>  (84) 
beta

>  <ANALOG>  (84) 
Leu

>  <MOL_WT>  (84) 
157.21300000000002

>  <LOGP>  (84) 
0.9785999999999997

>  <TPSA>  (84) 
63.32000000000001

>  <POPULARITY>  (84) 
11.5

>  <PROTECTED>  (84) 
TRUE

>  <SMILES>  (84) 
N[C@H]1[C@H](CCCCC1)C(=O)O

>  <INCHIKEY>  (84) 
QKYSUVFRBTZYIQ-NKWVEPMBSA-N

$$$$
2-amino-cyclohex-3-ene-1-CO2H_1R_2S
     RDKit          2D

 10 10  0  0  0  0  0  0  0  0999 V2000
   -0.4166   -2.3203    0.0000 N   0  0  0  0  0  0  0  0  0  0  0  0
    0.3975   -1.0604    0.0000 C   0  0  0  0  0  0  0  0  0  0  0  0
   -0.2866    0.2745    0.0000 C   0  0  0  0  0  0  0  0  0  0  0  0
    0.5274    1.5344    0.0000 C   0  0  0  0  0  0  0  0  0  0  0  0
    2.0255    1.4594    0.0000 C   0  0  0  0  0  0  0  0  0  0  0  0
    2.7096    0.1244    0.0000 C   0  0  0  0  0  0  0  0  0  0  0  0
    1.8956   -1.1355    0.0000 C   0  0  0  0  0  0  0  0  0  0  0  0
   -1.7848    0.3495    0.0000 C   0  0  0  0  0  0  0  0  0  0  0  0
   -2.5988   -0.9104    0.0000 O   0  0  0  0  0  0  0  0  0  0  0  0
   -2.4688    1.6844    0.0000 O   0  0  0  0  0  0  0  0  0  0  0  0
  2  1  1  6
  2  3  1  0
  3  4  1  0
  4  5  1  0
  5  6  1  0
  6  7  2  0
  3  8  1  6
  8  9  2  0
  8 10  1  0
  7  2  1  0
M  END
>  <rName>  (85) 
2-amino-cyclohex-3-ene-1-CO2H_1R_2S

>  <PQ_SYMBOL>  (85) 
2-amino-cyclohex-3-ene-1-CO2H_1R_2S

>  <FULL_NAME>  (85) 
(1R,2S)-2-aminocyclohex-3-ene-1-carboxylic acid

>  <IUPAC_CONDENSED>  (85) 
2-amino-cyclohex-3-ene-1-CO2H(1R,2S)

>  <IUPAC>  (85) 
(1R,2S)-2-aminocyclohex-3-ene-1-carboxylic acid

>  <TYPE>  (85) 
Backbone

>  <CLASS>  (85) 
beta

>  <ANALOG>  (85) 
Leu

>  <MOL_WT>  (85) 
141.17

>  <LOGP>  (85) 
0.3645

>  <TPSA>  (85) 
63.32000000000001

>  <POPULARITY>  (85) 
2.2

>  <PROTECTED>  (85) 
TRUE

>  <SMILES>  (85) 
N[C@@H]1[C@@H](CCC=C1)C(=O)O

>  <INCHIKEY>  (85) 
CIXNUOPCFXQTTK-RITPCOANSA-N

$$$$
2-amino-cyclohex-3-ene-1-CO2H_1S_2R
     RDKit          2D

 10 10  0  0  0  0  0  0  0  0999 V2000
   -0.4166   -2.3203    0.0000 N   0  0  0  0  0  0  0  0  0  0  0  0
    0.3975   -1.0604    0.0000 C   0  0  0  0  0  0  0  0  0  0  0  0
   -0.2866    0.2745    0.0000 C   0  0  0  0  0  0  0  0  0  0  0  0
    0.5274    1.5344    0.0000 C   0  0  0  0  0  0  0  0  0  0  0  0
    2.0255    1.4594    0.0000 C   0  0  0  0  0  0  0  0  0  0  0  0
    2.7096    0.1244    0.0000 C   0  0  0  0  0  0  0  0  0  0  0  0
    1.8956   -1.1355    0.0000 C   0  0  0  0  0  0  0  0  0  0  0  0
   -1.7848    0.3495    0.0000 C   0  0  0  0  0  0  0  0  0  0  0  0
   -2.5988   -0.9104    0.0000 O   0  0  0  0  0  0  0  0  0  0  0  0
   -2.4688    1.6844    0.0000 O   0  0  0  0  0  0  0  0  0  0  0  0
  2  1  1  1
  2  3  1  0
  3  4  1  0
  4  5  1  0
  5  6  1  0
  6  7  2  0
  3  8  1  1
  8  9  2  0
  8 10  1  0
  7  2  1  0
M  END
>  <rName>  (86) 
2-amino-cyclohex-3-ene-1-CO2H_1S_2R

>  <PQ_SYMBOL>  (86) 
2-amino-cyclohex-3-ene-1-CO2H_1S_2R

>  <FULL_NAME>  (86) 
2-amino-cyclohex-3-ene-1-CO2H(1S,2R)

>  <IUPAC_CONDENSED>  (86) 
2-amino-cyclohex-3-ene-1-CO2H(1S,2R)

>  <IUPAC>  (86) 
(1S,2R)-2-azaniumylcyclohex-3-ene-1-carboxylate

>  <TYPE>  (86) 
Backbone

>  <CLASS>  (86) 
beta

>  <ANALOG>  (86) 
Leu

>  <MOL_WT>  (86) 
141.17

>  <LOGP>  (86) 
0.3645

>  <TPSA>  (86) 
63.32000000000001

>  <POPULARITY>  (86) 
3.5

>  <PROTECTED>  (86) 
TRUE

>  <SMILES>  (86) 
N[C@H]1[C@H](CCC=C1)C(=O)O

>  <INCHIKEY>  (86) 
CIXNUOPCFXQTTK-NTSWFWBYSA-N

$$$$
2-amino-cyclohexane-1-CO2H_2Me_1S_2R
     RDKit          2D

 11 11  0  0  0  0  0  0  0  0999 V2000
   -0.9427   -1.4096    0.0000 N   0  0  0  0  0  0  0  0  0  0  0  0
    0.4588   -0.8750    0.0000 C   0  0  0  0  0  0  0  0  0  0  0  0
    0.7419   -2.3480    0.0000 C   0  0  0  0  0  0  0  0  0  0  0  0
   -0.3110    0.4124    0.0000 C   0  0  0  0  0  0  0  0  0  0  0  0
    0.4190    1.7228    0.0000 C   0  0  0  0  0  0  0  0  0  0  0  0
    1.9188    1.7458    0.0000 C   0  0  0  0  0  0  0  0  0  0  0  0
    2.6887    0.4584    0.0000 C   0  0  0  0  0  0  0  0  0  0  0  0
    1.9587   -0.8520    0.0000 C   0  0  0  0  0  0  0  0  0  0  0  0
   -1.8108    0.3894    0.0000 C   0  0  0  0  0  0  0  0  0  0  0  0
   -2.5408   -0.9210    0.0000 O   0  0  0  0  0  0  0  0  0  0  0  0
   -2.5806    1.6768    0.0000 O   0  0  0  0  0  0  0  0  0  0  0  0
  1  2  1  0
  2  3  1  6
  2  4  1  0
  4  5  1  0
  5  6  1  0
  6  7  1  0
  7  8  1  0
  4  9  1  1
  9 10  2  0
  9 11  1  0
  8  2  1  0
M  END
>  <rName>  (87) 
2-amino-cyclohexane-1-CO2H_2Me_1S_2R

>  <PQ_SYMBOL>  (87) 
2-amino-cyclohexane-1-CO2H_2Me_1S_2R

>  <FULL_NAME>  (87) 
cis-2-Amino-2-Methyl-Cyclohexanecarboxylic acid

>  <IUPAC_CONDENSED>  (87) 
2-amino-cyclohexane-1-CO2H(2-Me,1S,2R)

>  <IUPAC>  (87) 
(1S,2R)-2-amino-2-methylcyclohexanecarboxylic acid

>  <TYPE>  (87) 
Backbone

>  <CLASS>  (87) 
beta

>  <ANALOG>  (87) 
Leu

>  <MOL_WT>  (87) 
157.21300000000002

>  <LOGP>  (87) 
0.9785999999999997

>  <TPSA>  (87) 
63.32000000000001

>  <POPULARITY>  (87) 
7.2

>  <PROTECTED>  (87) 
TRUE

>  <SMILES>  (87) 
N[C@@]1(C)[C@H](CCCC1)C(=O)O

>  <INCHIKEY>  (87) 
QGQOGLOVEDHNKE-HTRCEHHLSA-N

$$$$
2-amino-cyclohexane-1-CO2H_4OH_5OH_1S_2R_4R_5S
     RDKit          2D

 12 12  0  0  0  0  0  0  0  0999 V2000
   -1.4817   -2.3065    0.0000 N   0  0  0  0  0  0  0  0  0  0  0  0
   -0.4378   -1.2294    0.0000 C   0  0  0  0  0  0  0  0  0  0  0  0
   -0.8486    0.2132    0.0000 C   0  0  0  0  0  0  0  0  0  0  0  0
    0.1953    1.2903    0.0000 C   0  0  0  0  0  0  0  0  0  0  0  0
    1.6501    0.9248    0.0000 C   0  0  0  0  0  0  0  0  0  0  0  0
    2.6940    2.0019    0.0000 O   0  0  0  0  0  0  0  0  0  0  0  0
    2.0609   -0.5178    0.0000 C   0  0  0  0  0  0  0  0  0  0  0  0
    3.5157   -0.8834    0.0000 O   0  0  0  0  0  0  0  0  0  0  0  0
    1.0170   -1.5949    0.0000 C   0  0  0  0  0  0  0  0  0  0  0  0
   -2.3034    0.5787    0.0000 C   0  0  0  0  0  0  0  0  0  0  0  0
   -3.3474   -0.4984    0.0000 O   0  0  0  0  0  0  0  0  0  0  0  0
   -2.7142    2.0214    0.0000 O   0  0  0  0  0  0  0  0  0  0  0  0
  2  1  1  1
  2  3  1  0
  3  4  1  0
  4  5  1  0
  5  6  1  6
  5  7  1  0
  7  8  1  6
  7  9  1  0
  3 10  1  1
 10 11  2  0
 10 12  1  0
  9  2  1  0
M  END
>  <rName>  (88) 
2-amino-cyclohexane-1-CO2H_4OH_5OH_1S_2R_4R_5S

>  <PQ_SYMBOL>  (88) 
2-amino-cyclohexane-1-CO2H_4OH_5OH_1S_2R_4R_5S

>  <FULL_NAME>  (88) 
rac-(1R,2S,4S,5R)-2-amino-4,5-dihydroxycyclohexane-1-carboxylicacid

>  <IUPAC_CONDENSED>  (88) 
2-amino-cyclohexane-1-CO2H(4-OH,5-OH,1S,2R,4R,5S)

>  <IUPAC>  (88) 
(1S,2R,4R,5S)-2-amino-4,5-dihydroxycyclohexanecarboxylic acid

>  <TYPE>  (88) 
Backbone

>  <CLASS>  (88) 
beta

>  <ANALOG>  (88) 
Ser

>  <MOL_WT>  (88) 
175.18399999999997

>  <LOGP>  (88) 
-1.4699000000000004

>  <TPSA>  (88) 
103.78000000000002

>  <POPULARITY>  (88) 
3.3

>  <PROTECTED>  (88) 
TRUE

>  <SMILES>  (88) 
N[C@H]1[C@H](C[C@H](O)[C@H](O)C1)C(=O)O

>  <INCHIKEY>  (88) 
GTBPANMHPBGVAV-BGPJRJDNSA-N

$$$$
2-amino-cyclooct-3-ene-1-CO2H_1S_2R
     RDKit          2D

 12 12  0  0  0  0  0  0  0  0999 V2000
    1.4910   -2.0917    0.0000 N   0  0  0  0  0  0  0  0  0  0  0  0
    0.3205   -1.1538    0.0000 C   0  0  0  0  0  0  0  0  0  0  0  0
   -0.9941   -1.8763    0.0000 C   0  0  0  0  0  0  0  0  0  0  0  0
   -2.4345   -1.4577    0.0000 C   0  0  0  0  0  0  0  0  0  0  0  0
   -3.1570   -0.1432    0.0000 C   0  0  0  0  0  0  0  0  0  0  0  0
   -2.7384    1.2972    0.0000 C   0  0  0  0  0  0  0  0  0  0  0  0
   -1.4239    2.0197    0.0000 C   0  0  0  0  0  0  0  0  0  0  0  0
    0.0165    1.6012    0.0000 C   0  0  0  0  0  0  0  0  0  0  0  0
    0.7390    0.2867    0.0000 C   0  0  0  0  0  0  0  0  0  0  0  0
    2.2300    0.4512    0.0000 C   0  0  0  0  0  0  0  0  0  0  0  0
    2.8330    1.8246    0.0000 O   0  0  0  0  0  0  0  0  0  0  0  0
    3.1179   -0.7578    0.0000 O   0  0  0  0  0  0  0  0  0  0  0  0
  2  1  1  6
  2  3  1  0
  3  4  2  0
  4  5  1  0
  5  6  1  0
  6  7  1  0
  7  8  1  0
  8  9  1  0
  9 10  1  6
 10 11  2  0
 10 12  1  0
  9  2  1  0
M  END
>  <rName>  (89) 
2-amino-cyclooct-3-ene-1-CO2H_1S_2R

>  <PQ_SYMBOL>  (89) 
2-amino-cyclooct-3-ene-1-CO2H_1S_2R

>  <FULL_NAME>  (89) 
N[C@@H]1/C=C\CCCC[C@@H]1C(=O)O

>  <IUPAC_CONDENSED>  (89) 
2-amino-cyclooct-3-ene-1-CO2H(1S,2R)

>  <IUPAC>  (89) 
(1S,2R,3Z)-2-aminocyclooct-3-ene-1-carboxylic acid

>  <TYPE>  (89) 
Backbone

>  <CLASS>  (89) 
beta

>  <ANALOG>  (89) 
Leu

>  <MOL_WT>  (89) 
169.22400000000002

>  <LOGP>  (89) 
1.1446999999999998

>  <TPSA>  (89) 
63.32000000000001

>  <POPULARITY>  (89) 
4.2

>  <PROTECTED>  (89) 
TRUE

>  <SMILES>  (89) 
N[C@@H]1/C=C\CCCC[C@@H]1C(=O)O

>  <INCHIKEY>  (89) 
YCJMQQKIVRVQJT-VFYBFDEHSA-N

$$$$
2-amino-cyclooctane-1-CO2H_1S_2R
     RDKit          2D

 12 12  0  0  0  0  0  0  0  0999 V2000
   -1.4910   -2.0917    0.0000 N   0  0  0  0  0  0  0  0  0  0  0  0
   -0.3205   -1.1538    0.0000 C   0  0  0  0  0  0  0  0  0  0  0  0
   -0.7390    0.2867    0.0000 C   0  0  0  0  0  0  0  0  0  0  0  0
   -0.0165    1.6012    0.0000 C   0  0  0  0  0  0  0  0  0  0  0  0
    1.4239    2.0197    0.0000 C   0  0  0  0  0  0  0  0  0  0  0  0
    2.7384    1.2972    0.0000 C   0  0  0  0  0  0  0  0  0  0  0  0
    3.1570   -0.1432    0.0000 C   0  0  0  0  0  0  0  0  0  0  0  0
    2.4345   -1.4577    0.0000 C   0  0  0  0  0  0  0  0  0  0  0  0
    0.9941   -1.8763    0.0000 C   0  0  0  0  0  0  0  0  0  0  0  0
   -2.2300    0.4512    0.0000 C   0  0  0  0  0  0  0  0  0  0  0  0
   -3.1179   -0.7578    0.0000 O   0  0  0  0  0  0  0  0  0  0  0  0
   -2.8330    1.8246    0.0000 O   0  0  0  0  0  0  0  0  0  0  0  0
  2  1  1  1
  2  3  1  0
  3  4  1  0
  4  5  1  0
  5  6  1  0
  6  7  1  0
  7  8  1  0
  8  9  1  0
  3 10  1  1
 10 11  2  0
 10 12  1  0
  9  2  1  0
M  END
>  <rName>  (90) 
2-amino-cyclooctane-1-CO2H_1S_2R

>  <PQ_SYMBOL>  (90) 
2-amino-cyclooctane-1-CO2H_1S_2R

>  <FULL_NAME>  (90) 
(1S,2R)-2-Aminocyclooctane-1-carboxylic acid

>  <IUPAC_CONDENSED>  (90) 
2-amino-cyclooctane-1-CO2H(1S,2R)

>  <IUPAC>  (90) 
(1S,2R)-2-aminocyclooctanecarboxylic acid

>  <TYPE>  (90) 
Backbone

>  <CLASS>  (90) 
beta

>  <ANALOG>  (90) 
Leu

>  <MOL_WT>  (90) 
171.24

>  <LOGP>  (90) 
1.3687

>  <TPSA>  (90) 
63.32000000000001

>  <POPULARITY>  (90) 
4.7

>  <PROTECTED>  (90) 
TRUE

>  <SMILES>  (90) 
N[C@H]1[C@H](CCCCCC1)C(=O)O

>  <INCHIKEY>  (90) 
RNDBJXMOBPVFAS-JGVFFNPUSA-N

$$$$
2-amino-cyclopent-3-ene-1-CO2H_1R_2S
     RDKit          2D

  9  9  0  0  0  0  0  0  0  0999 V2000
   -0.5115   -2.3139    0.0000 N   0  0  0  0  0  0  0  0  0  0  0  0
   -0.8624   -0.8555    0.0000 C   0  0  0  0  0  0  0  0  0  0  0  0
    0.1113    0.2855    0.0000 C   0  0  0  0  0  0  0  0  0  0  0  0
   -0.6730    1.5641    0.0000 C   0  0  0  0  0  0  0  0  0  0  0  0
   -2.1314    1.2133    0.0000 C   0  0  0  0  0  0  0  0  0  0  0  0
   -2.2485   -0.2821    0.0000 C   0  0  0  0  0  0  0  0  0  0  0  0
    1.6067    0.1685    0.0000 C   0  0  0  0  0  0  0  0  0  0  0  0
    2.4558    1.4051    0.0000 O   0  0  0  0  0  0  0  0  0  0  0  0
    2.2531   -1.1851    0.0000 O   0  0  0  0  0  0  0  0  0  0  0  0
  2  1  1  1
  2  3  1  0
  3  4  1  0
  4  5  1  0
  5  6  2  0
  3  7  1  1
  7  8  2  0
  7  9  1  0
  6  2  1  0
M  END
>  <rName>  (91) 
2-amino-cyclopent-3-ene-1-CO2H_1R_2S

>  <PQ_SYMBOL>  (91) 
2-amino-cyclopent-3-ene-1-CO2H_1R_2S

>  <FULL_NAME>  (91) 
(1R,2S)-2-aminocyclopent-3-ene-1-carboxylic acid

>  <IUPAC_CONDENSED>  (91) 
2-amino-cyclopent-3-ene-1-CO2H(1R,2S)

>  <IUPAC>  (91) 
(1R,2S)-2-aminocyclopent-3-ene-1-carboxylic acid

>  <TYPE>  (91) 
Backbone

>  <CLASS>  (91) 
beta

>  <ANALOG>  (91) 
Val

>  <MOL_WT>  (91) 
127.14299999999997

>  <LOGP>  (91) 
-0.025600000000000345

>  <TPSA>  (91) 
63.32000000000001

>  <POPULARITY>  (91) 
3.5

>  <PROTECTED>  (91) 
TRUE

>  <SMILES>  (91) 
N[C@@H]1[C@@H](CC=C1)C(=O)O

>  <INCHIKEY>  (91) 
NLCBWTXCWRLPIR-UHNVWZDZSA-N

$$$$
2-amino-cyclopent-3-ene-1-CO2H_1S_2R
     RDKit          2D

  9  9  0  0  0  0  0  0  0  0999 V2000
   -0.5115   -2.3139    0.0000 N   0  0  0  0  0  0  0  0  0  0  0  0
   -0.8624   -0.8555    0.0000 C   0  0  0  0  0  0  0  0  0  0  0  0
    0.1113    0.2855    0.0000 C   0  0  0  0  0  0  0  0  0  0  0  0
   -0.6730    1.5641    0.0000 C   0  0  0  0  0  0  0  0  0  0  0  0
   -2.1314    1.2133    0.0000 C   0  0  0  0  0  0  0  0  0  0  0  0
   -2.2485   -0.2821    0.0000 C   0  0  0  0  0  0  0  0  0  0  0  0
    1.6067    0.1685    0.0000 C   0  0  0  0  0  0  0  0  0  0  0  0
    2.4558    1.4051    0.0000 O   0  0  0  0  0  0  0  0  0  0  0  0
    2.2531   -1.1851    0.0000 O   0  0  0  0  0  0  0  0  0  0  0  0
  2  1  1  6
  2  3  1  0
  3  4  1  0
  4  5  1  0
  5  6  2  0
  3  7  1  6
  7  8  2  0
  7  9  1  0
  6  2  1  0
M  END
>  <rName>  (92) 
2-amino-cyclopent-3-ene-1-CO2H_1S_2R

>  <PQ_SYMBOL>  (92) 
2-amino-cyclopent-3-ene-1-CO2H_1S_2R

>  <FULL_NAME>  (92) 
(1S,2R)-2-aminocyclopent-3-ene-1-carboxylic acid

>  <IUPAC_CONDENSED>  (92) 
2-amino-cyclopent-3-ene-1-CO2H(1S,2R)

>  <IUPAC>  (92) 
(1S,2R)-2-aminocyclopent-3-ene-1-carboxylic acid

>  <TYPE>  (92) 
Backbone

>  <CLASS>  (92) 
beta

>  <ANALOG>  (92) 
Val

>  <MOL_WT>  (92) 
127.14299999999997

>  <LOGP>  (92) 
-0.025600000000000345

>  <TPSA>  (92) 
63.32000000000001

>  <POPULARITY>  (92) 
2.2

>  <PROTECTED>  (92) 
TRUE

>  <SMILES>  (92) 
N[C@H]1[C@H](CC=C1)C(=O)O

>  <INCHIKEY>  (92) 
NLCBWTXCWRLPIR-CRCLSJGQSA-N

$$$$
2-amino-cyclopentane-1-CO2H_1Me
     RDKit          2D

 10 10  0  0  0  0  0  0  0  0999 V2000
    0.5495   -2.0226    0.0000 N   0  0  0  0  0  0  0  0  0  0  0  0
   -0.4407   -0.8959    0.0000 C   0  0  0  0  0  0  0  0  0  0  0  0
   -0.1112    0.5674    0.0000 C   0  0  0  0  0  0  0  0  0  0  0  0
    0.5154    1.9303    0.0000 C   0  0  0  0  0  0  0  0  0  0  0  0
   -1.4011    1.3330    0.0000 C   0  0  0  0  0  0  0  0  0  0  0  0
   -2.5278    0.3428    0.0000 C   0  0  0  0  0  0  0  0  0  0  0  0
   -1.9342   -1.0347    0.0000 C   0  0  0  0  0  0  0  0  0  0  0  0
    1.3097    0.0868    0.0000 C   0  0  0  0  0  0  0  0  0  0  0  0
    2.4364    1.0770    0.0000 O   0  0  0  0  0  0  0  0  0  0  0  0
    1.6039   -1.3841    0.0000 O   0  0  0  0  0  0  0  0  0  0  0  0
  1  2  1  0
  2  3  1  0
  3  4  1  0
  3  5  1  0
  5  6  1  0
  6  7  1  0
  3  8  1  0
  8  9  2  0
  8 10  1  0
  7  2  1  0
M  END
>  <rName>  (93) 
2-amino-cyclopentane-1-CO2H_1Me

>  <PQ_SYMBOL>  (93) 
2-amino-cyclopentane-1-CO2H_1Me

>  <FULL_NAME>  (93) 
2-Amino-1-methylcyclopentane-1-carboxylic acid

>  <IUPAC_CONDENSED>  (93) 
2-amino-cyclopentane-1-CO2H(1-Me)

>  <IUPAC>  (93) 
2-amino-1-methylcyclopentanecarboxylic acid

>  <TYPE>  (93) 
Backbone

>  <CLASS>  (93) 
beta

>  <ANALOG>  (93) 
Val

>  <MOL_WT>  (93) 
143.186

>  <LOGP>  (93) 
0.5884999999999998

>  <TPSA>  (93) 
63.32000000000001

>  <POPULARITY>  (93) 
5.7

>  <PROTECTED>  (93) 
TRUE

>  <SMILES>  (93) 
NC1C(C)(CCC1)C(=O)O

>  <INCHIKEY>  (93) 
XAKRNSMEFCXCML-UHFFFAOYSA-N

$$$$
2-amino-cyclopentane-1-CO2H_2Me_1R_2S
     RDKit          2D

 10 10  0  0  0  0  0  0  0  0999 V2000
   -1.7533   -1.8087    0.0000 N   0  0  0  0  0  0  0  0  0  0  0  0
   -0.8759   -0.5922    0.0000 C   0  0  0  0  0  0  0  0  0  0  0  0
    0.2423   -1.5920    0.0000 C   0  0  0  0  0  0  0  0  0  0  0  0
    0.2354    0.4154    0.0000 C   0  0  0  0  0  0  0  0  0  0  0  0
   -0.3795    1.7836    0.0000 C   0  0  0  0  0  0  0  0  0  0  0  0
   -1.8707    1.6216    0.0000 C   0  0  0  0  0  0  0  0  0  0  0  0
   -2.1775    0.1533    0.0000 C   0  0  0  0  0  0  0  0  0  0  0  0
    1.7037    0.1086    0.0000 C   0  0  0  0  0  0  0  0  0  0  0  0
    2.7035    1.2268    0.0000 O   0  0  0  0  0  0  0  0  0  0  0  0
    2.1721   -1.3164    0.0000 O   0  0  0  0  0  0  0  0  0  0  0  0
  1  2  1  0
  2  3  1  6
  2  4  1  0
  4  5  1  0
  5  6  1  0
  6  7  1  0
  4  8  1  1
  8  9  2  0
  8 10  1  0
  7  2  1  0
M  END
>  <rName>  (94) 
2-amino-cyclopentane-1-CO2H_2Me_1R_2S

>  <PQ_SYMBOL>  (94) 
2-amino-cyclopentane-1-CO2H_2Me_1R_2S

>  <FULL_NAME>  (94) 
(1R,2S)-2-amino-2-methylcyclopentane-1-carboxylic acid

>  <IUPAC_CONDENSED>  (94) 
2-amino-cyclopentane-1-CO2H(2-Me,1R,2S)

>  <IUPAC>  (94) 
(1R,2S)-2-amino-2-methylcyclopentanecarboxylic acid

>  <TYPE>  (94) 
Backbone

>  <CLASS>  (94) 
beta

>  <ANALOG>  (94) 
Leu

>  <MOL_WT>  (94) 
143.186

>  <LOGP>  (94) 
0.5884999999999998

>  <TPSA>  (94) 
63.32000000000001

>  <POPULARITY>  (94) 
4.2

>  <PROTECTED>  (94) 
TRUE

>  <SMILES>  (94) 
N[C@]1(C)[C@@H](CCC1)C(=O)O

>  <INCHIKEY>  (94) 
CHGRKLOXTORQLJ-FSPLSTOPSA-N

$$$$
2-amino-spiro33heptane-2-CO2H_66diF
     RDKit          2D

 13 14  0  0  0  0  0  0  0  0999 V2000
    2.4246   -1.6254    0.0000 N   0  0  0  0  0  0  0  0  0  0  0  0
    1.5067   -0.4390    0.0000 C   0  0  0  0  0  0  0  0  0  0  0  0
    0.3203   -1.3569    0.0000 C   0  0  0  0  0  0  0  0  0  0  0  0
   -0.5975   -0.1705    0.0000 C   0  0  0  0  0  0  0  0  0  0  0  0
   -1.5154    1.0159    0.0000 C   0  0  0  0  0  0  0  0  0  0  0  0
   -2.7018    0.0980    0.0000 C   0  0  0  0  0  0  0  0  0  0  0  0
   -3.8882   -0.8198    0.0000 F   0  0  0  0  0  0  0  0  0  0  0  0
   -3.6196    1.2844    0.0000 F   0  0  0  0  0  0  0  0  0  0  0  0
   -1.7839   -1.0884    0.0000 C   0  0  0  0  0  0  0  0  0  0  0  0
    0.5889    0.7474    0.0000 C   0  0  0  0  0  0  0  0  0  0  0  0
    2.6931    0.4788    0.0000 C   0  0  0  0  0  0  0  0  0  0  0  0
    2.4914    1.9652    0.0000 O   0  0  0  0  0  0  0  0  0  0  0  0
    4.0812   -0.0897    0.0000 O   0  0  0  0  0  0  0  0  0  0  0  0
  1  2  1  0
  2  3  1  0
  3  4  1  0
  4  5  1  0
  5  6  1  0
  6  7  1  0
  6  8  1  0
  6  9  1  0
  4 10  1  0
  2 11  1  0
 11 12  2  0
 11 13  1  0
  9  4  1  0
 10  2  1  0
M  END
>  <rName>  (95) 
2-amino-spiro33heptane-2-CO2H_66diF

>  <PQ_SYMBOL>  (95) 
2-amino-spiro33heptane-2-CO2H_66diF

>  <FULL_NAME>  (95) 
2-Amino-6,6-difluorospiro[3.3]heptane-2-carboxylic acid

>  <IUPAC_CONDENSED>  (95) 
2-amino-spiro[3.3]heptane-2-CO2H(6,6-diF)

>  <IUPAC>  (95) 
2-amino-6,6-difluorospiro[3.3]heptane-2-carboxylic acid

>  <TYPE>  (95) 
Backbone

>  <CLASS>  (95) 
alpha

>  <ANALOG>  (95) 
X

>  <MOL_WT>  (95) 
191.177

>  <LOGP>  (95) 
0.9778

>  <TPSA>  (95) 
63.32000000000001

>  <POPULARITY>  (95) 
2.8

>  <PROTECTED>  (95) 
TRUE

>  <SMILES>  (95) 
NC2(CC1(CC(F)(F)C1)C2)C(=O)O

>  <INCHIKEY>  (95) 
KWCFYKRYJFDNRO-UHFFFAOYSA-N

$$$$
2-amino-spiro33heptane-2-CO2H_6OMe
     RDKit          2D

 13 14  0  0  0  0  0  0  0  0999 V2000
    2.6913   -1.4894    0.0000 N   0  0  0  0  0  0  0  0  0  0  0  0
    1.6640   -0.3964    0.0000 C   0  0  0  0  0  0  0  0  0  0  0  0
    0.5710   -1.4237    0.0000 C   0  0  0  0  0  0  0  0  0  0  0  0
   -0.4563   -0.3307    0.0000 C   0  0  0  0  0  0  0  0  0  0  0  0
   -1.4836    0.7623    0.0000 C   0  0  0  0  0  0  0  0  0  0  0  0
   -2.5766   -0.2651    0.0000 C   0  0  0  0  0  0  0  0  0  0  0  0
   -4.0759   -0.2186    0.0000 O   0  0  0  0  0  0  0  0  0  0  0  0
   -4.7853    1.1030    0.0000 C   0  0  0  0  0  0  0  0  0  0  0  0
   -1.5493   -1.3580    0.0000 C   0  0  0  0  0  0  0  0  0  0  0  0
    0.6367    0.6966    0.0000 C   0  0  0  0  0  0  0  0  0  0  0  0
    2.7570    0.6309    0.0000 C   0  0  0  0  0  0  0  0  0  0  0  0
    2.4138    2.0911    0.0000 O   0  0  0  0  0  0  0  0  0  0  0  0
    4.1932    0.1980    0.0000 O   0  0  0  0  0  0  0  0  0  0  0  0
  1  2  1  0
  2  3  1  0
  3  4  1  0
  4  5  1  0
  5  6  1  0
  6  7  1  0
  7  8  1  0
  6  9  1  0
  4 10  1  0
  2 11  1  0
 11 12  2  0
 11 13  1  0
  9  4  1  0
 10  2  1  0
M  END
>  <rName>  (96) 
2-amino-spiro33heptane-2-CO2H_6OMe

>  <PQ_SYMBOL>  (96) 
2-amino-spiro33heptane-2-CO2H_6OMe

>  <FULL_NAME>  (96) 
2-Amino-6-methoxyspiro[3.3]heptane-2-carboxylic acid

>  <IUPAC_CONDENSED>  (96) 
2-amino-spiro[3.3]heptane-2-CO2H(6-OMe)

>  <IUPAC>  (96) 
2-amino-6-methoxyspiro[3.3]heptane-2-carboxylic acid

>  <TYPE>  (96) 
Backbone

>  <CLASS>  (96) 
alpha

>  <ANALOG>  (96) 
X

>  <MOL_WT>  (96) 
185.22299999999998

>  <LOGP>  (96) 
0.35749999999999943

>  <TPSA>  (96) 
72.55

>  <POPULARITY>  (96) 
2.6

>  <PROTECTED>  (96) 
TRUE

>  <SMILES>  (96) 
NC2(CC1(CC(OC)C1)C2)C(=O)O

>  <INCHIKEY>  (96) 
QIMDHWVGXHPDJB-UHFFFAOYSA-N

$$$$
2-amino-spiro34octane-2-CO2H
     RDKit          2D

 12 13  0  0  0  0  0  0  0  0999 V2000
    1.9728   -1.6597    0.0000 N   0  0  0  0  0  0  0  0  0  0  0  0
    1.0938   -0.4442    0.0000 C   0  0  0  0  0  0  0  0  0  0  0  0
   -0.1217   -1.3233    0.0000 C   0  0  0  0  0  0  0  0  0  0  0  0
   -1.0007   -0.1078    0.0000 C   0  0  0  0  0  0  0  0  0  0  0  0
   -2.0637   -1.1662    0.0000 C   0  0  0  0  0  0  0  0  0  0  0  0
   -3.3987   -0.4823    0.0000 C   0  0  0  0  0  0  0  0  0  0  0  0
   -3.1608    0.9987    0.0000 C   0  0  0  0  0  0  0  0  0  0  0  0
   -1.6788    1.2302    0.0000 C   0  0  0  0  0  0  0  0  0  0  0  0
    0.2147    0.7712    0.0000 C   0  0  0  0  0  0  0  0  0  0  0  0
    2.3092    0.4348    0.0000 C   0  0  0  0  0  0  0  0  0  0  0  0
    2.1557    1.9269    0.0000 O   0  0  0  0  0  0  0  0  0  0  0  0
    3.6782   -0.1783    0.0000 O   0  0  0  0  0  0  0  0  0  0  0  0
  1  2  1  0
  2  3  1  0
  3  4  1  0
  4  5  1  0
  5  6  1  0
  6  7  1  0
  7  8  1  0
  4  9  1  0
  2 10  1  0
 10 11  2  0
 10 12  1  0
  8  4  1  0
  9  2  1  0
M  END
>  <rName>  (97) 
2-amino-spiro34octane-2-CO2H

>  <PQ_SYMBOL>  (97) 
2-amino-spiro34octane-2-CO2H

>  <FULL_NAME>  (97) 
2-Aminospiro[3.4]octane-2-carboxylic acid

>  <IUPAC_CONDENSED>  (97) 
2-amino-spiro[3.4]octane-2-CO2H

>  <IUPAC>  (97) 
2-aminospiro[3.4]octane-2-carboxylic acid

>  <TYPE>  (97) 
Backbone

>  <CLASS>  (97) 
alpha

>  <ANALOG>  (97) 
X

>  <MOL_WT>  (97) 
169.22400000000002

>  <LOGP>  (97) 
1.1227

>  <TPSA>  (97) 
63.32000000000001

>  <POPULARITY>  (97) 
2.8

>  <PROTECTED>  (97) 
TRUE

>  <SMILES>  (97) 
NC2(CC1(CCCC1)C2)C(=O)O

>  <INCHIKEY>  (97) 
HHGUMPXQWKCKLS-UHFFFAOYSA-N

$$$$
2-amino-spiro34octane-6-CO2H
     RDKit          2D

 12 13  0  0  0  0  0  0  0  0999 V2000
    4.4439   -0.7395    0.0000 N   0  0  0  0  0  0  0  0  0  0  0  0
    2.9990   -0.3366    0.0000 C   0  0  0  0  0  0  0  0  0  0  0  0
    1.6924   -1.0733    0.0000 C   0  0  0  0  0  0  0  0  0  0  0  0
    0.9557    0.2333    0.0000 C   0  0  0  0  0  0  0  0  0  0  0  0
    2.2623    0.9700    0.0000 C   0  0  0  0  0  0  0  0  0  0  0  0
   -0.2196   -0.6988    0.0000 C   0  0  0  0  0  0  0  0  0  0  0  0
   -1.4692    0.1309    0.0000 C   0  0  0  0  0  0  0  0  0  0  0  0
   -1.0663    1.5757    0.0000 C   0  0  0  0  0  0  0  0  0  0  0  0
    0.4324    1.6390    0.0000 C   0  0  0  0  0  0  0  0  0  0  0  0
   -2.8750   -0.3924    0.0000 C   0  0  0  0  0  0  0  0  0  0  0  0
   -3.1247   -1.8715    0.0000 O   0  0  0  0  0  0  0  0  0  0  0  0
   -4.0310    0.5633    0.0000 O   0  0  0  0  0  0  0  0  0  0  0  0
  1  2  1  0
  2  3  1  0
  3  4  1  0
  4  5  1  0
  4  6  1  0
  6  7  1  0
  7  8  1  0
  8  9  1  0
  7 10  1  0
 10 11  2  0
 10 12  1  0
  9  4  1  0
  5  2  1  0
M  END
>  <rName>  (98) 
2-amino-spiro34octane-6-CO2H

>  <PQ_SYMBOL>  (98) 
2-amino-spiro34octane-6-CO2H

>  <FULL_NAME>  (98) 
NC1CC2(CCC(C(=O)O)C2)C1

>  <IUPAC_CONDENSED>  (98) 
2-amino-spiro[3.4]octane-6-CO2H

>  <IUPAC>  (98) 
2-aminospiro[3.4]octane-6-carboxylic acid

>  <TYPE>  (98) 
Backbone

>  <CLASS>  (98) 
epsilon

>  <ANALOG>  (98) 
Val

>  <MOL_WT>  (98) 
169.224

>  <LOGP>  (98) 
0.9785999999999997

>  <TPSA>  (98) 
63.32000000000001

>  <POPULARITY>  (98) 
2.7

>  <PROTECTED>  (98) 
TRUE

>  <SMILES>  (98) 
NC2CC1(C2)CC(CC1)C(=O)O

>  <INCHIKEY>  (98) 
OLKYKUMZTRSHAT-UHFFFAOYSA-N

$$$$
2-aminoadamantane-1-CO2H
     RDKit          2D

 14 16  0  0  0  0  0  0  0  0999 V2000
   -1.7674    0.9548    0.0000 N   0  0  0  0  0  0  0  0  0  0  0  0
   -0.9783    0.8418    0.0000 C   0  0  0  0  0  0  0  0  0  0  0  0
   -0.2546   -0.4721    0.0000 C   0  0  0  0  0  0  0  0  0  0  0  0
    0.4691   -1.7860    0.0000 C   0  0  0  0  0  0  0  0  0  0  0  0
    1.9688   -1.8162    0.0000 C   0  0  0  0  0  0  0  0  0  0  0  0
    2.7448   -0.5325    0.0000 C   0  0  0  0  0  0  0  0  0  0  0  0
    2.0211    0.7814    0.0000 C   0  0  0  0  0  0  0  0  0  0  0  0
    1.2974    2.0952    0.0000 C   0  0  0  0  0  0  0  0  0  0  0  0
   -0.2023    2.1254    0.0000 C   0  0  0  0  0  0  0  0  0  0  0  0
    0.6852   -1.0402    0.0000 C   0  0  0  0  0  0  0  0  0  0  0  0
    0.5214    0.8116    0.0000 C   0  0  0  0  0  0  0  0  0  0  0  0
   -1.7543   -0.4419    0.0000 C   0  0  0  0  0  0  0  0  0  0  0  0
   -2.5302   -1.7256    0.0000 O   0  0  0  0  0  0  0  0  0  0  0  0
   -2.2211    0.2042    0.0000 O   0  0  0  0  0  0  0  0  0  0  0  0
  1  2  1  0
  2  3  1  0
  3  4  1  0
  4  5  1  0
  5  6  1  0
  6  7  1  0
  7  8  1  0
  8  9  1  0
  9 10  1  0
  7 11  1  0
  3 12  1  0
 12 13  2  0
 12 14  1  0
  9  2  1  0
 10  5  1  0
 11  3  1  0
M  END
>  <rName>  (99) 
2-aminoadamantane-1-CO2H

>  <PQ_SYMBOL>  (99) 
2-aminoadamantane-1-CO2H

>  <FULL_NAME>  (99) 
2-Aminoadamantane-1-carboxylic acid

>  <IUPAC_CONDENSED>  (99) 
2-aminoadamantane-1-CO2H

>  <IUPAC>  (99) 
2-aminoadamantane-1-carboxylic acid

>  <TYPE>  (99) 
Backbone

>  <CLASS>  (99) 
beta

>  <ANALOG>  (99) 
X

>  <MOL_WT>  (99) 
195.26199999999994

>  <LOGP>  (99) 
1.2245999999999997

>  <TPSA>  (99) 
63.32000000000001

>  <POPULARITY>  (99) 
3.0

>  <PROTECTED>  (99) 
TRUE

>  <SMILES>  (99) 
NC1C3(CC2(CC(CC1C2)C3))C(=O)O

>  <INCHIKEY>  (99) 
KNDWUKJAYRIVHS-UHFFFAOYSA-N

$$$$
2-aminoadamantane-2-CO2H
     RDKit          2D

 14 16  0  0  0  0  0  0  0  0999 V2000
   -1.3348   -1.6795    0.0000 N   0  0  0  0  0  0  0  0  0  0  0  0
   -0.9060   -0.2421    0.0000 C   0  0  0  0  0  0  0  0  0  0  0  0
    0.4351   -0.9139    0.0000 C   0  0  0  0  0  0  0  0  0  0  0  0
    1.7762   -1.5857    0.0000 C   0  0  0  0  0  0  0  0  0  0  0  0
    3.0286   -0.7602    0.0000 C   0  0  0  0  0  0  0  0  0  0  0  0
    2.9399    0.7372    0.0000 C   0  0  0  0  0  0  0  0  0  0  0  0
    1.5988    1.4090    0.0000 C   0  0  0  0  0  0  0  0  0  0  0  0
    0.3464    0.5835    0.0000 C   0  0  0  0  0  0  0  0  0  0  0  0
    0.2576    2.0809    0.0000 C   0  0  0  0  0  0  0  0  0  0  0  0
   -0.9948    1.2553    0.0000 C   0  0  0  0  0  0  0  0  0  0  0  0
    1.5313   -0.8489    0.0000 C   0  0  0  0  0  0  0  0  0  0  0  0
   -2.3961   -0.0694    0.0000 C   0  0  0  0  0  0  0  0  0  0  0  0
   -2.9916    1.3073    0.0000 O   0  0  0  0  0  0  0  0  0  0  0  0
   -3.2906   -1.2735    0.0000 O   0  0  0  0  0  0  0  0  0  0  0  0
  1  2  1  0
  2  3  1  0
  3  4  1  0
  4  5  1  0
  5  6  1  0
  6  7  1  0
  7  8  1  0
  7  9  1  0
  9 10  1  0
 10 11  1  0
  2 12  1  0
 12 13  2  0
 12 14  1  0
  8  3  1  0
 10  2  1  0
 11  5  1  0
M  END
>  <rName>  (100) 
2-aminoadamantane-2-CO2H

>  <PQ_SYMBOL>  (100) 
2-aminoadamantane-2-CO2H

>  <FULL_NAME>  (100) 
2-Aminoadamantane-2-carboxylic acid

>  <IUPAC_CONDENSED>  (100) 
2-aminoadamantane-2-CO2H

>  <IUPAC>  (100) 
2-aminoadamantane-2-carboxylic acid

>  <TYPE>  (100) 
Backbone

>  <CLASS>  (100) 
alpha

>  <ANALOG>  (100) 
X

>  <MOL_WT>  (100) 
195.262

>  <LOGP>  (100) 
1.2245999999999997

>  <TPSA>  (100) 
63.32000000000001

>  <POPULARITY>  (100) 
7.6

>  <PROTECTED>  (100) 
TRUE

>  <SMILES>  (100) 
NC2(C1(CC3(CC(C1)CC2C3)))C(=O)O

>  <INCHIKEY>  (100) 
WQMQRNCPZFUGID-UHFFFAOYSA-N

$$$$
2-aminoindan-2-CO2H
     RDKit          2D

 13 14  0  0  0  0  0  0  0  0999 V2000
   -2.2976    1.5588    0.0000 N   0  0  0  0  0  0  0  0  0  0  0  0
   -1.3281    0.4142    0.0000 C   0  0  0  0  0  0  0  0  0  0  0  0
   -0.6179   -0.9070    0.0000 C   0  0  0  0  0  0  0  0  0  0  0  0
    0.8581   -0.6397    0.0000 C   0  0  0  0  0  0  0  0  0  0  0  0
    2.0444   -1.5578    0.0000 C   0  0  0  0  0  0  0  0  0  0  0  0
    3.4326   -0.9895    0.0000 C   0  0  0  0  0  0  0  0  0  0  0  0
    3.6345    0.4969    0.0000 C   0  0  0  0  0  0  0  0  0  0  0  0
    2.4482    1.4149    0.0000 C   0  0  0  0  0  0  0  0  0  0  0  0
    1.0601    0.8466    0.0000 C   0  0  0  0  0  0  0  0  0  0  0  0
   -0.2911    1.4980    0.0000 C   0  0  0  0  0  0  0  0  0  0  0  0
   -2.5678   -0.4303    0.0000 C   0  0  0  0  0  0  0  0  0  0  0  0
   -2.4563   -1.9262    0.0000 O   0  0  0  0  0  0  0  0  0  0  0  0
   -3.9190    0.2210    0.0000 O   0  0  0  0  0  0  0  0  0  0  0  0
  1  2  1  0
  2  3  1  0
  3  4  1  0
  4  5  2  0
  5  6  1  0
  6  7  2  0
  7  8  1  0
  8  9  2  0
  9 10  1  0
  2 11  1  0
 11 12  2  0
 11 13  1  0
  9  4  1  0
 10  2  1  0
M  END
>  <rName>  (101) 
2-aminoindan-2-CO2H

>  <PQ_SYMBOL>  (101) 
2-aminoindan-2-CO2H

>  <FULL_NAME>  (101) 
2-amino-2-indancarboxylic acid

>  <IUPAC_CONDENSED>  (101) 
2-aminoindan-2-CO2H

>  <IUPAC>  (101) 
2-aminoindane-2-carboxylic acid

>  <TYPE>  (101) 
Backbone

>  <CLASS>  (101) 
alpha

>  <ANALOG>  (101) 
Phe

>  <MOL_WT>  (101) 
177.20299999999995

>  <LOGP>  (101) 
0.5672999999999999

>  <TPSA>  (101) 
63.32000000000001

>  <POPULARITY>  (101) 
19.1

>  <PROTECTED>  (101) 
TRUE

>  <SMILES>  (101) 
NC2(Cc1(ccccc1C2))C(=O)O

>  <INCHIKEY>  (101) 
UHQFXIWMAQOCAN-UHFFFAOYSA-N

$$$$
2-aminomethyl-bicyclo221heptane-2-CO2H
     RDKit          2D

 12 13  0  0  0  0  0  0  0  0999 V2000
    0.8376   -2.5427    0.0000 N   0  0  0  0  0  0  0  0  0  0  0  0
    1.2472   -1.0997    0.0000 C   0  0  0  0  0  0  0  0  0  0  0  0
    0.2581   -0.0809    0.0000 C   0  0  0  0  0  0  0  0  0  0  0  0
   -0.3230    1.2148    0.0000 C   0  0  0  0  0  0  0  0  0  0  0  0
   -1.7356    1.3595    0.0000 C   0  0  0  0  0  0  0  0  0  0  0  0
   -2.5672    0.2085    0.0000 C   0  0  0  0  0  0  0  0  0  0  0  0
   -1.9861   -1.0872    0.0000 C   0  0  0  0  0  0  0  0  0  0  0  0
   -0.5735   -1.2319    0.0000 C   0  0  0  0  0  0  0  0  0  0  0  0
   -0.6983    0.2684    0.0000 C   0  0  0  0  0  0  0  0  0  0  0  0
    1.4332    0.7163    0.0000 C   0  0  0  0  0  0  0  0  0  0  0  0
    2.7831    0.0624    0.0000 O   0  0  0  0  0  0  0  0  0  0  0  0
    1.3246    2.2124    0.0000 O   0  0  0  0  0  0  0  0  0  0  0  0
  1  2  1  0
  2  3  1  0
  3  4  1  0
  4  5  1  0
  5  6  1  0
  6  7  1  0
  7  8  1  0
  8  9  1  0
  3 10  1  0
 10 11  2  0
 10 12  1  0
  8  3  1  0
  9  5  1  0
M  END
>  <rName>  (102) 
2-aminomethyl-bicyclo221heptane-2-CO2H

>  <PQ_SYMBOL>  (102) 
2-aminomethyl-bicyclo221heptane-2-CO2H

>  <FULL_NAME>  (102) 
2-(Aminomethyl)bicyclo[2.2.1]heptane-2-carboxylic acid

>  <IUPAC_CONDENSED>  (102) 
2-aminomethyl-bicyclo[2.2.1]heptane-2-CO2H

>  <IUPAC>  (102) 
2-(aminomethyl)bicyclo[2.2.1]heptane-2-carboxylic acid

>  <TYPE>  (102) 
Backbone

>  <CLASS>  (102) 
beta

>  <ANALOG>  (102) 
X

>  <MOL_WT>  (102) 
169.224

>  <LOGP>  (102) 
0.8361000000000001

>  <TPSA>  (102) 
63.32000000000001

>  <POPULARITY>  (102) 
3.6

>  <PROTECTED>  (102) 
TRUE

>  <SMILES>  (102) 
NCC1(CC2(CCC1C2))C(=O)O

>  <INCHIKEY>  (102) 
VWPLJPXIUWWIAJ-UHFFFAOYSA-N

$$$$
2-aminomethyl-cyclobutane-1-CO2H
     RDKit          2D

  9  9  0  0  0  0  0  0  0  0999 V2000
    1.6051   -2.1233    0.0000 N   0  0  0  0  0  0  0  0  0  0  0  0
    2.1185   -0.7139    0.0000 C   0  0  0  0  0  0  0  0  0  0  0  0
    1.1547    0.4355    0.0000 C   0  0  0  0  0  0  0  0  0  0  0  0
   -0.3396    0.5666    0.0000 C   0  0  0  0  0  0  0  0  0  0  0  0
   -0.2084    2.0609    0.0000 C   0  0  0  0  0  0  0  0  0  0  0  0
    1.2858    1.9297    0.0000 C   0  0  0  0  0  0  0  0  0  0  0  0
   -1.4889   -0.3972    0.0000 C   0  0  0  0  0  0  0  0  0  0  0  0
   -1.2289   -1.8745    0.0000 O   0  0  0  0  0  0  0  0  0  0  0  0
   -2.8983    0.1162    0.0000 O   0  0  0  0  0  0  0  0  0  0  0  0
  1  2  1  0
  2  3  1  0
  3  4  1  0
  4  5  1  0
  5  6  1  0
  4  7  1  0
  7  8  2  0
  7  9  1  0
  6  3  1  0
M  END
>  <rName>  (103) 
2-aminomethyl-cyclobutane-1-CO2H

>  <PQ_SYMBOL>  (103) 
2-aminomethyl-cyclobutane-1-CO2H

>  <FULL_NAME>  (103) 
2-(Aminomethyl)cyclobutane-1-carboxylic acid

>  <IUPAC_CONDENSED>  (103) 
2-aminomethyl-cyclobutane-1-CO2H

>  <IUPAC>  (103) 
2-(aminomethyl)cyclobutanecarboxylic acid

>  <TYPE>  (103) 
Backbone

>  <CLASS>  (103) 
gamma

>  <ANALOG>  (103) 
Ala

>  <MOL_WT>  (103) 
129.15900000000002

>  <LOGP>  (103) 
0.05590000000000023

>  <TPSA>  (103) 
63.32000000000001

>  <POPULARITY>  (103) 
7.5

>  <PROTECTED>  (103) 
TRUE

>  <SMILES>  (103) 
NCC1C(CC1)C(=O)O

>  <INCHIKEY>  (103) 
PXJMGVYQAJBQJF-UHFFFAOYSA-N

$$$$
2-aminomethyl-cyclohexane-1-CO2H_1R_2R
     RDKit          2D

 11 11  0  0  0  0  0  0  0  0999 V2000
   -2.1905   -1.5485    0.0000 N   0  0  0  0  0  0  0  0  0  0  0  0
   -0.7572   -1.9909    0.0000 C   0  0  0  0  0  0  0  0  0  0  0  0
    0.3425   -0.9709    0.0000 C   0  0  0  0  0  0  0  0  0  0  0  0
    0.0090    0.4916    0.0000 C   0  0  0  0  0  0  0  0  0  0  0  0
    1.1088    1.5116    0.0000 C   0  0  0  0  0  0  0  0  0  0  0  0
    2.5421    1.0692    0.0000 C   0  0  0  0  0  0  0  0  0  0  0  0
    2.8756   -0.3932    0.0000 C   0  0  0  0  0  0  0  0  0  0  0  0
    1.7758   -1.4133    0.0000 C   0  0  0  0  0  0  0  0  0  0  0  0
   -1.4243    0.9340    0.0000 C   0  0  0  0  0  0  0  0  0  0  0  0
   -2.5240   -0.0861    0.0000 O   0  0  0  0  0  0  0  0  0  0  0  0
   -1.7578    2.3964    0.0000 O   0  0  0  0  0  0  0  0  0  0  0  0
  1  2  1  0
  3  2  1  1
  3  4  1  0
  4  5  1  0
  5  6  1  0
  6  7  1  0
  7  8  1  0
  4  9  1  6
  9 10  2  0
  9 11  1  0
  8  3  1  0
M  END
>  <rName>  (104) 
2-aminomethyl-cyclohexane-1-CO2H_1R_2R

>  <PQ_SYMBOL>  (104) 
2-aminomethyl-cyclohexane-1-CO2H_1R_2R

>  <FULL_NAME>  (104) 
cis-(1R,2R)-2-(aminomethyl)cyclohexane-1-carboxylic acid

>  <IUPAC_CONDENSED>  (104) 
2-aminomethyl-cyclohexane-1-CO2H(1R,2R)

>  <IUPAC>  (104) 
(1R,2R)-2-(aminomethyl)cyclohexanecarboxylic acid

>  <TYPE>  (104) 
Backbone

>  <CLASS>  (104) 
gamma

>  <ANALOG>  (104) 
Leu

>  <MOL_WT>  (104) 
157.21300000000002

>  <LOGP>  (104) 
0.8361000000000001

>  <TPSA>  (104) 
63.32000000000001

>  <POPULARITY>  (104) 
7.5

>  <PROTECTED>  (104) 
TRUE

>  <SMILES>  (104) 
NC[C@H]1[C@@H](CCCC1)C(=O)O

>  <INCHIKEY>  (104) 
XOISOAJGMXHXPL-NKWVEPMBSA-N

$$$$
2-aminomethyl-cyclohexane-1-CO2H_1S_2R
     RDKit          2D

 11 11  0  0  0  0  0  0  0  0999 V2000
   -2.1905   -1.5485    0.0000 N   0  0  0  0  0  0  0  0  0  0  0  0
   -0.7572   -1.9909    0.0000 C   0  0  0  0  0  0  0  0  0  0  0  0
    0.3425   -0.9709    0.0000 C   0  0  0  0  0  0  0  0  0  0  0  0
    0.0090    0.4916    0.0000 C   0  0  0  0  0  0  0  0  0  0  0  0
    1.1088    1.5116    0.0000 C   0  0  0  0  0  0  0  0  0  0  0  0
    2.5421    1.0692    0.0000 C   0  0  0  0  0  0  0  0  0  0  0  0
    2.8756   -0.3932    0.0000 C   0  0  0  0  0  0  0  0  0  0  0  0
    1.7758   -1.4133    0.0000 C   0  0  0  0  0  0  0  0  0  0  0  0
   -1.4243    0.9340    0.0000 C   0  0  0  0  0  0  0  0  0  0  0  0
   -2.5240   -0.0861    0.0000 O   0  0  0  0  0  0  0  0  0  0  0  0
   -1.7578    2.3964    0.0000 O   0  0  0  0  0  0  0  0  0  0  0  0
  1  2  1  0
  3  2  1  1
  3  4  1  0
  4  5  1  0
  5  6  1  0
  6  7  1  0
  7  8  1  0
  4  9  1  1
  9 10  2  0
  9 11  1  0
  8  3  1  0
M  END
>  <rName>  (105) 
2-aminomethyl-cyclohexane-1-CO2H_1S_2R

>  <PQ_SYMBOL>  (105) 
2-aminomethyl-cyclohexane-1-CO2H_1S_2R

>  <FULL_NAME>  (105) 
rac-(1R,2S)-2-(aminomethyl)cyclohexane-1-carboxylic acid

>  <IUPAC_CONDENSED>  (105) 
2-aminomethyl-cyclohexane-1-CO2H(1S,2R)

>  <IUPAC>  (105) 
(1S,2R)-2-(aminomethyl)cyclohexanecarboxylic acid

>  <TYPE>  (105) 
Backbone

>  <CLASS>  (105) 
gamma

>  <ANALOG>  (105) 
Leu

>  <MOL_WT>  (105) 
157.21300000000002

>  <LOGP>  (105) 
0.8361000000000001

>  <TPSA>  (105) 
63.32000000000001

>  <POPULARITY>  (105) 
10.9

>  <PROTECTED>  (105) 
TRUE

>  <SMILES>  (105) 
NC[C@H]1[C@H](CCCC1)C(=O)O

>  <INCHIKEY>  (105) 
XOISOAJGMXHXPL-BQBZGAKWSA-N

$$$$
2-aminomethyl-cyclohexane-1-CO2H_4OH_5OH_1S_2R_4R_5S
     RDKit          2D

 13 13  0  0  0  0  0  0  0  0999 V2000
   -2.9298   -1.4050    0.0000 N   0  0  0  0  0  0  0  0  0  0  0  0
   -1.5385   -1.9656    0.0000 C   0  0  0  0  0  0  0  0  0  0  0  0
   -0.3573   -1.0411    0.0000 C   0  0  0  0  0  0  0  0  0  0  0  0
   -0.5674    0.4441    0.0000 C   0  0  0  0  0  0  0  0  0  0  0  0
    0.6138    1.3687    0.0000 C   0  0  0  0  0  0  0  0  0  0  0  0
    2.0050    0.8080    0.0000 C   0  0  0  0  0  0  0  0  0  0  0  0
    3.1862    1.7326    0.0000 O   0  0  0  0  0  0  0  0  0  0  0  0
    2.2151   -0.6772    0.0000 C   0  0  0  0  0  0  0  0  0  0  0  0
    3.6064   -1.2379    0.0000 O   0  0  0  0  0  0  0  0  0  0  0  0
    1.0339   -1.6017    0.0000 C   0  0  0  0  0  0  0  0  0  0  0  0
   -1.9587    1.0048    0.0000 C   0  0  0  0  0  0  0  0  0  0  0  0
   -3.1399    0.0803    0.0000 O   0  0  0  0  0  0  0  0  0  0  0  0
   -2.1688    2.4900    0.0000 O   0  0  0  0  0  0  0  0  0  0  0  0
  1  2  1  0
  3  2  1  1
  3  4  1  0
  4  5  1  0
  5  6  1  0
  6  7  1  6
  6  8  1  0
  8  9  1  6
  8 10  1  0
  4 11  1  1
 11 12  2  0
 11 13  1  0
 10  3  1  0
M  END
>  <rName>  (106) 
2-aminomethyl-cyclohexane-1-CO2H_4OH_5OH_1S_2R_4R_5S

>  <PQ_SYMBOL>  (106) 
2-aminomethyl-cyclohexane-1-CO2H_4OH_5OH_1S_2R_4R_5S

>  <FULL_NAME>  (106) 
(1RS,2SR,4RS&,5SR&)-2-(aminomethyl)-4,5-dihydroxycyclohexane-1-carboxylic acid

>  <IUPAC_CONDENSED>  (106) 
2-aminomethyl-cyclohexane-1-CO2H(4-OH,5-OH,1S,2R,4R,5S)

>  <IUPAC>  (106) 
(1S,2R,4R,5S)-2-(aminomethyl)-4,5-dihydroxycyclohexanecarboxylic acid

>  <TYPE>  (106) 
Backbone

>  <CLASS>  (106) 
gamma

>  <ANALOG>  (106) 
Ser

>  <MOL_WT>  (106) 
189.21099999999998

>  <LOGP>  (106) 
-1.2223000000000008

>  <TPSA>  (106) 
103.78000000000002

>  <POPULARITY>  (106) 
5.4

>  <PROTECTED>  (106) 
TRUE

>  <SMILES>  (106) 
NC[C@H]1[C@H](C[C@H](O)[C@H](O)C1)C(=O)O

>  <INCHIKEY>  (106) 
MJQYXYKNKUQFHK-YTLHQDLWSA-N

$$$$
2-aminomethyl-cyclopentane-1-CO2H_1R_2R
     RDKit          2D

 10 10  0  0  0  0  0  0  0  0999 V2000
   -2.9143   -1.6284    0.0000 N   0  0  0  0  0  0  0  0  0  0  0  0
   -1.4299   -1.4129    0.0000 C   0  0  0  0  0  0  0  0  0  0  0  0
   -0.8743   -0.0196    0.0000 C   0  0  0  0  0  0  0  0  0  0  0  0
    0.5795    0.3498    0.0000 C   0  0  0  0  0  0  0  0  0  0  0  0
    0.6774    1.8466    0.0000 C   0  0  0  0  0  0  0  0  0  0  0  0
   -0.7159    2.4022    0.0000 C   0  0  0  0  0  0  0  0  0  0  0  0
   -1.6749    1.2488    0.0000 C   0  0  0  0  0  0  0  0  0  0  0  0
    1.7329   -0.6092    0.0000 C   0  0  0  0  0  0  0  0  0  0  0  0
    1.4791   -2.0876    0.0000 O   0  0  0  0  0  0  0  0  0  0  0  0
    3.1402   -0.0898    0.0000 O   0  0  0  0  0  0  0  0  0  0  0  0
  1  2  1  0
  3  2  1  6
  3  4  1  0
  4  5  1  0
  5  6  1  0
  6  7  1  0
  4  8  1  1
  8  9  2  0
  8 10  1  0
  7  3  1  0
M  END
>  <rName>  (107) 
2-aminomethyl-cyclopentane-1-CO2H_1R_2R

>  <PQ_SYMBOL>  (107) 
2-aminomethyl-cyclopentane-1-CO2H_1R_2R

>  <FULL_NAME>  (107) 
cis-(1R,2R)-2-(aminomethyl)cyclopentane-1-carboxylic acid

>  <IUPAC_CONDENSED>  (107) 
2-aminomethyl-cyclopentane-1-CO2H(1R,2R)

>  <IUPAC>  (107) 
(1R,2R)-2-(aminomethyl)cyclopentanecarboxylic acid

>  <TYPE>  (107) 
Backbone

>  <CLASS>  (107) 
gamma

>  <ANALOG>  (107) 
Val

>  <MOL_WT>  (107) 
143.186

>  <LOGP>  (107) 
0.4460000000000001

>  <TPSA>  (107) 
63.32000000000001

>  <POPULARITY>  (107) 
9.2

>  <PROTECTED>  (107) 
TRUE

>  <SMILES>  (107) 
NC[C@H]1[C@@H](CCC1)C(=O)O

>  <INCHIKEY>  (107) 
FONSINLSFMJZQN-NTSWFWBYSA-N

$$$$
2-aminomethyl-cyclopentane-1-CO2H_1S_2R
     RDKit          2D

 10 10  0  0  0  0  0  0  0  0999 V2000
   -2.9143   -1.6284    0.0000 N   0  0  0  0  0  0  0  0  0  0  0  0
   -1.4299   -1.4129    0.0000 C   0  0  0  0  0  0  0  0  0  0  0  0
   -0.8743   -0.0196    0.0000 C   0  0  0  0  0  0  0  0  0  0  0  0
    0.5795    0.3498    0.0000 C   0  0  0  0  0  0  0  0  0  0  0  0
    0.6774    1.8466    0.0000 C   0  0  0  0  0  0  0  0  0  0  0  0
   -0.7159    2.4022    0.0000 C   0  0  0  0  0  0  0  0  0  0  0  0
   -1.6749    1.2488    0.0000 C   0  0  0  0  0  0  0  0  0  0  0  0
    1.7329   -0.6092    0.0000 C   0  0  0  0  0  0  0  0  0  0  0  0
    1.4791   -2.0876    0.0000 O   0  0  0  0  0  0  0  0  0  0  0  0
    3.1402   -0.0898    0.0000 O   0  0  0  0  0  0  0  0  0  0  0  0
  1  2  1  0
  3  2  1  6
  3  4  1  0
  4  5  1  0
  5  6  1  0
  6  7  1  0
  4  8  1  6
  8  9  2  0
  8 10  1  0
  7  3  1  0
M  END
>  <rName>  (108) 
2-aminomethyl-cyclopentane-1-CO2H_1S_2R

>  <PQ_SYMBOL>  (108) 
2-aminomethyl-cyclopentane-1-CO2H_1S_2R

>  <FULL_NAME>  (108) 
rac-(1R,2S)-2-(aminomethyl)cyclopentane-1-carboxylic acid

>  <IUPAC_CONDENSED>  (108) 
2-aminomethyl-cyclopentane-1-CO2H(1S,2R)

>  <IUPAC>  (108) 
(1S,2R)-2-(aminomethyl)cyclopentanecarboxylic acid

>  <TYPE>  (108) 
Backbone

>  <CLASS>  (108) 
gamma

>  <ANALOG>  (108) 
Val

>  <MOL_WT>  (108) 
143.186

>  <LOGP>  (108) 
0.4460000000000001

>  <TPSA>  (108) 
63.32000000000001

>  <POPULARITY>  (108) 
9.0

>  <PROTECTED>  (108) 
TRUE

>  <SMILES>  (108) 
NC[C@H]1[C@H](CCC1)C(=O)O

>  <INCHIKEY>  (108) 
FONSINLSFMJZQN-WDSKDSINSA-N

$$$$
2-aminomethyl-cyclopropane-1-CO2H_1Me_1R_2R
     RDKit          2D

  9  9  0  0  0  0  0  0  0  0999 V2000
   -3.3950   -0.1199    0.0000 N   0  0  0  0  0  0  0  0  0  0  0  0
   -1.9755   -0.6047    0.0000 C   0  0  0  0  0  0  0  0  0  0  0  0
   -0.8459    0.3823    0.0000 C   0  0  0  0  0  0  0  0  0  0  0  0
    0.6259    0.6722    0.0000 C   0  0  0  0  0  0  0  0  0  0  0  0
    1.9097    1.4480    0.0000 C   0  0  0  0  0  0  0  0  0  0  0  0
   -0.3611    1.8018    0.0000 C   0  0  0  0  0  0  0  0  0  0  0  0
    1.1669   -0.7268    0.0000 C   0  0  0  0  0  0  0  0  0  0  0  0
    0.2259   -1.8949    0.0000 O   0  0  0  0  0  0  0  0  0  0  0  0
    2.6490   -0.9578    0.0000 O   0  0  0  0  0  0  0  0  0  0  0  0
  1  2  1  0
  3  2  1  6
  3  4  1  0
  4  5  1  6
  4  6  1  0
  4  7  1  0
  7  8  2  0
  7  9  1  0
  6  3  1  0
M  END
>  <rName>  (109) 
2-aminomethyl-cyclopropane-1-CO2H_1Me_1R_2R

>  <PQ_SYMBOL>  (109) 
2-aminomethyl-cyclopropane-1-CO2H_1Me_1R_2R

>  <FULL_NAME>  (109) 
C[C@@]1(C(=O)O)C[C@H]1CN

>  <IUPAC_CONDENSED>  (109) 
2-aminomethyl-cyclopropane-1-CO2H(1-Me,1R,2R)

>  <IUPAC>  (109) 
(1R,2R)-2-(aminomethyl)-1-methylcyclopropanecarboxylic acid

>  <TYPE>  (109) 
Backbone

>  <CLASS>  (109) 
gamma

>  <ANALOG>  (109) 
Ala

>  <MOL_WT>  (109) 
129.159

>  <LOGP>  (109) 
0.05590000000000023

>  <TPSA>  (109) 
63.32000000000001

>  <POPULARITY>  (109) 
6.8

>  <PROTECTED>  (109) 
TRUE

>  <SMILES>  (109) 
NC[C@H]1[C@@](C)(C1)C(=O)O

>  <INCHIKEY>  (109) 
UFNDSCQJHBLWMO-UJURSFKZSA-N

$$$$
2-aminomethyl-cyclopropane-1-CO2H_1Me_1S_2S
     RDKit          2D

  9  9  0  0  0  0  0  0  0  0999 V2000
   -3.3950   -0.1199    0.0000 N   0  0  0  0  0  0  0  0  0  0  0  0
   -1.9755   -0.6047    0.0000 C   0  0  0  0  0  0  0  0  0  0  0  0
   -0.8459    0.3823    0.0000 C   0  0  0  0  0  0  0  0  0  0  0  0
    0.6259    0.6722    0.0000 C   0  0  0  0  0  0  0  0  0  0  0  0
    1.9097    1.4480    0.0000 C   0  0  0  0  0  0  0  0  0  0  0  0
   -0.3611    1.8018    0.0000 C   0  0  0  0  0  0  0  0  0  0  0  0
    1.1669   -0.7268    0.0000 C   0  0  0  0  0  0  0  0  0  0  0  0
    0.2259   -1.8949    0.0000 O   0  0  0  0  0  0  0  0  0  0  0  0
    2.6490   -0.9578    0.0000 O   0  0  0  0  0  0  0  0  0  0  0  0
  1  2  1  0
  3  2  1  1
  3  4  1  0
  4  5  1  1
  4  6  1  0
  4  7  1  0
  7  8  2  0
  7  9  1  0
  6  3  1  0
M  END
>  <rName>  (110) 
2-aminomethyl-cyclopropane-1-CO2H_1Me_1S_2S

>  <PQ_SYMBOL>  (110) 
2-aminomethyl-cyclopropane-1-CO2H_1Me_1S_2S

>  <FULL_NAME>  (110) 
C[C@]1(C(=O)O)C[C@@H]1CN

>  <IUPAC_CONDENSED>  (110) 
2-aminomethyl-cyclopropane-1-CO2H(1-Me,1S,2S)

>  <IUPAC>  (110) 
(1S,2S)-2-(aminomethyl)-1-methylcyclopropanecarboxylic acid

>  <TYPE>  (110) 
Backbone

>  <CLASS>  (110) 
gamma

>  <ANALOG>  (110) 
Ala

>  <MOL_WT>  (110) 
129.159

>  <LOGP>  (110) 
0.05590000000000023

>  <TPSA>  (110) 
63.32000000000001

>  <POPULARITY>  (110) 
6.9

>  <PROTECTED>  (110) 
TRUE

>  <SMILES>  (110) 
NC[C@@H]1[C@](C)(C1)C(=O)O

>  <INCHIKEY>  (110) 
UFNDSCQJHBLWMO-XINAWCOVSA-N

$$$$
2-aminomethyl-cyclopropane-1-CO2H_1R_2R
     RDKit          2D

  8  8  0  0  0  0  0  0  0  0999 V2000
   -3.6124   -0.1862    0.0000 N   0  0  0  0  0  0  0  0  0  0  0  0
   -2.2235   -0.7527    0.0000 C   0  0  0  0  0  0  0  0  0  0  0  0
   -1.0384    0.1668    0.0000 C   0  0  0  0  0  0  0  0  0  0  0  0
    0.4477    0.3706    0.0000 C   0  0  0  0  0  0  0  0  0  0  0  0
   -0.4719    1.5557    0.0000 C   0  0  0  0  0  0  0  0  0  0  0  0
    1.8366   -0.1959    0.0000 C   0  0  0  0  0  0  0  0  0  0  0  0
    3.0216    0.7237    0.0000 O   0  0  0  0  0  0  0  0  0  0  0  0
    2.0404   -1.6820    0.0000 O   0  0  0  0  0  0  0  0  0  0  0  0
  1  2  1  0
  3  2  1  6
  3  4  1  0
  4  5  1  0
  4  6  1  1
  6  7  2  0
  6  8  1  0
  5  3  1  0
M  END
>  <rName>  (111) 
2-aminomethyl-cyclopropane-1-CO2H_1R_2R

>  <PQ_SYMBOL>  (111) 
2-aminomethyl-cyclopropane-1-CO2H_1R_2R

>  <FULL_NAME>  (111) 
rel-(1R,2R)-2-(Aminomethyl)cyclopropanecarboxylic acid

>  <IUPAC_CONDENSED>  (111) 
2-aminomethyl-cyclopropane-1-CO2H(1R,2R)

>  <IUPAC>  (111) 
(1R,2R)-2-(aminomethyl)cyclopropanecarboxylic acid

>  <TYPE>  (111) 
Backbone

>  <CLASS>  (111) 
gamma

>  <ANALOG>  (111) 
Ala

>  <MOL_WT>  (111) 
115.13199999999999

>  <LOGP>  (111) 
-0.3342000000000001

>  <TPSA>  (111) 
63.32000000000001

>  <POPULARITY>  (111) 
8.0

>  <PROTECTED>  (111) 
TRUE

>  <SMILES>  (111) 
NC[C@H]1[C@@H](C1)C(=O)O

>  <INCHIKEY>  (111) 
QUFMERRXRMSAPZ-IUYQGCFVSA-N

$$$$
2-aminomethyl-cyclopropane-1-CO2H_1S_2R
     RDKit          2D

  8  8  0  0  0  0  0  0  0  0999 V2000
   -3.6124   -0.1862    0.0000 N   0  0  0  0  0  0  0  0  0  0  0  0
   -2.2235   -0.7527    0.0000 C   0  0  0  0  0  0  0  0  0  0  0  0
   -1.0384    0.1668    0.0000 C   0  0  0  0  0  0  0  0  0  0  0  0
    0.4477    0.3706    0.0000 C   0  0  0  0  0  0  0  0  0  0  0  0
   -0.4719    1.5557    0.0000 C   0  0  0  0  0  0  0  0  0  0  0  0
    1.8366   -0.1959    0.0000 C   0  0  0  0  0  0  0  0  0  0  0  0
    3.0216    0.7237    0.0000 O   0  0  0  0  0  0  0  0  0  0  0  0
    2.0404   -1.6820    0.0000 O   0  0  0  0  0  0  0  0  0  0  0  0
  1  2  1  0
  3  2  1  6
  3  4  1  0
  4  5  1  0
  4  6  1  6
  6  7  2  0
  6  8  1  0
  5  3  1  0
M  END
>  <rName>  (112) 
2-aminomethyl-cyclopropane-1-CO2H_1S_2R

>  <PQ_SYMBOL>  (112) 
2-aminomethyl-cyclopropane-1-CO2H_1S_2R

>  <FULL_NAME>  (112) 
(+)-cis-2-Aminomethylcyclopropane carboxylic acid

>  <IUPAC_CONDENSED>  (112) 
2-aminomethyl-cyclopropane-1-CO2H(1S,2R)

>  <IUPAC>  (112) 
(1S,2R)-2-(aminomethyl)cyclopropanecarboxylic acid

>  <TYPE>  (112) 
Backbone

>  <CLASS>  (112) 
gamma

>  <ANALOG>  (112) 
Ala

>  <MOL_WT>  (112) 
115.13199999999999

>  <LOGP>  (112) 
-0.3342000000000001

>  <TPSA>  (112) 
63.32000000000001

>  <POPULARITY>  (112) 
8.5

>  <PROTECTED>  (112) 
TRUE

>  <SMILES>  (112) 
NC[C@H]1[C@H](C1)C(=O)O

>  <INCHIKEY>  (112) 
QUFMERRXRMSAPZ-IMJSIDKUSA-N

$$$$
2-aminomethyl-cyclopropane-1-CO2H_1S_2S
     RDKit          2D

  8  8  0  0  0  0  0  0  0  0999 V2000
   -3.6124   -0.1862    0.0000 N   0  0  0  0  0  0  0  0  0  0  0  0
   -2.2235   -0.7527    0.0000 C   0  0  0  0  0  0  0  0  0  0  0  0
   -1.0384    0.1668    0.0000 C   0  0  0  0  0  0  0  0  0  0  0  0
    0.4477    0.3706    0.0000 C   0  0  0  0  0  0  0  0  0  0  0  0
   -0.4719    1.5557    0.0000 C   0  0  0  0  0  0  0  0  0  0  0  0
    1.8366   -0.1959    0.0000 C   0  0  0  0  0  0  0  0  0  0  0  0
    3.0216    0.7237    0.0000 O   0  0  0  0  0  0  0  0  0  0  0  0
    2.0404   -1.6820    0.0000 O   0  0  0  0  0  0  0  0  0  0  0  0
  1  2  1  0
  3  2  1  1
  3  4  1  0
  4  5  1  0
  4  6  1  6
  6  7  2  0
  6  8  1  0
  5  3  1  0
M  END
>  <rName>  (113) 
2-aminomethyl-cyclopropane-1-CO2H_1S_2S

>  <PQ_SYMBOL>  (113) 
2-aminomethyl-cyclopropane-1-CO2H_1S_2S

>  <FULL_NAME>  (113) 
(1S,2S)-2-(aminomethyl)cyclopropane-1-carboxylic acid

>  <IUPAC_CONDENSED>  (113) 
2-aminomethyl-cyclopropane-1-CO2H(1S,2S)

>  <IUPAC>  (113) 
(1S,2S)-2-(aminomethyl)cyclopropanecarboxylic acid

>  <TYPE>  (113) 
Backbone

>  <CLASS>  (113) 
gamma

>  <ANALOG>  (113) 
Ala

>  <MOL_WT>  (113) 
115.13199999999999

>  <LOGP>  (113) 
-0.3342000000000001

>  <TPSA>  (113) 
63.32000000000001

>  <POPULARITY>  (113) 
9.9

>  <PROTECTED>  (113) 
TRUE

>  <SMILES>  (113) 
NC[C@@H]1[C@H](C1)C(=O)O

>  <INCHIKEY>  (113) 
QUFMERRXRMSAPZ-DMTCNVIQSA-N

$$$$
2-aminomethyl-oxane-4-CO2H
     RDKit          2D

 11 11  0  0  0  0  0  0  0  0999 V2000
    2.9943   -2.0538    0.0000 N   0  0  0  0  0  0  0  0  0  0  0  0
    2.9641   -0.5541    0.0000 C   0  0  0  0  0  0  0  0  0  0  0  0
    1.6502    0.1696    0.0000 C   0  0  0  0  0  0  0  0  0  0  0  0
    0.3666   -0.6064    0.0000 C   0  0  0  0  0  0  0  0  0  0  0  0
   -0.9473    0.1173    0.0000 C   0  0  0  0  0  0  0  0  0  0  0  0
   -0.9775    1.6170    0.0000 C   0  0  0  0  0  0  0  0  0  0  0  0
    0.3062    2.3930    0.0000 C   0  0  0  0  0  0  0  0  0  0  0  0
    1.6200    1.6693    0.0000 O   0  0  0  0  0  0  0  0  0  0  0  0
   -2.2310   -0.6587    0.0000 C   0  0  0  0  0  0  0  0  0  0  0  0
   -2.2008   -2.1584    0.0000 O   0  0  0  0  0  0  0  0  0  0  0  0
   -3.5449    0.0650    0.0000 O   0  0  0  0  0  0  0  0  0  0  0  0
  1  2  1  0
  2  3  1  0
  3  4  1  0
  4  5  1  0
  5  6  1  0
  6  7  1  0
  7  8  1  0
  5  9  1  0
  9 10  2  0
  9 11  1  0
  8  3  1  0
M  END
>  <rName>  (114) 
2-aminomethyl-oxane-4-CO2H

>  <PQ_SYMBOL>  (114) 
2-aminomethyl-oxane-4-CO2H

>  <FULL_NAME>  (114) 
2-(Aminomethyl)oxane-4-carboxylic acid

>  <IUPAC_CONDENSED>  (114) 
2-aminomethyl-oxane-4-CO2H

>  <IUPAC>  (114) 
2-(aminomethyl)oxane-4-carboxylic acid

>  <TYPE>  (114) 
Backbone

>  <CLASS>  (114) 
delta

>  <ANALOG>  (114) 
Ser

>  <MOL_WT>  (114) 
159.185

>  <LOGP>  (114) 
-0.17510000000000053

>  <TPSA>  (114) 
72.55

>  <POPULARITY>  (114) 
3.9

>  <PROTECTED>  (114) 
TRUE

>  <SMILES>  (114) 
NCC1CC(CCO1)C(=O)O

>  <INCHIKEY>  (114) 
YKSQKMDTKYJBHI-UHFFFAOYSA-N

$$$$
2-aminomethyl-oxolane-2-CO2H
     RDKit          2D

 10 10  0  0  0  0  0  0  0  0999 V2000
   -2.2802   -1.0134    0.0000 N   0  0  0  0  0  0  0  0  0  0  0  0
   -0.8154   -1.3362    0.0000 C   0  0  0  0  0  0  0  0  0  0  0  0
    0.1967   -0.2291    0.0000 C   0  0  0  0  0  0  0  0  0  0  0  0
    1.1920   -1.3513    0.0000 O   0  0  0  0  0  0  0  0  0  0  0  0
    2.5668   -0.7515    0.0000 C   0  0  0  0  0  0  0  0  0  0  0  0
    2.4212    0.7414    0.0000 C   0  0  0  0  0  0  0  0  0  0  0  0
    0.9564    1.0643    0.0000 C   0  0  0  0  0  0  0  0  0  0  0  0
   -1.0102    0.6617    0.0000 C   0  0  0  0  0  0  0  0  0  0  0  0
   -2.3851    0.0618    0.0000 O   0  0  0  0  0  0  0  0  0  0  0  0
   -0.8422    2.1522    0.0000 O   0  0  0  0  0  0  0  0  0  0  0  0
  1  2  1  0
  2  3  1  0
  3  4  1  0
  4  5  1  0
  5  6  1  0
  6  7  1  0
  3  8  1  0
  8  9  2  0
  8 10  1  0
  7  3  1  0
M  END
>  <rName>  (115) 
2-aminomethyl-oxolane-2-CO2H

>  <PQ_SYMBOL>  (115) 
2-aminomethyl-oxolane-2-CO2H

>  <FULL_NAME>  (115) 
2-(Aminomethyl)oxolane-2-carboxylic acid

>  <IUPAC_CONDENSED>  (115) 
2-aminomethyl-oxolane-2-CO2H

>  <IUPAC>  (115) 
2-(aminomethyl)oxolane-2-carboxylic acid

>  <TYPE>  (115) 
Backbone

>  <CLASS>  (115) 
beta

>  <ANALOG>  (115) 
Ser

>  <MOL_WT>  (115) 
145.15800000000002

>  <LOGP>  (115) 
-0.42110000000000053

>  <TPSA>  (115) 
72.55

>  <POPULARITY>  (115) 
5.3

>  <PROTECTED>  (115) 
TRUE

>  <SMILES>  (115) 
NCC1(OCCC1)C(=O)O

>  <INCHIKEY>  (115) 
BWZNGTHUKXHSAU-UHFFFAOYSA-N

$$$$
2-aminomethyl-oxolane-3-CO2H
     RDKit          2D

 10 10  0  0  0  0  0  0  0  0999 V2000
   -2.9143   -1.6284    0.0000 N   0  0  0  0  0  0  0  0  0  0  0  0
   -1.4299   -1.4129    0.0000 C   0  0  0  0  0  0  0  0  0  0  0  0
   -0.8743   -0.0196    0.0000 C   0  0  0  0  0  0  0  0  0  0  0  0
    0.5795    0.3498    0.0000 C   0  0  0  0  0  0  0  0  0  0  0  0
    0.6774    1.8466    0.0000 C   0  0  0  0  0  0  0  0  0  0  0  0
   -0.7159    2.4022    0.0000 C   0  0  0  0  0  0  0  0  0  0  0  0
   -1.6749    1.2488    0.0000 O   0  0  0  0  0  0  0  0  0  0  0  0
    1.7329   -0.6092    0.0000 C   0  0  0  0  0  0  0  0  0  0  0  0
    3.1402   -0.0898    0.0000 O   0  0  0  0  0  0  0  0  0  0  0  0
    1.4791   -2.0876    0.0000 O   0  0  0  0  0  0  0  0  0  0  0  0
  1  2  1  0
  2  3  1  0
  3  4  1  0
  4  5  1  0
  5  6  1  0
  6  7  1  0
  4  8  1  0
  8  9  2  0
  8 10  1  0
  7  3  1  0
M  END
>  <rName>  (116) 
2-aminomethyl-oxolane-3-CO2H

>  <PQ_SYMBOL>  (116) 
2-aminomethyl-oxolane-3-CO2H

>  <FULL_NAME>  (116) 
2-(Aminomethyl)oxolane-3-carboxylic acid

>  <IUPAC_CONDENSED>  (116) 
2-aminomethyl-oxolane-3-CO2H

>  <IUPAC>  (116) 
2-(aminomethyl)oxolane-3-carboxylic acid

>  <TYPE>  (116) 
Backbone

>  <CLASS>  (116) 
gamma

>  <ANALOG>  (116) 
Ser

>  <MOL_WT>  (116) 
145.15800000000002

>  <LOGP>  (116) 
-0.5652000000000004

>  <TPSA>  (116) 
72.55

>  <POPULARITY>  (116) 
7.7

>  <PROTECTED>  (116) 
TRUE

>  <SMILES>  (116) 
NCC1C(CCO1)C(=O)O

>  <INCHIKEY>  (116) 
HKNORPNDZRTTBF-UHFFFAOYSA-N

$$$$
2-aminomethyl-oxolane-3-CO2H_2R_3R
     RDKit          2D

 10 10  0  0  0  0  0  0  0  0999 V2000
   -2.9143   -1.6284    0.0000 N   0  0  0  0  0  0  0  0  0  0  0  0
   -1.4299   -1.4129    0.0000 C   0  0  0  0  0  0  0  0  0  0  0  0
   -0.8743   -0.0196    0.0000 C   0  0  0  0  0  0  0  0  0  0  0  0
    0.5795    0.3498    0.0000 C   0  0  0  0  0  0  0  0  0  0  0  0
    0.6774    1.8466    0.0000 C   0  0  0  0  0  0  0  0  0  0  0  0
   -0.7159    2.4022    0.0000 C   0  0  0  0  0  0  0  0  0  0  0  0
   -1.6749    1.2488    0.0000 O   0  0  0  0  0  0  0  0  0  0  0  0
    1.7329   -0.6092    0.0000 C   0  0  0  0  0  0  0  0  0  0  0  0
    3.1402   -0.0898    0.0000 O   0  0  0  0  0  0  0  0  0  0  0  0
    1.4791   -2.0876    0.0000 O   0  0  0  0  0  0  0  0  0  0  0  0
  1  2  1  0
  3  2  1  6
  3  4  1  0
  4  5  1  0
  5  6  1  0
  6  7  1  0
  4  8  1  1
  8  9  2  0
  8 10  1  0
  7  3  1  0
M  END
>  <rName>  (117) 
2-aminomethyl-oxolane-3-CO2H_2R_3R

>  <PQ_SYMBOL>  (117) 
2-aminomethyl-oxolane-3-CO2H_2R_3R

>  <FULL_NAME>  (117) 
(2R,3R)-2-(aminomethyl)oxolane-3-carboxylic acid

>  <IUPAC_CONDENSED>  (117) 
2-aminomethyl-oxolane-3-CO2H(2R,3R)

>  <IUPAC>  (117) 
(2R,3R)-2-(aminomethyl)oxolane-3-carboxylic acid

>  <TYPE>  (117) 
Backbone

>  <CLASS>  (117) 
gamma

>  <ANALOG>  (117) 
Ser

>  <MOL_WT>  (117) 
145.15800000000002

>  <LOGP>  (117) 
-0.5652000000000004

>  <TPSA>  (117) 
72.55

>  <POPULARITY>  (117) 
6.0

>  <PROTECTED>  (117) 
TRUE

>  <SMILES>  (117) 
NC[C@H]1[C@@H](CCO1)C(=O)O

>  <INCHIKEY>  (117) 
HKNORPNDZRTTBF-UHNVWZDZSA-N

$$$$
2-aminomethyl-oxolane-3-CO2H_2R_3S
     RDKit          2D

 10 10  0  0  0  0  0  0  0  0999 V2000
   -2.9143   -1.6284    0.0000 N   0  0  0  0  0  0  0  0  0  0  0  0
   -1.4299   -1.4129    0.0000 C   0  0  0  0  0  0  0  0  0  0  0  0
   -0.8743   -0.0196    0.0000 C   0  0  0  0  0  0  0  0  0  0  0  0
    0.5795    0.3498    0.0000 C   0  0  0  0  0  0  0  0  0  0  0  0
    0.6774    1.8466    0.0000 C   0  0  0  0  0  0  0  0  0  0  0  0
   -0.7159    2.4022    0.0000 C   0  0  0  0  0  0  0  0  0  0  0  0
   -1.6749    1.2488    0.0000 O   0  0  0  0  0  0  0  0  0  0  0  0
    1.7329   -0.6092    0.0000 C   0  0  0  0  0  0  0  0  0  0  0  0
    3.1402   -0.0898    0.0000 O   0  0  0  0  0  0  0  0  0  0  0  0
    1.4791   -2.0876    0.0000 O   0  0  0  0  0  0  0  0  0  0  0  0
  1  2  1  0
  3  2  1  6
  3  4  1  0
  4  5  1  0
  5  6  1  0
  6  7  1  0
  4  8  1  6
  8  9  2  0
  8 10  1  0
  7  3  1  0
M  END
>  <rName>  (118) 
2-aminomethyl-oxolane-3-CO2H_2R_3S

>  <PQ_SYMBOL>  (118) 
2-aminomethyl-oxolane-3-CO2H_2R_3S

>  <FULL_NAME>  (118) 
Rac-(2r,3s)-2-(aminomethyl)oxolane-3-carboxylic acid

>  <IUPAC_CONDENSED>  (118) 
2-aminomethyl-oxolane-3-CO2H(2R,3S)

>  <IUPAC>  (118) 
(2R,3S)-2-(aminomethyl)oxolane-3-carboxylic acid

>  <TYPE>  (118) 
Backbone

>  <CLASS>  (118) 
gamma

>  <ANALOG>  (118) 
Ser

>  <MOL_WT>  (118) 
145.15800000000002

>  <LOGP>  (118) 
-0.5652000000000004

>  <TPSA>  (118) 
72.55

>  <POPULARITY>  (118) 
6.2

>  <PROTECTED>  (118) 
TRUE

>  <SMILES>  (118) 
NC[C@H]1[C@H](CCO1)C(=O)O

>  <INCHIKEY>  (118) 
HKNORPNDZRTTBF-WHFBIAKZSA-N

$$$$
2-azaBCH221-3-CO2H
     RDKit          2D

 10 11  0  0  0  0  0  0  0  0999 V2000
   -0.3447   -1.2021    0.0000 N   0  0  0  0  0  0  0  0  0  0  0  0
    0.3749    0.0221    0.0000 C   0  0  0  0  0  0  0  0  0  0  0  0
   -0.3255    1.2573    0.0000 C   0  0  0  0  0  0  0  0  0  0  0  0
   -1.7455    1.2684    0.0000 C   0  0  0  0  0  0  0  0  0  0  0  0
   -2.4650    0.0442    0.0000 C   0  0  0  0  0  0  0  0  0  0  0  0
   -1.7646   -1.1911    0.0000 C   0  0  0  0  0  0  0  0  0  0  0  0
   -0.6140   -0.2202    0.0000 C   0  0  0  0  0  0  0  0  0  0  0  0
    1.7948    0.0110    0.0000 C   0  0  0  0  0  0  0  0  0  0  0  0
    2.5549    1.3042    0.0000 O   0  0  0  0  0  0  0  0  0  0  0  0
    2.5347   -1.2938    0.0000 O   0  0  0  0  0  0  0  0  0  0  0  0
  1  2  1  0
  2  3  1  0
  3  4  1  0
  4  5  1  0
  5  6  1  0
  6  7  1  0
  2  8  1  1
  8  9  2  0
  8 10  1  0
  6  1  1  0
  7  3  1  0
M  END
>  <rName>  (119) 
2-azaBCH221-3-CO2H

>  <PQ_SYMBOL>  (119) 
2-azaBCH221-3-CO2H

>  <FULL_NAME>  (119) 
2-Azabicyclo[2.2.1]heptane-3alpha-carboxylic acid

>  <IUPAC_CONDENSED>  (119) 
2-azaBCH[2.2.1]-3-CO2H

>  <IUPAC>  (119) 
(3S)-2-azabicyclo[2.2.1]heptane-3-carboxylic acid

>  <TYPE>  (119) 
Backbone

>  <CLASS>  (119) 
alpha

>  <ANALOG>  (119) 
Pro

>  <MOL_WT>  (119) 
141.17000000000002

>  <LOGP>  (119) 
0.21149999999999974

>  <TPSA>  (119) 
49.33

>  <POPULARITY>  (119) 
5.1

>  <PROTECTED>  (119) 
FALSE

>  <SMILES>  (119) 
N1[C@@H](C2(CCC1C2))C(=O)O

>  <INCHIKEY>  (119) 
BMVVXSIHLQYXJJ-WRVKLSGPSA-N

$$$$
2-azaBCH2211R3R4S-3-CO2H
     RDKit          2D

 10 11  0  0  0  0  0  0  0  0999 V2000
   -0.3447   -1.2021    0.0000 N   0  0  0  0  0  0  0  0  0  0  0  0
    0.3749    0.0221    0.0000 C   0  0  0  0  0  0  0  0  0  0  0  0
   -0.3255    1.2573    0.0000 C   0  0  0  0  0  0  0  0  0  0  0  0
   -1.7455    1.2684    0.0000 C   0  0  0  0  0  0  0  0  0  0  0  0
   -2.4650    0.0442    0.0000 C   0  0  0  0  0  0  0  0  0  0  0  0
   -1.7646   -1.1911    0.0000 C   0  0  0  0  0  0  0  0  0  0  0  0
   -0.6140   -0.2202    0.0000 C   0  0  0  0  0  0  0  0  0  0  0  0
    1.7948    0.0110    0.0000 C   0  0  0  0  0  0  0  0  0  0  0  0
    2.5549    1.3042    0.0000 O   0  0  0  0  0  0  0  0  0  0  0  0
    2.5347   -1.2938    0.0000 O   0  0  0  0  0  0  0  0  0  0  0  0
  1  2  1  0
  2  3  1  0
  3  4  1  6
  4  5  1  0
  6  5  1  6
  6  7  1  0
  2  8  1  6
  8  9  2  0
  8 10  1  0
  6  1  1  0
  7  3  1  0
M  END
>  <rName>  (120) 
2-azaBCH2211R3R4S-3-CO2H

>  <PQ_SYMBOL>  (120) 
2-azaBCH2211R3R4S-3-CO2H

>  <FULL_NAME>  (120) 
(1R,3R,4S)-2-Azabicyclo[2.2.1]heptane-3-carboxylic acid

>  <IUPAC_CONDENSED>  (120) 
2-azaBCH[2.2.1](1R,3R,4S)-3-CO2H

>  <IUPAC>  (120) 
(1R,3R,4S)-2-azabicyclo[2.2.1]heptane-3-carboxylic acid

>  <TYPE>  (120) 
Backbone

>  <CLASS>  (120) 
alpha

>  <ANALOG>  (120) 
Pro

>  <MOL_WT>  (120) 
141.17000000000002

>  <LOGP>  (120) 
0.21149999999999974

>  <TPSA>  (120) 
49.33

>  <POPULARITY>  (120) 
4.5

>  <PROTECTED>  (120) 
TRUE

>  <SMILES>  (120) 
N1[C@H]([C@H]2(CC[C@@H]1C2))C(=O)O

>  <INCHIKEY>  (120) 
BMVVXSIHLQYXJJ-KVQBGUIXSA-N

$$$$
2-azaBCH222-1-CO2H
     RDKit          2D

 11 12  0  0  0  0  0  0  0  0999 V2000
   -0.8083   -0.0019    0.0000 N   0  0  0  0  0  0  0  0  0  0  0  0
   -1.5092   -0.9959    0.0000 C   0  0  0  0  0  0  0  0  0  0  0  0
   -1.5925    0.5970    0.0000 C   0  0  0  0  0  0  0  0  0  0  0  0
   -0.2437    1.4761    0.0000 C   0  0  0  0  0  0  0  0  0  0  0  0
    1.1800    0.7568    0.0000 C   0  0  0  0  0  0  0  0  0  0  0  0
    1.2688   -0.8445    0.0000 C   0  0  0  0  0  0  0  0  0  0  0  0
   -0.0800   -1.7236    0.0000 C   0  0  0  0  0  0  0  0  0  0  0  0
    0.5136   -0.3818    0.0000 C   0  0  0  0  0  0  0  0  0  0  0  0
   -0.1715   -0.1270    0.0000 C   0  0  0  0  0  0  0  0  0  0  0  0
    0.1146    1.3454    0.0000 O   0  0  0  0  0  0  0  0  0  0  0  0
    1.3282   -0.1006    0.0000 O   0  0  0  0  0  0  0  0  0  0  0  0
  1  2  1  0
  2  3  1  0
  3  4  1  0
  4  5  1  0
  5  6  1  0
  6  7  1  0
  5  8  1  0
  2  9  1  0
  9 10  2  0
  9 11  1  0
  7  2  1  0
  8  1  1  0
M  END
>  <rName>  (121) 
2-azaBCH222-1-CO2H

>  <PQ_SYMBOL>  (121) 
2-azaBCH222-1-CO2H

>  <FULL_NAME>  (121) 
2-Azabicyclo[2.2.2]octane-1-carboxylic acid

>  <IUPAC_CONDENSED>  (121) 
2-azaBCH[2.2.2]-1-CO2H

>  <IUPAC>  (121) 
2-azabicyclo[2.2.2]octane-1-carboxylic acid

>  <TYPE>  (121) 
Backbone

>  <CLASS>  (121) 
alpha

>  <ANALOG>  (121) 
Pro

>  <MOL_WT>  (121) 
155.197

>  <LOGP>  (121) 
0.6032

>  <TPSA>  (121) 
49.33

>  <POPULARITY>  (121) 
5.0

>  <PROTECTED>  (121) 
TRUE

>  <SMILES>  (121) 
N2C1(CCC(CC1)C2)C(=O)O

>  <INCHIKEY>  (121) 
IAFJBSCCDZTHPI-UHFFFAOYSA-N

$$$$
2-azaBCH2223S-3-CO2H
     RDKit          2D

 11 12  0  0  0  0  0  0  0  0999 V2000
    0.2147   -1.3915    0.0000 N   0  0  0  0  0  0  0  0  0  0  0  0
   -0.5795    0.0090    0.0000 C   0  0  0  0  0  0  0  0  0  0  0  0
    0.2349    1.3906    0.0000 C   0  0  0  0  0  0  0  0  0  0  0  0
    1.1838    0.6296    0.0000 C   0  0  0  0  0  0  0  0  0  0  0  0
    0.7231   -0.6663    0.0000 C   0  0  0  0  0  0  0  0  0  0  0  0
    1.8185   -1.4016    0.0000 C   0  0  0  0  0  0  0  0  0  0  0  0
    2.6242   -0.0250    0.0000 C   0  0  0  0  0  0  0  0  0  0  0  0
    1.8300    1.3755    0.0000 C   0  0  0  0  0  0  0  0  0  0  0  0
   -2.1832    0.0224    0.0000 C   0  0  0  0  0  0  0  0  0  0  0  0
   -2.9441   -1.2703    0.0000 O   0  0  0  0  0  0  0  0  0  0  0  0
   -2.9223    1.3277    0.0000 O   0  0  0  0  0  0  0  0  0  0  0  0
  1  2  1  0
  2  3  1  0
  3  4  1  6
  4  5  1  0
  6  5  1  6
  6  7  1  0
  7  8  1  0
  2  9  1  6
  9 10  2  0
  9 11  1  0
  6  1  1  0
  8  3  1  0
M  END
>  <rName>  (122) 
2-azaBCH2223S-3-CO2H

>  <PQ_SYMBOL>  (122) 
2-azaBCH2223S-3-CO2H

>  <FULL_NAME>  (122) 
(3S)-2-azabicyclo[2.2.2]octane-3-carboxylic acid

>  <IUPAC_CONDENSED>  (122) 
2-azaBCH[2.2.2](3S)-3-CO2H

>  <IUPAC>  (122) 
(3S)-2-azabicyclo[2.2.2]octane-3-carboxylic acid

>  <TYPE>  (122) 
Backbone

>  <CLASS>  (122) 
alpha

>  <ANALOG>  (122) 
Pro

>  <MOL_WT>  (122) 
155.197

>  <LOGP>  (122) 
0.6015999999999997

>  <TPSA>  (122) 
49.33

>  <POPULARITY>  (122) 
6.3

>  <PROTECTED>  (122) 
TRUE

>  <SMILES>  (122) 
N1[C@@H]([C@@H]2(CC[C@H]1CC2))C(=O)O

>  <INCHIKEY>  (122) 
YDIUZWIFYIATRZ-XVMARJQXSA-N

$$$$
2-azaBCH310-1-CH2CO2H
     RDKit          2D

 10 11  0  0  0  0  0  0  0  0999 V2000
   -0.2427   -0.9075    0.0000 N   0  0  0  0  0  0  0  0  0  0  0  0
   -0.5126    0.5680    0.0000 C   0  0  0  0  0  0  0  0  0  0  0  0
   -1.0834    1.9552    0.0000 C   0  0  0  0  0  0  0  0  0  0  0  0
   -1.9993    0.7673    0.0000 C   0  0  0  0  0  0  0  0  0  0  0  0
   -2.6483   -0.5850    0.0000 C   0  0  0  0  0  0  0  0  0  0  0  0
   -1.5627   -1.6201    0.0000 C   0  0  0  0  0  0  0  0  0  0  0  0
    0.9266    0.9906    0.0000 C   0  0  0  0  0  0  0  0  0  0  0  0
    2.0122   -0.0445    0.0000 C   0  0  0  0  0  0  0  0  0  0  0  0
    1.6586   -1.5022    0.0000 O   0  0  0  0  0  0  0  0  0  0  0  0
    3.4515    0.3782    0.0000 O   0  0  0  0  0  0  0  0  0  0  0  0
  1  2  1  0
  2  3  1  0
  3  4  1  0
  4  5  1  0
  5  6  1  0
  2  7  1  0
  7  8  1  0
  8  9  2  0
  8 10  1  0
  4  2  1  0
  6  1  1  0
M  END
>  <rName>  (123) 
2-azaBCH310-1-CH2CO2H

>  <PQ_SYMBOL>  (123) 
2-azaBCH310-1-CH2CO2H

>  <FULL_NAME>  (123) 
2-(2-Azabicyclo[3.1.0]hexan-1-yl)acetic acid

>  <IUPAC_CONDENSED>  (123) 
2-azaBCH[3.1.0]-1-CH2CO2H

>  <IUPAC>  (123) 
2-(2-azabicyclo[3.1.0]hexan-1-yl)acetic acid

>  <TYPE>  (123) 
Backbone

>  <CLASS>  (123) 
beta

>  <ANALOG>  (123) 
Pro

>  <MOL_WT>  (123) 
141.17000000000002

>  <LOGP>  (123) 
0.2131

>  <TPSA>  (123) 
49.33

>  <POPULARITY>  (123) 
2.9

>  <PROTECTED>  (123) 
TRUE

>  <SMILES>  (123) 
N2C1(CC1CC2)CC(=O)O

>  <INCHIKEY>  (123) 
RYOSVSWABIALIG-UHFFFAOYSA-N

$$$$
2-azaBCH3101R3R5R-3-CO2H
     RDKit          2D

  9 10  0  0  0  0  0  0  0  0999 V2000
    0.4387   -1.2135    0.0000 N   0  0  0  0  0  0  0  0  0  0  0  0
   -0.4430   -0.0000    0.0000 C   0  0  0  0  0  0  0  0  0  0  0  0
    0.4387    1.2135    0.0000 C   0  0  0  0  0  0  0  0  0  0  0  0
    1.8652    0.7500    0.0000 C   0  0  0  0  0  0  0  0  0  0  0  0
    3.1643   -0.0000    0.0000 C   0  0  0  0  0  0  0  0  0  0  0  0
    1.8652   -0.7500    0.0000 C   0  0  0  0  0  0  0  0  0  0  0  0
   -1.9430    0.0000    0.0000 C   0  0  0  0  0  0  0  0  0  0  0  0
   -2.6930   -1.2990    0.0000 O   0  0  0  0  0  0  0  0  0  0  0  0
   -2.6930    1.2990    0.0000 O   0  0  0  0  0  0  0  0  0  0  0  0
  1  2  1  0
  2  3  1  0
  4  3  1  1
  4  5  1  0
  6  5  1  1
  2  7  1  1
  7  8  2  0
  7  9  1  0
  6  1  1  0
  6  4  1  0
M  END
>  <rName>  (124) 
2-azaBCH3101R3R5R-3-CO2H

>  <PQ_SYMBOL>  (124) 
2-azaBCH3101R3R5R-3-CO2H

>  <FULL_NAME>  (124) 
(1R,3R,5R)-2-azabicyclo[3.1.0]hexane-3-carboxylic acid

>  <IUPAC_CONDENSED>  (124) 
2-azaBCH[3.1.0](1R,3R,5R)-3-CO2H

>  <IUPAC>  (124) 
(1R,3R,5R)-2-azabicyclo[3.1.0]hexane-3-carboxylic acid

>  <TYPE>  (124) 
Backbone

>  <CLASS>  (124) 
alpha

>  <ANALOG>  (124) 
Pro

>  <MOL_WT>  (124) 
127.14299999999999

>  <LOGP>  (124) 
-0.17860000000000015

>  <TPSA>  (124) 
49.33

>  <POPULARITY>  (124) 
6.1

>  <PROTECTED>  (124) 
TRUE

>  <SMILES>  (124) 
N1[C@H](C[C@H]2(C[C@@H]12))C(=O)O

>  <INCHIKEY>  (124) 
XBEMWFUKTKDJKP-UOWFLXDJSA-N

$$$$
2-azaBCH3101R3S5R-3-CO2H
     RDKit          2D

  9 10  0  0  0  0  0  0  0  0999 V2000
    0.4387   -1.2135    0.0000 N   0  0  0  0  0  0  0  0  0  0  0  0
   -0.4430   -0.0000    0.0000 C   0  0  0  0  0  0  0  0  0  0  0  0
    0.4387    1.2135    0.0000 C   0  0  0  0  0  0  0  0  0  0  0  0
    1.8652    0.7500    0.0000 C   0  0  0  0  0  0  0  0  0  0  0  0
    3.1643   -0.0000    0.0000 C   0  0  0  0  0  0  0  0  0  0  0  0
    1.8652   -0.7500    0.0000 C   0  0  0  0  0  0  0  0  0  0  0  0
   -1.9430    0.0000    0.0000 C   0  0  0  0  0  0  0  0  0  0  0  0
   -2.6930   -1.2990    0.0000 O   0  0  0  0  0  0  0  0  0  0  0  0
   -2.6930    1.2990    0.0000 O   0  0  0  0  0  0  0  0  0  0  0  0
  1  2  1  0
  2  3  1  0
  4  3  1  1
  4  5  1  0
  6  5  1  1
  2  7  1  6
  7  8  2  0
  7  9  1  0
  6  1  1  0
  6  4  1  0
M  END
>  <rName>  (125) 
2-azaBCH3101R3S5R-3-CO2H

>  <PQ_SYMBOL>  (125) 
2-azaBCH3101R3S5R-3-CO2H

>  <FULL_NAME>  (125) 
(1R,3S,5R)-2-azabicyclo[3.1.0]hexane-3-carboxylic acid

>  <IUPAC_CONDENSED>  (125) 
2-azaBCH[3.1.0](1R,3S,5R)-3-CO2H

>  <IUPAC>  (125) 
(1R,3S,5R)-2-azabicyclo[3.1.0]hexane-3-carboxylic acid

>  <TYPE>  (125) 
Backbone

>  <CLASS>  (125) 
alpha

>  <ANALOG>  (125) 
Pro

>  <MOL_WT>  (125) 
127.14299999999999

>  <LOGP>  (125) 
-0.17860000000000015

>  <TPSA>  (125) 
49.33

>  <POPULARITY>  (125) 
14.3

>  <PROTECTED>  (125) 
TRUE

>  <SMILES>  (125) 
N1[C@@H](C[C@H]2(C[C@@H]12))C(=O)O

>  <INCHIKEY>  (125) 
XBEMWFUKTKDJKP-WDCZJNDASA-N

$$$$
2-azaBCH3101R5S-1-CO2H
     RDKit          2D

  9 10  0  0  0  0  0  0  0  0999 V2000
   -0.5328   -1.2046    0.0000 N   0  0  0  0  0  0  0  0  0  0  0  0
    0.0163    0.1913    0.0000 C   0  0  0  0  0  0  0  0  0  0  0  0
    0.2631    1.6708    0.0000 C   0  0  0  0  0  0  0  0  0  0  0  0
   -1.1416    1.1448    0.0000 C   0  0  0  0  0  0  0  0  0  0  0  0
   -2.4063    0.3383    0.0000 C   0  0  0  0  0  0  0  0  0  0  0  0
   -2.0301   -1.1138    0.0000 C   0  0  0  0  0  0  0  0  0  0  0  0
    1.4619   -0.2089    0.0000 C   0  0  0  0  0  0  0  0  0  0  0  0
    2.5313    0.8430    0.0000 O   0  0  0  0  0  0  0  0  0  0  0  0
    1.8382   -1.6609    0.0000 O   0  0  0  0  0  0  0  0  0  0  0  0
  1  2  1  0
  2  3  1  0
  4  3  1  1
  4  5  1  0
  5  6  1  0
  2  7  1  6
  7  8  2  0
  7  9  1  0
  4  2  1  0
  6  1  1  0
M  END
>  <rName>  (126) 
2-azaBCH3101R5S-1-CO2H

>  <PQ_SYMBOL>  (126) 
2-azaBCH3101R5S-1-CO2H

>  <FULL_NAME>  (126) 
(1R,5S)-2-Azabicyclo[3.1.0]hexane-1-carboxylic acid

>  <IUPAC_CONDENSED>  (126) 
2-azaBCH[3.1.0](1R,5S)-1-CO2H

>  <IUPAC>  (126) 
(1R,5S)-2-azabicyclo[3.1.0]hexane-1-carboxylic acid

>  <TYPE>  (126) 
Backbone

>  <CLASS>  (126) 
alpha

>  <ANALOG>  (126) 
Pro

>  <MOL_WT>  (126) 
127.14299999999999

>  <LOGP>  (126) 
-0.17700000000000032

>  <TPSA>  (126) 
49.33

>  <POPULARITY>  (126) 
3.2

>  <PROTECTED>  (126) 
TRUE

>  <SMILES>  (126) 
N2[C@@]1(C[C@@H]1CC2)C(=O)O

>  <INCHIKEY>  (126) 
CLPZNYCYBYIODB-UJURSFKZSA-N

$$$$
2-azaBCH3101S3S5S-3-CO2H
     RDKit          2D

  9 10  0  0  0  0  0  0  0  0999 V2000
    0.4387   -1.2135    0.0000 N   0  0  0  0  0  0  0  0  0  0  0  0
   -0.4430   -0.0000    0.0000 C   0  0  0  0  0  0  0  0  0  0  0  0
    0.4387    1.2135    0.0000 C   0  0  0  0  0  0  0  0  0  0  0  0
    1.8652    0.7500    0.0000 C   0  0  0  0  0  0  0  0  0  0  0  0
    3.1643   -0.0000    0.0000 C   0  0  0  0  0  0  0  0  0  0  0  0
    1.8652   -0.7500    0.0000 C   0  0  0  0  0  0  0  0  0  0  0  0
   -1.9430    0.0000    0.0000 C   0  0  0  0  0  0  0  0  0  0  0  0
   -2.6930   -1.2990    0.0000 O   0  0  0  0  0  0  0  0  0  0  0  0
   -2.6930    1.2990    0.0000 O   0  0  0  0  0  0  0  0  0  0  0  0
  1  2  1  0
  2  3  1  0
  4  3  1  6
  4  5  1  0
  6  5  1  6
  2  7  1  6
  7  8  2  0
  7  9  1  0
  6  1  1  0
  6  4  1  0
M  END
>  <rName>  (127) 
2-azaBCH3101S3S5S-3-CO2H

>  <PQ_SYMBOL>  (127) 
2-azaBCH3101S3S5S-3-CO2H

>  <FULL_NAME>  (127) 
(1S,3S,5S)-2-Azabicyclo(3.1.0)hexane-3-carboxylic acid

>  <IUPAC_CONDENSED>  (127) 
2-azaBCH[3.1.0](1S,3S,5S)-3-CO2H

>  <IUPAC>  (127) 
(1S,3S,5S)-2-azabicyclo[3.1.0]hexane-3-carboxylic acid

>  <TYPE>  (127) 
Backbone

>  <CLASS>  (127) 
alpha

>  <ANALOG>  (127) 
Pro

>  <MOL_WT>  (127) 
127.14299999999999

>  <LOGP>  (127) 
-0.17860000000000015

>  <TPSA>  (127) 
49.33

>  <POPULARITY>  (127) 
7.1

>  <PROTECTED>  (127) 
TRUE

>  <SMILES>  (127) 
N1[C@@H](C[C@@H]2(C[C@H]12))C(=O)O

>  <INCHIKEY>  (127) 
XBEMWFUKTKDJKP-YUPRTTJUSA-N

$$$$
2-azaBCH3101S5R-1-CO2H
     RDKit          2D

  9 10  0  0  0  0  0  0  0  0999 V2000
   -0.5328   -1.2046    0.0000 N   0  0  0  0  0  0  0  0  0  0  0  0
    0.0163    0.1913    0.0000 C   0  0  0  0  0  0  0  0  0  0  0  0
    0.2631    1.6708    0.0000 C   0  0  0  0  0  0  0  0  0  0  0  0
   -1.1416    1.1448    0.0000 C   0  0  0  0  0  0  0  0  0  0  0  0
   -2.4063    0.3383    0.0000 C   0  0  0  0  0  0  0  0  0  0  0  0
   -2.0301   -1.1138    0.0000 C   0  0  0  0  0  0  0  0  0  0  0  0
    1.4619   -0.2089    0.0000 C   0  0  0  0  0  0  0  0  0  0  0  0
    2.5313    0.8430    0.0000 O   0  0  0  0  0  0  0  0  0  0  0  0
    1.8382   -1.6609    0.0000 O   0  0  0  0  0  0  0  0  0  0  0  0
  1  2  1  0
  2  3  1  0
  4  3  1  6
  4  5  1  0
  5  6  1  0
  2  7  1  1
  7  8  2  0
  7  9  1  0
  4  2  1  0
  6  1  1  0
M  END
>  <rName>  (128) 
2-azaBCH3101S5R-1-CO2H

>  <PQ_SYMBOL>  (128) 
2-azaBCH3101S5R-1-CO2H

>  <FULL_NAME>  (128) 
(1S,5R)-2-Azabicyclo[3.1.0]hexane-1-carboxylic acid

>  <IUPAC_CONDENSED>  (128) 
2-azaBCH[3.1.0](1S,5R)-1-CO2H

>  <IUPAC>  (128) 
(1S,5R)-2-azabicyclo[3.1.0]hexane-1-carboxylic acid

>  <TYPE>  (128) 
Backbone

>  <CLASS>  (128) 
alpha

>  <ANALOG>  (128) 
Pro

>  <MOL_WT>  (128) 
127.14299999999999

>  <LOGP>  (128) 
-0.17700000000000032

>  <TPSA>  (128) 
49.33

>  <POPULARITY>  (128) 
5.1

>  <PROTECTED>  (128) 
TRUE

>  <SMILES>  (128) 
N2[C@]1(C[C@H]1CC2)C(=O)O

>  <INCHIKEY>  (128) 
CLPZNYCYBYIODB-XINAWCOVSA-N

$$$$
2-azaBCH311-1-CO2H
     RDKit          2D

 10 11  0  0  0  0  0  0  0  0999 V2000
   -0.3785   -0.6466    0.0000 N   0  0  0  0  0  0  0  0  0  0  0  0
   -0.3426    0.7729    0.0000 C   0  0  0  0  0  0  0  0  0  0  0  0
    0.9048    1.4516    0.0000 C   0  0  0  0  0  0  0  0  0  0  0  0
    2.1162    0.7107    0.0000 C   0  0  0  0  0  0  0  0  0  0  0  0
    2.0803   -0.7088    0.0000 C   0  0  0  0  0  0  0  0  0  0  0  0
    0.8329   -1.3875    0.0000 C   0  0  0  0  0  0  0  0  0  0  0  0
    0.8742    0.2420    0.0000 C   0  0  0  0  0  0  0  0  0  0  0  0
   -1.5899    0.0942    0.0000 C   0  0  0  0  0  0  0  0  0  0  0  0
   -1.6278   -1.4053    0.0000 O   0  0  0  0  0  0  0  0  0  0  0  0
   -2.8695    0.8769    0.0000 O   0  0  0  0  0  0  0  0  0  0  0  0
  1  2  1  0
  2  3  1  0
  3  4  1  0
  4  5  1  0
  5  6  1  0
  4  7  1  0
  2  8  1  0
  8  9  2  0
  8 10  1  0
  6  1  1  0
  7  2  1  0
M  END
>  <rName>  (129) 
2-azaBCH311-1-CO2H

>  <PQ_SYMBOL>  (129) 
2-azaBCH311-1-CO2H

>  <FULL_NAME>  (129) 
2-Azabicyclo[3.1.1]heptane-1-carboxylic acid

>  <IUPAC_CONDENSED>  (129) 
2-azaBCH[3.1.1]-1-CO2H

>  <IUPAC>  (129) 
2-azabicyclo[3.1.1]heptane-1-carboxylic acid

>  <TYPE>  (129) 
Backbone

>  <CLASS>  (129) 
alpha

>  <ANALOG>  (129) 
Pro

>  <MOL_WT>  (129) 
141.17000000000002

>  <LOGP>  (129) 
0.2131

>  <TPSA>  (129) 
49.33

>  <POPULARITY>  (129) 
4.1

>  <PROTECTED>  (129) 
TRUE

>  <SMILES>  (129) 
N1C2(CC(CC1)C2)C(=O)O

>  <INCHIKEY>  (129) 
GZNUHXSVDHMLBD-UHFFFAOYSA-N

$$$$
2-azaBCH4101S6R-1-CO2H
     RDKit          2D

 10 11  0  0  0  0  0  0  0  0999 V2000
    0.2108   -1.1949    0.0000 N   0  0  0  0  0  0  0  0  0  0  0  0
   -0.2654    0.2275    0.0000 C   0  0  0  0  0  0  0  0  0  0  0  0
   -0.7415    1.6499    0.0000 C   0  0  0  0  0  0  0  0  0  0  0  0
    0.7284    1.3511    0.0000 C   0  0  0  0  0  0  0  0  0  0  0  0
    2.1983    1.0523    0.0000 C   0  0  0  0  0  0  0  0  0  0  0  0
    2.6745   -0.3702    0.0000 C   0  0  0  0  0  0  0  0  0  0  0  0
    1.6807   -1.4937    0.0000 C   0  0  0  0  0  0  0  0  0  0  0  0
   -1.6878   -0.2486    0.0000 C   0  0  0  0  0  0  0  0  0  0  0  0
   -1.9866   -1.7186    0.0000 O   0  0  0  0  0  0  0  0  0  0  0  0
   -2.8114    0.7451    0.0000 O   0  0  0  0  0  0  0  0  0  0  0  0
  1  2  1  0
  2  3  1  0
  4  3  1  1
  4  5  1  0
  5  6  1  0
  6  7  1  0
  2  8  1  6
  8  9  2  0
  8 10  1  0
  4  2  1  0
  7  1  1  0
M  END
>  <rName>  (130) 
2-azaBCH4101S6R-1-CO2H

>  <PQ_SYMBOL>  (130) 
2-azaBCH4101S6R-1-CO2H

>  <FULL_NAME>  (130) 
(1S,6R)-2-azabicyclo[4.1.0]heptane-1-carboxylic Acid

>  <IUPAC_CONDENSED>  (130) 
2-azaBCH[4.1.0](1S,6R)-1-CO2H

>  <IUPAC>  (130) 
(1S,6R)-2-azabicyclo[4.1.0]heptane-1-carboxylic acid

>  <TYPE>  (130) 
Backbone

>  <CLASS>  (130) 
alpha

>  <ANALOG>  (130) 
Pro

>  <MOL_WT>  (130) 
141.17000000000002

>  <LOGP>  (130) 
0.2131

>  <TPSA>  (130) 
49.33

>  <POPULARITY>  (130) 
4.2

>  <PROTECTED>  (130) 
TRUE

>  <SMILES>  (130) 
N2[C@]1(C[C@H]1CCC2)C(=O)O

>  <INCHIKEY>  (130) 
CTEJCUWWERYECB-VDTYLAMSSA-N

$$$$
2-azaBCH4201S6R-1-CO2H
     RDKit          2D

 11 12  0  0  0  0  0  0  0  0999 V2000
    0.1805   -1.2518    0.0000 N   0  0  0  0  0  0  0  0  0  0  0  0
   -0.2236    0.1928    0.0000 C   0  0  0  0  0  0  0  0  0  0  0  0
   -1.2959    1.2417    0.0000 C   0  0  0  0  0  0  0  0  0  0  0  0
   -0.2470    2.3140    0.0000 C   0  0  0  0  0  0  0  0  0  0  0  0
    0.8253    1.2650    0.0000 C   0  0  0  0  0  0  0  0  0  0  0  0
    2.2784    0.8928    0.0000 C   0  0  0  0  0  0  0  0  0  0  0  0
    2.6825   -0.5518    0.0000 C   0  0  0  0  0  0  0  0  0  0  0  0
    1.6336   -1.6240    0.0000 C   0  0  0  0  0  0  0  0  0  0  0  0
   -1.5143   -0.5715    0.0000 C   0  0  0  0  0  0  0  0  0  0  0  0
   -1.4979   -2.0714    0.0000 O   0  0  0  0  0  0  0  0  0  0  0  0
   -2.8216    0.1642    0.0000 O   0  0  0  0  0  0  0  0  0  0  0  0
  1  2  1  0
  2  3  1  0
  3  4  1  0
  5  4  1  1
  5  6  1  0
  6  7  1  0
  7  8  1  0
  2  9  1  6
  9 10  2  0
  9 11  1  0
  5  2  1  0
  8  1  1  0
M  END
>  <rName>  (131) 
2-azaBCH4201S6R-1-CO2H

>  <PQ_SYMBOL>  (131) 
2-azaBCH4201S6R-1-CO2H

>  <FULL_NAME>  (131) 
(1S,6R)-2-Azabicyclo[4.2.0]octane-1-carboxylic acid

>  <IUPAC_CONDENSED>  (131) 
2-azaBCH[4.2.0](1S,6R)-1-CO2H

>  <IUPAC>  (131) 
(1S,6R)-2-azabicyclo[4.2.0]octane-1-carboxylic acid

>  <TYPE>  (131) 
Backbone

>  <CLASS>  (131) 
alpha

>  <ANALOG>  (131) 
Pro

>  <MOL_WT>  (131) 
155.197

>  <LOGP>  (131) 
0.6032

>  <TPSA>  (131) 
49.33

>  <POPULARITY>  (131) 
2.8

>  <PROTECTED>  (131) 
TRUE

>  <SMILES>  (131) 
N2[C@]1(CC[C@H]1CCC2)C(=O)O

>  <INCHIKEY>  (131) 
ZYABWMLKBNRGTI-SVRRBLITSA-N

$$$$
2-azabicyclo211hexane-1-CO2H_4Me
     RDKit          2D

 10 11  0  0  0  0  0  0  0  0999 V2000
    0.3651   -0.5512    0.0000 N   0  0  0  0  0  0  0  0  0  0  0  0
    0.5488    0.9779    0.0000 C   0  0  0  0  0  0  0  0  0  0  0  0
   -0.8486    1.6251    0.0000 C   0  0  0  0  0  0  0  0  0  0  0  0
   -1.8960    0.4961    0.0000 C   0  0  0  0  0  0  0  0  0  0  0  0
   -2.5433   -0.9014    0.0000 C   0  0  0  0  0  0  0  0  0  0  0  0
   -1.1459   -0.8490    0.0000 C   0  0  0  0  0  0  0  0  0  0  0  0
   -0.6134    0.4313    0.0000 C   0  0  0  0  0  0  0  0  0  0  0  0
    1.6779   -0.0696    0.0000 C   0  0  0  0  0  0  0  0  0  0  0  0
    1.3442   -1.5320    0.0000 O   0  0  0  0  0  0  0  0  0  0  0  0
    3.1112    0.3727    0.0000 O   0  0  0  0  0  0  0  0  0  0  0  0
  1  2  1  0
  2  3  1  0
  3  4  1  0
  4  5  1  0
  4  6  1  0
  4  7  1  0
  2  8  1  0
  8  9  2  0
  8 10  1  0
  6  1  1  0
  7  2  1  0
M  END
>  <rName>  (132) 
2-azabicyclo211hexane-1-CO2H_4Me

>  <PQ_SYMBOL>  (132) 
2-azabicyclo211hexane-1-CO2H_4Me

>  <FULL_NAME>  (132) 
4-Methyl-2-azabicyclo[2.1.1]hexane-1-carboxylic acid

>  <IUPAC_CONDENSED>  (132) 
2-azabicyclo[2.1.1]hexane-1-CO2H(4-Me)

>  <IUPAC>  (132) 
4-methyl-2-azabicyclo[2.1.1]hexane-1-carboxylic acid

>  <TYPE>  (132) 
Backbone

>  <CLASS>  (132) 
alpha

>  <ANALOG>  (132) 
Pro

>  <MOL_WT>  (132) 
141.17

>  <LOGP>  (132) 
0.2131

>  <TPSA>  (132) 
49.33

>  <POPULARITY>  (132) 
3.1

>  <PROTECTED>  (132) 
TRUE

>  <SMILES>  (132) 
N1C2(CC(C)(C1)C2)C(=O)O

>  <INCHIKEY>  (132) 
PBBIAPCMFONELJ-UHFFFAOYSA-N

$$$$
2-azabicyclo211hexane-4-CO2H_1CH2F
     RDKit          2D

 11 12  0  0  0  0  0  0  0  0999 V2000
    0.8598   -0.6611    0.0000 N   0  0  0  0  0  0  0  0  0  0  0  0
   -0.6752   -0.5375    0.0000 C   0  0  0  0  0  0  0  0  0  0  0  0
   -1.0321    0.9606    0.0000 C   0  0  0  0  0  0  0  0  0  0  0  0
    0.2824    1.7630    0.0000 C   0  0  0  0  0  0  0  0  0  0  0  0
    1.4517    0.7607    0.0000 C   0  0  0  0  0  0  0  0  0  0  0  0
    2.2541   -0.5538    0.0000 C   0  0  0  0  0  0  0  0  0  0  0  0
    3.7536   -0.5172    0.0000 F   0  0  0  0  0  0  0  0  0  0  0  0
    0.1848    0.5502    0.0000 C   0  0  0  0  0  0  0  0  0  0  0  0
   -2.0343   -0.2087    0.0000 C   0  0  0  0  0  0  0  0  0  0  0  0
   -1.5361   -1.6235    0.0000 O   0  0  0  0  0  0  0  0  0  0  0  0
   -3.5087    0.0673    0.0000 O   0  0  0  0  0  0  0  0  0  0  0  0
  1  2  1  0
  2  3  1  0
  3  4  1  0
  4  5  1  0
  5  6  1  0
  6  7  1  0
  5  8  1  0
  3  9  1  0
  9 10  2  0
  9 11  1  0
  5  1  1  0
  8  3  1  0
M  END
>  <rName>  (133) 
2-azabicyclo211hexane-4-CO2H_1CH2F

>  <PQ_SYMBOL>  (133) 
2-azabicyclo211hexane-4-CO2H_1CH2F

>  <FULL_NAME>  (133) 
1-(Fluoromethyl)-2-azabicyclo[2.1.1]hexane-4-carboxylic acid

>  <IUPAC_CONDENSED>  (133) 
2-azabicyclo[2.1.1]hexane-4-CO2H(1-CH2F)

>  <IUPAC>  (133) 
1-(fluoromethyl)-2-azabicyclo[2.1.1]hexane-4-carboxylic acid

>  <TYPE>  (133) 
Backbone

>  <CLASS>  (133) 
beta

>  <ANALOG>  (133) 
Pro

>  <MOL_WT>  (133) 
159.16

>  <LOGP>  (133) 
0.1627

>  <TPSA>  (133) 
49.33

>  <POPULARITY>  (133) 
2.6

>  <PROTECTED>  (133) 
TRUE

>  <SMILES>  (133) 
N1CC2(CC1(CF)C2)C(=O)O

>  <INCHIKEY>  (133) 
CCAPRODOYLBJDC-UHFFFAOYSA-N

$$$$
2-azabicyclo221heptan-3-yl_1R_3R_4S_Ac
     RDKit          2D

 11 12  0  0  0  0  0  0  0  0999 V2000
   -0.3491   -0.9060    0.0000 N   0  0  0  0  0  0  0  0  0  0  0  0
   -0.0966    0.4914    0.0000 C   0  0  0  0  0  0  0  0  0  0  0  0
   -1.1806    1.4087    0.0000 C   0  0  0  0  0  0  0  0  0  0  0  0
   -2.5170    0.9286    0.0000 C   0  0  0  0  0  0  0  0  0  0  0  0
   -2.7694   -0.4688    0.0000 C   0  0  0  0  0  0  0  0  0  0  0  0
   -1.6854   -1.3861    0.0000 C   0  0  0  0  0  0  0  0  0  0  0  0
   -0.9410   -0.0776    0.0000 C   0  0  0  0  0  0  0  0  0  0  0  0
    1.2397    0.9715    0.0000 C   0  0  0  0  0  0  0  0  0  0  0  0
    2.3848    0.0025    0.0000 C   0  0  0  0  0  0  0  0  0  0  0  0
    2.1181   -1.4736    0.0000 O   0  0  0  0  0  0  0  0  0  0  0  0
    3.7964    0.5096    0.0000 O   0  0  0  0  0  0  0  0  0  0  0  0
  1  2  1  0
  2  3  1  0
  3  4  1  6
  4  5  1  0
  6  5  1  6
  6  7  1  0
  2  8  1  1
  8  9  1  0
  9 10  2  0
  9 11  1  0
  6  1  1  0
  7  3  1  0
M  END
>  <rName>  (134) 
2-azabicyclo221heptan-3-yl_1R_3R_4S_Ac

>  <PQ_SYMBOL>  (134) 
2-azabicyclo221heptan-3-yl_1R_3R_4S_Ac

>  <FULL_NAME>  (134) 
2-[(1R,3R,4S)-2-azabicyclo[2.2.1]heptan-3-yl]acetic acid

>  <IUPAC_CONDENSED>  (134) 
2-azabicyclo[2.2.1]heptan-3-yl(1R,3R,4S)Ac

>  <IUPAC>  (134) 
2-((1R,3R,4S)-2-azabicyclo[2.2.1]heptan-3-yl)acetic acid

>  <TYPE>  (134) 
Backbone

>  <CLASS>  (134) 
beta

>  <ANALOG>  (134) 
Pro

>  <MOL_WT>  (134) 
155.197

>  <LOGP>  (134) 
0.6015999999999997

>  <TPSA>  (134) 
49.33

>  <POPULARITY>  (134) 
3.3

>  <PROTECTED>  (134) 
TRUE

>  <SMILES>  (134) 
N1[C@@H]([C@H]2(CC[C@@H]1C2))CC(=O)O

>  <INCHIKEY>  (134) 
MTRLOHOGMLDKTA-RRKCRQDMSA-N

$$$$
2-azabicyclo221heptan-4-ylAc
     RDKit          2D

 11 12  0  0  0  0  0  0  0  0999 V2000
    1.2601   -1.1611    0.0000 N   0  0  0  0  0  0  0  0  0  0  0  0
    1.9239    0.0942    0.0000 C   0  0  0  0  0  0  0  0  0  0  0  0
    1.1688    1.2968    0.0000 C   0  0  0  0  0  0  0  0  0  0  0  0
   -0.2503    1.2441    0.0000 C   0  0  0  0  0  0  0  0  0  0  0  0
   -0.9141   -0.0112    0.0000 C   0  0  0  0  0  0  0  0  0  0  0  0
   -0.1590   -1.2138    0.0000 C   0  0  0  0  0  0  0  0  0  0  0  0
    0.9469   -0.1923    0.0000 C   0  0  0  0  0  0  0  0  0  0  0  0
    0.5049    0.0415    0.0000 C   0  0  0  0  0  0  0  0  0  0  0  0
   -0.9941   -0.0142    0.0000 C   0  0  0  0  0  0  0  0  0  0  0  0
   -1.7918    1.2561    0.0000 O   0  0  0  0  0  0  0  0  0  0  0  0
   -1.6953   -1.3402    0.0000 O   0  0  0  0  0  0  0  0  0  0  0  0
  1  2  1  0
  2  3  1  0
  3  4  1  0
  4  5  1  0
  5  6  1  0
  6  7  1  0
  3  8  1  0
  8  9  1  0
  9 10  2  0
  9 11  1  0
  6  1  1  0
  7  3  1  0
M  END
>  <rName>  (135) 
2-azabicyclo221heptan-4-ylAc

>  <PQ_SYMBOL>  (135) 
2-azabicyclo221heptan-4-ylAc

>  <FULL_NAME>  (135) 
2-{2-Azabicyclo[2.2.1]heptan-4-yl}acetic acid

>  <IUPAC_CONDENSED>  (135) 
2-azabicyclo[2.2.1]heptan-4-ylAc

>  <IUPAC>  (135) 
2-(2-azabicyclo[2.2.1]heptan-4-yl)acetic acid

>  <TYPE>  (135) 
Backbone

>  <CLASS>  (135) 
gamma

>  <ANALOG>  (135) 
Pro

>  <MOL_WT>  (135) 
155.197

>  <LOGP>  (135) 
0.6032

>  <TPSA>  (135) 
49.33

>  <POPULARITY>  (135) 
2.7

>  <PROTECTED>  (135) 
TRUE

>  <SMILES>  (135) 
N1CC2(CCC1C2)CC(=O)O

>  <INCHIKEY>  (135) 
NTXDJIUZSCRXMG-UHFFFAOYSA-N

$$$$
2-azabicyclo221heptan-5-yl_1S_4S_5R_Ac
     RDKit          2D

 11 12  0  0  0  0  0  0  0  0999 V2000
    2.7015    0.4027    0.0000 N   0  0  0  0  0  0  0  0  0  0  0  0
    1.6311    1.3358    0.0000 C   0  0  0  0  0  0  0  0  0  0  0  0
    0.2878    0.8753    0.0000 C   0  0  0  0  0  0  0  0  0  0  0  0
    0.0150   -0.5183    0.0000 C   0  0  0  0  0  0  0  0  0  0  0  0
    1.0854   -1.4513    0.0000 C   0  0  0  0  0  0  0  0  0  0  0  0
    2.4287   -0.9908    0.0000 C   0  0  0  0  0  0  0  0  0  0  0  0
    1.6868    0.3191    0.0000 C   0  0  0  0  0  0  0  0  0  0  0  0
   -1.3283   -0.9788    0.0000 C   0  0  0  0  0  0  0  0  0  0  0  0
   -2.4590    0.0069    0.0000 C   0  0  0  0  0  0  0  0  0  0  0  0
   -2.1708    1.4789    0.0000 O   0  0  0  0  0  0  0  0  0  0  0  0
   -3.8780   -0.4796    0.0000 O   0  0  0  0  0  0  0  0  0  0  0  0
  1  2  1  0
  3  2  1  1
  3  4  1  0
  4  5  1  0
  6  5  1  1
  6  7  1  0
  4  8  1  6
  8  9  1  0
  9 10  2  0
  9 11  1  0
  6  1  1  0
  7  3  1  0
M  END
>  <rName>  (136) 
2-azabicyclo221heptan-5-yl_1S_4S_5R_Ac

>  <PQ_SYMBOL>  (136) 
2-azabicyclo221heptan-5-yl_1S_4S_5R_Ac

>  <FULL_NAME>  (136) 
O=C(O)C[C@H]1C[C@H]2C[C@@H]1CN2

>  <IUPAC_CONDENSED>  (136) 
2-azabicyclo[2.2.1]heptan-5-yl(1S,4S,5R)Ac

>  <IUPAC>  (136) 
2-((1S,4S,5R)-2-azabicyclo[2.2.1]heptan-5-yl)acetic acid

>  <TYPE>  (136) 
Backbone

>  <CLASS>  (136) 
delta

>  <ANALOG>  (136) 
Pro

>  <MOL_WT>  (136) 
155.197

>  <LOGP>  (136) 
0.4591

>  <TPSA>  (136) 
49.33

>  <POPULARITY>  (136) 
2.9

>  <PROTECTED>  (136) 
TRUE

>  <SMILES>  (136) 
N1C[C@@H]2[C@H](C[C@H]1C2)CC(=O)O

>  <INCHIKEY>  (136) 
WPNGXJYQERBJSG-QYNIQEEDSA-N

$$$$
2-azabicyclo221heptane-3-CO2H_1R_3S_4S
     RDKit          2D

 10 11  0  0  0  0  0  0  0  0999 V2000
   -0.3447   -1.2021    0.0000 N   0  0  0  0  0  0  0  0  0  0  0  0
    0.3749    0.0221    0.0000 C   0  0  0  0  0  0  0  0  0  0  0  0
   -0.3255    1.2573    0.0000 C   0  0  0  0  0  0  0  0  0  0  0  0
   -1.7455    1.2684    0.0000 C   0  0  0  0  0  0  0  0  0  0  0  0
   -2.4650    0.0442    0.0000 C   0  0  0  0  0  0  0  0  0  0  0  0
   -1.7646   -1.1911    0.0000 C   0  0  0  0  0  0  0  0  0  0  0  0
   -0.6140   -0.2202    0.0000 C   0  0  0  0  0  0  0  0  0  0  0  0
    1.7948    0.0110    0.0000 C   0  0  0  0  0  0  0  0  0  0  0  0
    2.5549    1.3042    0.0000 O   0  0  0  0  0  0  0  0  0  0  0  0
    2.5347   -1.2938    0.0000 O   0  0  0  0  0  0  0  0  0  0  0  0
  1  2  1  0
  2  3  1  0
  3  4  1  6
  4  5  1  0
  6  5  1  6
  6  7  1  0
  2  8  1  1
  8  9  2  0
  8 10  1  0
  6  1  1  0
  7  3  1  0
M  END
>  <rName>  (137) 
2-azabicyclo221heptane-3-CO2H_1R_3S_4S

>  <PQ_SYMBOL>  (137) 
2-azabicyclo221heptane-3-CO2H_1R_3S_4S

>  <FULL_NAME>  (137) 
(3S)-2-Azabicyclo[2.2.1]heptane-3-carboxlic acid

>  <IUPAC_CONDENSED>  (137) 
2-azabicyclo[2.2.1]heptane-3-CO2H(1R,3S,4S)

>  <IUPAC>  (137) 
(1R,3S,4S)-2-azabicyclo[2.2.1]heptane-3-carboxylic acid

>  <TYPE>  (137) 
Backbone

>  <CLASS>  (137) 
alpha

>  <ANALOG>  (137) 
Pro

>  <MOL_WT>  (137) 
141.17000000000002

>  <LOGP>  (137) 
0.21149999999999974

>  <TPSA>  (137) 
49.33

>  <POPULARITY>  (137) 
8.6

>  <PROTECTED>  (137) 
TRUE

>  <SMILES>  (137) 
N1[C@@H]([C@H]2(CC[C@@H]1C2))C(=O)O

>  <INCHIKEY>  (137) 
BMVVXSIHLQYXJJ-JKUQZMGJSA-N

$$$$
2-azabicyclo221heptane-4-CO2H
     RDKit          2D

 10 11  0  0  0  0  0  0  0  0999 V2000
    1.1080   -0.6448    0.0000 N   0  0  0  0  0  0  0  0  0  0  0  0
    1.2851    0.7641    0.0000 C   0  0  0  0  0  0  0  0  0  0  0  0
    0.1535    1.6219    0.0000 C   0  0  0  0  0  0  0  0  0  0  0  0
   -1.1552    1.0708    0.0000 C   0  0  0  0  0  0  0  0  0  0  0  0
   -1.3323   -0.3381    0.0000 C   0  0  0  0  0  0  0  0  0  0  0  0
   -0.2007   -1.1959    0.0000 C   0  0  0  0  0  0  0  0  0  0  0  0
    0.4725    0.1507    0.0000 C   0  0  0  0  0  0  0  0  0  0  0  0
   -0.0236    0.2130    0.0000 C   0  0  0  0  0  0  0  0  0  0  0  0
    0.9170   -0.9555    0.0000 O   0  0  0  0  0  0  0  0  0  0  0  0
   -1.2241   -0.6863    0.0000 O   0  0  0  0  0  0  0  0  0  0  0  0
  1  2  1  0
  2  3  1  0
  3  4  1  0
  4  5  1  0
  5  6  1  0
  6  7  1  0
  3  8  1  0
  8  9  2  0
  8 10  1  0
  6  1  1  0
  7  3  1  0
M  END
>  <rName>  (138) 
2-azabicyclo221heptane-4-CO2H

>  <PQ_SYMBOL>  (138) 
2-azabicyclo221heptane-4-CO2H

>  <FULL_NAME>  (138) 
2-Azabicyclo[2.2.1]heptane-4-carboxylic acid

>  <IUPAC_CONDENSED>  (138) 
2-azabicyclo[2.2.1]heptane-4-CO2H

>  <IUPAC>  (138) 
2-azabicyclo[2.2.1]heptane-4-carboxylic acid

>  <TYPE>  (138) 
Backbone

>  <CLASS>  (138) 
beta

>  <ANALOG>  (138) 
Pro

>  <MOL_WT>  (138) 
141.17

>  <LOGP>  (138) 
0.2131

>  <TPSA>  (138) 
49.33

>  <POPULARITY>  (138) 
3.4

>  <PROTECTED>  (138) 
TRUE

>  <SMILES>  (138) 
N1CC2(CCC1C2)C(=O)O

>  <INCHIKEY>  (138) 
GSEADFBJEDRQEZ-UHFFFAOYSA-N

$$$$
2-azabicyclo221heptane-4-CO2H_1S_4S
     RDKit          2D

 10 11  0  0  0  0  0  0  0  0999 V2000
    1.1080   -0.6448    0.0000 N   0  0  0  0  0  0  0  0  0  0  0  0
    1.2851    0.7641    0.0000 C   0  0  0  0  0  0  0  0  0  0  0  0
    0.1535    1.6219    0.0000 C   0  0  0  0  0  0  0  0  0  0  0  0
   -1.1552    1.0708    0.0000 C   0  0  0  0  0  0  0  0  0  0  0  0
   -1.3323   -0.3381    0.0000 C   0  0  0  0  0  0  0  0  0  0  0  0
   -0.2007   -1.1959    0.0000 C   0  0  0  0  0  0  0  0  0  0  0  0
    0.4725    0.1507    0.0000 C   0  0  0  0  0  0  0  0  0  0  0  0
   -0.0236    0.2130    0.0000 C   0  0  0  0  0  0  0  0  0  0  0  0
    0.9170   -0.9555    0.0000 O   0  0  0  0  0  0  0  0  0  0  0  0
   -1.2241   -0.6863    0.0000 O   0  0  0  0  0  0  0  0  0  0  0  0
  1  2  1  0
  2  3  1  0
  3  4  1  0
  4  5  1  0
  6  5  1  1
  6  7  1  0
  3  8  1  6
  8  9  2  0
  8 10  1  0
  6  1  1  0
  7  3  1  0
M  END
>  <rName>  (139) 
2-azabicyclo221heptane-4-CO2H_1S_4S

>  <PQ_SYMBOL>  (139) 
2-azabicyclo221heptane-4-CO2H_1S_4S

>  <FULL_NAME>  (139) 
(1S,4S)-2-azabicyclo[2.2.1]heptane-4-carboxylic acid

>  <IUPAC_CONDENSED>  (139) 
2-azabicyclo[2.2.1]heptane-4-CO2H(1S,4S)

>  <IUPAC>  (139) 
(1S,4S)-2-azabicyclo[2.2.1]heptane-4-carboxylic acid

>  <TYPE>  (139) 
Backbone

>  <CLASS>  (139) 
beta

>  <ANALOG>  (139) 
Pro

>  <MOL_WT>  (139) 
141.17

>  <LOGP>  (139) 
0.2131

>  <TPSA>  (139) 
49.33

>  <POPULARITY>  (139) 
2.9

>  <PROTECTED>  (139) 
TRUE

>  <SMILES>  (139) 
N1C[C@@]2(CC[C@H]1C2)C(=O)O

>  <INCHIKEY>  (139) 
GSEADFBJEDRQEZ-FSPLSTOPSA-N

$$$$
2-azabicyclo221heptane-5-CO2H_1R_4S_5S
     RDKit          2D

 10 11  0  0  0  0  0  0  0  0999 V2000
    2.3780   -0.0636    0.0000 N   0  0  0  0  0  0  0  0  0  0  0  0
    1.6881    1.1775    0.0000 C   0  0  0  0  0  0  0  0  0  0  0  0
    0.2682    1.2006    0.0000 C   0  0  0  0  0  0  0  0  0  0  0  0
   -0.4616   -0.0175    0.0000 C   0  0  0  0  0  0  0  0  0  0  0  0
    0.2283   -1.2586    0.0000 C   0  0  0  0  0  0  0  0  0  0  0  0
    1.6481   -1.2817    0.0000 C   0  0  0  0  0  0  0  0  0  0  0  0
    1.3952    0.2024    0.0000 C   0  0  0  0  0  0  0  0  0  0  0  0
   -1.8815    0.0056    0.0000 C   0  0  0  0  0  0  0  0  0  0  0  0
   -2.6525   -1.2811    0.0000 O   0  0  0  0  0  0  0  0  0  0  0  0
   -2.6103    1.3166    0.0000 O   0  0  0  0  0  0  0  0  0  0  0  0
  1  2  1  0
  3  2  1  1
  3  4  1  0
  4  5  1  0
  6  5  1  1
  6  7  1  0
  4  8  1  6
  8  9  2  0
  8 10  1  0
  6  1  1  0
  7  3  1  0
M  END
>  <rName>  (140) 
2-azabicyclo221heptane-5-CO2H_1R_4S_5S

>  <PQ_SYMBOL>  (140) 
2-azabicyclo221heptane-5-CO2H_1R_4S_5S

>  <FULL_NAME>  (140) 
(1R,4S,5S)-2-azabicyclo[2.2.1]heptane-5-carboxylic acid

>  <IUPAC_CONDENSED>  (140) 
2-azabicyclo[2.2.1]heptane-5-CO2H(1R,4S,5S)

>  <IUPAC>  (140) 
(1R,4S,5S)-2-azabicyclo[2.2.1]heptane-5-carboxylic acid

>  <TYPE>  (140) 
Backbone

>  <CLASS>  (140) 
gamma

>  <ANALOG>  (140) 
Pro

>  <MOL_WT>  (140) 
141.17000000000002

>  <LOGP>  (140) 
0.06900000000000012

>  <TPSA>  (140) 
49.33

>  <POPULARITY>  (140) 
3.1

>  <PROTECTED>  (140) 
TRUE

>  <SMILES>  (140) 
N1C[C@@H]2[C@H](C[C@H]1C2)C(=O)O

>  <INCHIKEY>  (140) 
XZIQRETZPWNXHZ-PBXRRBTRSA-N

$$$$
2-azabicyclo222octane-4-CO2H
     RDKit          2D

 11 12  0  0  0  0  0  0  0  0999 V2000
   -1.0387    0.5874    0.0000 N   0  0  0  0  0  0  0  0  0  0  0  0
   -0.8022   -0.7675    0.0000 C   0  0  0  0  0  0  0  0  0  0  0  0
    0.5132   -0.8688    0.0000 C   0  0  0  0  0  0  0  0  0  0  0  0
    0.5374    0.7261    0.0000 C   0  0  0  0  0  0  0  0  0  0  0  0
   -0.8431    1.5546    0.0000 C   0  0  0  0  0  0  0  0  0  0  0  0
   -2.2392    0.7831    0.0000 C   0  0  0  0  0  0  0  0  0  0  0  0
   -2.2685   -0.8204    0.0000 C   0  0  0  0  0  0  0  0  0  0  0  0
   -0.8881   -1.6489    0.0000 C   0  0  0  0  0  0  0  0  0  0  0  0
    1.9064   -0.0920    0.0000 C   0  0  0  0  0  0  0  0  0  0  0  0
    1.9288    1.4078    0.0000 O   0  0  0  0  0  0  0  0  0  0  0  0
    3.1940   -0.8614    0.0000 O   0  0  0  0  0  0  0  0  0  0  0  0
  1  2  1  0
  2  3  1  0
  3  4  1  0
  4  5  1  0
  5  6  1  0
  6  7  1  0
  7  8  1  0
  3  9  1  0
  9 10  2  0
  9 11  1  0
  6  1  1  0
  8  3  1  0
M  END
>  <rName>  (141) 
2-azabicyclo222octane-4-CO2H

>  <PQ_SYMBOL>  (141) 
2-azabicyclo222octane-4-CO2H

>  <FULL_NAME>  (141) 
2-Azabicyclo[2.2.2]octane-4-carboxylic acid

>  <IUPAC_CONDENSED>  (141) 
2-azabicyclo[2.2.2]octane-4-CO2H

>  <IUPAC>  (141) 
2-azabicyclo[2.2.2]octane-4-carboxylic acid

>  <TYPE>  (141) 
Backbone

>  <CLASS>  (141) 
beta

>  <ANALOG>  (141) 
Pro

>  <MOL_WT>  (141) 
155.197

>  <LOGP>  (141) 
0.6032

>  <TPSA>  (141) 
49.33

>  <POPULARITY>  (141) 
5.3

>  <PROTECTED>  (141) 
TRUE

>  <SMILES>  (141) 
N1CC2(CCC1CC2)C(=O)O

>  <INCHIKEY>  (141) 
XDGLNYVLTDUSHG-UHFFFAOYSA-N

$$$$
2-azabicyclo222octane-6-CO2H
     RDKit          2D

 11 12  0  0  0  0  0  0  0  0999 V2000
    0.3729   -0.1753    0.0000 N   0  0  0  0  0  0  0  0  0  0  0  0
    0.1923   -1.3782    0.0000 C   0  0  0  0  0  0  0  0  0  0  0  0
   -0.5967    0.0081    0.0000 C   0  0  0  0  0  0  0  0  0  0  0  0
    0.2143    1.3989    0.0000 C   0  0  0  0  0  0  0  0  0  0  0  0
    1.8095    1.3947    0.0000 C   0  0  0  0  0  0  0  0  0  0  0  0
    2.6072    0.0034    0.0000 C   0  0  0  0  0  0  0  0  0  0  0  0
    1.7961   -1.3874    0.0000 C   0  0  0  0  0  0  0  0  0  0  0  0
    1.7247    0.0782    0.0000 C   0  0  0  0  0  0  0  0  0  0  0  0
   -2.2067    0.0166    0.0000 C   0  0  0  0  0  0  0  0  0  0  0  0
   -2.9635   -1.2785    0.0000 O   0  0  0  0  0  0  0  0  0  0  0  0
   -2.9499    1.3195    0.0000 O   0  0  0  0  0  0  0  0  0  0  0  0
  1  2  1  0
  2  3  1  0
  3  4  1  0
  4  5  1  0
  5  6  1  0
  6  7  1  0
  5  8  1  0
  3  9  1  0
  9 10  2  0
  9 11  1  0
  7  2  1  0
  8  1  1  0
M  END
>  <rName>  (142) 
2-azabicyclo222octane-6-CO2H

>  <PQ_SYMBOL>  (142) 
2-azabicyclo222octane-6-CO2H

>  <FULL_NAME>  (142) 
2-Azabicyclo[2.2.2]octane-6-carboxylic acid

>  <IUPAC_CONDENSED>  (142) 
2-azabicyclo[2.2.2]octane-6-CO2H

>  <IUPAC>  (142) 
2-azabicyclo[2.2.2]octane-6-carboxylic acid

>  <TYPE>  (142) 
Backbone

>  <CLASS>  (142) 
beta

>  <ANALOG>  (142) 
Pro

>  <MOL_WT>  (142) 
155.197

>  <LOGP>  (142) 
0.4591

>  <TPSA>  (142) 
49.33

>  <POPULARITY>  (142) 
7.9

>  <PROTECTED>  (142) 
TRUE

>  <SMILES>  (142) 
N2C1C(CC(CC1)C2)C(=O)O

>  <INCHIKEY>  (142) 
WKDJJFLIHAQJLC-UHFFFAOYSA-N

$$$$
2-azabicyclo310hexan-4-ylAc
     RDKit          2D

 10 11  0  0  0  0  0  0  0  0999 V2000
   -2.6569    0.8858    0.0000 N   0  0  0  0  0  0  0  0  0  0  0  0
   -1.3812    1.6748    0.0000 C   0  0  0  0  0  0  0  0  0  0  0  0
   -0.2366    0.7053    0.0000 C   0  0  0  0  0  0  0  0  0  0  0  0
   -0.8049   -0.6828    0.0000 C   0  0  0  0  0  0  0  0  0  0  0  0
   -1.6495   -1.9225    0.0000 C   0  0  0  0  0  0  0  0  0  0  0  0
   -2.3008   -0.5713    0.0000 C   0  0  0  0  0  0  0  0  0  0  0  0
    1.2205    1.0615    0.0000 C   0  0  0  0  0  0  0  0  0  0  0  0
    2.2575   -0.0223    0.0000 C   0  0  0  0  0  0  0  0  0  0  0  0
    1.8374   -1.4623    0.0000 O   0  0  0  0  0  0  0  0  0  0  0  0
    3.7146    0.3338    0.0000 O   0  0  0  0  0  0  0  0  0  0  0  0
  1  2  1  0
  2  3  1  0
  3  4  1  0
  4  5  1  0
  5  6  1  0
  3  7  1  0
  7  8  1  0
  8  9  2  0
  8 10  1  0
  6  1  1  0
  6  4  1  0
M  END
>  <rName>  (143) 
2-azabicyclo310hexan-4-ylAc

>  <PQ_SYMBOL>  (143) 
2-azabicyclo310hexan-4-ylAc

>  <FULL_NAME>  (143) 
O=C(O)CC1CNC2CC12

>  <IUPAC_CONDENSED>  (143) 
2-azabicyclo[3.1.0]hexan-4-ylAc

>  <IUPAC>  (143) 
2-(2-azabicyclo[3.1.0]hexan-4-yl)acetic acid

>  <TYPE>  (143) 
Backbone

>  <CLASS>  (143) 
gamma

>  <ANALOG>  (143) 
Pro

>  <MOL_WT>  (143) 
141.17000000000002

>  <LOGP>  (143) 
0.06900000000000012

>  <TPSA>  (143) 
49.33

>  <POPULARITY>  (143) 
2.8

>  <PROTECTED>  (143) 
TRUE

>  <SMILES>  (143) 
N1CC(C2(CC12))CC(=O)O

>  <INCHIKEY>  (143) 
VRSOANUTRPGJNI-UHFFFAOYSA-N

$$$$
2-azabicyclo311heptane-4-CO2H
     RDKit          2D

 10 11  0  0  0  0  0  0  0  0999 V2000
    1.6894   -1.2643    0.0000 N   0  0  0  0  0  0  0  0  0  0  0  0
    0.2694   -1.2506    0.0000 C   0  0  0  0  0  0  0  0  0  0  0  0
   -0.4287   -0.0140    0.0000 C   0  0  0  0  0  0  0  0  0  0  0  0
    0.2932    1.2088    0.0000 C   0  0  0  0  0  0  0  0  0  0  0  0
    1.7131    1.1951    0.0000 C   0  0  0  0  0  0  0  0  0  0  0  0
    2.4112   -0.0415    0.0000 C   0  0  0  0  0  0  0  0  0  0  0  0
    1.0980    0.1531    0.0000 C   0  0  0  0  0  0  0  0  0  0  0  0
   -1.8486   -0.0003    0.0000 C   0  0  0  0  0  0  0  0  0  0  0  0
   -2.6111   -1.2920    0.0000 O   0  0  0  0  0  0  0  0  0  0  0  0
   -2.5860    1.3059    0.0000 O   0  0  0  0  0  0  0  0  0  0  0  0
  1  2  1  0
  2  3  1  0
  3  4  1  0
  4  5  1  0
  5  6  1  0
  6  7  1  0
  3  8  1  0
  8  9  2  0
  8 10  1  0
  6  1  1  0
  7  4  1  0
M  END
>  <rName>  (144) 
2-azabicyclo311heptane-4-CO2H

>  <PQ_SYMBOL>  (144) 
2-azabicyclo311heptane-4-CO2H

>  <FULL_NAME>  (144) 
2-Azabicyclo[3.1.1]heptane-4-carboxylic acid

>  <IUPAC_CONDENSED>  (144) 
2-azabicyclo[3.1.1]heptane-4-CO2H

>  <IUPAC>  (144) 
2-azabicyclo[3.1.1]heptane-4-carboxylic acid

>  <TYPE>  (144) 
Backbone

>  <CLASS>  (144) 
beta

>  <ANALOG>  (144) 
Pro

>  <MOL_WT>  (144) 
141.17000000000002

>  <LOGP>  (144) 
0.06900000000000012

>  <TPSA>  (144) 
49.33

>  <POPULARITY>  (144) 
2.8

>  <PROTECTED>  (144) 
TRUE

>  <SMILES>  (144) 
N1CC(C2(CC1C2))C(=O)O

>  <INCHIKEY>  (144) 
AXPAHAQPCPDNQR-UHFFFAOYSA-N

$$$$
2-azabicyclo311heptane-5-CO2H
     RDKit          2D

 10 11  0  0  0  0  0  0  0  0999 V2000
    2.0803   -0.7088    0.0000 N   0  0  0  0  0  0  0  0  0  0  0  0
    0.8329   -1.3875    0.0000 C   0  0  0  0  0  0  0  0  0  0  0  0
   -0.3785   -0.6466    0.0000 C   0  0  0  0  0  0  0  0  0  0  0  0
   -0.3426    0.7729    0.0000 C   0  0  0  0  0  0  0  0  0  0  0  0
    0.9048    1.4516    0.0000 C   0  0  0  0  0  0  0  0  0  0  0  0
    2.1162    0.7107    0.0000 C   0  0  0  0  0  0  0  0  0  0  0  0
    0.8742    0.2420    0.0000 C   0  0  0  0  0  0  0  0  0  0  0  0
   -1.5899    0.0942    0.0000 C   0  0  0  0  0  0  0  0  0  0  0  0
   -1.6278   -1.4053    0.0000 O   0  0  0  0  0  0  0  0  0  0  0  0
   -2.8695    0.8769    0.0000 O   0  0  0  0  0  0  0  0  0  0  0  0
  1  2  1  0
  2  3  1  0
  3  4  1  0
  4  5  1  0
  5  6  1  0
  6  7  1  0
  4  8  1  0
  8  9  2  0
  8 10  1  0
  6  1  1  0
  7  4  1  0
M  END
>  <rName>  (145) 
2-azabicyclo311heptane-5-CO2H

>  <PQ_SYMBOL>  (145) 
2-azabicyclo311heptane-5-CO2H

>  <FULL_NAME>  (145) 
2-Azabicyclo[3.1.1]heptane-5-carboxylic acid

>  <IUPAC_CONDENSED>  (145) 
2-azabicyclo[3.1.1]heptane-5-CO2H

>  <IUPAC>  (145) 
2-azabicyclo[3.1.1]heptane-5-carboxylic acid

>  <TYPE>  (145) 
Backbone

>  <CLASS>  (145) 
gamma

>  <ANALOG>  (145) 
Pro

>  <MOL_WT>  (145) 
141.17

>  <LOGP>  (145) 
0.2131

>  <TPSA>  (145) 
49.33

>  <POPULARITY>  (145) 
3.2

>  <PROTECTED>  (145) 
TRUE

>  <SMILES>  (145) 
N1CCC2(CC1C2)C(=O)O

>  <INCHIKEY>  (145) 
OUKWVCVODSBLEJ-UHFFFAOYSA-N

$$$$
2-azabicyclo320heptane-1-CO2H_1S_5S
     RDKit          2D

 10 11  0  0  0  0  0  0  0  0999 V2000
   -0.2837   -1.3332    0.0000 N   0  0  0  0  0  0  0  0  0  0  0  0
   -0.0001    0.1397    0.0000 C   0  0  0  0  0  0  0  0  0  0  0  0
    0.7248    1.4529    0.0000 C   0  0  0  0  0  0  0  0  0  0  0  0
   -0.5884    2.1778    0.0000 C   0  0  0  0  0  0  0  0  0  0  0  0
   -1.3133    0.8646    0.0000 C   0  0  0  0  0  0  0  0  0  0  0  0
   -2.4085   -0.1603    0.0000 C   0  0  0  0  0  0  0  0  0  0  0  0
   -1.7722   -1.5187    0.0000 C   0  0  0  0  0  0  0  0  0  0  0  0
    1.4103   -0.3708    0.0000 C   0  0  0  0  0  0  0  0  0  0  0  0
    2.5577    0.5954    0.0000 O   0  0  0  0  0  0  0  0  0  0  0  0
    1.6734   -1.8475    0.0000 O   0  0  0  0  0  0  0  0  0  0  0  0
  1  2  1  0
  2  3  1  0
  3  4  1  0
  5  4  1  6
  5  6  1  0
  6  7  1  0
  2  8  1  1
  8  9  2  0
  8 10  1  0
  5  2  1  0
  7  1  1  0
M  END
>  <rName>  (146) 
2-azabicyclo320heptane-1-CO2H_1S_5S

>  <PQ_SYMBOL>  (146) 
2-azabicyclo320heptane-1-CO2H_1S_5S

>  <FULL_NAME>  (146) 
rac-(1R,5R)-2-azabicyclo[3.2.0]heptane-1-carboxylic acid

>  <IUPAC_CONDENSED>  (146) 
2-azabicyclo[3.2.0]heptane-1-CO2H(1S,5S)

>  <IUPAC>  (146) 
(1S,5S)-2-azabicyclo[3.2.0]heptane-1-carboxylic acid

>  <TYPE>  (146) 
Backbone

>  <CLASS>  (146) 
alpha

>  <ANALOG>  (146) 
Pro

>  <MOL_WT>  (146) 
141.17

>  <LOGP>  (146) 
0.2131

>  <TPSA>  (146) 
49.33

>  <POPULARITY>  (146) 
3.5

>  <PROTECTED>  (146) 
TRUE

>  <SMILES>  (146) 
N2[C@]1(CC[C@H]1CC2)C(=O)O

>  <INCHIKEY>  (146) 
IZJBSGSUFIFGNE-FSPLSTOPSA-N

$$$$
2-azabicyclo321octane-4-CO2H
     RDKit          2D

 11 12  0  0  0  0  0  0  0  0999 V2000
    1.3479   -1.5805    0.0000 N   0  0  0  0  0  0  0  0  0  0  0  0
   -0.0377   -1.2699    0.0000 C   0  0  0  0  0  0  0  0  0  0  0  0
   -0.6588    0.0071    0.0000 C   0  0  0  0  0  0  0  0  0  0  0  0
   -0.0477    1.2889    0.0000 C   0  0  0  0  0  0  0  0  0  0  0  0
    1.3355    1.6102    0.0000 C   0  0  0  0  0  0  0  0  0  0  0  0
    2.4491    0.7292    0.0000 C   0  0  0  0  0  0  0  0  0  0  0  0
    2.4547   -0.6908    0.0000 C   0  0  0  0  0  0  0  0  0  0  0  0
    0.8933   -0.0931    0.0000 C   0  0  0  0  0  0  0  0  0  0  0  0
   -2.0788    0.0016    0.0000 C   0  0  0  0  0  0  0  0  0  0  0  0
   -2.8237   -1.3004    0.0000 O   0  0  0  0  0  0  0  0  0  0  0  0
   -2.8338    1.2977    0.0000 O   0  0  0  0  0  0  0  0  0  0  0  0
  1  2  1  0
  2  3  1  0
  3  4  1  0
  4  5  1  0
  5  6  1  0
  6  7  1  0
  7  8  1  0
  3  9  1  0
  9 10  2  0
  9 11  1  0
  7  1  1  0
  8  4  1  0
M  END
>  <rName>  (147) 
2-azabicyclo321octane-4-CO2H

>  <PQ_SYMBOL>  (147) 
2-azabicyclo321octane-4-CO2H

>  <FULL_NAME>  (147) 
2-Azabicyclo[3.2.1]octane-4-carboxylic acid

>  <IUPAC_CONDENSED>  (147) 
2-azabicyclo[3.2.1]octane-4-CO2H

>  <IUPAC>  (147) 
2-azabicyclo[3.2.1]octane-4-carboxylic acid

>  <TYPE>  (147) 
Backbone

>  <CLASS>  (147) 
beta

>  <ANALOG>  (147) 
Pro

>  <MOL_WT>  (147) 
155.197

>  <LOGP>  (147) 
0.4591

>  <TPSA>  (147) 
49.33

>  <POPULARITY>  (147) 
3.3

>  <PROTECTED>  (147) 
TRUE

>  <SMILES>  (147) 
N1CC(C2(CCC1C2))C(=O)O

>  <INCHIKEY>  (147) 
IQEZFDKEFZPNAQ-UHFFFAOYSA-N

$$$$
2-azabicyclo330octane-5-CO2H_1R_5S
     RDKit          2D

 11 12  0  0  0  0  0  0  0  0999 V2000
    1.9635   -1.4266    0.0000 N   0  0  0  0  0  0  0  0  0  0  0  0
    1.5000   -0.0000    0.0000 C   0  0  0  0  0  0  0  0  0  0  0  0
   -0.0000    0.0000    0.0000 C   0  0  0  0  0  0  0  0  0  0  0  0
   -0.4635    1.4266    0.0000 C   0  0  0  0  0  0  0  0  0  0  0  0
    0.7500    2.3083    0.0000 C   0  0  0  0  0  0  0  0  0  0  0  0
    1.9635    1.4266    0.0000 C   0  0  0  0  0  0  0  0  0  0  0  0
   -0.4635   -1.4266    0.0000 C   0  0  0  0  0  0  0  0  0  0  0  0
    0.7500   -2.3083    0.0000 C   0  0  0  0  0  0  0  0  0  0  0  0
   -1.5000    0.0000    0.0000 C   0  0  0  0  0  0  0  0  0  0  0  0
   -2.2500   -1.2990    0.0000 O   0  0  0  0  0  0  0  0  0  0  0  0
   -2.2500    1.2990    0.0000 O   0  0  0  0  0  0  0  0  0  0  0  0
  1  2  1  0
  2  3  1  0
  3  4  1  0
  4  5  1  0
  5  6  1  0
  3  7  1  0
  7  8  1  0
  3  9  1  6
  9 10  2  0
  9 11  1  0
  2  6  1  1
  8  1  1  0
M  END
>  <rName>  (148) 
2-azabicyclo330octane-5-CO2H_1R_5S

>  <PQ_SYMBOL>  (148) 
2-azabicyclo330octane-5-CO2H_1R_5S

>  <FULL_NAME>  (148) 
rac-(3aR,6aS)-octahydrocyclopenta[b]pyrrole-3a-carboxylic acid

>  <IUPAC_CONDENSED>  (148) 
2-azabicyclo[3.3.0]octane-5-CO2H(1R,5S)

>  <IUPAC>  (148) 
(1R,5S)-2-azabicyclo[3.3.0]octane-5-carboxylic acid

>  <TYPE>  (148) 
Backbone

>  <CLASS>  (148) 
beta

>  <ANALOG>  (148) 
Val

>  <MOL_WT>  (148) 
155.197

>  <LOGP>  (148) 
0.6032

>  <TPSA>  (148) 
49.33

>  <POPULARITY>  (148) 
4.2

>  <PROTECTED>  (148) 
TRUE

>  <SMILES>  (148) 
N2[C@H]1[C@](CCC1)(CC2)C(=O)O

>  <INCHIKEY>  (148) 
OUQOATBOHJQCRJ-SVRRBLITSA-N

$$$$
2-azabicyclo410heptane-5-CO2H_1S_5S_6S
     RDKit          2D

 10 11  0  0  0  0  0  0  0  0999 V2000
   -2.4771    0.6586    0.0000 N   0  0  0  0  0  0  0  0  0  0  0  0
   -1.5317    1.8232    0.0000 C   0  0  0  0  0  0  0  0  0  0  0  0
   -0.0505    1.5866    0.0000 C   0  0  0  0  0  0  0  0  0  0  0  0
    0.4853    0.1856    0.0000 C   0  0  0  0  0  0  0  0  0  0  0  0
   -0.4601   -0.9789    0.0000 C   0  0  0  0  0  0  0  0  0  0  0  0
   -1.4055   -2.1435    0.0000 C   0  0  0  0  0  0  0  0  0  0  0  0
   -1.9413   -0.7424    0.0000 C   0  0  0  0  0  0  0  0  0  0  0  0
    1.9666   -0.0509    0.0000 C   0  0  0  0  0  0  0  0  0  0  0  0
    2.9120    1.1136    0.0000 O   0  0  0  0  0  0  0  0  0  0  0  0
    2.5024   -1.4519    0.0000 O   0  0  0  0  0  0  0  0  0  0  0  0
  1  2  1  0
  2  3  1  0
  3  4  1  0
  4  5  1  0
  5  6  1  6
  7  6  1  6
  4  8  1  6
  8  9  2  0
  8 10  1  0
  7  1  1  0
  7  5  1  0
M  END
>  <rName>  (149) 
2-azabicyclo410heptane-5-CO2H_1S_5S_6S

>  <PQ_SYMBOL>  (149) 
2-azabicyclo410heptane-5-CO2H_1S_5S_6S

>  <FULL_NAME>  (149) 
O=C(O)[C@H]1CCN[C@H]2C[C@H]21

>  <IUPAC_CONDENSED>  (149) 
2-azabicyclo[4.1.0]heptane-5-CO2H(1S,5S,6S)

>  <IUPAC>  (149) 
(1S,5S,6S)-2-azabicyclo[4.1.0]heptane-5-carboxylic acid

>  <TYPE>  (149) 
Backbone

>  <CLASS>  (149) 
gamma

>  <ANALOG>  (149) 
Pro

>  <MOL_WT>  (149) 
141.17

>  <LOGP>  (149) 
0.06899999999999967

>  <TPSA>  (149) 
49.33

>  <POPULARITY>  (149) 
2.8

>  <PROTECTED>  (149) 
TRUE

>  <SMILES>  (149) 
N1CC[C@@H]([C@@H]2(C[C@H]12))C(=O)O

>  <INCHIKEY>  (149) 
JGYRIFWRPBYDKB-ZLUOBGJFSA-N

$$$$
2-azabicyclo430nonane-6-CO2H_1R_6S
     RDKit          2D

 12 13  0  0  0  0  0  0  0  0999 V2000
    2.1435   -1.2083    0.0000 N   0  0  0  0  0  0  0  0  0  0  0  0
    0.6458   -1.2921    0.0000 C   0  0  0  0  0  0  0  0  0  0  0  0
   -0.1756   -0.0369    0.0000 C   0  0  0  0  0  0  0  0  0  0  0  0
    0.5007    1.3020    0.0000 C   0  0  0  0  0  0  0  0  0  0  0  0
    1.9984    1.3857    0.0000 C   0  0  0  0  0  0  0  0  0  0  0  0
    2.8197    0.1306    0.0000 C   0  0  0  0  0  0  0  0  0  0  0  0
   -1.6231   -0.4303    0.0000 C   0  0  0  0  0  0  0  0  0  0  0  0
   -1.6963   -1.9285    0.0000 C   0  0  0  0  0  0  0  0  0  0  0  0
   -0.2941   -2.4611    0.0000 C   0  0  0  0  0  0  0  0  0  0  0  0
   -1.1237    1.1255    0.0000 C   0  0  0  0  0  0  0  0  0  0  0  0
   -2.6044    0.8856    0.0000 O   0  0  0  0  0  0  0  0  0  0  0  0
   -0.5910    2.5277    0.0000 O   0  0  0  0  0  0  0  0  0  0  0  0
  1  2  1  0
  2  3  1  0
  3  4  1  0
  4  5  1  0
  5  6  1  0
  3  7  1  0
  7  8  1  0
  8  9  1  0
  3 10  1  1
 10 11  2  0
 10 12  1  0
  6  1  1  0
  2  9  1  6
M  END
>  <rName>  (150) 
2-azabicyclo430nonane-6-CO2H_1R_6S

>  <PQ_SYMBOL>  (150) 
2-azabicyclo430nonane-6-CO2H_1R_6S

>  <FULL_NAME>  (150) 
rel-(4AS,7aR)-octahydro-4aH-cyclopenta[b]pyridine-4a-carboxylic acid

>  <IUPAC_CONDENSED>  (150) 
2-azabicyclo[4.3.0]nonane-6-CO2H(1R,6S)

>  <IUPAC>  (150) 
(1R,6S)-2-azabicyclo[4.3.0]nonane-6-carboxylic acid

>  <TYPE>  (150) 
Backbone

>  <CLASS>  (150) 
beta

>  <ANALOG>  (150) 
Val

>  <MOL_WT>  (150) 
169.22400000000002

>  <LOGP>  (150) 
0.9932999999999998

>  <TPSA>  (150) 
49.33

>  <POPULARITY>  (150) 
3.1

>  <PROTECTED>  (150) 
TRUE

>  <SMILES>  (150) 
N1[C@H]2[C@@](CCC1)(CCC2)C(=O)O

>  <INCHIKEY>  (150) 
LYWNZXIOWJTTAY-APPZFPTMSA-N

$$$$
2-azabicyclo440decan-6-yl_1R_6R_Ac
     RDKit          2D

 14 15  0  0  0  0  0  0  0  0999 V2000
   -0.9854   -2.3337    0.0000 N   0  0  0  0  0  0  0  0  0  0  0  0
   -1.3893   -0.8891    0.0000 C   0  0  0  0  0  0  0  0  0  0  0  0
   -0.3402    0.1830    0.0000 C   0  0  0  0  0  0  0  0  0  0  0  0
   -0.7441    1.6276    0.0000 C   0  0  0  0  0  0  0  0  0  0  0  0
   -2.1971    2.0001    0.0000 C   0  0  0  0  0  0  0  0  0  0  0  0
   -3.2462    0.9281    0.0000 C   0  0  0  0  0  0  0  0  0  0  0  0
   -2.8423   -0.5165    0.0000 C   0  0  0  0  0  0  0  0  0  0  0  0
    1.1128   -0.1895    0.0000 C   0  0  0  0  0  0  0  0  0  0  0  0
    1.5167   -1.6341    0.0000 C   0  0  0  0  0  0  0  0  0  0  0  0
    0.4676   -2.7062    0.0000 C   0  0  0  0  0  0  0  0  0  0  0  0
    0.7089    1.2551    0.0000 C   0  0  0  0  0  0  0  0  0  0  0  0
    2.1619    0.8826    0.0000 C   0  0  0  0  0  0  0  0  0  0  0  0
    2.5658   -0.5620    0.0000 O   0  0  0  0  0  0  0  0  0  0  0  0
    3.2110    1.9546    0.0000 O   0  0  0  0  0  0  0  0  0  0  0  0
  1  2  1  0
  2  3  1  0
  3  4  1  0
  4  5  1  0
  5  6  1  0
  6  7  1  0
  3  8  1  0
  8  9  1  0
  9 10  1  0
  3 11  1  1
 11 12  1  0
 12 13  2  0
 12 14  1  0
  2  7  1  6
 10  1  1  0
M  END
>  <rName>  (151) 
2-azabicyclo440decan-6-yl_1R_6R_Ac

>  <PQ_SYMBOL>  (151) 
2-azabicyclo440decan-6-yl_1R_6R_Ac

>  <FULL_NAME>  (151) 
rac-2-[(4aR,8aR)-decahydroquinolin-4a-yl]acetic acid

>  <IUPAC_CONDENSED>  (151) 
2-azabicyclo[4.4.0]decan-6-yl(1R,6R)Ac

>  <IUPAC>  (151) 
2-((1R,6R)-2-azabicyclo[4.4.0]decan-6-yl)acetic acid

>  <TYPE>  (151) 
Backbone

>  <CLASS>  (151) 
gamma

>  <ANALOG>  (151) 
Leu

>  <MOL_WT>  (151) 
197.278

>  <LOGP>  (151) 
1.7735

>  <TPSA>  (151) 
49.33

>  <POPULARITY>  (151) 
4.3

>  <PROTECTED>  (151) 
TRUE

>  <SMILES>  (151) 
N2[C@H]1[C@](CCCC1)(CCC2)CC(=O)O

>  <INCHIKEY>  (151) 
LBOFJOJILNULTI-MWLCHTKSSA-N

$$$$
2-azabicyclo440decane-4-CO2H
     RDKit          2D

 13 14  0  0  0  0  0  0  0  0999 V2000
    0.2032    1.9166    0.0000 N   0  0  0  0  0  0  0  0  0  0  0  0
   -1.2457    1.5283    0.0000 C   0  0  0  0  0  0  0  0  0  0  0  0
   -1.6339    0.0794    0.0000 C   0  0  0  0  0  0  0  0  0  0  0  0
   -0.5733   -0.9812    0.0000 C   0  0  0  0  0  0  0  0  0  0  0  0
    0.8756   -0.5930    0.0000 C   0  0  0  0  0  0  0  0  0  0  0  0
    1.9363   -1.6536    0.0000 C   0  0  0  0  0  0  0  0  0  0  0  0
    3.3852   -1.2654    0.0000 C   0  0  0  0  0  0  0  0  0  0  0  0
    3.7734    0.1835    0.0000 C   0  0  0  0  0  0  0  0  0  0  0  0
    2.7127    1.2441    0.0000 C   0  0  0  0  0  0  0  0  0  0  0  0
    1.2638    0.8559    0.0000 C   0  0  0  0  0  0  0  0  0  0  0  0
   -3.0828   -0.3088    0.0000 C   0  0  0  0  0  0  0  0  0  0  0  0
   -3.4710   -1.7577    0.0000 O   0  0  0  0  0  0  0  0  0  0  0  0
   -4.1435    0.7519    0.0000 O   0  0  0  0  0  0  0  0  0  0  0  0
  1  2  1  0
  2  3  1  0
  3  4  1  0
  4  5  1  0
  5  6  1  0
  6  7  1  0
  7  8  1  0
  8  9  1  0
  9 10  1  0
  3 11  1  0
 11 12  2  0
 11 13  1  0
 10  1  1  0
 10  5  1  0
M  END
>  <rName>  (152) 
2-azabicyclo440decane-4-CO2H

>  <PQ_SYMBOL>  (152) 
2-azabicyclo440decane-4-CO2H

>  <FULL_NAME>  (152) 
Decahydroquinoline-3-carboxylic acid

>  <IUPAC_CONDENSED>  (152) 
2-azabicyclo[4.4.0]decane-4-CO2H

>  <IUPAC>  (152) 
2-azabicyclo[4.4.0]decane-4-carboxylic acid

>  <TYPE>  (152) 
Backbone

>  <CLASS>  (152) 
beta

>  <ANALOG>  (152) 
Pro

>  <MOL_WT>  (152) 
183.251

>  <LOGP>  (152) 
1.2392999999999998

>  <TPSA>  (152) 
49.33

>  <POPULARITY>  (152) 
5.6

>  <PROTECTED>  (152) 
TRUE

>  <SMILES>  (152) 
N1CC(CC2(CCCCC12))C(=O)O

>  <INCHIKEY>  (152) 
QTEVAKSTUJYKSC-UHFFFAOYSA-N

$$$$
2-azabicyclo440decane-6-CO2H_1R_6R
     RDKit          2D

 13 14  0  0  0  0  0  0  0  0999 V2000
    1.2990   -2.1346    0.0000 N   0  0  0  0  0  0  0  0  0  0  0  0
    0.0000   -1.3846    0.0000 C   0  0  0  0  0  0  0  0  0  0  0  0
    0.0000    0.1154    0.0000 C   0  0  0  0  0  0  0  0  0  0  0  0
   -1.2990    0.8654    0.0000 C   0  0  0  0  0  0  0  0  0  0  0  0
   -2.5981    0.1154    0.0000 C   0  0  0  0  0  0  0  0  0  0  0  0
   -2.5981   -1.3846    0.0000 C   0  0  0  0  0  0  0  0  0  0  0  0
   -1.2990   -2.1346    0.0000 C   0  0  0  0  0  0  0  0  0  0  0  0
    1.2990    0.8654    0.0000 C   0  0  0  0  0  0  0  0  0  0  0  0
    2.5981    0.1154    0.0000 C   0  0  0  0  0  0  0  0  0  0  0  0
    2.5981   -1.3846    0.0000 C   0  0  0  0  0  0  0  0  0  0  0  0
   -0.0000    1.6154    0.0000 C   0  0  0  0  0  0  0  0  0  0  0  0
   -1.2990    2.3654    0.0000 O   0  0  0  0  0  0  0  0  0  0  0  0
    1.2990    2.3654    0.0000 O   0  0  0  0  0  0  0  0  0  0  0  0
  1  2  1  0
  2  3  1  0
  3  4  1  0
  4  5  1  0
  5  6  1  0
  6  7  1  0
  3  8  1  0
  8  9  1  0
  9 10  1  0
  3 11  1  6
 11 12  2  0
 11 13  1  0
  2  7  1  6
 10  1  1  0
M  END
>  <rName>  (153) 
2-azabicyclo440decane-6-CO2H_1R_6R

>  <PQ_SYMBOL>  (153) 
2-azabicyclo440decane-6-CO2H_1R_6R

>  <FULL_NAME>  (153) 
O=C(O)[C@@]12CCCC[C@H]1NCCC2

>  <IUPAC_CONDENSED>  (153) 
2-azabicyclo[4.4.0]decane-6-CO2H(1R,6R)

>  <IUPAC>  (153) 
(1R,6R)-2-azabicyclo[4.4.0]decane-6-carboxylic acid

>  <TYPE>  (153) 
Backbone

>  <CLASS>  (153) 
beta

>  <ANALOG>  (153) 
Leu

>  <MOL_WT>  (153) 
183.251

>  <LOGP>  (153) 
1.3834

>  <TPSA>  (153) 
49.33

>  <POPULARITY>  (153) 
4.1

>  <PROTECTED>  (153) 
TRUE

>  <SMILES>  (153) 
N2[C@H]1[C@@](CCCC1)(CCC2)C(=O)O

>  <INCHIKEY>  (153) 
CXELCNCRJSTZGP-PSASIEDQSA-N

$$$$
2-azaspiro33heptane-6-CO2H
     RDKit          2D

 10 11  0  0  0  0  0  0  0  0999 V2000
    3.3577    0.0000    0.0000 N   0  0  0  0  0  0  0  0  0  0  0  0
    2.2971   -1.0607    0.0000 C   0  0  0  0  0  0  0  0  0  0  0  0
    1.2364    0.0000    0.0000 C   0  0  0  0  0  0  0  0  0  0  0  0
    2.2971    1.0607    0.0000 C   0  0  0  0  0  0  0  0  0  0  0  0
    0.1757    1.0607    0.0000 C   0  0  0  0  0  0  0  0  0  0  0  0
   -0.8849    0.0000    0.0000 C   0  0  0  0  0  0  0  0  0  0  0  0
    0.1757   -1.0607    0.0000 C   0  0  0  0  0  0  0  0  0  0  0  0
   -2.3849   -0.0000    0.0000 C   0  0  0  0  0  0  0  0  0  0  0  0
   -3.1349   -1.2990    0.0000 O   0  0  0  0  0  0  0  0  0  0  0  0
   -3.1349    1.2990    0.0000 O   0  0  0  0  0  0  0  0  0  0  0  0
  1  2  1  0
  2  3  1  0
  3  4  1  0
  3  5  1  0
  5  6  1  0
  6  7  1  0
  6  8  1  0
  8  9  2  0
  8 10  1  0
  7  3  1  0
  4  1  1  0
M  END
>  <rName>  (154) 
2-azaspiro33heptane-6-CO2H

>  <PQ_SYMBOL>  (154) 
2-azaspiro33heptane-6-CO2H

>  <FULL_NAME>  (154) 
2-Azaspiro[3.3]heptane-6-carboxylic acid

>  <IUPAC_CONDENSED>  (154) 
2-azaspiro[3.3]heptane-6-CO2H

>  <IUPAC>  (154) 
2-azaspiro[3.3]heptane-6-carboxylic acid

>  <TYPE>  (154) 
Backbone

>  <CLASS>  (154) 
delta

>  <ANALOG>  (154) 
Ala

>  <MOL_WT>  (154) 
141.17

>  <LOGP>  (154) 
0.07059999999999994

>  <TPSA>  (154) 
49.33

>  <POPULARITY>  (154) 
5.3

>  <PROTECTED>  (154) 
TRUE

>  <SMILES>  (154) 
N2CC1(C2)CC(C1)C(=O)O

>  <INCHIKEY>  (154) 
ACGZSACKMXZHNC-UHFFFAOYSA-N

$$$$
2-azaspiro33heptane-6-CO2H_55diMe
     RDKit          2D

 12 13  0  0  0  0  0  0  0  0999 V2000
   -3.3219   -0.4102    0.0000 N   0  0  0  0  0  0  0  0  0  0  0  0
   -2.2795    0.6684    0.0000 C   0  0  0  0  0  0  0  0  0  0  0  0
   -1.2009   -0.3741    0.0000 C   0  0  0  0  0  0  0  0  0  0  0  0
   -2.2434   -1.4526    0.0000 C   0  0  0  0  0  0  0  0  0  0  0  0
   -0.1223   -1.4165    0.0000 C   0  0  0  0  0  0  0  0  0  0  0  0
    0.9201   -0.3379    0.0000 C   0  0  0  0  0  0  0  0  0  0  0  0
   -0.1585    0.7045    0.0000 C   0  0  0  0  0  0  0  0  0  0  0  0
   -1.2370    1.7470    0.0000 C   0  0  0  0  0  0  0  0  0  0  0  0
    0.8840    1.7831    0.0000 C   0  0  0  0  0  0  0  0  0  0  0  0
    2.4199   -0.3124    0.0000 C   0  0  0  0  0  0  0  0  0  0  0  0
    3.1477    0.9992    0.0000 O   0  0  0  0  0  0  0  0  0  0  0  0
    3.1919   -1.5985    0.0000 O   0  0  0  0  0  0  0  0  0  0  0  0
  1  2  1  0
  2  3  1  0
  3  4  1  0
  3  5  1  0
  5  6  1  0
  6  7  1  0
  7  8  1  0
  7  9  1  0
  6 10  1  0
 10 11  2  0
 10 12  1  0
  7  3  1  0
  4  1  1  0
M  END
>  <rName>  (155) 
2-azaspiro33heptane-6-CO2H_55diMe

>  <PQ_SYMBOL>  (155) 
2-azaspiro33heptane-6-CO2H_55diMe

>  <FULL_NAME>  (155) 
CC1(C)C(C(=O)O)CC12CNC2

>  <IUPAC_CONDENSED>  (155) 
2-azaspiro[3.3]heptane-6-CO2H(5,5-diMe)

>  <IUPAC>  (155) 
5,5-dimethyl-2-azaspiro[3.3]heptane-6-carboxylic acid

>  <TYPE>  (155) 
Backbone

>  <CLASS>  (155) 
delta

>  <ANALOG>  (155) 
Val

>  <MOL_WT>  (155) 
169.224

>  <LOGP>  (155) 
0.7066999999999999

>  <TPSA>  (155) 
49.33

>  <POPULARITY>  (155) 
2.2

>  <PROTECTED>  (155) 
TRUE

>  <SMILES>  (155) 
N2CC1(C2)CC(C1(C)C)C(=O)O

>  <INCHIKEY>  (155) 
HIGARHFESRUELM-UHFFFAOYSA-N

$$$$
2-azaspiro33heptane-6-CO2H_6F
     RDKit          2D

 11 12  0  0  0  0  0  0  0  0999 V2000
    3.3729   -0.3107    0.0000 N   0  0  0  0  0  0  0  0  0  0  0  0
    2.1418   -1.1676    0.0000 C   0  0  0  0  0  0  0  0  0  0  0  0
    1.2849    0.0636    0.0000 C   0  0  0  0  0  0  0  0  0  0  0  0
    2.5160    0.9205    0.0000 C   0  0  0  0  0  0  0  0  0  0  0  0
    0.4280    1.2947    0.0000 C   0  0  0  0  0  0  0  0  0  0  0  0
   -0.8032    0.4378    0.0000 C   0  0  0  0  0  0  0  0  0  0  0  0
   -1.6601    1.6690    0.0000 F   0  0  0  0  0  0  0  0  0  0  0  0
    0.0537   -0.7933    0.0000 C   0  0  0  0  0  0  0  0  0  0  0  0
   -2.0343   -0.4191    0.0000 C   0  0  0  0  0  0  0  0  0  0  0  0
   -1.9078   -1.9137    0.0000 O   0  0  0  0  0  0  0  0  0  0  0  0
   -3.3920    0.2187    0.0000 O   0  0  0  0  0  0  0  0  0  0  0  0
  1  2  1  0
  2  3  1  0
  3  4  1  0
  3  5  1  0
  5  6  1  0
  6  7  1  0
  6  8  1  0
  6  9  1  0
  9 10  2  0
  9 11  1  0
  8  3  1  0
  4  1  1  0
M  END
>  <rName>  (156) 
2-azaspiro33heptane-6-CO2H_6F

>  <PQ_SYMBOL>  (156) 
2-azaspiro33heptane-6-CO2H_6F

>  <FULL_NAME>  (156) 
O=C(O)C1(F)CC2(CNC2)C1

>  <IUPAC_CONDENSED>  (156) 
2-azaspiro[3.3]heptane-6-CO2H(6-F)

>  <IUPAC>  (156) 
6-fluoro-2-azaspiro[3.3]heptane-6-carboxylic acid

>  <TYPE>  (156) 
Backbone

>  <CLASS>  (156) 
delta

>  <ANALOG>  (156) 
Ala

>  <MOL_WT>  (156) 
159.16

>  <LOGP>  (156) 
0.1627

>  <TPSA>  (156) 
49.33

>  <POPULARITY>  (156) 
2.3

>  <PROTECTED>  (156) 
TRUE

>  <SMILES>  (156) 
N2CC1(C2)CC(F)(C1)C(=O)O

>  <INCHIKEY>  (156) 
SRUOZKZKOAUTJG-UHFFFAOYSA-N

$$$$
2-azaspiro33heptane-6-CO2H_6OMe
     RDKit          2D

 12 13  0  0  0  0  0  0  0  0999 V2000
    3.4971   -0.2138    0.0000 N   0  0  0  0  0  0  0  0  0  0  0  0
    2.3579   -1.1897    0.0000 C   0  0  0  0  0  0  0  0  0  0  0  0
    1.3821   -0.0505    0.0000 C   0  0  0  0  0  0  0  0  0  0  0  0
    2.5212    0.9254    0.0000 C   0  0  0  0  0  0  0  0  0  0  0  0
    0.4062    1.0887    0.0000 C   0  0  0  0  0  0  0  0  0  0  0  0
   -0.7330    0.1128    0.0000 C   0  0  0  0  0  0  0  0  0  0  0  0
   -1.7088    1.2519    0.0000 O   0  0  0  0  0  0  0  0  0  0  0  0
   -1.2102    2.6667    0.0000 C   0  0  0  0  0  0  0  0  0  0  0  0
    0.2429   -1.0264    0.0000 C   0  0  0  0  0  0  0  0  0  0  0  0
   -1.8721   -0.8631    0.0000 C   0  0  0  0  0  0  0  0  0  0  0  0
   -1.5966   -2.3376    0.0000 O   0  0  0  0  0  0  0  0  0  0  0  0
   -3.2868   -0.3645    0.0000 O   0  0  0  0  0  0  0  0  0  0  0  0
  1  2  1  0
  2  3  1  0
  3  4  1  0
  3  5  1  0
  5  6  1  0
  6  7  1  0
  7  8  1  0
  6  9  1  0
  6 10  1  0
 10 11  2  0
 10 12  1  0
  9  3  1  0
  4  1  1  0
M  END
>  <rName>  (157) 
2-azaspiro33heptane-6-CO2H_6OMe

>  <PQ_SYMBOL>  (157) 
2-azaspiro33heptane-6-CO2H_6OMe

>  <FULL_NAME>  (157) 
COC1(C(=O)O)CC2(CNC2)C1

>  <IUPAC_CONDENSED>  (157) 
2-azaspiro[3.3]heptane-6-CO2H(6-OMe)

>  <IUPAC>  (157) 
6-methoxy-2-azaspiro[3.3]heptane-6-carboxylic acid

>  <TYPE>  (157) 
Backbone

>  <CLASS>  (157) 
delta

>  <ANALOG>  (157) 
Ser

>  <MOL_WT>  (157) 
171.196

>  <LOGP>  (157) 
-0.16040000000000038

>  <TPSA>  (157) 
58.56

>  <POPULARITY>  (157) 
2.3

>  <PROTECTED>  (157) 
TRUE

>  <SMILES>  (157) 
N2CC1(C2)CC(OC)(C1)C(=O)O

>  <INCHIKEY>  (157) 
FVFZGGZKKWLBOZ-UHFFFAOYSA-N

$$$$
2-azaspiro35nonane-7-CO2H
     RDKit          2D

 12 13  0  0  0  0  0  0  0  0999 V2000
    3.7678    0.0000    0.0000 N   0  0  0  0  0  0  0  0  0  0  0  0
    2.7071   -1.0607    0.0000 C   0  0  0  0  0  0  0  0  0  0  0  0
    1.6464    0.0000    0.0000 C   0  0  0  0  0  0  0  0  0  0  0  0
    2.7071    1.0607    0.0000 C   0  0  0  0  0  0  0  0  0  0  0  0
    0.8964    1.2990    0.0000 C   0  0  0  0  0  0  0  0  0  0  0  0
   -0.6036    1.2990    0.0000 C   0  0  0  0  0  0  0  0  0  0  0  0
   -1.3536   -0.0000    0.0000 C   0  0  0  0  0  0  0  0  0  0  0  0
   -0.6036   -1.2990    0.0000 C   0  0  0  0  0  0  0  0  0  0  0  0
    0.8964   -1.2990    0.0000 C   0  0  0  0  0  0  0  0  0  0  0  0
   -2.8536   -0.0000    0.0000 C   0  0  0  0  0  0  0  0  0  0  0  0
   -3.6036   -1.2990    0.0000 O   0  0  0  0  0  0  0  0  0  0  0  0
   -3.6036    1.2990    0.0000 O   0  0  0  0  0  0  0  0  0  0  0  0
  1  2  1  0
  2  3  1  0
  3  4  1  0
  3  5  1  0
  5  6  1  0
  6  7  1  0
  7  8  1  0
  8  9  1  0
  7 10  1  0
 10 11  2  0
 10 12  1  0
  9  3  1  0
  4  1  1  0
M  END
>  <rName>  (158) 
2-azaspiro35nonane-7-CO2H

>  <PQ_SYMBOL>  (158) 
2-azaspiro35nonane-7-CO2H

>  <FULL_NAME>  (158) 
2-Azaspiro[3.5]nonane-7-carboxylic acid

>  <IUPAC_CONDENSED>  (158) 
2-azaspiro[3.5]nonane-7-CO2H

>  <IUPAC>  (158) 
2-azaspiro[3.5]nonane-7-carboxylic acid

>  <TYPE>  (158) 
Backbone

>  <CLASS>  (158) 
epsilon

>  <ANALOG>  (158) 
Val

>  <MOL_WT>  (158) 
169.224

>  <LOGP>  (158) 
0.8507999999999998

>  <TPSA>  (158) 
49.33

>  <POPULARITY>  (158) 
3.9

>  <PROTECTED>  (158) 
TRUE

>  <SMILES>  (158) 
N2CC1(C2)CCC(CC1)C(=O)O

>  <INCHIKEY>  (158) 
YFRJILGFZYLORQ-UHFFFAOYSA-N

$$$$
2-azaspiro44nonane-4-CO2H
     RDKit          2D

 12 13  0  0  0  0  0  0  0  0999 V2000
   -0.1698   -2.7087    0.0000 N   0  0  0  0  0  0  0  0  0  0  0  0
    1.1200   -1.9428    0.0000 C   0  0  0  0  0  0  0  0  0  0  0  0
    0.7902   -0.4795    0.0000 C   0  0  0  0  0  0  0  0  0  0  0  0
   -0.7034   -0.3410    0.0000 C   0  0  0  0  0  0  0  0  0  0  0  0
   -2.1970   -0.2025    0.0000 C   0  0  0  0  0  0  0  0  0  0  0  0
   -2.5268    1.2608    0.0000 C   0  0  0  0  0  0  0  0  0  0  0  0
   -1.2370    2.0267    0.0000 C   0  0  0  0  0  0  0  0  0  0  0  0
   -0.1101    1.0367    0.0000 C   0  0  0  0  0  0  0  0  0  0  0  0
   -1.2967   -1.7187    0.0000 C   0  0  0  0  0  0  0  0  0  0  0  0
    1.7802    0.6474    0.0000 C   0  0  0  0  0  0  0  0  0  0  0  0
    1.2993    2.0682    0.0000 O   0  0  0  0  0  0  0  0  0  0  0  0
    3.2511    0.3535    0.0000 O   0  0  0  0  0  0  0  0  0  0  0  0
  1  2  1  0
  2  3  1  0
  3  4  1  0
  4  5  1  0
  5  6  1  0
  6  7  1  0
  7  8  1  0
  4  9  1  0
  3 10  1  0
 10 11  2  0
 10 12  1  0
  8  4  1  0
  9  1  1  0
M  END
>  <rName>  (159) 
2-azaspiro44nonane-4-CO2H

>  <PQ_SYMBOL>  (159) 
2-azaspiro44nonane-4-CO2H

>  <FULL_NAME>  (159) 
2-Azaspiro[4.4]nonane-4-carboxylic acid

>  <IUPAC_CONDENSED>  (159) 
2-azaspiro[4.4]nonane-4-CO2H

>  <IUPAC>  (159) 
2-azaspiro[4.4]nonane-4-carboxylic acid

>  <TYPE>  (159) 
Backbone

>  <CLASS>  (159) 
beta

>  <ANALOG>  (159) 
Pro

>  <MOL_WT>  (159) 
169.22400000000002

>  <LOGP>  (159) 
0.8507999999999998

>  <TPSA>  (159) 
49.33

>  <POPULARITY>  (159) 
4.5

>  <PROTECTED>  (159) 
TRUE

>  <SMILES>  (159) 
N2CC(C1(CCCC1)C2)C(=O)O

>  <INCHIKEY>  (159) 
DMFMLGZCITVPRB-UHFFFAOYSA-N

$$$$
2-azaspiro46undecane-4-CO2H_66diF
     RDKit          2D

 16 17  0  0  0  0  0  0  0  0999 V2000
   -0.1446   -2.8056    0.0000 N   0  0  0  0  0  0  0  0  0  0  0  0
   -1.5102   -2.1850    0.0000 C   0  0  0  0  0  0  0  0  0  0  0  0
   -1.3420   -0.6945    0.0000 C   0  0  0  0  0  0  0  0  0  0  0  0
    0.1276   -0.3939    0.0000 C   0  0  0  0  0  0  0  0  0  0  0  0
   -0.8335    0.7578    0.0000 C   0  0  0  0  0  0  0  0  0  0  0  0
   -0.5323    2.2272    0.0000 C   0  0  0  0  0  0  0  0  0  0  0  0
    0.8043    2.9079    0.0000 C   0  0  0  0  0  0  0  0  0  0  0  0
    2.1699    2.2873    0.0000 C   0  0  0  0  0  0  0  0  0  0  0  0
    2.5362    0.8327    0.0000 C   0  0  0  0  0  0  0  0  0  0  0  0
    1.6272   -0.3605    0.0000 C   0  0  0  0  0  0  0  0  0  0  0  0
    2.9928   -0.9811    0.0000 F   0  0  0  0  0  0  0  0  0  0  0  0
    1.6906   -1.8592    0.0000 F   0  0  0  0  0  0  0  0  0  0  0  0
    0.8676   -1.6986    0.0000 C   0  0  0  0  0  0  0  0  0  0  0  0
   -2.4489    0.3177    0.0000 C   0  0  0  0  0  0  0  0  0  0  0  0
   -2.1258    1.7825    0.0000 O   0  0  0  0  0  0  0  0  0  0  0  0
   -3.8790   -0.1348    0.0000 O   0  0  0  0  0  0  0  0  0  0  0  0
  1  2  1  0
  2  3  1  0
  3  4  1  0
  4  5  1  0
  5  6  1  0
  6  7  1  0
  7  8  1  0
  8  9  1  0
  9 10  1  0
 10 11  1  0
 10 12  1  0
  4 13  1  0
  3 14  1  0
 14 15  2  0
 14 16  1  0
 10  4  1  0
 13  1  1  0
M  END
>  <rName>  (160) 
2-azaspiro46undecane-4-CO2H_66diF

>  <PQ_SYMBOL>  (160) 
2-azaspiro46undecane-4-CO2H_66diF

>  <FULL_NAME>  (160) 
6,6-Difluoro-2-azaspiro[4.6]undecane-4-carboxylic acid

>  <IUPAC_CONDENSED>  (160) 
2-azaspiro[4.6]undecane-4-CO2H(6,6-diF)

>  <IUPAC>  (160) 
6,6-difluoro-2-azaspiro[4.6]undecane-4-carboxylic acid

>  <TYPE>  (160) 
Backbone

>  <CLASS>  (160) 
beta

>  <ANALOG>  (160) 
Pro

>  <MOL_WT>  (160) 
233.25799999999998

>  <LOGP>  (160) 
1.8762

>  <TPSA>  (160) 
49.33

>  <POPULARITY>  (160) 
2.6

>  <PROTECTED>  (160) 
TRUE

>  <SMILES>  (160) 
N2CC(C1(CCCCCC1(F)F)(C2))C(=O)O

>  <INCHIKEY>  (160) 
BOPSTLQIAQFRTN-UHFFFAOYSA-N

$$$$
2-carboxyethyl-bAla
     RDKit          2D

 11 10  0  0  0  0  0  0  0  0999 V2000
    0.0000    0.6818    0.0000 N   0  0  0  0  0  0  0  0  0  0  0  0
    1.2990   -0.0682    0.0000 C   0  0  0  0  0  0  0  0  0  0  0  0
    2.5981    0.6818    0.0000 C   0  0  0  0  0  0  0  0  0  0  0  0
    3.8971   -0.0682    0.0000 C   0  0  0  0  0  0  0  0  0  0  0  0
    3.8971   -1.5682    0.0000 O   0  0  0  0  0  0  0  0  0  0  0  0
    5.1962    0.6818    0.0000 O   0  0  0  0  0  0  0  0  0  0  0  0
   -1.2990   -0.0682    0.0000 C   0  0  0  0  0  0  0  0  0  0  0  0
   -2.5981    0.6818    0.0000 C   0  0  0  0  0  0  0  0  0  0  0  0
   -3.8971   -0.0682    0.0000 C   0  0  0  0  0  0  0  0  0  0  0  0
   -3.8971   -1.5682    0.0000 O   0  0  0  0  0  0  0  0  0  0  0  0
   -5.1962    0.6818    0.0000 O   0  0  0  0  0  0  0  0  0  0  0  0
  1  2  1  0
  2  3  1  0
  3  4  1  0
  4  5  2  0
  4  6  1  0
  1  7  1  0
  7  8  1  0
  8  9  1  0
  9 10  2  0
  9 11  1  0
M  END
>  <rName>  (161) 
2-carboxyethyl-bAla

>  <PQ_SYMBOL>  (161) 
2-carboxyethyl-bAla

>  <FULL_NAME>  (161) 
N-(2-carboxyethyl)-beta-alanine

>  <IUPAC_CONDENSED>  (161) 
2-carboxyethyl-bAla

>  <IUPAC>  (161) 
3-(2-carboxyethylamino)propanoic acid

>  <TYPE>  (161) 
Backbone

>  <CLASS>  (161) 
beta

>  <ANALOG>  (161) 
Gly

>  <MOL_WT>  (161) 
161.15699999999998

>  <LOGP>  (161) 
-0.4746000000000002

>  <TPSA>  (161) 
86.63000000000001

>  <POPULARITY>  (161) 
3.5

>  <PROTECTED>  (161) 
TRUE

>  <SMILES>  (161) 
N(CCC(=O)O)CCC(=O)O

>  <INCHIKEY>  (161) 
TXPKUUXHNFRBPS-UHFFFAOYSA-N

$$$$
2-guanidinoacetyl
     RDKit          2D

  8  7  0  0  0  0  0  0  0  0999 V2000
   -3.1182    0.9820    0.0000 N   0  0  0  0  0  0  0  0  0  0  0  0
   -1.9843   -0.0000    0.0000 C   0  0  0  0  0  0  0  0  0  0  0  0
   -2.2678   -1.4730    0.0000 N   0  0  0  0  0  0  0  0  0  0  0  0
   -0.5669    0.4910    0.0000 N   0  0  0  0  0  0  0  0  0  0  0  0
    0.5669   -0.4910    0.0000 C   0  0  0  0  0  0  0  0  0  0  0  0
    1.9843    0.0000    0.0000 C   0  0  0  0  0  0  0  0  0  0  0  0
    2.2678    1.4730    0.0000 O   0  0  0  0  0  0  0  0  0  0  0  0
    3.1182   -0.9820    0.0000 O   0  0  0  0  0  0  0  0  0  0  0  0
  1  2  1  0
  2  3  2  0
  2  4  1  0
  4  5  1  0
  5  6  1  0
  6  7  2  0
  6  8  1  0
M  END
>  <rName>  (162) 
2-guanidinoacetyl

>  <PQ_SYMBOL>  (162) 
2-guanidinoacetyl

>  <FULL_NAME>  (162) 
2-(diaminomethylideneamino)acetic acid

>  <IUPAC_CONDENSED>  (162) 
2-guanidinoacetyl

>  <IUPAC>  (162) 
2-(((amino)(imino)methyl)amino)acetic acid

>  <TYPE>  (162) 
N-term cap

>  <CLASS>  (162) 
n_cap

>  <ANALOG>  (162) 
X

>  <MOL_WT>  (162) 
117.10799999999999

>  <LOGP>  (162) 
-1.4459299999999997

>  <TPSA>  (162) 
99.2

>  <POPULARITY>  (162) 
15.8

>  <PROTECTED>  (162) 
TRUE

>  <SMILES>  (162) 
NC(=N)NCC(=O)O

>  <INCHIKEY>  (162) 
BPMFZUMJYQTVII-UHFFFAOYSA-N

$$$$
2-hydroxyacetyl
     RDKit          2D

  5  4  0  0  0  0  0  0  0  0999 V2000
   -2.0785    0.0000    0.0000 O   0  0  0  0  0  0  0  0  0  0  0  0
   -0.7794   -0.7500    0.0000 C   0  0  0  0  0  0  0  0  0  0  0  0
    0.5196   -0.0000    0.0000 C   0  0  0  0  0  0  0  0  0  0  0  0
    0.5196    1.5000    0.0000 O   0  0  0  0  0  0  0  0  0  0  0  0
    1.8187   -0.7500    0.0000 O   0  0  0  0  0  0  0  0  0  0  0  0
  1  2  1  0
  2  3  1  0
  3  4  2  0
  3  5  1  0
M  END
>  <rName>  (163) 
2-hydroxyacetyl

>  <PQ_SYMBOL>  (163) 
2-hydroxyacetyl

>  <FULL_NAME>  (163) 
Hydroxyacetic acid, glycolic acid

>  <IUPAC_CONDENSED>  (163) 
2-hydroxyacetyl

>  <IUPAC>  (163) 
2-hydroxyacetic acid

>  <TYPE>  (163) 
N-term cap

>  <CLASS>  (163) 
n_cap

>  <ANALOG>  (163) 
X

>  <MOL_WT>  (163) 
76.051

>  <LOGP>  (163) 
-0.9367000000000001

>  <TPSA>  (163) 
57.53

>  <POPULARITY>  (163) 
14.9

>  <PROTECTED>  (163) 
FALSE

>  <SMILES>  (163) 
OCC(=O)O

>  <INCHIKEY>  (163) 
AEMRFAOFKBGASW-UHFFFAOYSA-N

$$$$
2-methylamino-cyclohexane-1-CO2H_1R_2S
     RDKit          2D

 11 11  0  0  0  0  0  0  0  0999 V2000
    0.0316   -2.0361    0.0000 N   0  0  0  0  0  0  0  0  0  0  0  0
    1.0063   -3.1763    0.0000 C   0  0  0  0  0  0  0  0  0  0  0  0
    0.5316   -0.6219    0.0000 C   0  0  0  0  0  0  0  0  0  0  0  0
   -0.4430    0.5183    0.0000 C   0  0  0  0  0  0  0  0  0  0  0  0
    0.0570    1.9324    0.0000 C   0  0  0  0  0  0  0  0  0  0  0  0
    1.5318    2.2065    0.0000 C   0  0  0  0  0  0  0  0  0  0  0  0
    2.5065    1.0663    0.0000 C   0  0  0  0  0  0  0  0  0  0  0  0
    2.0064   -0.3479    0.0000 C   0  0  0  0  0  0  0  0  0  0  0  0
   -1.9178    0.2442    0.0000 C   0  0  0  0  0  0  0  0  0  0  0  0
   -2.4179   -1.1699    0.0000 O   0  0  0  0  0  0  0  0  0  0  0  0
   -2.8925    1.3844    0.0000 O   0  0  0  0  0  0  0  0  0  0  0  0
  1  2  1  0
  3  1  1  6
  3  4  1  0
  4  5  1  0
  5  6  1  0
  6  7  1  0
  7  8  1  0
  4  9  1  6
  9 10  2  0
  9 11  1  0
  8  3  1  0
M  END
>  <rName>  (164) 
2-methylamino-cyclohexane-1-CO2H_1R_2S

>  <PQ_SYMBOL>  (164) 
2-methylamino-cyclohexane-1-CO2H_1R_2S

>  <FULL_NAME>  (164) 
cis-(1R,2S)-2-(methylamino)cyclohexane-1-carboxylic acid

>  <IUPAC_CONDENSED>  (164) 
2-methylamino-cyclohexane-1-CO2H(1R,2S)

>  <IUPAC>  (164) 
(1R,2S)-2-(methylamino)cyclohexanecarboxylic acid

>  <TYPE>  (164) 
Backbone

>  <CLASS>  (164) 
beta

>  <ANALOG>  (164) 
Leu

>  <MOL_WT>  (164) 
157.21300000000002

>  <LOGP>  (164) 
0.8492

>  <TPSA>  (164) 
49.33

>  <POPULARITY>  (164) 
6.8

>  <PROTECTED>  (164) 
TRUE

>  <SMILES>  (164) 
N(C)[C@@H]1[C@@H](CCCC1)C(=O)O

>  <INCHIKEY>  (164) 
WBWLQVJMCJPYHB-RQJHMYQMSA-N

$$$$
2-methylamino-cyclopentane-1-CO2H_1R_2S
     RDKit          2D

 10 10  0  0  0  0  0  0  0  0999 V2000
   -1.4299   -1.4129    0.0000 N   0  0  0  0  0  0  0  0  0  0  0  0
   -2.9143   -1.6284    0.0000 C   0  0  0  0  0  0  0  0  0  0  0  0
   -0.8743   -0.0196    0.0000 C   0  0  0  0  0  0  0  0  0  0  0  0
    0.5795    0.3498    0.0000 C   0  0  0  0  0  0  0  0  0  0  0  0
    0.6774    1.8466    0.0000 C   0  0  0  0  0  0  0  0  0  0  0  0
   -0.7159    2.4022    0.0000 C   0  0  0  0  0  0  0  0  0  0  0  0
   -1.6749    1.2488    0.0000 C   0  0  0  0  0  0  0  0  0  0  0  0
    1.7329   -0.6092    0.0000 C   0  0  0  0  0  0  0  0  0  0  0  0
    3.1402   -0.0898    0.0000 O   0  0  0  0  0  0  0  0  0  0  0  0
    1.4791   -2.0876    0.0000 O   0  0  0  0  0  0  0  0  0  0  0  0
  1  2  1  0
  3  1  1  1
  3  4  1  0
  4  5  1  0
  5  6  1  0
  6  7  1  0
  4  8  1  1
  8  9  2  0
  8 10  1  0
  7  3  1  0
M  END
>  <rName>  (165) 
2-methylamino-cyclopentane-1-CO2H_1R_2S

>  <PQ_SYMBOL>  (165) 
2-methylamino-cyclopentane-1-CO2H_1R_2S

>  <FULL_NAME>  (165) 
cis-(1R,2S)-2-(methylamino)cyclopentane-1-carboxylic acid

>  <IUPAC_CONDENSED>  (165) 
2-methylamino-cyclopentane-1-CO2H(1R,2S)

>  <IUPAC>  (165) 
(1R,2S)-2-(methylamino)cyclopentanecarboxylic acid

>  <TYPE>  (165) 
Backbone

>  <CLASS>  (165) 
beta

>  <ANALOG>  (165) 
Val

>  <MOL_WT>  (165) 
143.186

>  <LOGP>  (165) 
0.4591

>  <TPSA>  (165) 
49.33

>  <POPULARITY>  (165) 
6.5

>  <PROTECTED>  (165) 
TRUE

>  <SMILES>  (165) 
N(C)[C@@H]1[C@@H](CCC1)C(=O)O

>  <INCHIKEY>  (165) 
MPGUVRBNVYQGKN-RITPCOANSA-N

$$$$
2-oxa-5-azabicyclo221heptane-1-CO2H
     RDKit          2D

 10 11  0  0  0  0  0  0  0  0999 V2000
    1.1080   -0.6448    0.0000 N   0  0  0  0  0  0  0  0  0  0  0  0
    1.2851    0.7641    0.0000 C   0  0  0  0  0  0  0  0  0  0  0  0
    0.1535    1.6219    0.0000 C   0  0  0  0  0  0  0  0  0  0  0  0
   -1.1552    1.0708    0.0000 O   0  0  0  0  0  0  0  0  0  0  0  0
   -1.3323   -0.3381    0.0000 C   0  0  0  0  0  0  0  0  0  0  0  0
   -0.2007   -1.1959    0.0000 C   0  0  0  0  0  0  0  0  0  0  0  0
    0.4725    0.1507    0.0000 C   0  0  0  0  0  0  0  0  0  0  0  0
   -0.0236    0.2130    0.0000 C   0  0  0  0  0  0  0  0  0  0  0  0
    0.9170   -0.9555    0.0000 O   0  0  0  0  0  0  0  0  0  0  0  0
   -1.2241   -0.6863    0.0000 O   0  0  0  0  0  0  0  0  0  0  0  0
  1  2  1  0
  2  3  1  0
  3  4  1  0
  4  5  1  0
  5  6  1  0
  6  7  1  0
  3  8  1  0
  8  9  2  0
  8 10  1  0
  6  1  1  0
  7  3  1  0
M  END
>  <rName>  (166) 
2-oxa-5-azabicyclo221heptane-1-CO2H

>  <PQ_SYMBOL>  (166) 
2-oxa-5-azabicyclo221heptane-1-CO2H

>  <FULL_NAME>  (166) 
2-Oxa-5-azabicyclo[2.2.1]heptane-1-carboxylic acid

>  <IUPAC_CONDENSED>  (166) 
2-oxa-5-azabicyclo[2.2.1]heptane-1-CO2H

>  <IUPAC>  (166) 
2-oxa-5-azabicyclo[2.2.1]heptane-1-carboxylic acid

>  <TYPE>  (166) 
Backbone

>  <CLASS>  (166) 
beta

>  <ANALOG>  (166) 
Pro

>  <MOL_WT>  (166) 
143.142

>  <LOGP>  (166) 
-0.7981000000000005

>  <TPSA>  (166) 
58.56

>  <POPULARITY>  (166) 
3.6

>  <PROTECTED>  (166) 
TRUE

>  <SMILES>  (166) 
N1CC2(OCC1C2)C(=O)O

>  <INCHIKEY>  (166) 
OOVPAUJTGIEXES-UHFFFAOYSA-N

$$$$
2-oxa-5-azabicyclo420octan-3-yl_1R_3R_6S_Ac
     RDKit          2D

 12 13  0  0  0  0  0  0  0  0999 V2000
    1.0635    1.6200    0.0000 N   0  0  0  0  0  0  0  0  0  0  0  0
   -0.3257    1.0543    0.0000 C   0  0  0  0  0  0  0  0  0  0  0  0
   -0.5304   -0.4317    0.0000 C   0  0  0  0  0  0  0  0  0  0  0  0
    0.6542   -1.3519    0.0000 O   0  0  0  0  0  0  0  0  0  0  0  0
    2.0434   -0.7862    0.0000 C   0  0  0  0  0  0  0  0  0  0  0  0
    3.5294   -0.9909    0.0000 C   0  0  0  0  0  0  0  0  0  0  0  0
    3.7341    0.4951    0.0000 C   0  0  0  0  0  0  0  0  0  0  0  0
    2.2481    0.6998    0.0000 C   0  0  0  0  0  0  0  0  0  0  0  0
   -1.9196   -0.9974    0.0000 C   0  0  0  0  0  0  0  0  0  0  0  0
   -3.1041   -0.0771    0.0000 C   0  0  0  0  0  0  0  0  0  0  0  0
   -2.8995    1.4088    0.0000 O   0  0  0  0  0  0  0  0  0  0  0  0
   -4.4934   -0.6429    0.0000 O   0  0  0  0  0  0  0  0  0  0  0  0
  1  2  1  0
  2  3  1  0
  3  4  1  0
  4  5  1  0
  5  6  1  1
  6  7  1  0
  8  7  1  1
  3  9  1  6
  9 10  1  0
 10 11  2  0
 10 12  1  0
  8  1  1  0
  8  5  1  0
M  END
>  <rName>  (167) 
2-oxa-5-azabicyclo420octan-3-yl_1R_3R_6S_Ac

>  <PQ_SYMBOL>  (167) 
2-oxa-5-azabicyclo420octan-3-yl_1R_3R_6S_Ac

>  <FULL_NAME>  (167) 
O=C(O)C[C@@H]1CN[C@H]2CC[C@H]2O1

>  <IUPAC_CONDENSED>  (167) 
2-oxa-5-azabicyclo[4.2.0]octan-3-yl(1R,3R,6S)Ac

>  <IUPAC>  (167) 
2-((1R,3R,6S)-2-oxa-5-azabicyclo[4.2.0]octan-3-yl)acetic acid

>  <TYPE>  (167) 
Backbone

>  <CLASS>  (167) 
gamma

>  <ANALOG>  (167) 
Pro

>  <MOL_WT>  (167) 
171.196

>  <LOGP>  (167) 
-0.019500000000000572

>  <TPSA>  (167) 
58.56

>  <POPULARITY>  (167) 
2.4

>  <PROTECTED>  (167) 
TRUE

>  <SMILES>  (167) 
N1C[C@H](O[C@@H]2(CC[C@H]12))CC(=O)O

>  <INCHIKEY>  (167) 
RXMRPDCEJQRCDY-DSYKOEDSSA-N

$$$$
2-oxa-5-azabicyclo420octane-3-CO2H_1R_3R_6S
     RDKit          2D

 11 12  0  0  0  0  0  0  0  0999 V2000
    0.9484    1.7638    0.0000 N   0  0  0  0  0  0  0  0  0  0  0  0
   -0.5247    1.4812    0.0000 C   0  0  0  0  0  0  0  0  0  0  0  0
   -1.0165    0.0640    0.0000 C   0  0  0  0  0  0  0  0  0  0  0  0
   -0.0351   -1.0704    0.0000 O   0  0  0  0  0  0  0  0  0  0  0  0
    1.4380   -0.7877    0.0000 C   0  0  0  0  0  0  0  0  0  0  0  0
    2.8551   -1.2795    0.0000 C   0  0  0  0  0  0  0  0  0  0  0  0
    3.3469    0.1376    0.0000 C   0  0  0  0  0  0  0  0  0  0  0  0
    1.9298    0.6294    0.0000 C   0  0  0  0  0  0  0  0  0  0  0  0
   -2.4896   -0.2186    0.0000 C   0  0  0  0  0  0  0  0  0  0  0  0
   -2.9814   -1.6357    0.0000 O   0  0  0  0  0  0  0  0  0  0  0  0
   -3.4710    0.9158    0.0000 O   0  0  0  0  0  0  0  0  0  0  0  0
  1  2  1  0
  2  3  1  0
  3  4  1  0
  4  5  1  0
  5  6  1  1
  6  7  1  0
  8  7  1  1
  3  9  1  1
  9 10  2  0
  9 11  1  0
  8  1  1  0
  8  5  1  0
M  END
>  <rName>  (168) 
2-oxa-5-azabicyclo420octane-3-CO2H_1R_3R_6S

>  <PQ_SYMBOL>  (168) 
2-oxa-5-azabicyclo420octane-3-CO2H_1R_3R_6S

>  <FULL_NAME>  (168) 
O=C(O)[C@H]1CN[C@H]2CC[C@H]2O1

>  <IUPAC_CONDENSED>  (168) 
2-oxa-5-azabicyclo[4.2.0]octane-3-CO2H(1R,3R,6S)

>  <IUPAC>  (168) 
(1R,3R,6S)-2-oxa-5-azabicyclo[4.2.0]octane-3-carboxylic acid

>  <TYPE>  (168) 
Backbone

>  <CLASS>  (168) 
beta

>  <ANALOG>  (168) 
Pro

>  <MOL_WT>  (168) 
157.16899999999998

>  <LOGP>  (168) 
-0.40960000000000046

>  <TPSA>  (168) 
58.56

>  <POPULARITY>  (168) 
2.2

>  <PROTECTED>  (168) 
TRUE

>  <SMILES>  (168) 
N1C[C@@H](O[C@@H]2(CC[C@H]12))C(=O)O

>  <INCHIKEY>  (168) 
IAHYGHQUNMTPNG-KVQBGUIXSA-N

$$$$
2-oxa-5-azabicyclo420octane-3-CO2H_1R_3S_6S
     RDKit          2D

 11 12  0  0  0  0  0  0  0  0999 V2000
    0.9484    1.7638    0.0000 N   0  0  0  0  0  0  0  0  0  0  0  0
   -0.5247    1.4812    0.0000 C   0  0  0  0  0  0  0  0  0  0  0  0
   -1.0165    0.0640    0.0000 C   0  0  0  0  0  0  0  0  0  0  0  0
   -0.0351   -1.0704    0.0000 O   0  0  0  0  0  0  0  0  0  0  0  0
    1.4380   -0.7877    0.0000 C   0  0  0  0  0  0  0  0  0  0  0  0
    2.8551   -1.2795    0.0000 C   0  0  0  0  0  0  0  0  0  0  0  0
    3.3469    0.1376    0.0000 C   0  0  0  0  0  0  0  0  0  0  0  0
    1.9298    0.6294    0.0000 C   0  0  0  0  0  0  0  0  0  0  0  0
   -2.4896   -0.2186    0.0000 C   0  0  0  0  0  0  0  0  0  0  0  0
   -2.9814   -1.6357    0.0000 O   0  0  0  0  0  0  0  0  0  0  0  0
   -3.4710    0.9158    0.0000 O   0  0  0  0  0  0  0  0  0  0  0  0
  1  2  1  0
  2  3  1  0
  3  4  1  0
  4  5  1  0
  5  6  1  1
  6  7  1  0
  8  7  1  1
  3  9  1  6
  9 10  2  0
  9 11  1  0
  8  1  1  0
  8  5  1  0
M  END
>  <rName>  (169) 
2-oxa-5-azabicyclo420octane-3-CO2H_1R_3S_6S

>  <PQ_SYMBOL>  (169) 
2-oxa-5-azabicyclo420octane-3-CO2H_1R_3S_6S

>  <FULL_NAME>  (169) 
O=C(O)[C@@H]1CN[C@H]2CC[C@H]2O1

>  <IUPAC_CONDENSED>  (169) 
2-oxa-5-azabicyclo[4.2.0]octane-3-CO2H(1R,3S,6S)

>  <IUPAC>  (169) 
(1R,3S,6S)-2-oxa-5-azabicyclo[4.2.0]octane-3-carboxylic acid

>  <TYPE>  (169) 
Backbone

>  <CLASS>  (169) 
beta

>  <ANALOG>  (169) 
Pro

>  <MOL_WT>  (169) 
157.16899999999998

>  <LOGP>  (169) 
-0.40960000000000046

>  <TPSA>  (169) 
58.56

>  <POPULARITY>  (169) 
2.2

>  <PROTECTED>  (169) 
TRUE

>  <SMILES>  (169) 
N1C[C@H](O[C@@H]2(CC[C@H]12))C(=O)O

>  <INCHIKEY>  (169) 
IAHYGHQUNMTPNG-JKUQZMGJSA-N

$$$$
2-oxa-5-azabicyclo430nonane-8-CO2H_1R_6S
     RDKit          2D

 12 13  0  0  0  0  0  0  0  0999 V2000
    2.1567   -1.5000    0.0000 N   0  0  0  0  0  0  0  0  0  0  0  0
    0.8577   -0.7500    0.0000 C   0  0  0  0  0  0  0  0  0  0  0  0
   -0.5689   -1.2135    0.0000 C   0  0  0  0  0  0  0  0  0  0  0  0
   -1.4506   -0.0000    0.0000 C   0  0  0  0  0  0  0  0  0  0  0  0
   -0.5689    1.2135    0.0000 C   0  0  0  0  0  0  0  0  0  0  0  0
    0.8577    0.7500    0.0000 C   0  0  0  0  0  0  0  0  0  0  0  0
    2.1567    1.5000    0.0000 O   0  0  0  0  0  0  0  0  0  0  0  0
    3.4557    0.7500    0.0000 C   0  0  0  0  0  0  0  0  0  0  0  0
    3.4557   -0.7500    0.0000 C   0  0  0  0  0  0  0  0  0  0  0  0
   -2.9506   -0.0000    0.0000 C   0  0  0  0  0  0  0  0  0  0  0  0
   -3.7006   -1.2990    0.0000 O   0  0  0  0  0  0  0  0  0  0  0  0
   -3.7006    1.2990    0.0000 O   0  0  0  0  0  0  0  0  0  0  0  0
  1  2  1  0
  2  3  1  1
  3  4  1  0
  4  5  1  0
  6  5  1  1
  6  7  1  0
  7  8  1  0
  8  9  1  0
  4 10  1  0
 10 11  2  0
 10 12  1  0
  6  2  1  0
  9  1  1  0
M  END
>  <rName>  (170) 
2-oxa-5-azabicyclo430nonane-8-CO2H_1R_6S

>  <PQ_SYMBOL>  (170) 
2-oxa-5-azabicyclo430nonane-8-CO2H_1R_6S

>  <FULL_NAME>  (170) 
rac-(4aR,7aS)-octahydrocyclopenta[b][1,4]oxazine-6-carboxylic acid

>  <IUPAC_CONDENSED>  (170) 
2-oxa-5-azabicyclo[4.3.0]nonane-8-CO2H(1R,6S)

>  <IUPAC>  (170) 
(1R,6S)-2-oxa-5-azabicyclo[4.3.0]nonane-8-carboxylic acid

>  <TYPE>  (170) 
Backbone

>  <CLASS>  (170) 
gamma

>  <ANALOG>  (170) 
Pro

>  <MOL_WT>  (170) 
171.196

>  <LOGP>  (170) 
-0.1620000000000002

>  <TPSA>  (170) 
58.56

>  <POPULARITY>  (170) 
2.9

>  <PROTECTED>  (170) 
TRUE

>  <SMILES>  (170) 
N2[C@H]1CC(C[C@H]1OCC2)C(=O)O

>  <INCHIKEY>  (170) 
BFYLCCLUGZLHTP-BOJSHJERSA-N

$$$$
2-oxa-6-azabicyclo321octane-1-CO2H
     RDKit          2D

 11 12  0  0  0  0  0  0  0  0999 V2000
   -0.5179    1.5663    0.0000 N   0  0  0  0  0  0  0  0  0  0  0  0
    0.6012    0.6922    0.0000 C   0  0  0  0  0  0  0  0  0  0  0  0
    0.6156   -0.7277    0.0000 C   0  0  0  0  0  0  0  0  0  0  0  0
   -0.4856   -1.6243    0.0000 O   0  0  0  0  0  0  0  0  0  0  0  0
   -1.8732   -1.3223    0.0000 C   0  0  0  0  0  0  0  0  0  0  0  0
   -2.5022   -0.0492    0.0000 C   0  0  0  0  0  0  0  0  0  0  0  0
   -1.8990    1.2363    0.0000 C   0  0  0  0  0  0  0  0  0  0  0  0
   -0.9495   -0.1397    0.0000 C   0  0  0  0  0  0  0  0  0  0  0  0
    1.8886   -0.0987    0.0000 C   0  0  0  0  0  0  0  0  0  0  0  0
    1.9856    1.3982    0.0000 O   0  0  0  0  0  0  0  0  0  0  0  0
    3.1365   -0.9311    0.0000 O   0  0  0  0  0  0  0  0  0  0  0  0
  1  2  1  0
  2  3  1  0
  3  4  1  0
  4  5  1  0
  5  6  1  0
  6  7  1  0
  7  8  1  0
  3  9  1  0
  9 10  2  0
  9 11  1  0
  7  1  1  0
  8  3  1  0
M  END
>  <rName>  (171) 
2-oxa-6-azabicyclo321octane-1-CO2H

>  <PQ_SYMBOL>  (171) 
2-oxa-6-azabicyclo321octane-1-CO2H

>  <FULL_NAME>  (171) 
2-Oxa-6-azabicyclo[3.2.1]octane-1-carboxylic acid

>  <IUPAC_CONDENSED>  (171) 
2-oxa-6-azabicyclo[3.2.1]octane-1-CO2H

>  <IUPAC>  (171) 
2-oxa-6-azabicyclo[3.2.1]octane-1-carboxylic acid

>  <TYPE>  (171) 
Backbone

>  <CLASS>  (171) 
beta

>  <ANALOG>  (171) 
Pro

>  <MOL_WT>  (171) 
157.169

>  <LOGP>  (171) 
-0.4080000000000002

>  <TPSA>  (171) 
58.56

>  <POPULARITY>  (171) 
2.7

>  <PROTECTED>  (171) 
TRUE

>  <SMILES>  (171) 
N1CC2(OCCC1C2)C(=O)O

>  <INCHIKEY>  (171) 
SCOVNIZNBHTNEV-UHFFFAOYSA-N

$$$$
2-oxa-6-azabicyclo330octane-7-CO2H_1R_5R_7R
     RDKit          2D

 11 12  0  0  0  0  0  0  0  0999 V2000
    0.2516    1.2135    0.0000 N   0  0  0  0  0  0  0  0  0  0  0  0
    1.1333    0.0000    0.0000 C   0  0  0  0  0  0  0  0  0  0  0  0
    0.2516   -1.2135    0.0000 C   0  0  0  0  0  0  0  0  0  0  0  0
   -1.1750   -0.7500    0.0000 C   0  0  0  0  0  0  0  0  0  0  0  0
   -2.6016   -1.2135    0.0000 O   0  0  0  0  0  0  0  0  0  0  0  0
   -3.4832   -0.0000    0.0000 C   0  0  0  0  0  0  0  0  0  0  0  0
   -2.6016    1.2135    0.0000 C   0  0  0  0  0  0  0  0  0  0  0  0
   -1.1750    0.7500    0.0000 C   0  0  0  0  0  0  0  0  0  0  0  0
    2.6333    0.0000    0.0000 C   0  0  0  0  0  0  0  0  0  0  0  0
    3.3833    1.2990    0.0000 O   0  0  0  0  0  0  0  0  0  0  0  0
    3.3833   -1.2990    0.0000 O   0  0  0  0  0  0  0  0  0  0  0  0
  1  2  1  0
  2  3  1  0
  4  3  1  1
  4  5  1  0
  5  6  1  0
  6  7  1  0
  8  7  1  1
  2  9  1  1
  9 10  2  0
  9 11  1  0
  8  1  1  0
  8  4  1  0
M  END
>  <rName>  (172) 
2-oxa-6-azabicyclo330octane-7-CO2H_1R_5R_7R

>  <PQ_SYMBOL>  (172) 
2-oxa-6-azabicyclo330octane-7-CO2H_1R_5R_7R

>  <FULL_NAME>  (172) 
O=C(O)[C@H]1C[C@H]2OCC[C@H]2N1

>  <IUPAC_CONDENSED>  (172) 
2-oxa-6-azabicyclo[3.3.0]octane-7-CO2H(1R,5R,7R)

>  <IUPAC>  (172) 
(1R,5R,7R)-2-oxa-6-azabicyclo[3.3.0]octane-7-carboxylic acid

>  <TYPE>  (172) 
Backbone

>  <CLASS>  (172) 
alpha

>  <ANALOG>  (172) 
Pro

>  <MOL_WT>  (172) 
157.169

>  <LOGP>  (172) 
-0.4096

>  <TPSA>  (172) 
58.56

>  <POPULARITY>  (172) 
3.1

>  <PROTECTED>  (172) 
TRUE

>  <SMILES>  (172) 
N1[C@H](C[C@H]2(OCC[C@@H]12))C(=O)O

>  <INCHIKEY>  (172) 
MKSLXHNNHFTOEE-HSUXUTPPSA-N

$$$$
2-oxa-7-azabicyclo330octane-1-CO2H_1R_5R
     RDKit          2D

 11 12  0  0  0  0  0  0  0  0999 V2000
   -0.7500   -2.3083    0.0000 N   0  0  0  0  0  0  0  0  0  0  0  0
    0.4635   -1.4266    0.0000 C   0  0  0  0  0  0  0  0  0  0  0  0
    0.0000    0.0000    0.0000 C   0  0  0  0  0  0  0  0  0  0  0  0
    0.4635    1.4266    0.0000 O   0  0  0  0  0  0  0  0  0  0  0  0
   -0.7500    2.3083    0.0000 C   0  0  0  0  0  0  0  0  0  0  0  0
   -1.9635    1.4266    0.0000 C   0  0  0  0  0  0  0  0  0  0  0  0
   -1.5000   -0.0000    0.0000 C   0  0  0  0  0  0  0  0  0  0  0  0
   -1.9635   -1.4266    0.0000 C   0  0  0  0  0  0  0  0  0  0  0  0
    1.5000    0.0000    0.0000 C   0  0  0  0  0  0  0  0  0  0  0  0
    2.2500    1.2990    0.0000 O   0  0  0  0  0  0  0  0  0  0  0  0
    2.2500   -1.2990    0.0000 O   0  0  0  0  0  0  0  0  0  0  0  0
  1  2  1  0
  2  3  1  0
  3  4  1  0
  4  5  1  0
  5  6  1  0
  7  6  1  1
  7  8  1  0
  3  9  1  6
  9 10  2  0
  9 11  1  0
  7  3  1  0
  8  1  1  0
M  END
>  <rName>  (173) 
2-oxa-7-azabicyclo330octane-1-CO2H_1R_5R

>  <PQ_SYMBOL>  (173) 
2-oxa-7-azabicyclo330octane-1-CO2H_1R_5R

>  <FULL_NAME>  (173) 
rac-(3aR,6aR)-hexahydro-2H-furo[2,3-c]pyrrole-6a-carboxylic acid

>  <IUPAC_CONDENSED>  (173) 
2-oxa-7-azabicyclo[3.3.0]octane-1-CO2H(1R,5R)

>  <IUPAC>  (173) 
(1R,5R)-2-oxa-7-azabicyclo[3.3.0]octane-1-carboxylic acid

>  <TYPE>  (173) 
Backbone

>  <CLASS>  (173) 
beta

>  <ANALOG>  (173) 
Pro

>  <MOL_WT>  (173) 
157.169

>  <LOGP>  (173) 
-0.5505000000000002

>  <TPSA>  (173) 
58.56

>  <POPULARITY>  (173) 
3.4

>  <PROTECTED>  (173) 
TRUE

>  <SMILES>  (173) 
N2C[C@@]1(OCC[C@@H]1C2)C(=O)O

>  <INCHIKEY>  (173) 
LCQXEWZIWRCBIC-VDTYLAMSSA-N

$$$$
2-oxa-7-azabicyclo330octane-3-CO2H
     RDKit          2D

 11 12  0  0  0  0  0  0  0  0999 V2000
    3.4832   -0.0000    0.0000 N   0  0  0  0  0  0  0  0  0  0  0  0
    2.6016    1.2135    0.0000 C   0  0  0  0  0  0  0  0  0  0  0  0
    1.1750    0.7500    0.0000 C   0  0  0  0  0  0  0  0  0  0  0  0
   -0.2516    1.2135    0.0000 C   0  0  0  0  0  0  0  0  0  0  0  0
   -1.1333    0.0000    0.0000 C   0  0  0  0  0  0  0  0  0  0  0  0
   -0.2516   -1.2135    0.0000 O   0  0  0  0  0  0  0  0  0  0  0  0
    1.1750   -0.7500    0.0000 C   0  0  0  0  0  0  0  0  0  0  0  0
    2.6016   -1.2135    0.0000 C   0  0  0  0  0  0  0  0  0  0  0  0
   -2.6333   -0.0000    0.0000 C   0  0  0  0  0  0  0  0  0  0  0  0
   -3.3833   -1.2990    0.0000 O   0  0  0  0  0  0  0  0  0  0  0  0
   -3.3833    1.2990    0.0000 O   0  0  0  0  0  0  0  0  0  0  0  0
  1  2  1  0
  2  3  1  0
  3  4  1  0
  4  5  1  0
  5  6  1  0
  6  7  1  0
  7  8  1  0
  5  9  1  0
  9 10  2  0
  9 11  1  0
  7  3  1  0
  8  1  1  0
M  END
>  <rName>  (174) 
2-oxa-7-azabicyclo330octane-3-CO2H

>  <PQ_SYMBOL>  (174) 
2-oxa-7-azabicyclo330octane-3-CO2H

>  <FULL_NAME>  (174) 
hexahydro-2H-furo[2,3-c]pyrrole-2-carboxylic acid

>  <IUPAC_CONDENSED>  (174) 
2-oxa-7-azabicyclo[3.3.0]octane-3-CO2H

>  <IUPAC>  (174) 
2-oxa-7-azabicyclo[3.3.0]octane-3-carboxylic acid

>  <TYPE>  (174) 
Backbone

>  <CLASS>  (174) 
delta

>  <ANALOG>  (174) 
Pro

>  <MOL_WT>  (174) 
157.16899999999998

>  <LOGP>  (174) 
-0.5521

>  <TPSA>  (174) 
58.56

>  <POPULARITY>  (174) 
4.2

>  <PROTECTED>  (174) 
TRUE

>  <SMILES>  (174) 
N2CC1CC(OC1C2)C(=O)O

>  <INCHIKEY>  (174) 
WLYFLHIHWXBXCY-UHFFFAOYSA-N

$$$$
2-oxa-7-azabicyclo330octane-3-CO2H_1S_3S_5S
     RDKit          2D

 11 12  0  0  0  0  0  0  0  0999 V2000
    3.4832   -0.0000    0.0000 N   0  0  0  0  0  0  0  0  0  0  0  0
    2.6016    1.2135    0.0000 C   0  0  0  0  0  0  0  0  0  0  0  0
    1.1750    0.7500    0.0000 C   0  0  0  0  0  0  0  0  0  0  0  0
   -0.2516    1.2135    0.0000 C   0  0  0  0  0  0  0  0  0  0  0  0
   -1.1333    0.0000    0.0000 C   0  0  0  0  0  0  0  0  0  0  0  0
   -0.2516   -1.2135    0.0000 O   0  0  0  0  0  0  0  0  0  0  0  0
    1.1750   -0.7500    0.0000 C   0  0  0  0  0  0  0  0  0  0  0  0
    2.6016   -1.2135    0.0000 C   0  0  0  0  0  0  0  0  0  0  0  0
   -2.6333   -0.0000    0.0000 C   0  0  0  0  0  0  0  0  0  0  0  0
   -3.3833   -1.2990    0.0000 O   0  0  0  0  0  0  0  0  0  0  0  0
   -3.3833    1.2990    0.0000 O   0  0  0  0  0  0  0  0  0  0  0  0
  1  2  1  0
  3  2  1  1
  3  4  1  0
  4  5  1  0
  5  6  1  0
  6  7  1  0
  7  8  1  1
  5  9  1  6
  9 10  2  0
  9 11  1  0
  7  3  1  0
  8  1  1  0
M  END
>  <rName>  (175) 
2-oxa-7-azabicyclo330octane-3-CO2H_1S_3S_5S

>  <PQ_SYMBOL>  (175) 
2-oxa-7-azabicyclo330octane-3-CO2H_1S_3S_5S

>  <FULL_NAME>  (175) 
rac-(2R,3aR,6aR)-hexahydro-2H-furo[2,3-c]pyrrole-2-carboxylic acid

>  <IUPAC_CONDENSED>  (175) 
2-oxa-7-azabicyclo[3.3.0]octane-3-CO2H(1S,3S,5S)

>  <IUPAC>  (175) 
(1S,3S,5S)-2-oxa-7-azabicyclo[3.3.0]octane-3-carboxylic acid

>  <TYPE>  (175) 
Backbone

>  <CLASS>  (175) 
delta

>  <ANALOG>  (175) 
Pro

>  <MOL_WT>  (175) 
157.16899999999998

>  <LOGP>  (175) 
-0.5521

>  <TPSA>  (175) 
58.56

>  <POPULARITY>  (175) 
4.2

>  <PROTECTED>  (175) 
TRUE

>  <SMILES>  (175) 
N2C[C@@H]1C[C@H](O[C@@H]1C2)C(=O)O

>  <INCHIKEY>  (175) 
WLYFLHIHWXBXCY-HCWXCVPCSA-N

$$$$
2-oxa-7-azabicyclo330octane-4-CO2H_1R_4R_5R
     RDKit          2D

 11 12  0  0  0  0  0  0  0  0999 V2000
   -2.6838   -1.3162    0.0000 N   0  0  0  0  0  0  0  0  0  0  0  0
   -1.2132   -1.6117    0.0000 C   0  0  0  0  0  0  0  0  0  0  0  0
   -0.4778   -0.3044    0.0000 C   0  0  0  0  0  0  0  0  0  0  0  0
    0.8857    0.3210    0.0000 C   0  0  0  0  0  0  0  0  0  0  0  0
    0.7122    1.8109    0.0000 C   0  0  0  0  0  0  0  0  0  0  0  0
   -0.7584    2.1064    0.0000 O   0  0  0  0  0  0  0  0  0  0  0  0
   -1.4938    0.7991    0.0000 C   0  0  0  0  0  0  0  0  0  0  0  0
   -2.8573    0.1737    0.0000 C   0  0  0  0  0  0  0  0  0  0  0  0
    2.1930   -0.4145    0.0000 C   0  0  0  0  0  0  0  0  0  0  0  0
    3.4836    0.3500    0.0000 O   0  0  0  0  0  0  0  0  0  0  0  0
    2.2097   -1.9144    0.0000 O   0  0  0  0  0  0  0  0  0  0  0  0
  1  2  1  0
  3  2  1  6
  3  4  1  0
  4  5  1  0
  5  6  1  0
  6  7  1  0
  7  8  1  6
  4  9  1  6
  9 10  2  0
  9 11  1  0
  7  3  1  0
  8  1  1  0
M  END
>  <rName>  (176) 
2-oxa-7-azabicyclo330octane-4-CO2H_1R_4R_5R

>  <PQ_SYMBOL>  (176) 
2-oxa-7-azabicyclo330octane-4-CO2H_1R_4R_5R

>  <FULL_NAME>  (176) 
O=C(O)[C@H]1CO[C@H]2CNC[C@H]21

>  <IUPAC_CONDENSED>  (176) 
2-oxa-7-azabicyclo[3.3.0]octane-4-CO2H(1R,4R,5R)

>  <IUPAC>  (176) 
(1R,4R,5R)-2-oxa-7-azabicyclo[3.3.0]octane-4-carboxylic acid

>  <TYPE>  (176) 
Backbone

>  <CLASS>  (176) 
gamma

>  <ANALOG>  (176) 
Pro

>  <MOL_WT>  (176) 
157.169

>  <LOGP>  (176) 
-0.6946000000000001

>  <TPSA>  (176) 
58.56

>  <POPULARITY>  (176) 
4.1

>  <PROTECTED>  (176) 
TRUE

>  <SMILES>  (176) 
N2C[C@H]1[C@H](CO[C@H]1C2)C(=O)O

>  <INCHIKEY>  (176) 
KLYUZDUCOQCSMA-ZLUOBGJFSA-N

$$$$
2-oxa-7-azabicyclo330octane-5-CO2H_1R_5S
     RDKit          2D

 11 12  0  0  0  0  0  0  0  0999 V2000
   -0.7500   -2.3083    0.0000 N   0  0  0  0  0  0  0  0  0  0  0  0
    0.4635   -1.4266    0.0000 C   0  0  0  0  0  0  0  0  0  0  0  0
    0.0000    0.0000    0.0000 C   0  0  0  0  0  0  0  0  0  0  0  0
    0.4635    1.4266    0.0000 C   0  0  0  0  0  0  0  0  0  0  0  0
   -0.7500    2.3083    0.0000 C   0  0  0  0  0  0  0  0  0  0  0  0
   -1.9635    1.4266    0.0000 O   0  0  0  0  0  0  0  0  0  0  0  0
   -1.5000   -0.0000    0.0000 C   0  0  0  0  0  0  0  0  0  0  0  0
   -1.9635   -1.4266    0.0000 C   0  0  0  0  0  0  0  0  0  0  0  0
    1.5000    0.0000    0.0000 C   0  0  0  0  0  0  0  0  0  0  0  0
    2.2500    1.2990    0.0000 O   0  0  0  0  0  0  0  0  0  0  0  0
    2.2500   -1.2990    0.0000 O   0  0  0  0  0  0  0  0  0  0  0  0
  1  2  1  0
  2  3  1  0
  3  4  1  0
  4  5  1  0
  5  6  1  0
  6  7  1  0
  7  8  1  6
  3  9  1  1
  9 10  2  0
  9 11  1  0
  7  3  1  0
  8  1  1  0
M  END
>  <rName>  (177) 
2-oxa-7-azabicyclo330octane-5-CO2H_1R_5S

>  <PQ_SYMBOL>  (177) 
2-oxa-7-azabicyclo330octane-5-CO2H_1R_5S

>  <FULL_NAME>  (177) 
(3AS,6aR)-hexahydro-3aH-furo[2,3-c]pyrrole-3a-carboxylic acid

>  <IUPAC_CONDENSED>  (177) 
2-oxa-7-azabicyclo[3.3.0]octane-5-CO2H(1R,5S)

>  <IUPAC>  (177) 
(1R,5S)-2-oxa-7-azabicyclo[3.3.0]octane-5-carboxylic acid

>  <TYPE>  (177) 
Backbone

>  <CLASS>  (177) 
beta

>  <ANALOG>  (177) 
Pro

>  <MOL_WT>  (177) 
157.16899999999998

>  <LOGP>  (177) 
-0.5505000000000002

>  <TPSA>  (177) 
58.56

>  <POPULARITY>  (177) 
2.9

>  <PROTECTED>  (177) 
TRUE

>  <SMILES>  (177) 
N2C[C@]1(CCO[C@H]1C2)C(=O)O

>  <INCHIKEY>  (177) 
LKIDEIDZBYIDNU-FSPLSTOPSA-N

$$$$
2-oxa-7-azaspiro44nonan-3-ylAc
     RDKit          2D

 13 14  0  0  0  0  0  0  0  0999 V2000
   -3.9375   -0.4148    0.0000 N   0  0  0  0  0  0  0  0  0  0  0  0
   -2.6079   -1.1093    0.0000 C   0  0  0  0  0  0  0  0  0  0  0  0
   -1.5366   -0.0594    0.0000 C   0  0  0  0  0  0  0  0  0  0  0  0
   -2.2040    1.2839    0.0000 C   0  0  0  0  0  0  0  0  0  0  0  0
   -3.6878    1.0642    0.0000 C   0  0  0  0  0  0  0  0  0  0  0  0
   -0.4652    0.9904    0.0000 C   0  0  0  0  0  0  0  0  0  0  0  0
    0.8643    0.2960    0.0000 C   0  0  0  0  0  0  0  0  0  0  0  0
    0.6147   -1.1831    0.0000 O   0  0  0  0  0  0  0  0  0  0  0  0
   -0.8692   -1.4028    0.0000 C   0  0  0  0  0  0  0  0  0  0  0  0
    2.2076    0.9634    0.0000 C   0  0  0  0  0  0  0  0  0  0  0  0
    3.4573    0.1337    0.0000 C   0  0  0  0  0  0  0  0  0  0  0  0
    3.3637   -1.3633    0.0000 O   0  0  0  0  0  0  0  0  0  0  0  0
    4.8006    0.8012    0.0000 O   0  0  0  0  0  0  0  0  0  0  0  0
  1  2  1  0
  2  3  1  0
  3  4  1  0
  4  5  1  0
  3  6  1  0
  6  7  1  0
  7  8  1  0
  8  9  1  0
  7 10  1  0
 10 11  1  0
 11 12  2  0
 11 13  1  0
  9  3  1  0
  5  1  1  0
M  END
>  <rName>  (178) 
2-oxa-7-azaspiro44nonan-3-ylAc

>  <PQ_SYMBOL>  (178) 
2-oxa-7-azaspiro44nonan-3-ylAc

>  <FULL_NAME>  (178) 
2-{2-Oxa-7-azaspiro[4.4]nonan-3-yl}acetic acid

>  <IUPAC_CONDENSED>  (178) 
2-oxa-7-azaspiro[4.4]nonan-3-ylAc

>  <IUPAC>  (178) 
2-(7-oxa-2-azaspiro[4.4]nonan-8-yl)acetic acid

>  <TYPE>  (178) 
Backbone

>  <CLASS>  (178) 
epsilon

>  <ANALOG>  (178) 
Pro

>  <MOL_WT>  (178) 
185.22299999999998

>  <LOGP>  (178) 
0.22969999999999952

>  <TPSA>  (178) 
58.56

>  <POPULARITY>  (178) 
3.3

>  <PROTECTED>  (178) 
TRUE

>  <SMILES>  (178) 
N2CC1(CC2)CC(OC1)CC(=O)O

>  <INCHIKEY>  (178) 
LLHVHUJZYMQCBB-UHFFFAOYSA-N

$$$$
2-oxa-8-azabicyclo430nonane-1-CO2H_1R_6R
     RDKit          2D

 12 13  0  0  0  0  0  0  0  0999 V2000
   -1.6963    1.9285    0.0000 N   0  0  0  0  0  0  0  0  0  0  0  0
   -1.6231    0.4303    0.0000 C   0  0  0  0  0  0  0  0  0  0  0  0
   -0.1756    0.0369    0.0000 C   0  0  0  0  0  0  0  0  0  0  0  0
    0.5007   -1.3020    0.0000 O   0  0  0  0  0  0  0  0  0  0  0  0
    1.9984   -1.3857    0.0000 C   0  0  0  0  0  0  0  0  0  0  0  0
    2.8197   -0.1306    0.0000 C   0  0  0  0  0  0  0  0  0  0  0  0
    2.1435    1.2083    0.0000 C   0  0  0  0  0  0  0  0  0  0  0  0
    0.6458    1.2921    0.0000 C   0  0  0  0  0  0  0  0  0  0  0  0
   -0.2941    2.4611    0.0000 C   0  0  0  0  0  0  0  0  0  0  0  0
   -1.1237   -1.1255    0.0000 C   0  0  0  0  0  0  0  0  0  0  0  0
   -0.5910   -2.5277    0.0000 O   0  0  0  0  0  0  0  0  0  0  0  0
   -2.6044   -0.8856    0.0000 O   0  0  0  0  0  0  0  0  0  0  0  0
  1  2  1  0
  2  3  1  0
  3  4  1  0
  4  5  1  0
  5  6  1  0
  6  7  1  0
  8  7  1  1
  8  9  1  0
  3 10  1  6
 10 11  2  0
 10 12  1  0
  8  3  1  0
  9  1  1  0
M  END
>  <rName>  (179) 
2-oxa-8-azabicyclo430nonane-1-CO2H_1R_6R

>  <PQ_SYMBOL>  (179) 
2-oxa-8-azabicyclo430nonane-1-CO2H_1R_6R

>  <FULL_NAME>  (179) 
rac-(4aR,7aR)-octahydropyrano[2,3-c]pyrrole-7a-carboxylic acid

>  <IUPAC_CONDENSED>  (179) 
2-oxa-8-azabicyclo[4.3.0]nonane-1-CO2H(1R,6R)

>  <IUPAC>  (179) 
(1R,6R)-2-oxa-8-azabicyclo[4.3.0]nonane-1-carboxylic acid

>  <TYPE>  (179) 
Backbone

>  <CLASS>  (179) 
beta

>  <ANALOG>  (179) 
Pro

>  <MOL_WT>  (179) 
171.196

>  <LOGP>  (179) 
-0.16040000000000038

>  <TPSA>  (179) 
58.56

>  <POPULARITY>  (179) 
2.8

>  <PROTECTED>  (179) 
TRUE

>  <SMILES>  (179) 
N2C[C@@]1(OCCC[C@@H]1C2)C(=O)O

>  <INCHIKEY>  (179) 
ZKVFSZGQZVFLOC-SVRRBLITSA-N

$$$$
2-oxa-8-azabicyclo430nonane-3-CO2H_1S_3R_6R
     RDKit          2D

 12 13  0  0  0  0  0  0  0  0999 V2000
   -3.5831   -0.6218    0.0000 N   0  0  0  0  0  0  0  0  0  0  0  0
   -2.3890   -1.5296    0.0000 C   0  0  0  0  0  0  0  0  0  0  0  0
   -1.1566   -0.6746    0.0000 C   0  0  0  0  0  0  0  0  0  0  0  0
    0.3035   -1.0182    0.0000 O   0  0  0  0  0  0  0  0  0  0  0  0
    1.3312    0.0744    0.0000 C   0  0  0  0  0  0  0  0  0  0  0  0
    0.8988    1.5107    0.0000 C   0  0  0  0  0  0  0  0  0  0  0  0
   -0.5613    1.8544    0.0000 C   0  0  0  0  0  0  0  0  0  0  0  0
   -1.5890    0.7618    0.0000 C   0  0  0  0  0  0  0  0  0  0  0  0
   -3.0886    0.7944    0.0000 C   0  0  0  0  0  0  0  0  0  0  0  0
    2.7913   -0.2693    0.0000 C   0  0  0  0  0  0  0  0  0  0  0  0
    3.8190    0.8234    0.0000 O   0  0  0  0  0  0  0  0  0  0  0  0
    3.2237   -1.7056    0.0000 O   0  0  0  0  0  0  0  0  0  0  0  0
  1  2  1  0
  3  2  1  6
  3  4  1  0
  4  5  1  0
  5  6  1  0
  6  7  1  0
  8  7  1  1
  8  9  1  0
  5 10  1  6
 10 11  2  0
 10 12  1  0
  8  3  1  0
  9  1  1  0
M  END
>  <rName>  (180) 
2-oxa-8-azabicyclo430nonane-3-CO2H_1S_3R_6R

>  <PQ_SYMBOL>  (180) 
2-oxa-8-azabicyclo430nonane-3-CO2H_1S_3R_6R

>  <FULL_NAME>  (180) 
O=C(O)[C@H]1CC[C@@H]2CNC[C@H]2O1

>  <IUPAC_CONDENSED>  (180) 
2-oxa-8-azabicyclo[4.3.0]nonane-3-CO2H(1S,3R,6R)

>  <IUPAC>  (180) 
(1S,3R,6R)-2-oxa-8-azabicyclo[4.3.0]nonane-3-carboxylic acid

>  <TYPE>  (180) 
Backbone

>  <CLASS>  (180) 
delta

>  <ANALOG>  (180) 
Pro

>  <MOL_WT>  (180) 
171.196

>  <LOGP>  (180) 
-0.16200000000000064

>  <TPSA>  (180) 
58.56

>  <POPULARITY>  (180) 
2.7

>  <PROTECTED>  (180) 
TRUE

>  <SMILES>  (180) 
N2C[C@H]1O[C@H](CC[C@@H]1C2)C(=O)O

>  <INCHIKEY>  (180) 
MDNJENIOKCYEPG-FSDSQADBSA-N

$$$$
2-oxa-8-azabicyclo430nonane-6-CO2H_1S_6R
     RDKit          2D

 12 13  0  0  0  0  0  0  0  0999 V2000
   -1.6963    1.9285    0.0000 N   0  0  0  0  0  0  0  0  0  0  0  0
   -1.6231    0.4303    0.0000 C   0  0  0  0  0  0  0  0  0  0  0  0
   -0.1756    0.0369    0.0000 C   0  0  0  0  0  0  0  0  0  0  0  0
    0.5007   -1.3020    0.0000 C   0  0  0  0  0  0  0  0  0  0  0  0
    1.9984   -1.3857    0.0000 C   0  0  0  0  0  0  0  0  0  0  0  0
    2.8197   -0.1306    0.0000 C   0  0  0  0  0  0  0  0  0  0  0  0
    2.1435    1.2083    0.0000 O   0  0  0  0  0  0  0  0  0  0  0  0
    0.6458    1.2921    0.0000 C   0  0  0  0  0  0  0  0  0  0  0  0
   -0.2941    2.4611    0.0000 C   0  0  0  0  0  0  0  0  0  0  0  0
   -1.1237   -1.1255    0.0000 C   0  0  0  0  0  0  0  0  0  0  0  0
   -0.5910   -2.5277    0.0000 O   0  0  0  0  0  0  0  0  0  0  0  0
   -2.6044   -0.8856    0.0000 O   0  0  0  0  0  0  0  0  0  0  0  0
  1  2  1  0
  2  3  1  0
  3  4  1  0
  4  5  1  0
  5  6  1  0
  6  7  1  0
  7  8  1  0
  8  9  1  1
  3 10  1  6
 10 11  2  0
 10 12  1  0
  8  3  1  0
  9  1  1  0
M  END
>  <rName>  (181) 
2-oxa-8-azabicyclo430nonane-6-CO2H_1S_6R

>  <PQ_SYMBOL>  (181) 
2-oxa-8-azabicyclo430nonane-6-CO2H_1S_6R

>  <FULL_NAME>  (181) 
(4AR,7aS)-hexahydropyrano[2,3-c]pyrrole-4a(2H)-carboxylic acid

>  <IUPAC_CONDENSED>  (181) 
2-oxa-8-azabicyclo[4.3.0]nonane-6-CO2H(1S,6R)

>  <IUPAC>  (181) 
(1S,6R)-2-oxa-8-azabicyclo[4.3.0]nonane-6-carboxylic acid

>  <TYPE>  (181) 
Backbone

>  <CLASS>  (181) 
beta

>  <ANALOG>  (181) 
Pro

>  <MOL_WT>  (181) 
171.196

>  <LOGP>  (181) 
-0.16040000000000038

>  <TPSA>  (181) 
58.56

>  <POPULARITY>  (181) 
2.7

>  <PROTECTED>  (181) 
TRUE

>  <SMILES>  (181) 
N2C[C@@]1(CCCO[C@@H]1C2)C(=O)O

>  <INCHIKEY>  (181) 
GKALJTIARVXLTG-HTRCEHHLSA-N

$$$$
22-diOH-propanoyl
     RDKit          2D

  7  6  0  0  0  0  0  0  0  0999 V2000
   -0.6429   -1.5000    0.0000 O   0  0  0  0  0  0  0  0  0  0  0  0
   -0.6429    0.0000    0.0000 C   0  0  0  0  0  0  0  0  0  0  0  0
   -0.6429    1.5000    0.0000 O   0  0  0  0  0  0  0  0  0  0  0  0
   -2.1429    0.0000    0.0000 C   0  0  0  0  0  0  0  0  0  0  0  0
    0.8571   -0.0000    0.0000 C   0  0  0  0  0  0  0  0  0  0  0  0
    1.6071   -1.2990    0.0000 O   0  0  0  0  0  0  0  0  0  0  0  0
    1.6071    1.2990    0.0000 O   0  0  0  0  0  0  0  0  0  0  0  0
  1  2  1  0
  2  3  1  0
  2  4  1  0
  2  5  1  0
  5  6  2  0
  5  7  1  0
M  END
>  <rName>  (182) 
22-diOH-propanoyl

>  <PQ_SYMBOL>  (182) 
22-diOH-propanoyl

>  <FULL_NAME>  (182) 
2,2-bis(oxidanyl)propanoic acid

>  <IUPAC_CONDENSED>  (182) 
2,2-diOH-propanoyl

>  <IUPAC>  (182) 
2,2-dihydroxypropanoic acid

>  <TYPE>  (182) 
N-term cap

>  <CLASS>  (182) 
n_cap

>  <ANALOG>  (182) 
X

>  <MOL_WT>  (182) 
106.07699999999998

>  <LOGP>  (182) 
-1.2282

>  <TPSA>  (182) 
77.76

>  <POPULARITY>  (182) 
15.3

>  <PROTECTED>  (182) 
FALSE

>  <SMILES>  (182) 
OC(O)(C)C(=O)O

>  <INCHIKEY>  (182) 
HPQUMJNDQVOTAZ-UHFFFAOYSA-N

$$$$
24-methanoPro
     RDKit          2D

  9 10  0  0  0  0  0  0  0  0999 V2000
    0.2056   -0.6236    0.0000 N   0  0  0  0  0  0  0  0  0  0  0  0
    0.0933    0.9124    0.0000 C   0  0  0  0  0  0  0  0  0  0  0  0
   -1.4021    1.2803    0.0000 C   0  0  0  0  0  0  0  0  0  0  0  0
   -2.2141   -0.0283    0.0000 C   0  0  0  0  0  0  0  0  0  0  0  0
   -1.2204   -1.2049    0.0000 C   0  0  0  0  0  0  0  0  0  0  0  0
   -0.9428    0.1536    0.0000 C   0  0  0  0  0  0  0  0  0  0  0  0
    1.4020    0.1004    0.0000 C   0  0  0  0  0  0  0  0  0  0  0  0
    1.3544   -1.3988    0.0000 O   0  0  0  0  0  0  0  0  0  0  0  0
    2.7241    0.8088    0.0000 O   0  0  0  0  0  0  0  0  0  0  0  0
  1  2  1  0
  2  3  1  0
  3  4  1  0
  4  5  1  0
  4  6  1  0
  2  7  1  0
  7  8  2  0
  7  9  1  0
  5  1  1  0
  6  2  1  0
M  END
>  <rName>  (183) 
24-methanoPro

>  <PQ_SYMBOL>  (183) 
24-methanoPro

>  <FULL_NAME>  (183) 
2,4-Methanoproline

>  <IUPAC_CONDENSED>  (183) 
2,4-methanoPro

>  <IUPAC>  (183) 
2-azabicyclo[2.1.1]hexane-1-carboxylic acid

>  <TYPE>  (183) 
Backbone

>  <CLASS>  (183) 
alpha

>  <ANALOG>  (183) 
Pro

>  <MOL_WT>  (183) 
127.14299999999999

>  <LOGP>  (183) 
-0.17700000000000032

>  <TPSA>  (183) 
49.33

>  <POPULARITY>  (183) 
7.6

>  <PROTECTED>  (183) 
TRUE

>  <SMILES>  (183) 
N1C2(CC(C1)C2)C(=O)O

>  <INCHIKEY>  (183) 
XEVFXAFXZZYFSX-UHFFFAOYSA-N

$$$$
25-dioxa-8-azaspiro35nonane-6-CO2H
     RDKit          2D

 12 13  0  0  0  0  0  0  0  0999 V2000
    0.3150   -2.2836    0.0000 N   0  0  0  0  0  0  0  0  0  0  0  0
   -1.0411   -1.6426    0.0000 C   0  0  0  0  0  0  0  0  0  0  0  0
   -1.1640   -0.1476    0.0000 C   0  0  0  0  0  0  0  0  0  0  0  0
    0.0692    0.7063    0.0000 O   0  0  0  0  0  0  0  0  0  0  0  0
    1.4253    0.0652    0.0000 C   0  0  0  0  0  0  0  0  0  0  0  0
    1.5482   -1.4297    0.0000 C   0  0  0  0  0  0  0  0  0  0  0  0
    2.9011   -0.2030    0.0000 C   0  0  0  0  0  0  0  0  0  0  0  0
    3.1694    1.2728    0.0000 O   0  0  0  0  0  0  0  0  0  0  0  0
    1.6935    1.5410    0.0000 C   0  0  0  0  0  0  0  0  0  0  0  0
   -2.5201    0.4934    0.0000 C   0  0  0  0  0  0  0  0  0  0  0  0
   -3.7534   -0.3605    0.0000 O   0  0  0  0  0  0  0  0  0  0  0  0
   -2.6430    1.9884    0.0000 O   0  0  0  0  0  0  0  0  0  0  0  0
  1  2  1  0
  2  3  1  0
  3  4  1  0
  4  5  1  0
  5  6  1  0
  5  7  1  0
  7  8  1  0
  8  9  1  0
  3 10  1  0
 10 11  2  0
 10 12  1  0
  6  1  1  0
  9  5  1  0
M  END
>  <rName>  (184) 
25-dioxa-8-azaspiro35nonane-6-CO2H

>  <PQ_SYMBOL>  (184) 
25-dioxa-8-azaspiro35nonane-6-CO2H

>  <FULL_NAME>  (184) 
O=C(O)C1CNCC2(COC2)O1

>  <IUPAC_CONDENSED>  (184) 
2,5-dioxa-8-azaspiro[3.5]nonane-6-CO2H

>  <IUPAC>  (184) 
2,5-dioxa-8-azaspiro[3.5]nonane-6-carboxylic acid

>  <TYPE>  (184) 
Backbone

>  <CLASS>  (184) 
beta

>  <ANALOG>  (184) 
Pro

>  <MOL_WT>  (184) 
173.16799999999998

>  <LOGP>  (184) 
-1.1716

>  <TPSA>  (184) 
67.79

>  <POPULARITY>  (184) 
2.2

>  <PROTECTED>  (184) 
TRUE

>  <SMILES>  (184) 
N1CC(OC2(C1)(COC2))C(=O)O

>  <INCHIKEY>  (184) 
GZPJCNRDMCTBLR-UHFFFAOYSA-N

$$$$
28-dioxa-5-azabicyclo430nonan-3-yl_1R_3S_6S_Ac
     RDKit          2D

 13 14  0  0  0  0  0  0  0  0999 V2000
   -1.4030    1.9782    0.0000 N   0  0  0  0  0  0  0  0  0  0  0  0
    0.0951    2.0547    0.0000 C   0  0  0  0  0  0  0  0  0  0  0  0
    0.9103    0.7955    0.0000 C   0  0  0  0  0  0  0  0  0  0  0  0
    0.2274   -0.5400    0.0000 O   0  0  0  0  0  0  0  0  0  0  0  0
   -1.2706   -0.6165    0.0000 C   0  0  0  0  0  0  0  0  0  0  0  0
   -2.2162   -1.7809    0.0000 C   0  0  0  0  0  0  0  0  0  0  0  0
   -3.6159   -1.2414    0.0000 O   0  0  0  0  0  0  0  0  0  0  0  0
   -3.5353    0.2565    0.0000 C   0  0  0  0  0  0  0  0  0  0  0  0
   -2.0858    0.6427    0.0000 C   0  0  0  0  0  0  0  0  0  0  0  0
    2.4083    0.8719    0.0000 C   0  0  0  0  0  0  0  0  0  0  0  0
    3.2235   -0.3872    0.0000 C   0  0  0  0  0  0  0  0  0  0  0  0
    2.5407   -1.7228    0.0000 O   0  0  0  0  0  0  0  0  0  0  0  0
    4.7216   -0.3108    0.0000 O   0  0  0  0  0  0  0  0  0  0  0  0
  1  2  1  0
  2  3  1  0
  3  4  1  0
  4  5  1  0
  5  6  1  1
  6  7  1  0
  7  8  1  0
  9  8  1  6
  3 10  1  6
 10 11  1  0
 11 12  2  0
 11 13  1  0
  9  1  1  0
  9  5  1  0
M  END
>  <rName>  (185) 
28-dioxa-5-azabicyclo430nonan-3-yl_1R_3S_6S_Ac

>  <PQ_SYMBOL>  (185) 
28-dioxa-5-azabicyclo430nonan-3-yl_1R_3S_6S_Ac

>  <FULL_NAME>  (185) 
O=C(O)C[C@H]1CN[C@H]2COC[C@@H]2O1

>  <IUPAC_CONDENSED>  (185) 
2,8-dioxa-5-azabicyclo[4.3.0]nonan-3-yl(1R,3S,6S)Ac

>  <IUPAC>  (185) 
2-((1R,3S,6S)-2,8-dioxa-5-azabicyclo[4.3.0]nonan-3-yl)acetic acid

>  <TYPE>  (185) 
Backbone

>  <CLASS>  (185) 
gamma

>  <ANALOG>  (185) 
Pro

>  <MOL_WT>  (185) 
187.19499999999996

>  <LOGP>  (185) 
-0.7831000000000001

>  <TPSA>  (185) 
67.79

>  <POPULARITY>  (185) 
2.8

>  <PROTECTED>  (185) 
TRUE

>  <SMILES>  (185) 
N1C[C@@H](O[C@H]2(COC[C@H]12))CC(=O)O

>  <INCHIKEY>  (185) 
KNMMOYLKBFYFOV-ACZMJKKPSA-N

$$$$
28-dioxa-5-azaspiro35nonan-7-ylAc
     RDKit          2D

 13 14  0  0  0  0  0  0  0  0999 V2000
    1.5709   -1.3907    0.0000 N   0  0  0  0  0  0  0  0  0  0  0  0
    0.1068   -1.7165    0.0000 C   0  0  0  0  0  0  0  0  0  0  0  0
   -0.9075   -0.6114    0.0000 C   0  0  0  0  0  0  0  0  0  0  0  0
   -0.4576    0.8195    0.0000 O   0  0  0  0  0  0  0  0  0  0  0  0
    1.0066    1.1453    0.0000 C   0  0  0  0  0  0  0  0  0  0  0  0
    2.0208    0.0402    0.0000 C   0  0  0  0  0  0  0  0  0  0  0  0
    3.2866   -0.7647    0.0000 C   0  0  0  0  0  0  0  0  0  0  0  0
    4.0915    0.5010    0.0000 O   0  0  0  0  0  0  0  0  0  0  0  0
    2.8258    1.3060    0.0000 C   0  0  0  0  0  0  0  0  0  0  0  0
   -2.3717   -0.9373    0.0000 C   0  0  0  0  0  0  0  0  0  0  0  0
   -3.3860    0.1678    0.0000 C   0  0  0  0  0  0  0  0  0  0  0  0
   -2.9361    1.5988    0.0000 O   0  0  0  0  0  0  0  0  0  0  0  0
   -4.8502   -0.1580    0.0000 O   0  0  0  0  0  0  0  0  0  0  0  0
  1  2  1  0
  2  3  1  0
  3  4  1  0
  4  5  1  0
  5  6  1  0
  6  7  1  0
  7  8  1  0
  8  9  1  0
  3 10  1  0
 10 11  1  0
 11 12  2  0
 11 13  1  0
  6  1  1  0
  9  6  1  0
M  END
>  <rName>  (186) 
28-dioxa-5-azaspiro35nonan-7-ylAc

>  <PQ_SYMBOL>  (186) 
28-dioxa-5-azaspiro35nonan-7-ylAc

>  <FULL_NAME>  (186) 
2-(2,8-Dioxa-5-azaspiro[3.5]nonan-7-yl)acetic acid

>  <IUPAC_CONDENSED>  (186) 
2,8-dioxa-5-azaspiro[3.5]nonan-7-ylAc

>  <IUPAC>  (186) 
2-(2,6-dioxa-9-azaspiro[3.5]nonan-7-yl)acetic acid

>  <TYPE>  (186) 
Backbone

>  <CLASS>  (186) 
gamma

>  <ANALOG>  (186) 
Pro

>  <MOL_WT>  (186) 
187.19499999999996

>  <LOGP>  (186) 
-0.7815000000000003

>  <TPSA>  (186) 
67.79

>  <POPULARITY>  (186) 
2.5

>  <PROTECTED>  (186) 
TRUE

>  <SMILES>  (186) 
N1CC(OCC12(COC2))CC(=O)O

>  <INCHIKEY>  (186) 
MBTSDGBWFPSCDF-UHFFFAOYSA-N

$$$$
2Abz
     RDKit          2D

 10 10  0  0  0  0  0  0  0  0999 V2000
   -0.4166   -2.3203    0.0000 N   0  0  0  0  0  0  0  0  0  0  0  0
    0.3975   -1.0604    0.0000 C   0  0  0  0  0  0  0  0  0  0  0  0
   -0.2866    0.2745    0.0000 C   0  0  0  0  0  0  0  0  0  0  0  0
    0.5274    1.5344    0.0000 C   0  0  0  0  0  0  0  0  0  0  0  0
    2.0255    1.4594    0.0000 C   0  0  0  0  0  0  0  0  0  0  0  0
    2.7096    0.1244    0.0000 C   0  0  0  0  0  0  0  0  0  0  0  0
    1.8956   -1.1355    0.0000 C   0  0  0  0  0  0  0  0  0  0  0  0
   -1.7848    0.3495    0.0000 C   0  0  0  0  0  0  0  0  0  0  0  0
   -2.5988   -0.9104    0.0000 O   0  0  0  0  0  0  0  0  0  0  0  0
   -2.4688    1.6844    0.0000 O   0  0  0  0  0  0  0  0  0  0  0  0
  1  2  1  0
  2  3  1  0
  3  4  2  0
  4  5  1  0
  5  6  2  0
  6  7  1  0
  3  8  1  0
  8  9  2  0
  8 10  1  0
  7  2  2  0
M  END
>  <rName>  (187) 
2Abz

>  <PQ_SYMBOL>  (187) 
2Abz

>  <FULL_NAME>  (187) 
Anthranilic acid

>  <IUPAC_CONDENSED>  (187) 
2Abz

>  <IUPAC>  (187) 
2-aminobenzene-1-carboxylic acid

>  <TYPE>  (187) 
Backbone

>  <CLASS>  (187) 
beta

>  <ANALOG>  (187) 
X

>  <MOL_WT>  (187) 
137.13799999999998

>  <LOGP>  (187) 
0.9670000000000001

>  <TPSA>  (187) 
63.32000000000001

>  <POPULARITY>  (187) 
29.4

>  <PROTECTED>  (187) 
FALSE

>  <SMILES>  (187) 
Nc1c(cccc1)C(=O)O

>  <INCHIKEY>  (187) 
RWZYAGGXGHYGMB-UHFFFAOYSA-N

$$$$
2Me-thiazole-5-carbonyl
     RDKit          2D

  9  9  0  0  0  0  0  0  0  0999 V2000
   -3.3052   -0.8467    0.0000 C   0  0  0  0  0  0  0  0  0  0  0  0
   -1.9481   -0.2077    0.0000 C   0  0  0  0  0  0  0  0  0  0  0  0
   -0.6334   -0.9301    0.0000 S   0  0  0  0  0  0  0  0  0  0  0  0
    0.4598    0.0969    0.0000 C   0  0  0  0  0  0  0  0  0  0  0  0
   -0.1792    1.4541    0.0000 C   0  0  0  0  0  0  0  0  0  0  0  0
   -1.6673    1.2657    0.0000 N   0  0  0  0  0  0  0  0  0  0  0  0
    1.9333   -0.1838    0.0000 C   0  0  0  0  0  0  0  0  0  0  0  0
    2.9132    0.9519    0.0000 O   0  0  0  0  0  0  0  0  0  0  0  0
    2.4269   -1.6003    0.0000 O   0  0  0  0  0  0  0  0  0  0  0  0
  1  2  1  0
  2  3  1  0
  3  4  1  0
  4  5  2  0
  5  6  1  0
  4  7  1  0
  7  8  2  0
  7  9  1  0
  6  2  2  0
M  END
>  <rName>  (188) 
2Me-thiazole-5-carbonyl

>  <PQ_SYMBOL>  (188) 
2Me-thiazole-5-carbonyl

>  <FULL_NAME>  (188) 
2-methyl-1,3-thiazole-5-carboxylic acid

>  <IUPAC_CONDENSED>  (188) 
2Me-thiazole-5-carbonyl

>  <IUPAC>  (188) 
2-methylthiazole-5-carboxylic acid

>  <TYPE>  (188) 
N-term cap

>  <CLASS>  (188) 
n_cap

>  <ANALOG>  (188) 
X

>  <MOL_WT>  (188) 
143.167

>  <LOGP>  (188) 
1.1497199999999999

>  <TPSA>  (188) 
50.19

>  <POPULARITY>  (188) 
16.7

>  <PROTECTED>  (188) 
FALSE

>  <SMILES>  (188) 
Cc1sc(cn1)C(=O)O

>  <INCHIKEY>  (188) 
QCXCIYPOMMIBHO-UHFFFAOYSA-N

$$$$
2Nal
     RDKit          2D

 16 17  0  0  0  0  0  0  0  0999 V2000
   -2.0722    1.6358    0.0000 N   0  0  0  0  0  0  0  0  0  0  0  0
   -2.7778    0.3121    0.0000 C   0  0  0  0  0  0  0  0  0  0  0  0
   -1.9842   -0.9608    0.0000 C   0  0  0  0  0  0  0  0  0  0  0  0
   -0.4851   -0.9100    0.0000 C   0  0  0  0  0  0  0  0  0  0  0  0
    0.3084   -2.1829    0.0000 C   0  0  0  0  0  0  0  0  0  0  0  0
    1.8076   -2.1322    0.0000 C   0  0  0  0  0  0  0  0  0  0  0  0
    2.5132   -0.8085    0.0000 C   0  0  0  0  0  0  0  0  0  0  0  0
    4.0123   -0.7577    0.0000 C   0  0  0  0  0  0  0  0  0  0  0  0
    4.7179    0.5659    0.0000 C   0  0  0  0  0  0  0  0  0  0  0  0
    3.9244    1.8388    0.0000 C   0  0  0  0  0  0  0  0  0  0  0  0
    2.4253    1.7881    0.0000 C   0  0  0  0  0  0  0  0  0  0  0  0
    1.7196    0.4644    0.0000 C   0  0  0  0  0  0  0  0  0  0  0  0
    0.2205    0.4136    0.0000 C   0  0  0  0  0  0  0  0  0  0  0  0
   -4.2769    0.2614    0.0000 C   0  0  0  0  0  0  0  0  0  0  0  0
   -4.9825   -1.0623    0.0000 O   0  0  0  0  0  0  0  0  0  0  0  0
   -5.0704    1.5343    0.0000 O   0  0  0  0  0  0  0  0  0  0  0  0
  2  1  1  1
  2  3  1  0
  3  4  1  0
  4  5  1  0
  5  6  2  0
  6  7  1  0
  7  8  2  0
  8  9  1  0
  9 10  2  0
 10 11  1  0
 11 12  2  0
 12 13  1  0
  2 14  1  0
 14 15  2  0
 14 16  1  0
 12  7  1  0
 13  4  2  0
M  END
>  <rName>  (189) 
2Nal

>  <PQ_SYMBOL>  (189) 
2Nal

>  <FULL_NAME>  (189) 
3-(2-naphthyl)-L-Alanine

>  <IUPAC_CONDENSED>  (189) 
2Nal

>  <IUPAC>  (189) 
(2S)-2-amino-3-(naphthalen-2-yl)propanoic acid

>  <TYPE>  (189) 
Backbone

>  <CLASS>  (189) 
alpha

>  <ANALOG>  (189) 
Phe

>  <MOL_WT>  (189) 
215.25199999999998

>  <LOGP>  (189) 
1.7942

>  <TPSA>  (189) 
63.32000000000001

>  <POPULARITY>  (189) 
40.9

>  <PROTECTED>  (189) 
TRUE

>  <SMILES>  (189) 
N[C@@H](Cc2(ccc1(ccccc1c2)))C(=O)O

>  <INCHIKEY>  (189) 
JPZXHKDZASGCLU-LBPRGKRZSA-N

$$$$
2Nal_3RMe
     RDKit          2D

 17 18  0  0  0  0  0  0  0  0999 V2000
   -2.5824   -1.8747    0.0000 N   0  0  0  0  0  0  0  0  0  0  0  0
   -2.8808   -0.4047    0.0000 C   0  0  0  0  0  0  0  0  0  0  0  0
   -1.7569    0.5888    0.0000 C   0  0  0  0  0  0  0  0  0  0  0  0
   -2.0553    2.0588    0.0000 C   0  0  0  0  0  0  0  0  0  0  0  0
   -0.3347    0.1121    0.0000 C   0  0  0  0  0  0  0  0  0  0  0  0
   -0.0363   -1.3579    0.0000 C   0  0  0  0  0  0  0  0  0  0  0  0
    1.3860   -1.8345    0.0000 C   0  0  0  0  0  0  0  0  0  0  0  0
    2.5099   -0.8411    0.0000 C   0  0  0  0  0  0  0  0  0  0  0  0
    3.9321   -1.3177    0.0000 C   0  0  0  0  0  0  0  0  0  0  0  0
    5.0560   -0.3243    0.0000 C   0  0  0  0  0  0  0  0  0  0  0  0
    4.7577    1.1457    0.0000 C   0  0  0  0  0  0  0  0  0  0  0  0
    3.3354    1.6224    0.0000 C   0  0  0  0  0  0  0  0  0  0  0  0
    2.2115    0.6289    0.0000 C   0  0  0  0  0  0  0  0  0  0  0  0
    0.7892    1.1056    0.0000 C   0  0  0  0  0  0  0  0  0  0  0  0
   -4.3031    0.0720    0.0000 C   0  0  0  0  0  0  0  0  0  0  0  0
   -4.6015    1.5420    0.0000 O   0  0  0  0  0  0  0  0  0  0  0  0
   -5.4270   -0.9215    0.0000 O   0  0  0  0  0  0  0  0  0  0  0  0
  2  1  1  6
  2  3  1  0
  3  4  1  6
  3  5  1  0
  5  6  1  0
  6  7  2  0
  7  8  1  0
  8  9  2  0
  9 10  1  0
 10 11  2  0
 11 12  1  0
 12 13  2  0
 13 14  1  0
  2 15  1  0
 15 16  2  0
 15 17  1  0
 13  8  1  0
 14  5  2  0
M  END
>  <rName>  (190) 
2Nal_3RMe

>  <PQ_SYMBOL>  (190) 
2Nal_3RMe

>  <FULL_NAME>  (190) 
(2S,3R)-2-amino-3-naphthalen-2-ylbutanoic acid

>  <IUPAC_CONDENSED>  (190) 
2Nal(3R-Me)

>  <IUPAC>  (190) 
(2S,3R)-2-amino-3-(naphthalen-2-yl)butanoic acid

>  <TYPE>  (190) 
Backbone

>  <CLASS>  (190) 
alpha

>  <ANALOG>  (190) 
Phe

>  <MOL_WT>  (190) 
229.279

>  <LOGP>  (190) 
2.3552

>  <TPSA>  (190) 
63.32000000000001

>  <POPULARITY>  (190) 
10.1

>  <PROTECTED>  (190) 
TRUE

>  <SMILES>  (190) 
N[C@@H]([C@H](C)c2(ccc1(ccccc1c2)))C(=O)O

>  <INCHIKEY>  (190) 
LULOASYNEZFLJY-RNCFNFMXSA-N

$$$$
2Nal_3SMe
     RDKit          2D

 17 18  0  0  0  0  0  0  0  0999 V2000
   -2.5824   -1.8747    0.0000 N   0  0  0  0  0  0  0  0  0  0  0  0
   -2.8808   -0.4047    0.0000 C   0  0  0  0  0  0  0  0  0  0  0  0
   -1.7569    0.5888    0.0000 C   0  0  0  0  0  0  0  0  0  0  0  0
   -2.0553    2.0588    0.0000 C   0  0  0  0  0  0  0  0  0  0  0  0
   -0.3347    0.1121    0.0000 C   0  0  0  0  0  0  0  0  0  0  0  0
   -0.0363   -1.3579    0.0000 C   0  0  0  0  0  0  0  0  0  0  0  0
    1.3860   -1.8345    0.0000 C   0  0  0  0  0  0  0  0  0  0  0  0
    2.5099   -0.8411    0.0000 C   0  0  0  0  0  0  0  0  0  0  0  0
    3.9321   -1.3177    0.0000 C   0  0  0  0  0  0  0  0  0  0  0  0
    5.0560   -0.3243    0.0000 C   0  0  0  0  0  0  0  0  0  0  0  0
    4.7577    1.1457    0.0000 C   0  0  0  0  0  0  0  0  0  0  0  0
    3.3354    1.6224    0.0000 C   0  0  0  0  0  0  0  0  0  0  0  0
    2.2115    0.6289    0.0000 C   0  0  0  0  0  0  0  0  0  0  0  0
    0.7892    1.1056    0.0000 C   0  0  0  0  0  0  0  0  0  0  0  0
   -4.3031    0.0720    0.0000 C   0  0  0  0  0  0  0  0  0  0  0  0
   -4.6015    1.5420    0.0000 O   0  0  0  0  0  0  0  0  0  0  0  0
   -5.4270   -0.9215    0.0000 O   0  0  0  0  0  0  0  0  0  0  0  0
  2  1  1  6
  2  3  1  0
  3  4  1  1
  3  5  1  0
  5  6  1  0
  6  7  2  0
  7  8  1  0
  8  9  2  0
  9 10  1  0
 10 11  2  0
 11 12  1  0
 12 13  2  0
 13 14  1  0
  2 15  1  0
 15 16  2  0
 15 17  1  0
 13  8  1  0
 14  5  2  0
M  END
>  <rName>  (191) 
2Nal_3SMe

>  <PQ_SYMBOL>  (191) 
2Nal_3SMe

>  <FULL_NAME>  (191) 
(2S,3S)-2-Amino-3-(2-naphthyl)butyric acid

>  <IUPAC_CONDENSED>  (191) 
2Nal(3S-Me)

>  <IUPAC>  (191) 
(2S,3S)-2-amino-3-(naphthalen-2-yl)butanoic acid

>  <TYPE>  (191) 
Backbone

>  <CLASS>  (191) 
alpha

>  <ANALOG>  (191) 
Phe

>  <MOL_WT>  (191) 
229.279

>  <LOGP>  (191) 
2.3552

>  <TPSA>  (191) 
63.32000000000001

>  <POPULARITY>  (191) 
9.7

>  <PROTECTED>  (191) 
TRUE

>  <SMILES>  (191) 
N[C@@H]([C@@H](C)c2(ccc1(ccccc1c2)))C(=O)O

>  <INCHIKEY>  (191) 
LULOASYNEZFLJY-ZANVPECISA-N

$$$$
2Nal_6Br
     RDKit          2D

 17 18  0  0  0  0  0  0  0  0999 V2000
   -3.0886    1.6988    0.0000 N   0  0  0  0  0  0  0  0  0  0  0  0
   -3.3834    0.2280    0.0000 C   0  0  0  0  0  0  0  0  0  0  0  0
   -2.2570   -0.7626    0.0000 C   0  0  0  0  0  0  0  0  0  0  0  0
   -0.8359   -0.2824    0.0000 C   0  0  0  0  0  0  0  0  0  0  0  0
   -0.5412    1.1883    0.0000 C   0  0  0  0  0  0  0  0  0  0  0  0
    0.8799    1.6685    0.0000 C   0  0  0  0  0  0  0  0  0  0  0  0
    2.0062    0.6778    0.0000 C   0  0  0  0  0  0  0  0  0  0  0  0
    3.4273    1.1580    0.0000 C   0  0  0  0  0  0  0  0  0  0  0  0
    4.5537    0.1674    0.0000 C   0  0  0  0  0  0  0  0  0  0  0  0
    5.9747    0.6475    0.0000 Br  0  0  0  0  0  0  0  0  0  0  0  0
    4.2589   -1.3034    0.0000 C   0  0  0  0  0  0  0  0  0  0  0  0
    2.8379   -1.7835    0.0000 C   0  0  0  0  0  0  0  0  0  0  0  0
    1.7115   -0.7929    0.0000 C   0  0  0  0  0  0  0  0  0  0  0  0
    0.2904   -1.2731    0.0000 C   0  0  0  0  0  0  0  0  0  0  0  0
   -4.8044   -0.2521    0.0000 C   0  0  0  0  0  0  0  0  0  0  0  0
   -5.0992   -1.7229    0.0000 O   0  0  0  0  0  0  0  0  0  0  0  0
   -5.9308    0.7385    0.0000 O   0  0  0  0  0  0  0  0  0  0  0  0
  2  1  1  1
  2  3  1  0
  3  4  1  0
  4  5  2  0
  5  6  1  0
  6  7  2  0
  7  8  1  0
  8  9  2  0
  9 10  1  0
  9 11  1  0
 11 12  2  0
 12 13  1  0
 13 14  2  0
  2 15  1  0
 15 16  2  0
 15 17  1  0
 13  7  1  0
 14  4  1  0
M  END
>  <rName>  (192) 
2Nal_6Br

>  <PQ_SYMBOL>  (192) 
2Nal_6Br

>  <FULL_NAME>  (192) 
(S)-a-Amino-6-bromo-2-naphthalenepropanoic acid

>  <IUPAC_CONDENSED>  (192) 
2Nal(6-Br)

>  <IUPAC>  (192) 
(2S)-2-amino-3-(6-bromonaphthalen-2-yl)propanoic acid

>  <TYPE>  (192) 
Backbone

>  <CLASS>  (192) 
alpha

>  <ANALOG>  (192) 
Phe

>  <MOL_WT>  (192) 
294.148

>  <LOGP>  (192) 
2.5567

>  <TPSA>  (192) 
63.32000000000001

>  <POPULARITY>  (192) 
2.2

>  <PROTECTED>  (192) 
TRUE

>  <SMILES>  (192) 
N[C@@H](Cc2(ccc1(cc(Br)ccc1c2)))C(=O)O

>  <INCHIKEY>  (192) 
MZNWNDUYENWGBM-LBPRGKRZSA-N

$$$$
2Pal
     RDKit          2D

 12 12  0  0  0  0  0  0  0  0999 V2000
   -1.2391    1.6805    0.0000 N   0  0  0  0  0  0  0  0  0  0  0  0
   -1.6184    0.2292    0.0000 C   0  0  0  0  0  0  0  0  0  0  0  0
   -0.5513   -0.8249    0.0000 C   0  0  0  0  0  0  0  0  0  0  0  0
    0.8952   -0.4278    0.0000 C   0  0  0  0  0  0  0  0  0  0  0  0
    1.2745    1.0235    0.0000 C   0  0  0  0  0  0  0  0  0  0  0  0
    2.7210    1.4206    0.0000 C   0  0  0  0  0  0  0  0  0  0  0  0
    3.7882    0.3665    0.0000 C   0  0  0  0  0  0  0  0  0  0  0  0
    3.4088   -1.0848    0.0000 C   0  0  0  0  0  0  0  0  0  0  0  0
    1.9624   -1.4819    0.0000 N   0  0  0  0  0  0  0  0  0  0  0  0
   -3.0649   -0.1679    0.0000 C   0  0  0  0  0  0  0  0  0  0  0  0
   -3.4442   -1.6191    0.0000 O   0  0  0  0  0  0  0  0  0  0  0  0
   -4.1321    0.8862    0.0000 O   0  0  0  0  0  0  0  0  0  0  0  0
  2  1  1  1
  2  3  1  0
  3  4  1  0
  4  5  2  0
  5  6  1  0
  6  7  2  0
  7  8  1  0
  8  9  2  0
  2 10  1  0
 10 11  2  0
 10 12  1  0
  9  4  1  0
M  END
>  <rName>  (193) 
2Pal

>  <PQ_SYMBOL>  (193) 
2Pal

>  <FULL_NAME>  (193) 
3-(2-Pyridyl)-L-Alanine

>  <IUPAC_CONDENSED>  (193) 
2Pal

>  <IUPAC>  (193) 
(2S)-2-amino-3-(pyridin-2-yl)propanoic acid

>  <TYPE>  (193) 
Backbone

>  <CLASS>  (193) 
alpha

>  <ANALOG>  (193) 
Phe

>  <MOL_WT>  (193) 
166.17999999999998

>  <LOGP>  (193) 
0.035999999999999754

>  <TPSA>  (193) 
76.21

>  <POPULARITY>  (193) 
16.3

>  <PROTECTED>  (193) 
TRUE

>  <SMILES>  (193) 
N[C@@H](Cc1(ccccn1))C(=O)O

>  <INCHIKEY>  (193) 
PDRJLZDUOULRHE-ZETCQYMHSA-N

$$$$
2Pal_3NH2_6Cl
     RDKit          2D

 14 14  0  0  0  0  0  0  0  0999 V2000
   -1.4552    1.7882    0.0000 N   0  0  0  0  0  0  0  0  0  0  0  0
   -1.9325    0.3661    0.0000 C   0  0  0  0  0  0  0  0  0  0  0  0
   -0.9397   -0.7583    0.0000 C   0  0  0  0  0  0  0  0  0  0  0  0
    0.5305   -0.4606    0.0000 C   0  0  0  0  0  0  0  0  0  0  0  0
    1.0078    0.9614    0.0000 N   0  0  0  0  0  0  0  0  0  0  0  0
    2.4780    1.2591    0.0000 C   0  0  0  0  0  0  0  0  0  0  0  0
    2.9553    2.6811    0.0000 Cl  0  0  0  0  0  0  0  0  0  0  0  0
    3.4709    0.1347    0.0000 C   0  0  0  0  0  0  0  0  0  0  0  0
    2.9935   -1.2874    0.0000 C   0  0  0  0  0  0  0  0  0  0  0  0
    1.5234   -1.5850    0.0000 C   0  0  0  0  0  0  0  0  0  0  0  0
    1.0461   -3.0070    0.0000 N   0  0  0  0  0  0  0  0  0  0  0  0
   -3.4027    0.0685    0.0000 C   0  0  0  0  0  0  0  0  0  0  0  0
   -3.8800   -1.3536    0.0000 O   0  0  0  0  0  0  0  0  0  0  0  0
   -4.3955    1.1929    0.0000 O   0  0  0  0  0  0  0  0  0  0  0  0
  2  1  1  1
  2  3  1  0
  3  4  1  0
  4  5  1  0
  5  6  2  0
  6  7  1  0
  6  8  1  0
  8  9  2  0
  9 10  1  0
 10 11  1  0
  2 12  1  0
 12 13  2  0
 12 14  1  0
 10  4  2  0
M  END
>  <rName>  (194) 
2Pal_3NH2_6Cl

>  <PQ_SYMBOL>  (194) 
2Pal_3NH2_6Cl

>  <FULL_NAME>  (194) 
(S)-2-amino-3-(3-amino-6-chloropyridin-2-yl)propanoic acid

>  <IUPAC_CONDENSED>  (194) 
2Pal(3-NH2,6-Cl)

>  <IUPAC>  (194) 
(2S)-2-amino-3-(3-amino-6-chloropyridin-2-yl)propanoic acid

>  <TYPE>  (194) 
Backbone

>  <CLASS>  (194) 
alpha

>  <ANALOG>  (194) 
Phe

>  <MOL_WT>  (194) 
215.64000000000001

>  <LOGP>  (194) 
0.2716000000000001

>  <TPSA>  (194) 
102.23

>  <POPULARITY>  (194) 
2.2

>  <PROTECTED>  (194) 
TRUE

>  <SMILES>  (194) 
N[C@@H](Cc1(nc(Cl)ccc1N))C(=O)O

>  <INCHIKEY>  (194) 
DLESBRDVGQWWCI-YFKPBYRVSA-N

$$$$
2Pal_3NH2_6Me
     RDKit          2D

 14 14  0  0  0  0  0  0  0  0999 V2000
   -1.4552    1.7882    0.0000 N   0  0  0  0  0  0  0  0  0  0  0  0
   -1.9325    0.3661    0.0000 C   0  0  0  0  0  0  0  0  0  0  0  0
   -0.9397   -0.7583    0.0000 C   0  0  0  0  0  0  0  0  0  0  0  0
    0.5305   -0.4606    0.0000 C   0  0  0  0  0  0  0  0  0  0  0  0
    1.0078    0.9614    0.0000 N   0  0  0  0  0  0  0  0  0  0  0  0
    2.4780    1.2591    0.0000 C   0  0  0  0  0  0  0  0  0  0  0  0
    2.9553    2.6811    0.0000 C   0  0  0  0  0  0  0  0  0  0  0  0
    3.4709    0.1347    0.0000 C   0  0  0  0  0  0  0  0  0  0  0  0
    2.9935   -1.2874    0.0000 C   0  0  0  0  0  0  0  0  0  0  0  0
    1.5234   -1.5850    0.0000 C   0  0  0  0  0  0  0  0  0  0  0  0
    1.0461   -3.0070    0.0000 N   0  0  0  0  0  0  0  0  0  0  0  0
   -3.4027    0.0685    0.0000 C   0  0  0  0  0  0  0  0  0  0  0  0
   -3.8800   -1.3536    0.0000 O   0  0  0  0  0  0  0  0  0  0  0  0
   -4.3955    1.1929    0.0000 O   0  0  0  0  0  0  0  0  0  0  0  0
  2  1  1  1
  2  3  1  0
  3  4  1  0
  4  5  1  0
  5  6  2  0
  6  7  1  0
  6  8  1  0
  8  9  2  0
  9 10  1  0
 10 11  1  0
  2 12  1  0
 12 13  2  0
 12 14  1  0
 10  4  2  0
M  END
>  <rName>  (195) 
2Pal_3NH2_6Me

>  <PQ_SYMBOL>  (195) 
2Pal_3NH2_6Me

>  <FULL_NAME>  (195) 
(S)-2-amino-3-(3-amino-6-methylpyridin-2-yl)propanoic acid

>  <IUPAC_CONDENSED>  (195) 
2Pal(3-NH2,6-Me)

>  <IUPAC>  (195) 
(2S)-2-amino-3-(3-amino-6-methylpyridin-2-yl)propanoic acid

>  <TYPE>  (195) 
Backbone

>  <CLASS>  (195) 
alpha

>  <ANALOG>  (195) 
Phe

>  <MOL_WT>  (195) 
195.22199999999998

>  <LOGP>  (195) 
-0.07338000000000022

>  <TPSA>  (195) 
102.23

>  <POPULARITY>  (195) 
2.7

>  <PROTECTED>  (195) 
TRUE

>  <SMILES>  (195) 
N[C@@H](Cc1(nc(C)ccc1N))C(=O)O

>  <INCHIKEY>  (195) 
WMRQLVYUDDZVFJ-ZETCQYMHSA-N

$$$$
2Pal_3NO2_5Me
     RDKit          2D

 16 16  0  0  0  0  0  0  0  0999 V2000
   -2.0264    2.1084    0.0000 N   0  0  0  0  0  0  0  0  0  0  0  0
   -2.2807    0.6301    0.0000 C   0  0  0  0  0  0  0  0  0  0  0  0
   -1.1276   -0.3292    0.0000 C   0  0  0  0  0  0  0  0  0  0  0  0
    0.2798    0.1897    0.0000 C   0  0  0  0  0  0  0  0  0  0  0  0
    0.5340    1.6680    0.0000 N   0  0  0  0  0  0  0  0  0  0  0  0
    1.9414    2.1869    0.0000 C   0  0  0  0  0  0  0  0  0  0  0  0
    3.0945    1.2276    0.0000 C   0  0  0  0  0  0  0  0  0  0  0  0
    4.5019    1.7465    0.0000 C   0  0  0  0  0  0  0  0  0  0  0  0
    2.8403   -0.2507    0.0000 C   0  0  0  0  0  0  0  0  0  0  0  0
    1.4329   -0.7697    0.0000 C   0  0  0  0  0  0  0  0  0  0  0  0
    1.1786   -2.2479    0.0000 N   0  0  0  0  0  0  0  0  0  0  0  0
    2.3317   -3.2073    0.0000 O   0  0  0  0  0  0  0  0  0  0  0  0
   -0.2288   -2.7669    0.0000 O   0  0  0  0  0  0  0  0  0  0  0  0
   -3.6881    0.1112    0.0000 C   0  0  0  0  0  0  0  0  0  0  0  0
   -3.9423   -1.3671    0.0000 O   0  0  0  0  0  0  0  0  0  0  0  0
   -4.8412    1.0705    0.0000 O   0  0  0  0  0  0  0  0  0  0  0  0
  2  1  1  1
  2  3  1  0
  3  4  1  0
  4  5  1  0
  5  6  2  0
  6  7  1  0
  7  8  1  0
  7  9  2  0
  9 10  1  0
 10 11  1  0
 11 12  2  0
 11 13  1  0
  2 14  1  0
 14 15  2  0
 14 16  1  0
 10  4  2  0
M  CHG  2  11   1  13  -1
M  END
>  <rName>  (196) 
2Pal_3NO2_5Me

>  <PQ_SYMBOL>  (196) 
2Pal_3NO2_5Me

>  <FULL_NAME>  (196) 
(S)-2-amino-3-(5-methyl-3-nitropyridin-2-yl)propanoic acid

>  <IUPAC_CONDENSED>  (196) 
2Pal(3-NO2,5-Me)

>  <IUPAC>  (196) 
(2S)-2-amino-3-(5-methyl-3-nitropyridin-2-yl)propanoic acid

>  <TYPE>  (196) 
Backbone

>  <CLASS>  (196) 
alpha

>  <ANALOG>  (196) 
Phe

>  <MOL_WT>  (196) 
225.20399999999998

>  <LOGP>  (196) 
0.25261999999999935

>  <TPSA>  (196) 
119.35000000000001

>  <POPULARITY>  (196) 
2.4

>  <PROTECTED>  (196) 
TRUE

>  <SMILES>  (196) 
N[C@@H](Cc1(ncc(C)cc1[N+](=O)[O-]))C(=O)O

>  <INCHIKEY>  (196) 
PSBSSKWDWIWCRM-LURJTMIESA-N

$$$$
2Pal_3NO2_6OMe
     RDKit          2D

 17 17  0  0  0  0  0  0  0  0999 V2000
   -1.4771    2.3022    0.0000 N   0  0  0  0  0  0  0  0  0  0  0  0
   -2.1654    0.9694    0.0000 C   0  0  0  0  0  0  0  0  0  0  0  0
   -1.3554   -0.2930    0.0000 C   0  0  0  0  0  0  0  0  0  0  0  0
    0.1429   -0.2228    0.0000 C   0  0  0  0  0  0  0  0  0  0  0  0
    0.8313    1.1100    0.0000 N   0  0  0  0  0  0  0  0  0  0  0  0
    2.3296    1.1802    0.0000 C   0  0  0  0  0  0  0  0  0  0  0  0
    3.0180    2.5130    0.0000 O   0  0  0  0  0  0  0  0  0  0  0  0
    4.5163    2.5832    0.0000 C   0  0  0  0  0  0  0  0  0  0  0  0
    3.1397   -0.0823    0.0000 C   0  0  0  0  0  0  0  0  0  0  0  0
    2.4513   -1.4150    0.0000 C   0  0  0  0  0  0  0  0  0  0  0  0
    0.9530   -1.4853    0.0000 C   0  0  0  0  0  0  0  0  0  0  0  0
    0.2646   -2.8180    0.0000 N   0  0  0  0  0  0  0  0  0  0  0  0
    1.0747   -4.0805    0.0000 O   0  0  0  0  0  0  0  0  0  0  0  0
   -1.2337   -2.8883    0.0000 O   0  0  0  0  0  0  0  0  0  0  0  0
   -3.6638    0.8992    0.0000 C   0  0  0  0  0  0  0  0  0  0  0  0
   -4.3521   -0.4336    0.0000 O   0  0  0  0  0  0  0  0  0  0  0  0
   -4.4738    2.1617    0.0000 O   0  0  0  0  0  0  0  0  0  0  0  0
  2  1  1  1
  2  3  1  0
  3  4  1  0
  4  5  1  0
  5  6  2  0
  6  7  1  0
  7  8  1  0
  6  9  1  0
  9 10  2  0
 10 11  1  0
 11 12  1  0
 12 13  2  0
 12 14  1  0
  2 15  1  0
 15 16  2  0
 15 17  1  0
 11  4  2  0
M  CHG  2  12   1  14  -1
M  END
>  <rName>  (197) 
2Pal_3NO2_6OMe

>  <PQ_SYMBOL>  (197) 
2Pal_3NO2_6OMe

>  <FULL_NAME>  (197) 
(S)-2-amino-3-(6-methoxy-3-nitropyridin-2-yl)propanoic acid

>  <IUPAC_CONDENSED>  (197) 
2Pal(3-NO2,6-OMe)

>  <IUPAC>  (197) 
(2S)-2-amino-3-(6-methoxy-3-nitropyridin-2-yl)propanoic acid

>  <TYPE>  (197) 
Backbone

>  <CLASS>  (197) 
alpha

>  <ANALOG>  (197) 
Phe

>  <MOL_WT>  (197) 
241.20299999999997

>  <LOGP>  (197) 
-0.047200000000000186

>  <TPSA>  (197) 
128.57999999999998

>  <POPULARITY>  (197) 
2.2

>  <PROTECTED>  (197) 
TRUE

>  <SMILES>  (197) 
N[C@@H](Cc1(nc(OC)ccc1[N+](=O)[O-]))C(=O)O

>  <INCHIKEY>  (197) 
UTVNIPLKQNCQFP-YFKPBYRVSA-N

$$$$
2Pal_3OH_6Me
     RDKit          2D

 14 14  0  0  0  0  0  0  0  0999 V2000
   -1.4552    1.7882    0.0000 N   0  0  0  0  0  0  0  0  0  0  0  0
   -1.9325    0.3661    0.0000 C   0  0  0  0  0  0  0  0  0  0  0  0
   -0.9397   -0.7583    0.0000 C   0  0  0  0  0  0  0  0  0  0  0  0
    0.5305   -0.4606    0.0000 C   0  0  0  0  0  0  0  0  0  0  0  0
    1.0078    0.9614    0.0000 N   0  0  0  0  0  0  0  0  0  0  0  0
    2.4780    1.2591    0.0000 C   0  0  0  0  0  0  0  0  0  0  0  0
    2.9553    2.6811    0.0000 C   0  0  0  0  0  0  0  0  0  0  0  0
    3.4709    0.1347    0.0000 C   0  0  0  0  0  0  0  0  0  0  0  0
    2.9935   -1.2874    0.0000 C   0  0  0  0  0  0  0  0  0  0  0  0
    1.5234   -1.5850    0.0000 C   0  0  0  0  0  0  0  0  0  0  0  0
    1.0461   -3.0070    0.0000 O   0  0  0  0  0  0  0  0  0  0  0  0
   -3.4027    0.0685    0.0000 C   0  0  0  0  0  0  0  0  0  0  0  0
   -3.8800   -1.3536    0.0000 O   0  0  0  0  0  0  0  0  0  0  0  0
   -4.3955    1.1929    0.0000 O   0  0  0  0  0  0  0  0  0  0  0  0
  2  1  1  1
  2  3  1  0
  3  4  1  0
  4  5  1  0
  5  6  2  0
  6  7  1  0
  6  8  1  0
  8  9  2  0
  9 10  1  0
 10 11  1  0
  2 12  1  0
 12 13  2  0
 12 14  1  0
 10  4  2  0
M  END
>  <rName>  (198) 
2Pal_3OH_6Me

>  <PQ_SYMBOL>  (198) 
2Pal_3OH_6Me

>  <FULL_NAME>  (198) 
(S)-2-amino-3-(3-hydroxy-6-methylpyridin-2-yl)propanoic acid

>  <IUPAC_CONDENSED>  (198) 
2Pal(3-OH,6-Me)

>  <IUPAC>  (198) 
(2S)-2-amino-3-(3-hydroxy-6-methylpyridin-2-yl)propanoic acid

>  <TYPE>  (198) 
Backbone

>  <CLASS>  (198) 
alpha

>  <ANALOG>  (198) 
Phe

>  <MOL_WT>  (198) 
196.206

>  <LOGP>  (198) 
0.05001999999999995

>  <TPSA>  (198) 
96.44000000000001

>  <POPULARITY>  (198) 
2.8

>  <PROTECTED>  (198) 
TRUE

>  <SMILES>  (198) 
N[C@@H](Cc1(nc(C)ccc1O))C(=O)O

>  <INCHIKEY>  (198) 
XUQOYIGQUKSSDM-LURJTMIESA-N

$$$$
2Pal_4NH2
     RDKit          2D

 13 13  0  0  0  0  0  0  0  0999 V2000
   -1.2997    1.6200    0.0000 N   0  0  0  0  0  0  0  0  0  0  0  0
   -1.8436    0.2221    0.0000 C   0  0  0  0  0  0  0  0  0  0  0  0
   -0.9049   -0.9479    0.0000 C   0  0  0  0  0  0  0  0  0  0  0  0
    0.5777   -0.7200    0.0000 C   0  0  0  0  0  0  0  0  0  0  0  0
    1.1215    0.6779    0.0000 C   0  0  0  0  0  0  0  0  0  0  0  0
    2.6041    0.9059    0.0000 C   0  0  0  0  0  0  0  0  0  0  0  0
    3.1480    2.3038    0.0000 N   0  0  0  0  0  0  0  0  0  0  0  0
    3.5428   -0.2641    0.0000 C   0  0  0  0  0  0  0  0  0  0  0  0
    2.9989   -1.6621    0.0000 C   0  0  0  0  0  0  0  0  0  0  0  0
    1.5163   -1.8900    0.0000 N   0  0  0  0  0  0  0  0  0  0  0  0
   -3.3262   -0.0059    0.0000 C   0  0  0  0  0  0  0  0  0  0  0  0
   -3.8701   -1.4038    0.0000 O   0  0  0  0  0  0  0  0  0  0  0  0
   -4.2649    1.1641    0.0000 O   0  0  0  0  0  0  0  0  0  0  0  0
  2  1  1  1
  2  3  1  0
  3  4  1  0
  4  5  1  0
  5  6  2  0
  6  7  1  0
  6  8  1  0
  8  9  2  0
  9 10  1  0
  2 11  1  0
 11 12  2  0
 11 13  1  0
 10  4  2  0
M  END
>  <rName>  (199) 
2Pal_4NH2

>  <PQ_SYMBOL>  (199) 
2Pal_4NH2

>  <FULL_NAME>  (199) 
(S)-2-amino-3-(4-aminopyridin-2-yl)propanoic acid

>  <IUPAC_CONDENSED>  (199) 
2Pal(4-NH2)

>  <IUPAC>  (199) 
(2S)-2-amino-3-(4-aminopyridin-2-yl)propanoic acid

>  <TYPE>  (199) 
Backbone

>  <CLASS>  (199) 
alpha

>  <ANALOG>  (199) 
Phe

>  <MOL_WT>  (199) 
181.19499999999996

>  <LOGP>  (199) 
-0.38180000000000064

>  <TPSA>  (199) 
102.23

>  <POPULARITY>  (199) 
2.9

>  <PROTECTED>  (199) 
TRUE

>  <SMILES>  (199) 
N[C@@H](Cc1(cc(N)ccn1))C(=O)O

>  <INCHIKEY>  (199) 
OEMKPBDAUUIRBT-ZETCQYMHSA-N

$$$$
2Pal_5CO2H
     RDKit          2D

 15 15  0  0  0  0  0  0  0  0999 V2000
   -2.2547    1.6872    0.0000 N   0  0  0  0  0  0  0  0  0  0  0  0
   -2.7489    0.2709    0.0000 C   0  0  0  0  0  0  0  0  0  0  0  0
   -1.7696   -0.8652    0.0000 C   0  0  0  0  0  0  0  0  0  0  0  0
   -0.2959   -0.5852    0.0000 C   0  0  0  0  0  0  0  0  0  0  0  0
    0.1983    0.8311    0.0000 C   0  0  0  0  0  0  0  0  0  0  0  0
    1.6719    1.1111    0.0000 C   0  0  0  0  0  0  0  0  0  0  0  0
    2.6513   -0.0250    0.0000 C   0  0  0  0  0  0  0  0  0  0  0  0
    2.1570   -1.4413    0.0000 C   0  0  0  0  0  0  0  0  0  0  0  0
    0.6834   -1.7213    0.0000 N   0  0  0  0  0  0  0  0  0  0  0  0
    4.1249    0.2550    0.0000 C   0  0  0  0  0  0  0  0  0  0  0  0
    4.6192    1.6713    0.0000 O   0  0  0  0  0  0  0  0  0  0  0  0
    5.1043   -0.8811    0.0000 O   0  0  0  0  0  0  0  0  0  0  0  0
   -4.2225   -0.0091    0.0000 C   0  0  0  0  0  0  0  0  0  0  0  0
   -4.7168   -1.4254    0.0000 O   0  0  0  0  0  0  0  0  0  0  0  0
   -5.2019    1.1270    0.0000 O   0  0  0  0  0  0  0  0  0  0  0  0
  2  1  1  1
  2  3  1  0
  3  4  1  0
  4  5  1  0
  5  6  2  0
  6  7  1  0
  7  8  2  0
  8  9  1  0
  7 10  1  0
 10 11  2  0
 10 12  1  0
  2 13  1  0
 13 14  2  0
 13 15  1  0
  9  4  2  0
M  END
>  <rName>  (200) 
2Pal_5CO2H

>  <PQ_SYMBOL>  (200) 
2Pal_5CO2H

>  <FULL_NAME>  (200) 
(S)-6-(2-amino-2-carboxyethyl)nicotinic acid

>  <IUPAC_CONDENSED>  (200) 
2Pal(5-CO2H)

>  <IUPAC>  (200) 
6-((2S)-2-amino-3-hydroxy-3-oxopropyl)pyridine-3-carboxylic acid

>  <TYPE>  (200) 
Backbone

>  <CLASS>  (200) 
alpha

>  <ANALOG>  (200) 
Phe

>  <MOL_WT>  (200) 
210.18899999999996

>  <LOGP>  (200) 
-0.2658000000000001

>  <TPSA>  (200) 
113.51

>  <POPULARITY>  (200) 
2.8

>  <PROTECTED>  (200) 
TRUE

>  <SMILES>  (200) 
N[C@@H](Cc1(ccc(cn1)C(=O)O))C(=O)O

>  <INCHIKEY>  (200) 
CBSMIRICWPPUPH-ZETCQYMHSA-N

$$$$
2Pal_6NH2
     RDKit          2D

 13 13  0  0  0  0  0  0  0  0999 V2000
   -1.7680    1.6690    0.0000 N   0  0  0  0  0  0  0  0  0  0  0  0
   -1.9932    0.1860    0.0000 C   0  0  0  0  0  0  0  0  0  0  0  0
   -0.8215   -0.7506    0.0000 C   0  0  0  0  0  0  0  0  0  0  0  0
    0.5754   -0.2041    0.0000 C   0  0  0  0  0  0  0  0  0  0  0  0
    0.8006    1.2789    0.0000 C   0  0  0  0  0  0  0  0  0  0  0  0
    2.1976    1.8254    0.0000 C   0  0  0  0  0  0  0  0  0  0  0  0
    3.3693    0.8888    0.0000 C   0  0  0  0  0  0  0  0  0  0  0  0
    3.1441   -0.5942    0.0000 C   0  0  0  0  0  0  0  0  0  0  0  0
    4.3158   -1.5307    0.0000 N   0  0  0  0  0  0  0  0  0  0  0  0
    1.7472   -1.1406    0.0000 N   0  0  0  0  0  0  0  0  0  0  0  0
   -3.3901   -0.3605    0.0000 C   0  0  0  0  0  0  0  0  0  0  0  0
   -3.6153   -1.8435    0.0000 O   0  0  0  0  0  0  0  0  0  0  0  0
   -4.5618    0.5760    0.0000 O   0  0  0  0  0  0  0  0  0  0  0  0
  2  1  1  1
  2  3  1  0
  3  4  1  0
  4  5  2  0
  5  6  1  0
  6  7  2  0
  7  8  1  0
  8  9  1  0
  8 10  2  0
  2 11  1  0
 11 12  2  0
 11 13  1  0
 10  4  1  0
M  END
>  <rName>  (201) 
2Pal_6NH2

>  <PQ_SYMBOL>  (201) 
2Pal_6NH2

>  <FULL_NAME>  (201) 
(S)-2-amino-3-(6-aminopyridin-2-yl)propanoic acid

>  <IUPAC_CONDENSED>  (201) 
2Pal(6-NH2)

>  <IUPAC>  (201) 
(2S)-2-amino-3-(6-aminopyridin-2-yl)propanoic acid

>  <TYPE>  (201) 
Backbone

>  <CLASS>  (201) 
alpha

>  <ANALOG>  (201) 
Phe

>  <MOL_WT>  (201) 
181.19499999999996

>  <LOGP>  (201) 
-0.3818000000000002

>  <TPSA>  (201) 
102.23

>  <POPULARITY>  (201) 
3.9

>  <PROTECTED>  (201) 
TRUE

>  <SMILES>  (201) 
N[C@@H](Cc1(cccc(N)n1))C(=O)O

>  <INCHIKEY>  (201) 
XKSKSDXAPQRGAB-LURJTMIESA-N

$$$$
2Pal_6carbonyl
     RDKit          2D

 13 13  0  0  0  0  0  0  0  0999 V2000
   -1.7680    1.6690    0.0000 N   0  0  0  0  0  0  0  0  0  0  0  0
   -1.9932    0.1860    0.0000 C   0  0  0  0  0  0  0  0  0  0  0  0
   -0.8215   -0.7506    0.0000 C   0  0  0  0  0  0  0  0  0  0  0  0
    0.5754   -0.2041    0.0000 C   0  0  0  0  0  0  0  0  0  0  0  0
    0.8006    1.2789    0.0000 C   0  0  0  0  0  0  0  0  0  0  0  0
    2.1976    1.8254    0.0000 C   0  0  0  0  0  0  0  0  0  0  0  0
    3.3693    0.8888    0.0000 C   0  0  0  0  0  0  0  0  0  0  0  0
    3.1441   -0.5942    0.0000 C   0  0  0  0  0  0  0  0  0  0  0  0
    4.3158   -1.5307    0.0000 O   0  0  0  0  0  0  0  0  0  0  0  0
    1.7472   -1.1406    0.0000 N   0  0  0  0  0  0  0  0  0  0  0  0
   -3.3901   -0.3605    0.0000 C   0  0  0  0  0  0  0  0  0  0  0  0
   -3.6153   -1.8435    0.0000 O   0  0  0  0  0  0  0  0  0  0  0  0
   -4.5618    0.5760    0.0000 O   0  0  0  0  0  0  0  0  0  0  0  0
  2  1  1  1
  2  3  1  0
  3  4  1  0
  4  5  2  0
  5  6  1  0
  6  7  2  0
  7  8  1  0
  8  9  2  0
  8 10  1  0
  2 11  1  0
 11 12  2  0
 11 13  1  0
 10  4  1  0
M  END
>  <rName>  (202) 
2Pal_6carbonyl

>  <PQ_SYMBOL>  (202) 
2Pal_6carbonyl

>  <FULL_NAME>  (202) 
(2S)-2-amino-3-(6-oxo-1H-pyridin-2-yl)propanoic acid

>  <IUPAC_CONDENSED>  (202) 
2Pal(6-carbonyl)

>  <IUPAC>  (202) 
(2S)-2-amino-3-(6-oxo-1H-pyridin-2-yl)propanoic acid

>  <TYPE>  (202) 
Backbone

>  <CLASS>  (202) 
alpha

>  <ANALOG>  (202) 
Phe

>  <MOL_WT>  (202) 
182.17899999999997

>  <LOGP>  (202) 
-0.6707000000000001

>  <TPSA>  (202) 
96.18

>  <POPULARITY>  (202) 
2.2

>  <PROTECTED>  (202) 
TRUE

>  <SMILES>  (202) 
N[C@@H](Cc1(cccc(=O)[nH]1))C(=O)O

>  <INCHIKEY>  (202) 
VWSLBFXXXGACFI-LURJTMIESA-N

$$$$
2Ph-benzimidazol-1-acetyl
     RDKit          2D

 19 21  0  0  0  0  0  0  0  0999 V2000
   -5.1445    0.0752    0.0000 C   0  0  0  0  0  0  0  0  0  0  0  0
   -4.5826    1.4660    0.0000 C   0  0  0  0  0  0  0  0  0  0  0  0
   -3.0972    1.6748    0.0000 C   0  0  0  0  0  0  0  0  0  0  0  0
   -2.1737    0.4927    0.0000 C   0  0  0  0  0  0  0  0  0  0  0  0
   -2.7356   -0.8980    0.0000 C   0  0  0  0  0  0  0  0  0  0  0  0
   -4.2210   -1.1068    0.0000 C   0  0  0  0  0  0  0  0  0  0  0  0
   -0.6883    0.7015    0.0000 C   0  0  0  0  0  0  0  0  0  0  0  0
    0.3537   -0.3775    0.0000 N   0  0  0  0  0  0  0  0  0  0  0  0
    1.7019    0.2801    0.0000 C   0  0  0  0  0  0  0  0  0  0  0  0
    3.0927   -0.2818    0.0000 C   0  0  0  0  0  0  0  0  0  0  0  0
    4.2747    0.6417    0.0000 C   0  0  0  0  0  0  0  0  0  0  0  0
    4.0659    2.1271    0.0000 C   0  0  0  0  0  0  0  0  0  0  0  0
    2.6751    2.6890    0.0000 C   0  0  0  0  0  0  0  0  0  0  0  0
    1.4931    1.7655    0.0000 C   0  0  0  0  0  0  0  0  0  0  0  0
    0.0159    2.0260    0.0000 N   0  0  0  0  0  0  0  0  0  0  0  0
    0.0933   -1.8547    0.0000 C   0  0  0  0  0  0  0  0  0  0  0  0
    1.2424   -2.8189    0.0000 C   0  0  0  0  0  0  0  0  0  0  0  0
    2.6519   -2.3058    0.0000 O   0  0  0  0  0  0  0  0  0  0  0  0
    0.9819   -4.2961    0.0000 O   0  0  0  0  0  0  0  0  0  0  0  0
  1  2  2  0
  2  3  1  0
  3  4  2  0
  4  5  1  0
  5  6  2  0
  4  7  1  0
  7  8  1  0
  8  9  1  0
  9 10  2  0
 10 11  1  0
 11 12  2  0
 12 13  1  0
 13 14  2  0
 14 15  1  0
  8 16  1  0
 16 17  1  0
 17 18  2  0
 17 19  1  0
 14  9  1  0
 15  7  2  0
  6  1  1  0
M  END
>  <rName>  (203) 
2Ph-benzimidazol-1-acetyl

>  <PQ_SYMBOL>  (203) 
2Ph-benzimidazol-1-acetyl

>  <FULL_NAME>  (203) 
2-(2-phenylbenzimidazol-1-yl)acetic acid

>  <IUPAC_CONDENSED>  (203) 
2Ph-benzimidazol-1-acetyl

>  <IUPAC>  (203) 
2-(2-phenyl-1H-benzimidazol-1-yl)acetic acid

>  <TYPE>  (203) 
N-term cap

>  <CLASS>  (203) 
n_cap

>  <ANALOG>  (203) 
X

>  <MOL_WT>  (203) 
252.27299999999997

>  <LOGP>  (203) 
2.7878999999999996

>  <TPSA>  (203) 
55.120000000000005

>  <POPULARITY>  (203) 
8.3

>  <PROTECTED>  (203) 
TRUE

>  <SMILES>  (203) 
c3ccc(cc3)c2n(c1(ccccc1n2))CC(=O)O

>  <INCHIKEY>  (203) 
YIZCZAATUVLJSG-UHFFFAOYSA-N

$$$$
2R-amino-cyclohexane-1R-CO2H
     RDKit          2D

 10 10  0  0  0  0  0  0  0  0999 V2000
   -0.4166   -2.3203    0.0000 N   0  0  0  0  0  0  0  0  0  0  0  0
    0.3975   -1.0604    0.0000 C   0  0  0  0  0  0  0  0  0  0  0  0
   -0.2866    0.2745    0.0000 C   0  0  0  0  0  0  0  0  0  0  0  0
    0.5274    1.5344    0.0000 C   0  0  0  0  0  0  0  0  0  0  0  0
    2.0255    1.4594    0.0000 C   0  0  0  0  0  0  0  0  0  0  0  0
    2.7096    0.1244    0.0000 C   0  0  0  0  0  0  0  0  0  0  0  0
    1.8956   -1.1355    0.0000 C   0  0  0  0  0  0  0  0  0  0  0  0
   -1.7848    0.3495    0.0000 C   0  0  0  0  0  0  0  0  0  0  0  0
   -2.5988   -0.9104    0.0000 O   0  0  0  0  0  0  0  0  0  0  0  0
   -2.4688    1.6844    0.0000 O   0  0  0  0  0  0  0  0  0  0  0  0
  2  1  1  1
  2  3  1  0
  3  4  1  0
  4  5  1  0
  5  6  1  0
  6  7  1  0
  3  8  1  6
  8  9  2  0
  8 10  1  0
  7  2  1  0
M  END
>  <rName>  (204) 
2R-amino-cyclohexane-1R-CO2H

>  <PQ_SYMBOL>  (204) 
2R-amino-cyclohexane-1R-CO2H

>  <FULL_NAME>  (204) 
(1R,2R)-2-aminocyclohexane-1-carboxylic acid

>  <IUPAC_CONDENSED>  (204) 
2R-amino-cyclohexane-1R-CO2H

>  <IUPAC>  (204) 
(1R,2R)-2-aminocyclohexanecarboxylic acid

>  <TYPE>  (204) 
Backbone

>  <CLASS>  (204) 
beta

>  <ANALOG>  (204) 
Leu

>  <MOL_WT>  (204) 
143.186

>  <LOGP>  (204) 
0.5884999999999998

>  <TPSA>  (204) 
63.32000000000001

>  <POPULARITY>  (204) 
9.5

>  <PROTECTED>  (204) 
TRUE

>  <SMILES>  (204) 
N[C@H]1[C@@H](CCCC1)C(=O)O

>  <INCHIKEY>  (204) 
USQHEVWOPJDAAX-PHDIDXHHSA-N

$$$$
2R-amino-cyclohexane-1S-CO2H
     RDKit          2D

 10 10  0  0  0  0  0  0  0  0999 V2000
   -0.4166   -2.3203    0.0000 N   0  0  0  0  0  0  0  0  0  0  0  0
    0.3975   -1.0604    0.0000 C   0  0  0  0  0  0  0  0  0  0  0  0
   -0.2866    0.2745    0.0000 C   0  0  0  0  0  0  0  0  0  0  0  0
    0.5274    1.5344    0.0000 C   0  0  0  0  0  0  0  0  0  0  0  0
    2.0255    1.4594    0.0000 C   0  0  0  0  0  0  0  0  0  0  0  0
    2.7096    0.1244    0.0000 C   0  0  0  0  0  0  0  0  0  0  0  0
    1.8956   -1.1355    0.0000 C   0  0  0  0  0  0  0  0  0  0  0  0
   -1.7848    0.3495    0.0000 C   0  0  0  0  0  0  0  0  0  0  0  0
   -2.5988   -0.9104    0.0000 O   0  0  0  0  0  0  0  0  0  0  0  0
   -2.4688    1.6844    0.0000 O   0  0  0  0  0  0  0  0  0  0  0  0
  2  1  1  1
  2  3  1  0
  3  4  1  0
  4  5  1  0
  5  6  1  0
  6  7  1  0
  3  8  1  1
  8  9  2  0
  8 10  1  0
  7  2  1  0
M  END
>  <rName>  (205) 
2R-amino-cyclohexane-1S-CO2H

>  <PQ_SYMBOL>  (205) 
2R-amino-cyclohexane-1S-CO2H

>  <FULL_NAME>  (205) 
(1S,2R)-2-aminocyclohexane-1-carboxylic acid

>  <IUPAC_CONDENSED>  (205) 
2R-amino-cyclohexane-1S-CO2H

>  <IUPAC>  (205) 
(1S,2R)-2-aminocyclohexanecarboxylic acid

>  <TYPE>  (205) 
Backbone

>  <CLASS>  (205) 
beta

>  <ANALOG>  (205) 
Leu

>  <MOL_WT>  (205) 
143.186

>  <LOGP>  (205) 
0.5884999999999998

>  <TPSA>  (205) 
63.32000000000001

>  <POPULARITY>  (205) 
14.0

>  <PROTECTED>  (205) 
TRUE

>  <SMILES>  (205) 
N[C@H]1[C@H](CCCC1)C(=O)O

>  <INCHIKEY>  (205) 
USQHEVWOPJDAAX-NTSWFWBYSA-N

$$$$
2S-amino-cyclohexane-1R-CO2H
     RDKit          2D

 10 10  0  0  0  0  0  0  0  0999 V2000
   -0.4166   -2.3203    0.0000 N   0  0  0  0  0  0  0  0  0  0  0  0
    0.3975   -1.0604    0.0000 C   0  0  0  0  0  0  0  0  0  0  0  0
   -0.2866    0.2745    0.0000 C   0  0  0  0  0  0  0  0  0  0  0  0
    0.5274    1.5344    0.0000 C   0  0  0  0  0  0  0  0  0  0  0  0
    2.0255    1.4594    0.0000 C   0  0  0  0  0  0  0  0  0  0  0  0
    2.7096    0.1244    0.0000 C   0  0  0  0  0  0  0  0  0  0  0  0
    1.8956   -1.1355    0.0000 C   0  0  0  0  0  0  0  0  0  0  0  0
   -1.7848    0.3495    0.0000 C   0  0  0  0  0  0  0  0  0  0  0  0
   -2.5988   -0.9104    0.0000 O   0  0  0  0  0  0  0  0  0  0  0  0
   -2.4688    1.6844    0.0000 O   0  0  0  0  0  0  0  0  0  0  0  0
  2  1  1  6
  2  3  1  0
  3  4  1  0
  4  5  1  0
  5  6  1  0
  6  7  1  0
  3  8  1  6
  8  9  2  0
  8 10  1  0
  7  2  1  0
M  END
>  <rName>  (206) 
2S-amino-cyclohexane-1R-CO2H

>  <PQ_SYMBOL>  (206) 
2S-amino-cyclohexane-1R-CO2H

>  <FULL_NAME>  (206) 
(1R,2S)-2-aminocyclohexane-1-carboxylic acid

>  <IUPAC_CONDENSED>  (206) 
2S-amino-cyclohexane-1R-CO2H

>  <IUPAC>  (206) 
(1R,2S)-2-aminocyclohexanecarboxylic acid

>  <TYPE>  (206) 
Backbone

>  <CLASS>  (206) 
beta

>  <ANALOG>  (206) 
Leu

>  <MOL_WT>  (206) 
143.186

>  <LOGP>  (206) 
0.5884999999999998

>  <TPSA>  (206) 
63.32000000000001

>  <POPULARITY>  (206) 
9.4

>  <PROTECTED>  (206) 
TRUE

>  <SMILES>  (206) 
N[C@@H]1[C@@H](CCCC1)C(=O)O

>  <INCHIKEY>  (206) 
USQHEVWOPJDAAX-RITPCOANSA-N

$$$$
2S-amino-cyclohexane-1S-CO2H
     RDKit          2D

 10 10  0  0  0  0  0  0  0  0999 V2000
   -0.4166   -2.3203    0.0000 N   0  0  0  0  0  0  0  0  0  0  0  0
    0.3975   -1.0604    0.0000 C   0  0  0  0  0  0  0  0  0  0  0  0
   -0.2866    0.2745    0.0000 C   0  0  0  0  0  0  0  0  0  0  0  0
    0.5274    1.5344    0.0000 C   0  0  0  0  0  0  0  0  0  0  0  0
    2.0255    1.4594    0.0000 C   0  0  0  0  0  0  0  0  0  0  0  0
    2.7096    0.1244    0.0000 C   0  0  0  0  0  0  0  0  0  0  0  0
    1.8956   -1.1355    0.0000 C   0  0  0  0  0  0  0  0  0  0  0  0
   -1.7848    0.3495    0.0000 C   0  0  0  0  0  0  0  0  0  0  0  0
   -2.5988   -0.9104    0.0000 O   0  0  0  0  0  0  0  0  0  0  0  0
   -2.4688    1.6844    0.0000 O   0  0  0  0  0  0  0  0  0  0  0  0
  2  1  1  6
  2  3  1  0
  3  4  1  0
  4  5  1  0
  5  6  1  0
  6  7  1  0
  3  8  1  1
  8  9  2  0
  8 10  1  0
  7  2  1  0
M  END
>  <rName>  (207) 
2S-amino-cyclohexane-1S-CO2H

>  <PQ_SYMBOL>  (207) 
2S-amino-cyclohexane-1S-CO2H

>  <FULL_NAME>  (207) 
(1S,2S)-2-aminocyclohexane-1-carboxylic acid

>  <IUPAC_CONDENSED>  (207) 
2S-amino-cyclohexane-1S-CO2H

>  <IUPAC>  (207) 
(1S,2S)-2-aminocyclohexanecarboxylic acid

>  <TYPE>  (207) 
Backbone

>  <CLASS>  (207) 
beta

>  <ANALOG>  (207) 
Leu

>  <MOL_WT>  (207) 
143.186

>  <LOGP>  (207) 
0.5884999999999998

>  <TPSA>  (207) 
63.32000000000001

>  <POPULARITY>  (207) 
11.4

>  <PROTECTED>  (207) 
TRUE

>  <SMILES>  (207) 
N[C@@H]1[C@H](CCCC1)C(=O)O

>  <INCHIKEY>  (207) 
USQHEVWOPJDAAX-WDSKDSINSA-N

$$$$
2Thi
     RDKit          2D

 11 11  0  0  0  0  0  0  0  0999 V2000
   -0.9461    1.6947    0.0000 N   0  0  0  0  0  0  0  0  0  0  0  0
   -1.3100    0.2395    0.0000 C   0  0  0  0  0  0  0  0  0  0  0  0
   -0.2317   -0.8032    0.0000 C   0  0  0  0  0  0  0  0  0  0  0  0
    1.2105   -0.3908    0.0000 C   0  0  0  0  0  0  0  0  0  0  0  0
    2.3919   -1.3151    0.0000 C   0  0  0  0  0  0  0  0  0  0  0  0
    3.6360   -0.4772    0.0000 C   0  0  0  0  0  0  0  0  0  0  0  0
    3.2236    0.9650    0.0000 C   0  0  0  0  0  0  0  0  0  0  0  0
    1.7245    1.0184    0.0000 S   0  0  0  0  0  0  0  0  0  0  0  0
   -2.7522   -0.1729    0.0000 C   0  0  0  0  0  0  0  0  0  0  0  0
   -3.1161   -1.6281    0.0000 O   0  0  0  0  0  0  0  0  0  0  0  0
   -3.8304    0.8698    0.0000 O   0  0  0  0  0  0  0  0  0  0  0  0
  2  1  1  1
  2  3  1  0
  3  4  1  0
  4  5  2  0
  5  6  1  0
  6  7  2  0
  7  8  1  0
  2  9  1  0
  9 10  2  0
  9 11  1  0
  8  4  1  0
M  END
>  <rName>  (208) 
2Thi

>  <PQ_SYMBOL>  (208) 
2Thi

>  <FULL_NAME>  (208) 
3-(2-thienyl)-L-Alanine

>  <IUPAC_CONDENSED>  (208) 
2Thi

>  <IUPAC>  (208) 
(2S)-2-amino-3-(thiophen-2-yl)propanoic acid

>  <TYPE>  (208) 
Backbone

>  <CLASS>  (208) 
alpha

>  <ANALOG>  (208) 
Phe

>  <MOL_WT>  (208) 
171.22099999999998

>  <LOGP>  (208) 
0.7025000000000001

>  <TPSA>  (208) 
63.32000000000001

>  <POPULARITY>  (208) 
30.8

>  <PROTECTED>  (208) 
TRUE

>  <SMILES>  (208) 
N[C@@H](Cc1(cccs1))C(=O)O

>  <INCHIKEY>  (208) 
WTOFYLAWDLQMBZ-LURJTMIESA-N

$$$$
2Thz
     RDKit          2D

  8  8  0  0  0  0  0  0  0  0999 V2000
   -0.8342   -1.2135    0.0000 N   0  0  0  0  0  0  0  0  0  0  0  0
    0.0475   -0.0000    0.0000 C   0  0  0  0  0  0  0  0  0  0  0  0
   -0.8342    1.2135    0.0000 S   0  0  0  0  0  0  0  0  0  0  0  0
   -2.2608    0.7500    0.0000 C   0  0  0  0  0  0  0  0  0  0  0  0
   -2.2608   -0.7500    0.0000 C   0  0  0  0  0  0  0  0  0  0  0  0
    1.5475    0.0000    0.0000 C   0  0  0  0  0  0  0  0  0  0  0  0
    2.2975    1.2990    0.0000 O   0  0  0  0  0  0  0  0  0  0  0  0
    2.2975   -1.2990    0.0000 O   0  0  0  0  0  0  0  0  0  0  0  0
  1  2  1  0
  2  3  1  0
  3  4  1  0
  4  5  1  0
  2  6  1  1
  6  7  2  0
  6  8  1  0
  5  1  1  0
M  END
>  <rName>  (209) 
2Thz

>  <PQ_SYMBOL>  (209) 
2Thz

>  <FULL_NAME>  (209) 
(2S)-1,3-thiazolidine-2-carboxylic acid

>  <IUPAC_CONDENSED>  (209) 
2Thz

>  <IUPAC>  (209) 
(2S)-thiazolidine-2-carboxylic acid

>  <TYPE>  (209) 
N-term cap

>  <CLASS>  (209) 
n_cap

>  <ANALOG>  (209) 
X

>  <MOL_WT>  (209) 
133.172

>  <LOGP>  (209) 
-0.2665

>  <TPSA>  (209) 
49.33

>  <POPULARITY>  (209) 
11.0

>  <PROTECTED>  (209) 
FALSE

>  <SMILES>  (209) 
N1[C@@H](SCC1)C(=O)O

>  <INCHIKEY>  (209) 
ULSZVNJBVJWEJE-VKHMYHEASA-N

$$$$
2f
     RDKit          2D

  8  8  0  0  0  0  0  0  0  0999 V2000
   -2.2608   -0.7500    0.0000 C   0  0  0  0  0  0  0  0  0  0  0  0
   -0.8342   -1.2135    0.0000 O   0  0  0  0  0  0  0  0  0  0  0  0
    0.0475    0.0000    0.0000 C   0  0  0  0  0  0  0  0  0  0  0  0
   -0.8342    1.2135    0.0000 C   0  0  0  0  0  0  0  0  0  0  0  0
   -2.2608    0.7500    0.0000 C   0  0  0  0  0  0  0  0  0  0  0  0
    1.5475    0.0000    0.0000 C   0  0  0  0  0  0  0  0  0  0  0  0
    2.2975    1.2990    0.0000 O   0  0  0  0  0  0  0  0  0  0  0  0
    2.2975   -1.2990    0.0000 O   0  0  0  0  0  0  0  0  0  0  0  0
  1  2  1  0
  2  3  1  0
  3  4  2  0
  4  5  1  0
  3  6  1  0
  6  7  2  0
  6  8  1  0
  5  1  2  0
M  END
>  <rName>  (210) 
2f

>  <PQ_SYMBOL>  (210) 
2f

>  <FULL_NAME>  (210) 
2-Furoyl, Furan-2-carboxylic acid

>  <IUPAC_CONDENSED>  (210) 
2f

>  <IUPAC>  (210) 
furan-2-carboxylic acid

>  <TYPE>  (210) 
N-term cap

>  <CLASS>  (210) 
n_cap

>  <ANALOG>  (210) 
X

>  <MOL_WT>  (210) 
112.08399999999997

>  <LOGP>  (210) 
0.9778

>  <TPSA>  (210) 
50.44

>  <POPULARITY>  (210) 
14.7

>  <PROTECTED>  (210) 
TRUE

>  <SMILES>  (210) 
c1oc(cc1)C(=O)O

>  <INCHIKEY>  (210) 
SMNDYUVBFMFKNZ-UHFFFAOYSA-N

$$$$
3-amino-47-dioxo-octahydropyrrolo32-cpyridine3S3aS6S7aS-6-CH2CO2H
     RDKit          2D

 16 17  0  0  0  0  0  0  0  0999 V2000
    0.1327    1.9408    0.0000 N   0  0  0  0  0  0  0  0  0  0  0  0
    1.1510    0.8395    0.0000 C   0  0  0  0  0  0  0  0  0  0  0  0
    0.7063   -0.5931    0.0000 C   0  0  0  0  0  0  0  0  0  0  0  0
    1.7246   -1.6945    0.0000 O   0  0  0  0  0  0  0  0  0  0  0  0
   -0.7567   -0.9243    0.0000 C   0  0  0  0  0  0  0  0  0  0  0  0
   -1.4894   -2.2331    0.0000 N   0  0  0  0  0  0  0  0  0  0  0  0
   -2.9607   -1.9407    0.0000 C   0  0  0  0  0  0  0  0  0  0  0  0
   -3.1371   -0.4511    0.0000 C   0  0  0  0  0  0  0  0  0  0  0  0
   -4.4459    0.2817    0.0000 N   0  0  0  0  0  0  0  0  0  0  0  0
   -1.7750    0.1771    0.0000 C   0  0  0  0  0  0  0  0  0  0  0  0
   -1.3303    1.6096    0.0000 C   0  0  0  0  0  0  0  0  0  0  0  0
   -2.3486    2.7110    0.0000 O   0  0  0  0  0  0  0  0  0  0  0  0
    2.6140    1.1707    0.0000 C   0  0  0  0  0  0  0  0  0  0  0  0
    3.6323    0.0693    0.0000 C   0  0  0  0  0  0  0  0  0  0  0  0
    3.1876   -1.3633    0.0000 O   0  0  0  0  0  0  0  0  0  0  0  0
    5.0953    0.4005    0.0000 O   0  0  0  0  0  0  0  0  0  0  0  0
  1  2  1  0
  2  3  1  0
  3  4  2  0
  3  5  1  0
  5  6  1  1
  6  7  1  0
  7  8  1  0
  8  9  1  1
  8 10  1  0
 10 11  1  6
 11 12  2  0
  2 13  1  1
 13 14  1  0
 14 15  2  0
 14 16  1  0
 10  5  1  0
 11  1  1  0
M  END
>  <rName>  (211) 
3-amino-47-dioxo-octahydropyrrolo32-cpyridine3S3aS6S7aS-6-CH2CO2H

>  <PQ_SYMBOL>  (211) 
3-amino-47-dioxo-octahydropyrrolo32-cpyridine3S3aS6S7aS-6-CH2CO2H

>  <FULL_NAME>  (211) 
2-((3S,3aS,6S,7aS)-3-amino-4,7-dioxooctahydro-1H-pyrrolo[3,2-c]pyridin-6-yl)acetic acid

>  <IUPAC_CONDENSED>  (211) 
3-amino-4,7-dioxo-octahydropyrrolo[3,2-c]pyridine(3S,3aS,6S,7aS)-6-CH2CO2H

>  <IUPAC>  (211) 
2-((1S,4S,6S,9S)-9-amino-2,5-dioxo-3,7-diazabicyclo[4.3.0]nonan-4-yl)acetic acid

>  <TYPE>  (211) 
Backbone

>  <CLASS>  (211) 
beta

>  <ANALOG>  (211) 
X

>  <MOL_WT>  (211) 
227.22

>  <LOGP>  (211) 
-2.556099999999997

>  <TPSA>  (211) 
121.52

>  <POPULARITY>  (211) 
3.7

>  <PROTECTED>  (211) 
TRUE

>  <SMILES>  (211) 
N2[C@H](C(=O)[C@H]1(NC[C@@H](N)[C@@H]1C2=O))CC(=O)O

>  <INCHIKEY>  (211) 
VNXMBHCKFNDMEK-HBGVPEAKSA-N

$$$$
3-amino-7-oxabicyclo221heptane-2-CO2H_1R_2S_3R_4S
     RDKit          2D

 11 12  0  0  0  0  0  0  0  0999 V2000
    0.4438   -2.1948    0.0000 N   0  0  0  0  0  0  0  0  0  0  0  0
   -0.3230   -0.9996    0.0000 C   0  0  0  0  0  0  0  0  0  0  0  0
    0.3287    0.2620    0.0000 C   0  0  0  0  0  0  0  0  0  0  0  0
   -0.4380    1.4572    0.0000 C   0  0  0  0  0  0  0  0  0  0  0  0
   -0.6455   -0.0339    0.0000 O   0  0  0  0  0  0  0  0  0  0  0  0
   -1.7414   -1.0660    0.0000 C   0  0  0  0  0  0  0  0  0  0  0  0
   -2.5082    0.1292    0.0000 C   0  0  0  0  0  0  0  0  0  0  0  0
   -1.8564    1.3908    0.0000 C   0  0  0  0  0  0  0  0  0  0  0  0
    1.7472    0.3284    0.0000 C   0  0  0  0  0  0  0  0  0  0  0  0
    2.4356    1.6611    0.0000 O   0  0  0  0  0  0  0  0  0  0  0  0
    2.5571   -0.9341    0.0000 O   0  0  0  0  0  0  0  0  0  0  0  0
  2  1  1  1
  2  3  1  0
  3  4  1  0
  4  5  1  0
  5  6  1  0
  6  7  1  6
  7  8  1  0
  3  9  1  1
  9 10  2  0
  9 11  1  0
  6  2  1  0
  4  8  1  6
M  END
>  <rName>  (212) 
3-amino-7-oxabicyclo221heptane-2-CO2H_1R_2S_3R_4S

>  <PQ_SYMBOL>  (212) 
3-amino-7-oxabicyclo221heptane-2-CO2H_1R_2S_3R_4S

>  <FULL_NAME>  (212) 
Diexo-3-Amino-7-Oxa-Bicyclo[2.2.1]Heptane-2-Carboxylic Acid

>  <IUPAC_CONDENSED>  (212) 
3-amino-7-oxabicyclo[2.2.1]heptane-2-CO2H(1R,2S,3R,4S)

>  <IUPAC>  (212) 
(1R,2S,3R,4S)-3-amino-7-oxabicyclo[2.2.1]heptane-2-carboxylic acid

>  <TYPE>  (212) 
Backbone

>  <CLASS>  (212) 
beta

>  <ANALOG>  (212) 
Thr

>  <MOL_WT>  (212) 
157.169

>  <LOGP>  (212) 
-0.4243000000000006

>  <TPSA>  (212) 
72.55

>  <POPULARITY>  (212) 
2.2

>  <PROTECTED>  (212) 
TRUE

>  <SMILES>  (212) 
N[C@@H]1[C@@H]([C@@H]2(O[C@H]1CC2))C(=O)O

>  <INCHIKEY>  (212) 
IBJRDBSWQMNJKY-MOJAZDJTSA-N

$$$$
3-amino-7-oxabicyclo221heptane-2-CO2H_1S_2R_3S_4R
     RDKit          2D

 11 12  0  0  0  0  0  0  0  0999 V2000
    0.4438   -2.1948    0.0000 N   0  0  0  0  0  0  0  0  0  0  0  0
   -0.3230   -0.9996    0.0000 C   0  0  0  0  0  0  0  0  0  0  0  0
    0.3287    0.2620    0.0000 C   0  0  0  0  0  0  0  0  0  0  0  0
   -0.4380    1.4572    0.0000 C   0  0  0  0  0  0  0  0  0  0  0  0
   -0.6455   -0.0339    0.0000 O   0  0  0  0  0  0  0  0  0  0  0  0
   -1.7414   -1.0660    0.0000 C   0  0  0  0  0  0  0  0  0  0  0  0
   -2.5082    0.1292    0.0000 C   0  0  0  0  0  0  0  0  0  0  0  0
   -1.8564    1.3908    0.0000 C   0  0  0  0  0  0  0  0  0  0  0  0
    1.7472    0.3284    0.0000 C   0  0  0  0  0  0  0  0  0  0  0  0
    2.4356    1.6611    0.0000 O   0  0  0  0  0  0  0  0  0  0  0  0
    2.5571   -0.9341    0.0000 O   0  0  0  0  0  0  0  0  0  0  0  0
  2  1  1  6
  2  3  1  0
  3  4  1  0
  4  5  1  0
  5  6  1  0
  6  7  1  1
  7  8  1  0
  3  9  1  6
  9 10  2  0
  9 11  1  0
  6  2  1  0
  4  8  1  1
M  END
>  <rName>  (213) 
3-amino-7-oxabicyclo221heptane-2-CO2H_1S_2R_3S_4R

>  <PQ_SYMBOL>  (213) 
3-amino-7-oxabicyclo221heptane-2-CO2H_1S_2R_3S_4R

>  <FULL_NAME>  (213) 
(1S,2R,3S,4R)-3-amino-7-oxabicyclo[2.2.1]heptane-2-carboxylic acid

>  <IUPAC_CONDENSED>  (213) 
3-amino-7-oxabicyclo[2.2.1]heptane-2-CO2H(1S,2R,3S,4R)

>  <IUPAC>  (213) 
(1S,2R,3S,4R)-3-amino-7-oxabicyclo[2.2.1]heptane-2-carboxylic acid

>  <TYPE>  (213) 
Backbone

>  <CLASS>  (213) 
beta

>  <ANALOG>  (213) 
Thr

>  <MOL_WT>  (213) 
157.169

>  <LOGP>  (213) 
-0.4243000000000006

>  <TPSA>  (213) 
72.55

>  <POPULARITY>  (213) 
3.7

>  <PROTECTED>  (213) 
TRUE

>  <SMILES>  (213) 
N[C@H]1[C@H]([C@H]2(O[C@@H]1CC2))C(=O)O

>  <INCHIKEY>  (213) 
IBJRDBSWQMNJKY-BGPJRJDNSA-N

$$$$
3-amino-7-oxaspiro35nonane-1-CO2H_1R_3S
     RDKit          2D

 13 14  0  0  0  0  0  0  0  0999 V2000
    1.9237   -2.6334    0.0000 N   0  0  0  0  0  0  0  0  0  0  0  0
    0.6822   -1.7917    0.0000 C   0  0  0  0  0  0  0  0  0  0  0  0
   -0.7910   -2.0745    0.0000 C   0  0  0  0  0  0  0  0  0  0  0  0
   -1.0737   -0.6013    0.0000 C   0  0  0  0  0  0  0  0  0  0  0  0
    0.3994   -0.3186    0.0000 C   0  0  0  0  0  0  0  0  0  0  0  0
    1.8955   -0.4267    0.0000 C   0  0  0  0  0  0  0  0  0  0  0  0
    2.7372    0.8149    0.0000 C   0  0  0  0  0  0  0  0  0  0  0  0
    2.0827    2.1646    0.0000 O   0  0  0  0  0  0  0  0  0  0  0  0
    0.5867    2.2727    0.0000 C   0  0  0  0  0  0  0  0  0  0  0  0
   -0.2550    1.0311    0.0000 C   0  0  0  0  0  0  0  0  0  0  0  0
   -2.3153    0.2403    0.0000 C   0  0  0  0  0  0  0  0  0  0  0  0
   -2.2072    1.7364    0.0000 O   0  0  0  0  0  0  0  0  0  0  0  0
   -3.6650   -0.4141    0.0000 O   0  0  0  0  0  0  0  0  0  0  0  0
  2  1  1  1
  2  3  1  0
  3  4  1  0
  4  5  1  0
  5  6  1  0
  6  7  1  0
  7  8  1  0
  8  9  1  0
  9 10  1  0
  4 11  1  1
 11 12  2  0
 11 13  1  0
  5  2  1  0
 10  5  1  0
M  END
>  <rName>  (214) 
3-amino-7-oxaspiro35nonane-1-CO2H_1R_3S

>  <PQ_SYMBOL>  (214) 
3-amino-7-oxaspiro35nonane-1-CO2H_1R_3S

>  <FULL_NAME>  (214) 
N[C@H]1C[C@@H](C(=O)O)C12CCOCC2

>  <IUPAC_CONDENSED>  (214) 
3-amino-7-oxaspiro[3.5]nonane-1-CO2H(1R,3S)

>  <IUPAC>  (214) 
(1R,3S)-3-amino-7-oxaspiro[3.5]nonane-1-carboxylic acid

>  <TYPE>  (214) 
Backbone

>  <CLASS>  (214) 
gamma

>  <ANALOG>  (214) 
X

>  <MOL_WT>  (214) 
185.22299999999998

>  <LOGP>  (214) 
0.2149999999999998

>  <TPSA>  (214) 
72.55

>  <POPULARITY>  (214) 
2.5

>  <PROTECTED>  (214) 
TRUE

>  <SMILES>  (214) 
N[C@H]1C[C@H](C12(CCOCC2))C(=O)O

>  <INCHIKEY>  (214) 
AHXDJUWEJRHNDK-BQBZGAKWSA-N

$$$$
3-amino-bicyclo111pentane-1-CO2H
     RDKit          2D

  9 10  0  0  0  0  0  0  0  0999 V2000
   -3.2958   -0.0729    0.0000 N   0  0  0  0  0  0  0  0  0  0  0  0
   -1.7959   -0.0579    0.0000 C   0  0  0  0  0  0  0  0  0  0  0  0
   -0.7247   -1.1080    0.0000 C   0  0  0  0  0  0  0  0  0  0  0  0
    0.3253   -0.0368    0.0000 C   0  0  0  0  0  0  0  0  0  0  0  0
   -0.7458    1.0132    0.0000 C   0  0  0  0  0  0  0  0  0  0  0  0
   -0.7389    0.3133    0.0000 C   0  0  0  0  0  0  0  0  0  0  0  0
    1.8253   -0.0219    0.0000 C   0  0  0  0  0  0  0  0  0  0  0  0
    2.5623    1.2845    0.0000 O   0  0  0  0  0  0  0  0  0  0  0  0
    2.5881   -1.3134    0.0000 O   0  0  0  0  0  0  0  0  0  0  0  0
  1  2  1  0
  2  3  1  0
  3  4  1  0
  4  5  1  0
  4  6  1  0
  4  7  1  0
  7  8  2  0
  7  9  1  0
  5  2  1  0
  6  2  1  0
M  END
>  <rName>  (215) 
3-amino-bicyclo111pentane-1-CO2H

>  <PQ_SYMBOL>  (215) 
3-amino-bicyclo111pentane-1-CO2H

>  <FULL_NAME>  (215) 
3-Aminobicyclo(1.1.1)pentane-1-carboxylic acid

>  <IUPAC_CONDENSED>  (215) 
3-amino-bicyclo[1.1.1]pentane-1-CO2H

>  <IUPAC>  (215) 
3-aminobicyclo[1.1.1]pentane-1-carboxylic acid

>  <TYPE>  (215) 
Backbone

>  <CLASS>  (215) 
gamma

>  <ANALOG>  (215) 
Ala

>  <MOL_WT>  (215) 
127.14299999999999

>  <LOGP>  (215) 
-0.04760000000000014

>  <TPSA>  (215) 
63.32000000000001

>  <POPULARITY>  (215) 
6.7

>  <PROTECTED>  (215) 
TRUE

>  <SMILES>  (215) 
NC12CC(C1)(C2)C(=O)O

>  <INCHIKEY>  (215) 
KISLXTLDZXDHNN-UHFFFAOYSA-N

$$$$
3-amino-bicyclo210pentane-1-CO2H_1R_3S_4S
     RDKit          2D

  9 10  0  0  0  0  0  0  0  0999 V2000
   -3.3447    0.4320    0.0000 N   0  0  0  0  0  0  0  0  0  0  0  0
   -1.8688    0.1641    0.0000 C   0  0  0  0  0  0  0  0  0  0  0  0
   -0.6357    1.0182    0.0000 C   0  0  0  0  0  0  0  0  0  0  0  0
    0.2184   -0.2148    0.0000 C   0  0  0  0  0  0  0  0  0  0  0  0
    0.3416   -1.7098    0.0000 C   0  0  0  0  0  0  0  0  0  0  0  0
   -1.0146   -1.0690    0.0000 C   0  0  0  0  0  0  0  0  0  0  0  0
    1.6305    0.2911    0.0000 C   0  0  0  0  0  0  0  0  0  0  0  0
    1.8985    1.7670    0.0000 O   0  0  0  0  0  0  0  0  0  0  0  0
    2.7747   -0.6789    0.0000 O   0  0  0  0  0  0  0  0  0  0  0  0
  2  1  1  1
  2  3  1  0
  3  4  1  0
  4  5  1  0
  6  5  1  6
  4  7  1  1
  7  8  2  0
  7  9  1  0
  6  2  1  0
  6  4  1  0
M  END
>  <rName>  (216) 
3-amino-bicyclo210pentane-1-CO2H_1R_3S_4S

>  <PQ_SYMBOL>  (216) 
3-amino-bicyclo210pentane-1-CO2H_1R_3S_4S

>  <FULL_NAME>  (216) 
(1R,3S,4S)-3-aminobicyclo[2.1.0]pentane-1-carboxylic acid

>  <IUPAC_CONDENSED>  (216) 
3-amino-bicyclo[2.1.0]pentane-1-CO2H(1R,3S,4S)

>  <IUPAC>  (216) 
(1R,3S,4S)-3-aminobicyclo[2.1.0]pentane-1-carboxylic acid

>  <TYPE>  (216) 
Backbone

>  <CLASS>  (216) 
gamma

>  <ANALOG>  (216) 
Ala

>  <MOL_WT>  (216) 
127.14299999999997

>  <LOGP>  (216) 
-0.19170000000000004

>  <TPSA>  (216) 
63.32000000000001

>  <POPULARITY>  (216) 
3.0

>  <PROTECTED>  (216) 
TRUE

>  <SMILES>  (216) 
N[C@H]1C[C@@]2(C[C@H]12)C(=O)O

>  <INCHIKEY>  (216) 
LLGCBCPKHMYQSX-ALEPSDHESA-N

$$$$
3-amino-bicyclo210pentane-1-CO2H_1S_3S_4R
     RDKit          2D

  9 10  0  0  0  0  0  0  0  0999 V2000
   -3.3447    0.4320    0.0000 N   0  0  0  0  0  0  0  0  0  0  0  0
   -1.8688    0.1641    0.0000 C   0  0  0  0  0  0  0  0  0  0  0  0
   -0.6357    1.0182    0.0000 C   0  0  0  0  0  0  0  0  0  0  0  0
    0.2184   -0.2148    0.0000 C   0  0  0  0  0  0  0  0  0  0  0  0
    0.3416   -1.7098    0.0000 C   0  0  0  0  0  0  0  0  0  0  0  0
   -1.0146   -1.0690    0.0000 C   0  0  0  0  0  0  0  0  0  0  0  0
    1.6305    0.2911    0.0000 C   0  0  0  0  0  0  0  0  0  0  0  0
    1.8985    1.7670    0.0000 O   0  0  0  0  0  0  0  0  0  0  0  0
    2.7747   -0.6789    0.0000 O   0  0  0  0  0  0  0  0  0  0  0  0
  2  1  1  1
  2  3  1  0
  3  4  1  0
  4  5  1  0
  6  5  1  1
  4  7  1  6
  7  8  2  0
  7  9  1  0
  6  2  1  0
  6  4  1  0
M  END
>  <rName>  (217) 
3-amino-bicyclo210pentane-1-CO2H_1S_3S_4R

>  <PQ_SYMBOL>  (217) 
3-amino-bicyclo210pentane-1-CO2H_1S_3S_4R

>  <FULL_NAME>  (217) 
rac-(1R,3R,4S)-3-aminobicyclo[2.1.0]pentane-1-carboxylic acid

>  <IUPAC_CONDENSED>  (217) 
3-amino-bicyclo[2.1.0]pentane-1-CO2H(1S,3S,4R)

>  <IUPAC>  (217) 
(1S,3S,4R)-3-aminobicyclo[2.1.0]pentane-1-carboxylic acid

>  <TYPE>  (217) 
Backbone

>  <CLASS>  (217) 
gamma

>  <ANALOG>  (217) 
Ala

>  <MOL_WT>  (217) 
127.14299999999997

>  <LOGP>  (217) 
-0.19170000000000004

>  <TPSA>  (217) 
63.32000000000001

>  <POPULARITY>  (217) 
3.0

>  <PROTECTED>  (217) 
TRUE

>  <SMILES>  (217) 
N[C@H]1C[C@]2(C[C@@H]12)C(=O)O

>  <INCHIKEY>  (217) 
LLGCBCPKHMYQSX-FKZODXBYSA-N

$$$$
3-amino-bicyclo221hept-5-ene-2-CO2H_1R_2R_3S_4S
     RDKit          2D

 11 12  0  0  0  0  0  0  0  0999 V2000
    0.4438   -2.1948    0.0000 N   0  0  0  0  0  0  0  0  0  0  0  0
   -0.3230   -0.9996    0.0000 C   0  0  0  0  0  0  0  0  0  0  0  0
    0.3287    0.2620    0.0000 C   0  0  0  0  0  0  0  0  0  0  0  0
   -0.4380    1.4572    0.0000 C   0  0  0  0  0  0  0  0  0  0  0  0
   -1.8564    1.3908    0.0000 C   0  0  0  0  0  0  0  0  0  0  0  0
   -2.5082    0.1292    0.0000 C   0  0  0  0  0  0  0  0  0  0  0  0
   -1.7414   -1.0660    0.0000 C   0  0  0  0  0  0  0  0  0  0  0  0
   -0.6455   -0.0339    0.0000 C   0  0  0  0  0  0  0  0  0  0  0  0
    1.7472    0.3284    0.0000 C   0  0  0  0  0  0  0  0  0  0  0  0
    2.4356    1.6611    0.0000 O   0  0  0  0  0  0  0  0  0  0  0  0
    2.5571   -0.9341    0.0000 O   0  0  0  0  0  0  0  0  0  0  0  0
  2  1  1  1
  2  3  1  0
  3  4  1  0
  4  5  1  6
  5  6  2  0
  7  6  1  6
  7  8  1  0
  3  9  1  1
  9 10  2  0
  9 11  1  0
  7  2  1  0
  8  4  1  0
M  END
>  <rName>  (218) 
3-amino-bicyclo221hept-5-ene-2-CO2H_1R_2R_3S_4S

>  <PQ_SYMBOL>  (218) 
3-amino-bicyclo221hept-5-ene-2-CO2H_1R_2R_3S_4S

>  <FULL_NAME>  (218) 
(1R,2R,3S,4S)-(-)-3-aminobicyclo[2.2.1]hept-5-ene-2-carboxylic acid

>  <IUPAC_CONDENSED>  (218) 
3-amino-bicyclo[2.2.1]hept-5-ene-2-CO2H(1R,2R,3S,4S)

>  <IUPAC>  (218) 
(1R,2R,3S,4S)-3-aminobicyclo[2.2.1]hept-5-ene-2-carboxylic acid

>  <TYPE>  (218) 
Backbone

>  <CLASS>  (218) 
beta

>  <ANALOG>  (218) 
X

>  <MOL_WT>  (218) 
153.18099999999998

>  <LOGP>  (218) 
0.2204000000000001

>  <TPSA>  (218) 
63.32000000000001

>  <POPULARITY>  (218) 
2.2

>  <PROTECTED>  (218) 
TRUE

>  <SMILES>  (218) 
N[C@@H]1[C@@H]([C@H]2(C=C[C@@H]1C2))C(=O)O

>  <INCHIKEY>  (218) 
FCYFJGGJCJDCPB-WNJXEPBRSA-N

$$$$
3-amino-bicyclo221hept-5-ene-2-CO2H_1S_2S_3R_4R
     RDKit          2D

 11 12  0  0  0  0  0  0  0  0999 V2000
    0.4438   -2.1948    0.0000 N   0  0  0  0  0  0  0  0  0  0  0  0
   -0.3230   -0.9996    0.0000 C   0  0  0  0  0  0  0  0  0  0  0  0
    0.3287    0.2620    0.0000 C   0  0  0  0  0  0  0  0  0  0  0  0
   -0.4380    1.4572    0.0000 C   0  0  0  0  0  0  0  0  0  0  0  0
   -1.8564    1.3908    0.0000 C   0  0  0  0  0  0  0  0  0  0  0  0
   -2.5082    0.1292    0.0000 C   0  0  0  0  0  0  0  0  0  0  0  0
   -1.7414   -1.0660    0.0000 C   0  0  0  0  0  0  0  0  0  0  0  0
   -0.6455   -0.0339    0.0000 C   0  0  0  0  0  0  0  0  0  0  0  0
    1.7472    0.3284    0.0000 C   0  0  0  0  0  0  0  0  0  0  0  0
    2.4356    1.6611    0.0000 O   0  0  0  0  0  0  0  0  0  0  0  0
    2.5571   -0.9341    0.0000 O   0  0  0  0  0  0  0  0  0  0  0  0
  2  1  1  6
  2  3  1  0
  3  4  1  0
  4  5  1  1
  5  6  2  0
  7  6  1  1
  7  8  1  0
  3  9  1  6
  9 10  2  0
  9 11  1  0
  7  2  1  0
  8  4  1  0
M  END
>  <rName>  (219) 
3-amino-bicyclo221hept-5-ene-2-CO2H_1S_2S_3R_4R

>  <PQ_SYMBOL>  (219) 
3-amino-bicyclo221hept-5-ene-2-CO2H_1S_2S_3R_4R

>  <FULL_NAME>  (219) 
(1S,2S,3R,4R)-3-Aminobicyclo[2.2.1]hept-5-ene-2-carboxylic acid

>  <IUPAC_CONDENSED>  (219) 
3-amino-bicyclo[2.2.1]hept-5-ene-2-CO2H(1S,2S,3R,4R)

>  <IUPAC>  (219) 
(1S,2S,3R,4R)-3-aminobicyclo[2.2.1]hept-5-ene-2-carboxylic acid

>  <TYPE>  (219) 
Backbone

>  <CLASS>  (219) 
beta

>  <ANALOG>  (219) 
X

>  <MOL_WT>  (219) 
153.18099999999998

>  <LOGP>  (219) 
0.2204000000000001

>  <TPSA>  (219) 
63.32000000000001

>  <POPULARITY>  (219) 
3.5

>  <PROTECTED>  (219) 
TRUE

>  <SMILES>  (219) 
N[C@H]1[C@H]([C@@H]2(C=C[C@H]1C2))C(=O)O

>  <INCHIKEY>  (219) 
FCYFJGGJCJDCPB-JRTVQGFMSA-N

$$$$
3-amino-bicyclo221heptane-1-CO2H_1R_3S_4R
     RDKit          2D

 11 12  0  0  0  0  0  0  0  0999 V2000
    2.4480   -0.1372    0.0000 N   0  0  0  0  0  0  0  0  0  0  0  0
    1.0371    0.0239    0.0000 C   0  0  0  0  0  0  0  0  0  0  0  0
    0.4712    1.3262    0.0000 C   0  0  0  0  0  0  0  0  0  0  0  0
   -0.9397    1.4873    0.0000 C   0  0  0  0  0  0  0  0  0  0  0  0
   -1.7846    0.3460    0.0000 C   0  0  0  0  0  0  0  0  0  0  0  0
   -1.2186   -0.9564    0.0000 C   0  0  0  0  0  0  0  0  0  0  0  0
    0.1922   -1.1174    0.0000 C   0  0  0  0  0  0  0  0  0  0  0  0
    0.0849    0.3842    0.0000 C   0  0  0  0  0  0  0  0  0  0  0  0
   -0.3737    0.1849    0.0000 C   0  0  0  0  0  0  0  0  0  0  0  0
    1.0312   -0.3408    0.0000 O   0  0  0  0  0  0  0  0  0  0  0  0
   -0.9480   -1.2008    0.0000 O   0  0  0  0  0  0  0  0  0  0  0  0
  2  1  1  6
  2  3  1  0
  3  4  1  0
  4  5  1  0
  5  6  1  0
  7  6  1  6
  7  8  1  0
  4  9  1  1
  9 10  2  0
  9 11  1  0
  7  2  1  0
  8  4  1  0
M  END
>  <rName>  (220) 
3-amino-bicyclo221heptane-1-CO2H_1R_3S_4R

>  <PQ_SYMBOL>  (220) 
3-amino-bicyclo221heptane-1-CO2H_1R_3S_4R

>  <FULL_NAME>  (220) 
N[C@H]1C[C@@]2(C(=O)O)CC[C@@H]1C2

>  <IUPAC_CONDENSED>  (220) 
3-amino-bicyclo[2.2.1]heptane-1-CO2H(1R,3S,4R)

>  <IUPAC>  (220) 
(1R,3S,4R)-3-aminobicyclo[2.2.1]heptane-1-carboxylic acid

>  <TYPE>  (220) 
Backbone

>  <CLASS>  (220) 
gamma

>  <ANALOG>  (220) 
Ile

>  <MOL_WT>  (220) 
155.197

>  <LOGP>  (220) 
0.5884999999999998

>  <TPSA>  (220) 
63.32000000000001

>  <POPULARITY>  (220) 
2.6

>  <PROTECTED>  (220) 
TRUE

>  <SMILES>  (220) 
N[C@H]1C[C@]2(CC[C@@H]1C2)C(=O)O

>  <INCHIKEY>  (220) 
XQEUCJQZXZDTOW-GKROBHDKSA-N

$$$$
3-amino-bicyclo221heptane-2-CO2H
     RDKit          2D

 11 12  0  0  0  0  0  0  0  0999 V2000
    0.4438   -2.1948    0.0000 N   0  0  0  0  0  0  0  0  0  0  0  0
   -0.3230   -0.9996    0.0000 C   0  0  0  0  0  0  0  0  0  0  0  0
    0.3287    0.2620    0.0000 C   0  0  0  0  0  0  0  0  0  0  0  0
   -0.4380    1.4572    0.0000 C   0  0  0  0  0  0  0  0  0  0  0  0
   -1.8564    1.3908    0.0000 C   0  0  0  0  0  0  0  0  0  0  0  0
   -2.5082    0.1292    0.0000 C   0  0  0  0  0  0  0  0  0  0  0  0
   -1.7414   -1.0660    0.0000 C   0  0  0  0  0  0  0  0  0  0  0  0
   -0.6455   -0.0339    0.0000 C   0  0  0  0  0  0  0  0  0  0  0  0
    1.7472    0.3284    0.0000 C   0  0  0  0  0  0  0  0  0  0  0  0
    2.4356    1.6611    0.0000 O   0  0  0  0  0  0  0  0  0  0  0  0
    2.5571   -0.9341    0.0000 O   0  0  0  0  0  0  0  0  0  0  0  0
  1  2  1  0
  2  3  1  0
  3  4  1  0
  4  5  1  0
  5  6  1  0
  6  7  1  0
  7  8  1  0
  3  9  1  0
  9 10  2  0
  9 11  1  0
  7  2  1  0
  8  4  1  0
M  END
>  <rName>  (221) 
3-amino-bicyclo221heptane-2-CO2H

>  <PQ_SYMBOL>  (221) 
3-amino-bicyclo221heptane-2-CO2H

>  <FULL_NAME>  (221) 
3-aminobicyclo[2.2.1]heptane-2-carboxylic acid

>  <IUPAC_CONDENSED>  (221) 
3-amino-bicyclo[2.2.1]heptane-2-CO2H

>  <IUPAC>  (221) 
3-aminobicyclo[2.2.1]heptane-2-carboxylic acid

>  <TYPE>  (221) 
Backbone

>  <CLASS>  (221) 
beta

>  <ANALOG>  (221) 
X

>  <MOL_WT>  (221) 
155.197

>  <LOGP>  (221) 
0.44439999999999985

>  <TPSA>  (221) 
63.32000000000001

>  <POPULARITY>  (221) 
6.6

>  <PROTECTED>  (221) 
TRUE

>  <SMILES>  (221) 
NC1C(C2(CCC1C2))C(=O)O

>  <INCHIKEY>  (221) 
JSYLGUSANAWARQ-UHFFFAOYSA-N

$$$$
3-amino-bicyclo221heptane-2-CO2H_1R_2S_3R_4S
     RDKit          2D

 11 12  0  0  0  0  0  0  0  0999 V2000
    0.4438   -2.1948    0.0000 N   0  0  0  0  0  0  0  0  0  0  0  0
   -0.3230   -0.9996    0.0000 C   0  0  0  0  0  0  0  0  0  0  0  0
    0.3287    0.2620    0.0000 C   0  0  0  0  0  0  0  0  0  0  0  0
   -0.4380    1.4572    0.0000 C   0  0  0  0  0  0  0  0  0  0  0  0
   -1.8564    1.3908    0.0000 C   0  0  0  0  0  0  0  0  0  0  0  0
   -2.5082    0.1292    0.0000 C   0  0  0  0  0  0  0  0  0  0  0  0
   -1.7414   -1.0660    0.0000 C   0  0  0  0  0  0  0  0  0  0  0  0
   -0.6455   -0.0339    0.0000 C   0  0  0  0  0  0  0  0  0  0  0  0
    1.7472    0.3284    0.0000 C   0  0  0  0  0  0  0  0  0  0  0  0
    2.4356    1.6611    0.0000 O   0  0  0  0  0  0  0  0  0  0  0  0
    2.5571   -0.9341    0.0000 O   0  0  0  0  0  0  0  0  0  0  0  0
  2  1  1  6
  2  3  1  0
  3  4  1  0
  4  5  1  1
  5  6  1  0
  7  6  1  1
  7  8  1  0
  3  9  1  6
  9 10  2  0
  9 11  1  0
  7  2  1  0
  8  4  1  0
M  END
>  <rName>  (222) 
3-amino-bicyclo221heptane-2-CO2H_1R_2S_3R_4S

>  <PQ_SYMBOL>  (222) 
3-amino-bicyclo221heptane-2-CO2H_1R_2S_3R_4S

>  <FULL_NAME>  (222) 
(1R,2S,3R,4S)-3-Aminobicyclo[2.2.1]heptane-2-carboxylic acid

>  <IUPAC_CONDENSED>  (222) 
3-amino-bicyclo[2.2.1]heptane-2-CO2H(1R,2S,3R,4S)

>  <IUPAC>  (222) 
(1R,2S,3R,4S)-3-aminobicyclo[2.2.1]heptane-2-carboxylic acid

>  <TYPE>  (222) 
Backbone

>  <CLASS>  (222) 
beta

>  <ANALOG>  (222) 
X

>  <MOL_WT>  (222) 
155.197

>  <LOGP>  (222) 
0.44439999999999985

>  <TPSA>  (222) 
63.32000000000001

>  <POPULARITY>  (222) 
8.4

>  <PROTECTED>  (222) 
TRUE

>  <SMILES>  (222) 
N[C@H]1[C@H]([C@@H]2(CC[C@H]1C2))C(=O)O

>  <INCHIKEY>  (222) 
JSYLGUSANAWARQ-JRTVQGFMSA-N

$$$$
3-amino-bicyclo221heptane-2-CO2H_1S_2R_3S_4R
     RDKit          2D

 11 12  0  0  0  0  0  0  0  0999 V2000
    0.4438   -2.1948    0.0000 N   0  0  0  0  0  0  0  0  0  0  0  0
   -0.3230   -0.9996    0.0000 C   0  0  0  0  0  0  0  0  0  0  0  0
    0.3287    0.2620    0.0000 C   0  0  0  0  0  0  0  0  0  0  0  0
   -0.4380    1.4572    0.0000 C   0  0  0  0  0  0  0  0  0  0  0  0
   -1.8564    1.3908    0.0000 C   0  0  0  0  0  0  0  0  0  0  0  0
   -2.5082    0.1292    0.0000 C   0  0  0  0  0  0  0  0  0  0  0  0
   -1.7414   -1.0660    0.0000 C   0  0  0  0  0  0  0  0  0  0  0  0
   -0.6455   -0.0339    0.0000 C   0  0  0  0  0  0  0  0  0  0  0  0
    1.7472    0.3284    0.0000 C   0  0  0  0  0  0  0  0  0  0  0  0
    2.4356    1.6611    0.0000 O   0  0  0  0  0  0  0  0  0  0  0  0
    2.5571   -0.9341    0.0000 O   0  0  0  0  0  0  0  0  0  0  0  0
  2  1  1  1
  2  3  1  0
  3  4  1  0
  4  5  1  6
  5  6  1  0
  7  6  1  6
  7  8  1  0
  3  9  1  1
  9 10  2  0
  9 11  1  0
  7  2  1  0
  8  4  1  0
M  END
>  <rName>  (223) 
3-amino-bicyclo221heptane-2-CO2H_1S_2R_3S_4R

>  <PQ_SYMBOL>  (223) 
3-amino-bicyclo221heptane-2-CO2H_1S_2R_3S_4R

>  <FULL_NAME>  (223) 
(1S,2R,3S,4R)-3-Aminobicyclo[2.2.1]heptane-2-carboxylic acid

>  <IUPAC_CONDENSED>  (223) 
3-amino-bicyclo[2.2.1]heptane-2-CO2H(1S,2R,3S,4R)

>  <IUPAC>  (223) 
(1S,2R,3S,4R)-3-aminobicyclo[2.2.1]heptane-2-carboxylic acid

>  <TYPE>  (223) 
Backbone

>  <CLASS>  (223) 
beta

>  <ANALOG>  (223) 
X

>  <MOL_WT>  (223) 
155.197

>  <LOGP>  (223) 
0.44439999999999985

>  <TPSA>  (223) 
63.32000000000001

>  <POPULARITY>  (223) 
6.5

>  <PROTECTED>  (223) 
TRUE

>  <SMILES>  (223) 
N[C@@H]1[C@@H]([C@H]2(CC[C@@H]1C2))C(=O)O

>  <INCHIKEY>  (223) 
JSYLGUSANAWARQ-WNJXEPBRSA-N

$$$$
3-amino-bicyclo221heptane-2-CO2H_1S_2S_3S_4R
     RDKit          2D

 11 12  0  0  0  0  0  0  0  0999 V2000
    0.4438   -2.1948    0.0000 N   0  0  0  0  0  0  0  0  0  0  0  0
   -0.3230   -0.9996    0.0000 C   0  0  0  0  0  0  0  0  0  0  0  0
    0.3287    0.2620    0.0000 C   0  0  0  0  0  0  0  0  0  0  0  0
   -0.4380    1.4572    0.0000 C   0  0  0  0  0  0  0  0  0  0  0  0
   -1.8564    1.3908    0.0000 C   0  0  0  0  0  0  0  0  0  0  0  0
   -2.5082    0.1292    0.0000 C   0  0  0  0  0  0  0  0  0  0  0  0
   -1.7414   -1.0660    0.0000 C   0  0  0  0  0  0  0  0  0  0  0  0
   -0.6455   -0.0339    0.0000 C   0  0  0  0  0  0  0  0  0  0  0  0
    1.7472    0.3284    0.0000 C   0  0  0  0  0  0  0  0  0  0  0  0
    2.4356    1.6611    0.0000 O   0  0  0  0  0  0  0  0  0  0  0  0
    2.5571   -0.9341    0.0000 O   0  0  0  0  0  0  0  0  0  0  0  0
  2  1  1  1
  2  3  1  0
  3  4  1  0
  4  5  1  6
  5  6  1  0
  7  6  1  6
  7  8  1  0
  3  9  1  6
  9 10  2  0
  9 11  1  0
  7  2  1  0
  8  4  1  0
M  END
>  <rName>  (224) 
3-amino-bicyclo221heptane-2-CO2H_1S_2S_3S_4R

>  <PQ_SYMBOL>  (224) 
3-amino-bicyclo221heptane-2-CO2H_1S_2S_3S_4R

>  <FULL_NAME>  (224) 
rac-(1R,2R,3R,4S)-3-aminobicyclo(2.2.1)heptane-2-carboxylic acid

>  <IUPAC_CONDENSED>  (224) 
3-amino-bicyclo[2.2.1]heptane-2-CO2H(1S,2S,3S,4R)

>  <IUPAC>  (224) 
(1S,2S,3S,4R)-3-aminobicyclo[2.2.1]heptane-2-carboxylic acid

>  <TYPE>  (224) 
Backbone

>  <CLASS>  (224) 
beta

>  <ANALOG>  (224) 
X

>  <MOL_WT>  (224) 
155.197

>  <LOGP>  (224) 
0.44439999999999985

>  <TPSA>  (224) 
63.32000000000001

>  <POPULARITY>  (224) 
4.1

>  <PROTECTED>  (224) 
TRUE

>  <SMILES>  (224) 
N[C@@H]1[C@H]([C@H]2(CC[C@@H]1C2))C(=O)O

>  <INCHIKEY>  (224) 
JSYLGUSANAWARQ-VZFHVOOUSA-N

$$$$
3-amino-bicyclo310hexane-1-CO2H_1R_3R_5R
     RDKit          2D

 10 11  0  0  0  0  0  0  0  0999 V2000
   -3.1918    1.0967    0.0000 N   0  0  0  0  0  0  0  0  0  0  0  0
   -1.9226    0.2973    0.0000 C   0  0  0  0  0  0  0  0  0  0  0  0
   -0.5298    0.8542    0.0000 C   0  0  0  0  0  0  0  0  0  0  0  0
    0.4302   -0.2983    0.0000 C   0  0  0  0  0  0  0  0  0  0  0  0
    1.1297   -1.6253    0.0000 C   0  0  0  0  0  0  0  0  0  0  0  0
   -0.3692   -1.5675    0.0000 C   0  0  0  0  0  0  0  0  0  0  0  0
   -1.8233   -1.1994    0.0000 C   0  0  0  0  0  0  0  0  0  0  0  0
    1.6768    0.5360    0.0000 C   0  0  0  0  0  0  0  0  0  0  0  0
    1.5775    2.0327    0.0000 O   0  0  0  0  0  0  0  0  0  0  0  0
    3.0226   -0.1264    0.0000 O   0  0  0  0  0  0  0  0  0  0  0  0
  2  1  1  1
  2  3  1  0
  3  4  1  0
  4  5  1  0
  6  5  1  6
  6  7  1  0
  4  8  1  1
  8  9  2  0
  8 10  1  0
  6  4  1  0
  7  2  1  0
M  END
>  <rName>  (225) 
3-amino-bicyclo310hexane-1-CO2H_1R_3R_5R

>  <PQ_SYMBOL>  (225) 
3-amino-bicyclo310hexane-1-CO2H_1R_3R_5R

>  <FULL_NAME>  (225) 
rac-(1R,3R,5R)-3-aminobicyclo[3.1.0]hexane-1-carboxylic acid

>  <IUPAC_CONDENSED>  (225) 
3-amino-bicyclo[3.1.0]hexane-1-CO2H(1R,3R,5R)

>  <IUPAC>  (225) 
(1R,3R,5R)-3-aminobicyclo[3.1.0]hexane-1-carboxylic acid

>  <TYPE>  (225) 
Backbone

>  <CLASS>  (225) 
gamma

>  <ANALOG>  (225) 
Val

>  <MOL_WT>  (225) 
141.17

>  <LOGP>  (225) 
0.19839999999999985

>  <TPSA>  (225) 
63.32000000000001

>  <POPULARITY>  (225) 
3.3

>  <PROTECTED>  (225) 
TRUE

>  <SMILES>  (225) 
N[C@H]2C[C@@]1(C[C@@H]1C2)C(=O)O

>  <INCHIKEY>  (225) 
RGJTZVOPFAIPNJ-HBPOCXIASA-N

$$$$
3-amino-bicyclo310hexane-6-CO2H
     RDKit          2D

 10 11  0  0  0  0  0  0  0  0999 V2000
    4.0309   -0.0000    0.0000 N   0  0  0  0  0  0  0  0  0  0  0  0
    2.5309   -0.0000    0.0000 C   0  0  0  0  0  0  0  0  0  0  0  0
    1.6492    1.2135    0.0000 C   0  0  0  0  0  0  0  0  0  0  0  0
    0.2226    0.7500    0.0000 C   0  0  0  0  0  0  0  0  0  0  0  0
   -1.0764   -0.0000    0.0000 C   0  0  0  0  0  0  0  0  0  0  0  0
    0.2226   -0.7500    0.0000 C   0  0  0  0  0  0  0  0  0  0  0  0
    1.6492   -1.2135    0.0000 C   0  0  0  0  0  0  0  0  0  0  0  0
   -2.5764    0.0000    0.0000 C   0  0  0  0  0  0  0  0  0  0  0  0
   -3.3264   -1.2990    0.0000 O   0  0  0  0  0  0  0  0  0  0  0  0
   -3.3264    1.2990    0.0000 O   0  0  0  0  0  0  0  0  0  0  0  0
  1  2  1  0
  2  3  1  0
  3  4  1  0
  4  5  1  0
  5  6  1  0
  6  7  1  0
  5  8  1  0
  8  9  2  0
  8 10  1  0
  6  4  1  0
  7  2  1  0
M  END
>  <rName>  (226) 
3-amino-bicyclo310hexane-6-CO2H

>  <PQ_SYMBOL>  (226) 
3-amino-bicyclo310hexane-6-CO2H

>  <FULL_NAME>  (226) 
3-Aminobicyclo[3.1.0]hexane-6-carboxylic acid

>  <IUPAC_CONDENSED>  (226) 
3-amino-bicyclo[3.1.0]hexane-6-CO2H

>  <IUPAC>  (226) 
3-aminobicyclo[3.1.0]hexane-6-carboxylic acid

>  <TYPE>  (226) 
Backbone

>  <CLASS>  (226) 
delta

>  <ANALOG>  (226) 
Ala

>  <MOL_WT>  (226) 
141.17

>  <LOGP>  (226) 
0.05429999999999996

>  <TPSA>  (226) 
63.32000000000001

>  <POPULARITY>  (226) 
4.2

>  <PROTECTED>  (226) 
TRUE

>  <SMILES>  (226) 
NC2CC1C(C1C2)C(=O)O

>  <INCHIKEY>  (226) 
JFHCZXNOVDEFLC-UHFFFAOYSA-N

$$$$
3-amino-bicyclo321octane-3-CO2H
     RDKit          2D

 12 13  0  0  0  0  0  0  0  0999 V2000
   -1.4353   -1.4626    0.0000 N   0  0  0  0  0  0  0  0  0  0  0  0
   -0.5472   -0.3546    0.0000 C   0  0  0  0  0  0  0  0  0  0  0  0
    0.3354   -1.4670    0.0000 C   0  0  0  0  0  0  0  0  0  0  0  0
    1.7554   -1.4706    0.0000 C   0  0  0  0  0  0  0  0  0  0  0  0
    2.6435   -0.3626    0.0000 C   0  0  0  0  0  0  0  0  0  0  0  0
    2.3310    1.0226    0.0000 C   0  0  0  0  0  0  0  0  0  0  0  0
    1.0532    1.6419    0.0000 C   0  0  0  0  0  0  0  0  0  0  0  0
    0.9165   -0.0244    0.0000 C   0  0  0  0  0  0  0  0  0  0  0  0
   -0.2277    1.0290    0.0000 C   0  0  0  0  0  0  0  0  0  0  0  0
   -1.8250    0.2647    0.0000 C   0  0  0  0  0  0  0  0  0  0  0  0
   -1.9334    1.7608    0.0000 O   0  0  0  0  0  0  0  0  0  0  0  0
   -3.0665   -0.5772    0.0000 O   0  0  0  0  0  0  0  0  0  0  0  0
  1  2  1  0
  2  3  1  0
  3  4  1  0
  4  5  1  0
  5  6  1  0
  6  7  1  0
  7  8  1  0
  7  9  1  0
  2 10  1  0
 10 11  2  0
 10 12  1  0
  8  4  1  0
  9  2  1  0
M  END
>  <rName>  (227) 
3-amino-bicyclo321octane-3-CO2H

>  <PQ_SYMBOL>  (227) 
3-amino-bicyclo321octane-3-CO2H

>  <FULL_NAME>  (227) 
3-Aminobicyclo[3.2.1]octane-3-carboxylic acid

>  <IUPAC_CONDENSED>  (227) 
3-amino-bicyclo[3.2.1]octane-3-CO2H

>  <IUPAC>  (227) 
3-aminobicyclo[3.2.1]octane-3-carboxylic acid

>  <TYPE>  (227) 
Backbone

>  <CLASS>  (227) 
alpha

>  <ANALOG>  (227) 
X

>  <MOL_WT>  (227) 
169.22400000000002

>  <LOGP>  (227) 
0.9785999999999997

>  <TPSA>  (227) 
63.32000000000001

>  <POPULARITY>  (227) 
3.6

>  <PROTECTED>  (227) 
TRUE

>  <SMILES>  (227) 
NC2(CC1(CCC(C1)C2))C(=O)O

>  <INCHIKEY>  (227) 
WJZYQLDYQNFZHI-UHFFFAOYSA-N

$$$$
3-amino-cyclobutane-1-CO2H
     RDKit          2D

  8  8  0  0  0  0  0  0  0  0999 V2000
    3.3883   -0.0000    0.0000 N   0  0  0  0  0  0  0  0  0  0  0  0
    1.8883   -0.0000    0.0000 C   0  0  0  0  0  0  0  0  0  0  0  0
    0.8277   -1.0607    0.0000 C   0  0  0  0  0  0  0  0  0  0  0  0
   -0.2330   -0.0000    0.0000 C   0  0  0  0  0  0  0  0  0  0  0  0
    0.8277    1.0607    0.0000 C   0  0  0  0  0  0  0  0  0  0  0  0
   -1.7330    0.0000    0.0000 C   0  0  0  0  0  0  0  0  0  0  0  0
   -2.4830   -1.2990    0.0000 O   0  0  0  0  0  0  0  0  0  0  0  0
   -2.4830    1.2990    0.0000 O   0  0  0  0  0  0  0  0  0  0  0  0
  1  2  1  0
  2  3  1  0
  3  4  1  0
  4  5  1  0
  4  6  1  0
  6  7  2  0
  6  8  1  0
  5  2  1  0
M  END
>  <rName>  (228) 
3-amino-cyclobutane-1-CO2H

>  <PQ_SYMBOL>  (228) 
3-amino-cyclobutane-1-CO2H

>  <FULL_NAME>  (228) 
3-aminocyclobutane carboxylic acid

>  <IUPAC_CONDENSED>  (228) 
3-amino-cyclobutane-1-CO2H

>  <IUPAC>  (228) 
3-aminocyclobutanecarboxylic acid

>  <TYPE>  (228) 
Backbone

>  <CLASS>  (228) 
gamma

>  <ANALOG>  (228) 
Ala

>  <MOL_WT>  (228) 
115.13199999999999

>  <LOGP>  (228) 
-0.19170000000000004

>  <TPSA>  (228) 
63.32000000000001

>  <POPULARITY>  (228) 
12.6

>  <PROTECTED>  (228) 
TRUE

>  <SMILES>  (228) 
NC1CC(C1)C(=O)O

>  <INCHIKEY>  (228) 
YRGRLZXBOJQQDP-UHFFFAOYSA-N

$$$$
3-amino-cyclobutane-1-CO2H_1F
     RDKit          2D

  9  9  0  0  0  0  0  0  0  0999 V2000
    3.3328   -0.3893    0.0000 N   0  0  0  0  0  0  0  0  0  0  0  0
    1.8696   -0.0593    0.0000 C   0  0  0  0  0  0  0  0  0  0  0  0
    0.6015   -0.8606    0.0000 C   0  0  0  0  0  0  0  0  0  0  0  0
   -0.1997    0.4075    0.0000 C   0  0  0  0  0  0  0  0  0  0  0  0
   -1.0010    1.6755    0.0000 F   0  0  0  0  0  0  0  0  0  0  0  0
    1.0683    1.2088    0.0000 C   0  0  0  0  0  0  0  0  0  0  0  0
   -1.4678   -0.3938    0.0000 C   0  0  0  0  0  0  0  0  0  0  0  0
   -1.4079   -1.8926    0.0000 O   0  0  0  0  0  0  0  0  0  0  0  0
   -2.7958    0.3037    0.0000 O   0  0  0  0  0  0  0  0  0  0  0  0
  1  2  1  0
  2  3  1  0
  3  4  1  0
  4  5  1  0
  4  6  1  0
  4  7  1  0
  7  8  2  0
  7  9  1  0
  6  2  1  0
M  END
>  <rName>  (229) 
3-amino-cyclobutane-1-CO2H_1F

>  <PQ_SYMBOL>  (229) 
3-amino-cyclobutane-1-CO2H_1F

>  <FULL_NAME>  (229) 
3-Amino-1-fluorocyclobutane-1-carboxylic acid

>  <IUPAC_CONDENSED>  (229) 
3-amino-cyclobutane-1-CO2H(1-F)

>  <IUPAC>  (229) 
3-amino-1-fluorocyclobutanecarboxylic acid

>  <TYPE>  (229) 
Backbone

>  <CLASS>  (229) 
gamma

>  <ANALOG>  (229) 
Ala

>  <MOL_WT>  (229) 
133.122

>  <LOGP>  (229) 
-0.09960000000000041

>  <TPSA>  (229) 
63.32000000000001

>  <POPULARITY>  (229) 
2.9

>  <PROTECTED>  (229) 
TRUE

>  <SMILES>  (229) 
NC1CC(F)(C1)C(=O)O

>  <INCHIKEY>  (229) 
PJHKKSNWPVAREA-UHFFFAOYSA-N

$$$$
3-amino-cyclobutane-1-CO2H_1Me
     RDKit          2D

  9  9  0  0  0  0  0  0  0  0999 V2000
   -3.3328   -0.3893    0.0000 N   0  0  0  0  0  0  0  0  0  0  0  0
   -1.8696   -0.0593    0.0000 C   0  0  0  0  0  0  0  0  0  0  0  0
   -1.0683    1.2088    0.0000 C   0  0  0  0  0  0  0  0  0  0  0  0
    0.1997    0.4075    0.0000 C   0  0  0  0  0  0  0  0  0  0  0  0
    1.0010    1.6755    0.0000 C   0  0  0  0  0  0  0  0  0  0  0  0
   -0.6015   -0.8606    0.0000 C   0  0  0  0  0  0  0  0  0  0  0  0
    1.4678   -0.3938    0.0000 C   0  0  0  0  0  0  0  0  0  0  0  0
    2.7958    0.3037    0.0000 O   0  0  0  0  0  0  0  0  0  0  0  0
    1.4079   -1.8926    0.0000 O   0  0  0  0  0  0  0  0  0  0  0  0
  1  2  1  0
  2  3  1  0
  3  4  1  0
  4  5  1  0
  4  6  1  0
  4  7  1  0
  7  8  2  0
  7  9  1  0
  6  2  1  0
M  END
>  <rName>  (230) 
3-amino-cyclobutane-1-CO2H_1Me

>  <PQ_SYMBOL>  (230) 
3-amino-cyclobutane-1-CO2H_1Me

>  <FULL_NAME>  (230) 
3-Amino-1-methylcyclobutanecarboxylic acid

>  <IUPAC_CONDENSED>  (230) 
3-amino-cyclobutane-1-CO2H(1-Me)

>  <IUPAC>  (230) 
3-amino-1-methylcyclobutanecarboxylic acid

>  <TYPE>  (230) 
Backbone

>  <CLASS>  (230) 
gamma

>  <ANALOG>  (230) 
Ala

>  <MOL_WT>  (230) 
129.159

>  <LOGP>  (230) 
0.19839999999999985

>  <TPSA>  (230) 
63.32000000000001

>  <POPULARITY>  (230) 
6.7

>  <PROTECTED>  (230) 
TRUE

>  <SMILES>  (230) 
NC1CC(C)(C1)C(=O)O

>  <INCHIKEY>  (230) 
BGWPVFAAAKGBOU-UHFFFAOYSA-N

$$$$
3-amino-cyclobutane-1-CO2H_1MeOMe
     RDKit          2D

 11 11  0  0  0  0  0  0  0  0999 V2000
    3.8905   -0.6342    0.0000 N   0  0  0  0  0  0  0  0  0  0  0  0
    2.4060   -0.4194    0.0000 C   0  0  0  0  0  0  0  0  0  0  0  0
    1.2044   -1.3173    0.0000 C   0  0  0  0  0  0  0  0  0  0  0  0
    0.3065   -0.1157    0.0000 C   0  0  0  0  0  0  0  0  0  0  0  0
   -0.8951   -1.0135    0.0000 C   0  0  0  0  0  0  0  0  0  0  0  0
   -2.2735   -0.4218    0.0000 O   0  0  0  0  0  0  0  0  0  0  0  0
   -3.4751   -1.3197    0.0000 C   0  0  0  0  0  0  0  0  0  0  0  0
    1.5081    0.7822    0.0000 C   0  0  0  0  0  0  0  0  0  0  0  0
   -0.5913    1.0859    0.0000 C   0  0  0  0  0  0  0  0  0  0  0  0
   -2.0809    0.9092    0.0000 O   0  0  0  0  0  0  0  0  0  0  0  0
    0.0004    2.4643    0.0000 O   0  0  0  0  0  0  0  0  0  0  0  0
  1  2  1  0
  2  3  1  0
  3  4  1  0
  4  5  1  0
  5  6  1  0
  6  7  1  0
  4  8  1  0
  4  9  1  0
  9 10  2  0
  9 11  1  0
  8  2  1  0
M  END
>  <rName>  (231) 
3-amino-cyclobutane-1-CO2H_1MeOMe

>  <PQ_SYMBOL>  (231) 
3-amino-cyclobutane-1-CO2H_1MeOMe

>  <FULL_NAME>  (231) 
3-Amino-1-(methoxymethyl)cyclobutane-1-carboxylic acid

>  <IUPAC_CONDENSED>  (231) 
3-amino-cyclobutane-1-CO2H(1-MeOMe)

>  <IUPAC>  (231) 
3-amino-1-(methoxymethyl)cyclobutanecarboxylic acid

>  <TYPE>  (231) 
Backbone

>  <CLASS>  (231) 
gamma

>  <ANALOG>  (231) 
Ser

>  <MOL_WT>  (231) 
159.185

>  <LOGP>  (231) 
-0.17510000000000053

>  <TPSA>  (231) 
72.55

>  <POPULARITY>  (231) 
2.9

>  <PROTECTED>  (231) 
TRUE

>  <SMILES>  (231) 
NC1CC(COC)(C1)C(=O)O

>  <INCHIKEY>  (231) 
SHXIOAFELVJTRB-UHFFFAOYSA-N

$$$$
3-amino-cyclobutane-1-CO2H_1OH
     RDKit          2D

  9  9  0  0  0  0  0  0  0  0999 V2000
    3.3328   -0.3893    0.0000 N   0  0  0  0  0  0  0  0  0  0  0  0
    1.8696   -0.0593    0.0000 C   0  0  0  0  0  0  0  0  0  0  0  0
    0.6015   -0.8606    0.0000 C   0  0  0  0  0  0  0  0  0  0  0  0
   -0.1997    0.4075    0.0000 C   0  0  0  0  0  0  0  0  0  0  0  0
   -1.0010    1.6755    0.0000 O   0  0  0  0  0  0  0  0  0  0  0  0
    1.0683    1.2088    0.0000 C   0  0  0  0  0  0  0  0  0  0  0  0
   -1.4678   -0.3938    0.0000 C   0  0  0  0  0  0  0  0  0  0  0  0
   -1.4079   -1.8926    0.0000 O   0  0  0  0  0  0  0  0  0  0  0  0
   -2.7958    0.3037    0.0000 O   0  0  0  0  0  0  0  0  0  0  0  0
  1  2  1  0
  2  3  1  0
  3  4  1  0
  4  5  1  0
  4  6  1  0
  4  7  1  0
  7  8  2  0
  7  9  1  0
  6  2  1  0
M  END
>  <rName>  (232) 
3-amino-cyclobutane-1-CO2H_1OH

>  <PQ_SYMBOL>  (232) 
3-amino-cyclobutane-1-CO2H_1OH

>  <FULL_NAME>  (232) 
3-Amino-1-hydroxycyclobutane-1-carboxylic acid

>  <IUPAC_CONDENSED>  (232) 
3-amino-cyclobutane-1-CO2H(1-OH)

>  <IUPAC>  (232) 
3-amino-1-hydroxycyclobutanecarboxylic acid

>  <TYPE>  (232) 
Backbone

>  <CLASS>  (232) 
gamma

>  <ANALOG>  (232) 
Ala

>  <MOL_WT>  (232) 
131.131

>  <LOGP>  (232) 
-1.0768000000000006

>  <TPSA>  (232) 
83.55

>  <POPULARITY>  (232) 
3.2

>  <PROTECTED>  (232) 
TRUE

>  <SMILES>  (232) 
NC1CC(O)(C1)C(=O)O

>  <INCHIKEY>  (232) 
VYPZKTBXZXFGPQ-UHFFFAOYSA-N

$$$$
3-amino-cyclobutane-1-CO2H_1r_3r
     RDKit          2D

  8  8  0  0  0  0  0  0  0  0999 V2000
    3.3883   -0.0000    0.0000 N   0  0  0  0  0  0  0  0  0  0  0  0
    1.8883   -0.0000    0.0000 C   0  0  0  0  0  0  0  0  0  0  0  0
    0.8277   -1.0607    0.0000 C   0  0  0  0  0  0  0  0  0  0  0  0
   -0.2330   -0.0000    0.0000 C   0  0  0  0  0  0  0  0  0  0  0  0
    0.8277    1.0607    0.0000 C   0  0  0  0  0  0  0  0  0  0  0  0
   -1.7330    0.0000    0.0000 C   0  0  0  0  0  0  0  0  0  0  0  0
   -2.4830   -1.2990    0.0000 O   0  0  0  0  0  0  0  0  0  0  0  0
   -2.4830    1.2990    0.0000 O   0  0  0  0  0  0  0  0  0  0  0  0
  2  1  1  1
  2  3  1  0
  3  4  1  0
  4  5  1  0
  4  6  1  6
  6  7  2  0
  6  8  1  0
  5  2  1  0
M  END
>  <rName>  (233) 
3-amino-cyclobutane-1-CO2H_1r_3r

>  <PQ_SYMBOL>  (233) 
3-amino-cyclobutane-1-CO2H_1r_3r

>  <FULL_NAME>  (233) 
3-Aminocyclobutane-1-carboxylic acid

>  <IUPAC_CONDENSED>  (233) 
3-amino-cyclobutane-1-CO2H(1r,3r)

>  <IUPAC>  (233) 
3-aminocyclobutane-1-carboxylic acid

>  <TYPE>  (233) 
Backbone

>  <CLASS>  (233) 
gamma

>  <ANALOG>  (233) 
Ala

>  <MOL_WT>  (233) 
115.13199999999999

>  <LOGP>  (233) 
-0.19170000000000004

>  <TPSA>  (233) 
63.32000000000001

>  <POPULARITY>  (233) 
8.8

>  <PROTECTED>  (233) 
TRUE

>  <SMILES>  (233) 
N[C@H]1C[C@@H](C1)C(=O)O

>  <INCHIKEY>  (233) 
YRGRLZXBOJQQDP-JPYJGEKTSA-N

$$$$
3-amino-cyclobutane-1-CO2H_1s_3s
     RDKit          2D

  8  8  0  0  0  0  0  0  0  0999 V2000
    3.3883   -0.0000    0.0000 N   0  0  0  0  0  0  0  0  0  0  0  0
    1.8883   -0.0000    0.0000 C   0  0  0  0  0  0  0  0  0  0  0  0
    0.8277   -1.0607    0.0000 C   0  0  0  0  0  0  0  0  0  0  0  0
   -0.2330   -0.0000    0.0000 C   0  0  0  0  0  0  0  0  0  0  0  0
    0.8277    1.0607    0.0000 C   0  0  0  0  0  0  0  0  0  0  0  0
   -1.7330    0.0000    0.0000 C   0  0  0  0  0  0  0  0  0  0  0  0
   -2.4830   -1.2990    0.0000 O   0  0  0  0  0  0  0  0  0  0  0  0
   -2.4830    1.2990    0.0000 O   0  0  0  0  0  0  0  0  0  0  0  0
  2  1  1  1
  2  3  1  0
  3  4  1  0
  4  5  1  0
  4  6  1  1
  6  7  2  0
  6  8  1  0
  5  2  1  0
M  END
>  <rName>  (234) 
3-amino-cyclobutane-1-CO2H_1s_3s

>  <PQ_SYMBOL>  (234) 
3-amino-cyclobutane-1-CO2H_1s_3s

>  <FULL_NAME>  (234) 
3-Aminocyclobutane-1-carboxylic acid

>  <IUPAC_CONDENSED>  (234) 
3-amino-cyclobutane-1-CO2H(1s,3s)

>  <IUPAC>  (234) 
3-aminocyclobutane-1-carboxylic acid

>  <TYPE>  (234) 
Backbone

>  <CLASS>  (234) 
gamma

>  <ANALOG>  (234) 
Ala

>  <MOL_WT>  (234) 
115.13199999999999

>  <LOGP>  (234) 
-0.19170000000000004

>  <TPSA>  (234) 
63.32000000000001

>  <POPULARITY>  (234) 
8.2

>  <PROTECTED>  (234) 
TRUE

>  <SMILES>  (234) 
N[C@H]1C[C@H](C1)C(=O)O

>  <INCHIKEY>  (234) 
YRGRLZXBOJQQDP-ZXZARUISSA-N

$$$$
3-amino-cyclobutane-1-CO2H_2CF3_1S_2S_3R
     RDKit          2D

 12 12  0  0  0  0  0  0  0  0999 V2000
    2.2305   -2.3811    0.0000 N   0  0  0  0  0  0  0  0  0  0  0  0
    0.9239   -1.6444    0.0000 C   0  0  0  0  0  0  0  0  0  0  0  0
   -0.5210   -2.0473    0.0000 C   0  0  0  0  0  0  0  0  0  0  0  0
   -0.9239   -0.6024    0.0000 C   0  0  0  0  0  0  0  0  0  0  0  0
    0.5210   -0.1995    0.0000 C   0  0  0  0  0  0  0  0  0  0  0  0
    1.2577    1.1071    0.0000 C   0  0  0  0  0  0  0  0  0  0  0  0
    1.9945    2.4137    0.0000 F   0  0  0  0  0  0  0  0  0  0  0  0
    2.5643    0.3704    0.0000 F   0  0  0  0  0  0  0  0  0  0  0  0
   -0.0489    1.8439    0.0000 F   0  0  0  0  0  0  0  0  0  0  0  0
   -2.2305    0.1343    0.0000 C   0  0  0  0  0  0  0  0  0  0  0  0
   -3.5218   -0.6289    0.0000 O   0  0  0  0  0  0  0  0  0  0  0  0
   -2.2458    1.6342    0.0000 O   0  0  0  0  0  0  0  0  0  0  0  0
  2  1  1  6
  2  3  1  0
  3  4  1  0
  4  5  1  0
  5  6  1  6
  6  7  1  0
  6  8  1  0
  6  9  1  0
  4 10  1  6
 10 11  2  0
 10 12  1  0
  5  2  1  0
M  END
>  <rName>  (235) 
3-amino-cyclobutane-1-CO2H_2CF3_1S_2S_3R

>  <PQ_SYMBOL>  (235) 
3-amino-cyclobutane-1-CO2H_2CF3_1S_2S_3R

>  <FULL_NAME>  (235) 
N[C@@H]1C[C@H](C(=O)O)[C@@H]1C(F)(F)F

>  <IUPAC_CONDENSED>  (235) 
3-amino-cyclobutane-1-CO2H(2-CF3,1S,2S,3R)

>  <IUPAC>  (235) 
(1S,2S,3R)-3-amino-2-(trifluoromethyl)cyclobutanecarboxylic acid

>  <TYPE>  (235) 
Backbone

>  <CLASS>  (235) 
gamma

>  <ANALOG>  (235) 
X

>  <MOL_WT>  (235) 
183.129

>  <LOGP>  (235) 
0.5966999999999998

>  <TPSA>  (235) 
63.32000000000001

>  <POPULARITY>  (235) 
2.5

>  <PROTECTED>  (235) 
TRUE

>  <SMILES>  (235) 
N[C@@H]1C[C@@H]([C@@H]1C(F)(F)F)C(=O)O

>  <INCHIKEY>  (235) 
GSXBZGAGSWNTHG-NUNKFHFFSA-N

$$$$
3-amino-cyclohexane-1-CO2H_4Me
     RDKit          2D

 11 11  0  0  0  0  0  0  0  0999 V2000
    2.3655   -2.0413    0.0000 N   0  0  0  0  0  0  0  0  0  0  0  0
    1.4355   -0.8644    0.0000 C   0  0  0  0  0  0  0  0  0  0  0  0
   -0.0487   -1.0813    0.0000 C   0  0  0  0  0  0  0  0  0  0  0  0
   -0.9787    0.0957    0.0000 C   0  0  0  0  0  0  0  0  0  0  0  0
   -0.4244    1.4895    0.0000 C   0  0  0  0  0  0  0  0  0  0  0  0
    1.0599    1.7064    0.0000 C   0  0  0  0  0  0  0  0  0  0  0  0
    1.9898    0.5295    0.0000 C   0  0  0  0  0  0  0  0  0  0  0  0
    3.4740    0.7463    0.0000 C   0  0  0  0  0  0  0  0  0  0  0  0
   -2.4629   -0.1212    0.0000 C   0  0  0  0  0  0  0  0  0  0  0  0
   -3.0172   -1.5150    0.0000 O   0  0  0  0  0  0  0  0  0  0  0  0
   -3.3929    1.0557    0.0000 O   0  0  0  0  0  0  0  0  0  0  0  0
  1  2  1  0
  2  3  1  0
  3  4  1  0
  4  5  1  0
  5  6  1  0
  6  7  1  0
  7  8  1  0
  4  9  1  0
  9 10  2  0
  9 11  1  0
  7  2  1  0
M  END
>  <rName>  (236) 
3-amino-cyclohexane-1-CO2H_4Me

>  <PQ_SYMBOL>  (236) 
3-amino-cyclohexane-1-CO2H_4Me

>  <FULL_NAME>  (236) 
3-Amino-4-methylcyclohexane-1-carboxylic acid

>  <IUPAC_CONDENSED>  (236) 
3-amino-cyclohexane-1-CO2H(4-Me)

>  <IUPAC>  (236) 
3-amino-4-methylcyclohexanecarboxylic acid

>  <TYPE>  (236) 
Backbone

>  <CLASS>  (236) 
gamma

>  <ANALOG>  (236) 
Ile

>  <MOL_WT>  (236) 
157.213

>  <LOGP>  (236) 
0.8344999999999998

>  <TPSA>  (236) 
63.32000000000001

>  <POPULARITY>  (236) 
6.9

>  <PROTECTED>  (236) 
TRUE

>  <SMILES>  (236) 
NC1CC(CCC1C)C(=O)O

>  <INCHIKEY>  (236) 
KUPBCZPXBMTAOQ-UHFFFAOYSA-N

$$$$
3-amino-cyclopentane-1-CO2H_1Me_22diMe_1R_3S
     RDKit          2D

 12 12  0  0  0  0  0  0  0  0999 V2000
   -3.1317   -0.6096    0.0000 N   0  0  0  0  0  0  0  0  0  0  0  0
   -1.8483    0.1669    0.0000 C   0  0  0  0  0  0  0  0  0  0  0  0
   -0.4658   -0.4150    0.0000 C   0  0  0  0  0  0  0  0  0  0  0  0
    0.5402   -1.3152    0.0000 C   0  0  0  0  0  0  0  0  0  0  0  0
   -1.1890   -1.7291    0.0000 C   0  0  0  0  0  0  0  0  0  0  0  0
    0.5148    0.7201    0.0000 C   0  0  0  0  0  0  0  0  0  0  0  0
    1.7100    1.6265    0.0000 C   0  0  0  0  0  0  0  0  0  0  0  0
   -0.2617    2.0035    0.0000 C   0  0  0  0  0  0  0  0  0  0  0  0
   -1.7222    1.6616    0.0000 C   0  0  0  0  0  0  0  0  0  0  0  0
    1.5412   -0.3738    0.0000 C   0  0  0  0  0  0  0  0  0  0  0  0
    1.3108   -1.7040    0.0000 O   0  0  0  0  0  0  0  0  0  0  0  0
    3.0017   -0.0319    0.0000 O   0  0  0  0  0  0  0  0  0  0  0  0
  2  1  1  1
  2  3  1  0
  3  4  1  0
  3  5  1  0
  3  6  1  0
  6  7  1  6
  6  8  1  0
  8  9  1  0
  6 10  1  0
 10 11  2  0
 10 12  1  0
  9  2  1  0
M  END
>  <rName>  (237) 
3-amino-cyclopentane-1-CO2H_1Me_22diMe_1R_3S

>  <PQ_SYMBOL>  (237) 
3-amino-cyclopentane-1-CO2H_1Me_22diMe_1R_3S

>  <FULL_NAME>  (237) 
(1R,3S)-3-amino-1,2,2-trimethylcyclopentane-1-carboxylic acid

>  <IUPAC_CONDENSED>  (237) 
3-amino-cyclopentane-1-CO2H(1-Me,2,2-diMe,1R,3S)

>  <IUPAC>  (237) 
(1R,3S)-3-amino-1,2,2-trimethylcyclopentanecarboxylic acid

>  <TYPE>  (237) 
Backbone

>  <CLASS>  (237) 
gamma

>  <ANALOG>  (237) 
Ala

>  <MOL_WT>  (237) 
171.23999999999998

>  <LOGP>  (237) 
1.2245999999999997

>  <TPSA>  (237) 
63.32000000000001

>  <POPULARITY>  (237) 
4.2

>  <PROTECTED>  (237) 
TRUE

>  <SMILES>  (237) 
N[C@@H]1C(C)(C)[C@@](C)(CC1)C(=O)O

>  <INCHIKEY>  (237) 
WRXBVYNNIBPKTH-RCOVLWMOSA-N

$$$$
3-amino-oxane-4-CO2H_3S_4S
     RDKit          2D

 10 10  0  0  0  0  0  0  0  0999 V2000
   -0.4166   -2.3203    0.0000 N   0  0  0  0  0  0  0  0  0  0  0  0
    0.3975   -1.0604    0.0000 C   0  0  0  0  0  0  0  0  0  0  0  0
   -0.2866    0.2745    0.0000 C   0  0  0  0  0  0  0  0  0  0  0  0
    0.5274    1.5344    0.0000 C   0  0  0  0  0  0  0  0  0  0  0  0
    2.0255    1.4594    0.0000 C   0  0  0  0  0  0  0  0  0  0  0  0
    2.7096    0.1244    0.0000 O   0  0  0  0  0  0  0  0  0  0  0  0
    1.8956   -1.1355    0.0000 C   0  0  0  0  0  0  0  0  0  0  0  0
   -1.7848    0.3495    0.0000 C   0  0  0  0  0  0  0  0  0  0  0  0
   -2.5988   -0.9104    0.0000 O   0  0  0  0  0  0  0  0  0  0  0  0
   -2.4688    1.6844    0.0000 O   0  0  0  0  0  0  0  0  0  0  0  0
  2  1  1  1
  2  3  1  0
  3  4  1  0
  4  5  1  0
  5  6  1  0
  6  7  1  0
  3  8  1  1
  8  9  2  0
  8 10  1  0
  7  2  1  0
M  END
>  <rName>  (238) 
3-amino-oxane-4-CO2H_3S_4S

>  <PQ_SYMBOL>  (238) 
3-amino-oxane-4-CO2H_3S_4S

>  <FULL_NAME>  (238) 
cis-3-aminotetrahydro-2H-pyran-4-carboxylic acid

>  <IUPAC_CONDENSED>  (238) 
3-amino-oxane-4-CO2H(3S,4S)

>  <IUPAC>  (238) 
(3S,4S)-3-aminooxane-4-carboxylic acid

>  <TYPE>  (238) 
Backbone

>  <CLASS>  (238) 
beta

>  <ANALOG>  (238) 
Ser

>  <MOL_WT>  (238) 
145.15800000000002

>  <LOGP>  (238) 
-0.5652000000000004

>  <TPSA>  (238) 
72.55

>  <POPULARITY>  (238) 
3.5

>  <PROTECTED>  (238) 
TRUE

>  <SMILES>  (238) 
N[C@H]1[C@H](CCOC1)C(=O)O

>  <INCHIKEY>  (238) 
XUEHMQSNKIZXQK-CRCLSJGQSA-N

$$$$
3-amino-oxolane-2-CO2H_2R_3R
     RDKit          2D

  9  9  0  0  0  0  0  0  0  0999 V2000
   -0.5115   -2.3139    0.0000 N   0  0  0  0  0  0  0  0  0  0  0  0
   -0.8624   -0.8555    0.0000 C   0  0  0  0  0  0  0  0  0  0  0  0
    0.1113    0.2855    0.0000 C   0  0  0  0  0  0  0  0  0  0  0  0
   -0.6730    1.5641    0.0000 O   0  0  0  0  0  0  0  0  0  0  0  0
   -2.1314    1.2133    0.0000 C   0  0  0  0  0  0  0  0  0  0  0  0
   -2.2485   -0.2821    0.0000 C   0  0  0  0  0  0  0  0  0  0  0  0
    1.6067    0.1685    0.0000 C   0  0  0  0  0  0  0  0  0  0  0  0
    2.2531   -1.1851    0.0000 O   0  0  0  0  0  0  0  0  0  0  0  0
    2.4558    1.4051    0.0000 O   0  0  0  0  0  0  0  0  0  0  0  0
  2  1  1  6
  2  3  1  0
  3  4  1  0
  4  5  1  0
  5  6  1  0
  3  7  1  1
  7  8  2  0
  7  9  1  0
  6  2  1  0
M  END
>  <rName>  (239) 
3-amino-oxolane-2-CO2H_2R_3R

>  <PQ_SYMBOL>  (239) 
3-amino-oxolane-2-CO2H_2R_3R

>  <FULL_NAME>  (239) 
(2R,3R)-3-aminooxolane-2-carboxylic acid

>  <IUPAC_CONDENSED>  (239) 
3-amino-oxolane-2-CO2H(2R,3R)

>  <IUPAC>  (239) 
(2R,3R)-3-aminooxolane-2-carboxylic acid

>  <TYPE>  (239) 
Backbone

>  <CLASS>  (239) 
beta

>  <ANALOG>  (239) 
Ser

>  <MOL_WT>  (239) 
131.131

>  <LOGP>  (239) 
-0.8128000000000002

>  <TPSA>  (239) 
72.55

>  <POPULARITY>  (239) 
4.3

>  <PROTECTED>  (239) 
TRUE

>  <SMILES>  (239) 
N[C@H]1[C@@H](OCC1)C(=O)O

>  <INCHIKEY>  (239) 
OVGHASDQKHPORW-QWWZWVQMSA-N

$$$$
3-amino-oxolane-2-CO2H_2S_3R
     RDKit          2D

  9  9  0  0  0  0  0  0  0  0999 V2000
   -0.5115   -2.3139    0.0000 N   0  0  0  0  0  0  0  0  0  0  0  0
   -0.8624   -0.8555    0.0000 C   0  0  0  0  0  0  0  0  0  0  0  0
    0.1113    0.2855    0.0000 C   0  0  0  0  0  0  0  0  0  0  0  0
   -0.6730    1.5641    0.0000 O   0  0  0  0  0  0  0  0  0  0  0  0
   -2.1314    1.2133    0.0000 C   0  0  0  0  0  0  0  0  0  0  0  0
   -2.2485   -0.2821    0.0000 C   0  0  0  0  0  0  0  0  0  0  0  0
    1.6067    0.1685    0.0000 C   0  0  0  0  0  0  0  0  0  0  0  0
    2.2531   -1.1851    0.0000 O   0  0  0  0  0  0  0  0  0  0  0  0
    2.4558    1.4051    0.0000 O   0  0  0  0  0  0  0  0  0  0  0  0
  2  1  1  6
  2  3  1  0
  3  4  1  0
  4  5  1  0
  5  6  1  0
  3  7  1  6
  7  8  2  0
  7  9  1  0
  6  2  1  0
M  END
>  <rName>  (240) 
3-amino-oxolane-2-CO2H_2S_3R

>  <PQ_SYMBOL>  (240) 
3-amino-oxolane-2-CO2H_2S_3R

>  <FULL_NAME>  (240) 
rac-(2R,3S)-3-aminooxolane-2-carboxylic acid

>  <IUPAC_CONDENSED>  (240) 
3-amino-oxolane-2-CO2H(2S,3R)

>  <IUPAC>  (240) 
(2S,3R)-3-aminooxolane-2-carboxylic acid

>  <TYPE>  (240) 
Backbone

>  <CLASS>  (240) 
beta

>  <ANALOG>  (240) 
Ser

>  <MOL_WT>  (240) 
131.131

>  <LOGP>  (240) 
-0.8128000000000002

>  <TPSA>  (240) 
72.55

>  <POPULARITY>  (240) 
3.9

>  <PROTECTED>  (240) 
TRUE

>  <SMILES>  (240) 
N[C@H]1[C@H](OCC1)C(=O)O

>  <INCHIKEY>  (240) 
OVGHASDQKHPORW-DMTCNVIQSA-N

$$$$
3-amino-spiro33heptane-1-CO2H
     RDKit          2D

 11 12  0  0  0  0  0  0  0  0999 V2000
    2.8868   -1.4574    0.0000 N   0  0  0  0  0  0  0  0  0  0  0  0
    1.4361   -1.0758    0.0000 C   0  0  0  0  0  0  0  0  0  0  0  0
    0.1405   -1.8317    0.0000 C   0  0  0  0  0  0  0  0  0  0  0  0
   -0.6154   -0.5360    0.0000 C   0  0  0  0  0  0  0  0  0  0  0  0
    0.6803    0.2198    0.0000 C   0  0  0  0  0  0  0  0  0  0  0  0
    1.9759    0.9757    0.0000 C   0  0  0  0  0  0  0  0  0  0  0  0
    1.2200    2.2713    0.0000 C   0  0  0  0  0  0  0  0  0  0  0  0
   -0.0756    1.5155    0.0000 C   0  0  0  0  0  0  0  0  0  0  0  0
   -2.0660   -0.1544    0.0000 C   0  0  0  0  0  0  0  0  0  0  0  0
   -2.4608    1.2927    0.0000 O   0  0  0  0  0  0  0  0  0  0  0  0
   -3.1218   -1.2198    0.0000 O   0  0  0  0  0  0  0  0  0  0  0  0
  1  2  1  0
  2  3  1  0
  3  4  1  0
  4  5  1  0
  5  6  1  0
  6  7  1  0
  7  8  1  0
  4  9  1  0
  9 10  2  0
  9 11  1  0
  5  2  1  0
  8  5  1  0
M  END
>  <rName>  (241) 
3-amino-spiro33heptane-1-CO2H

>  <PQ_SYMBOL>  (241) 
3-amino-spiro33heptane-1-CO2H

>  <FULL_NAME>  (241) 
3-Aminospiro[3.3]heptane-1-carboxylic acid

>  <IUPAC_CONDENSED>  (241) 
3-amino-spiro[3.3]heptane-1-CO2H

>  <IUPAC>  (241) 
3-aminospiro[3.3]heptane-1-carboxylic acid

>  <TYPE>  (241) 
Backbone

>  <CLASS>  (241) 
gamma

>  <ANALOG>  (241) 
X

>  <MOL_WT>  (241) 
155.197

>  <LOGP>  (241) 
0.5884999999999998

>  <TPSA>  (241) 
63.32000000000001

>  <POPULARITY>  (241) 
2.8

>  <PROTECTED>  (241) 
TRUE

>  <SMILES>  (241) 
NC1CC(C12(CCC2))C(=O)O

>  <INCHIKEY>  (241) 
RLCGTKRTCZUOOS-UHFFFAOYSA-N

$$$$
3-amino-spiro33heptane-1-CO2H_1R_3S
     RDKit          2D

 11 12  0  0  0  0  0  0  0  0999 V2000
    2.8868   -1.4574    0.0000 N   0  0  0  0  0  0  0  0  0  0  0  0
    1.4361   -1.0758    0.0000 C   0  0  0  0  0  0  0  0  0  0  0  0
    0.1405   -1.8317    0.0000 C   0  0  0  0  0  0  0  0  0  0  0  0
   -0.6154   -0.5360    0.0000 C   0  0  0  0  0  0  0  0  0  0  0  0
    0.6803    0.2198    0.0000 C   0  0  0  0  0  0  0  0  0  0  0  0
    1.9759    0.9757    0.0000 C   0  0  0  0  0  0  0  0  0  0  0  0
    1.2200    2.2713    0.0000 C   0  0  0  0  0  0  0  0  0  0  0  0
   -0.0756    1.5155    0.0000 C   0  0  0  0  0  0  0  0  0  0  0  0
   -2.0660   -0.1544    0.0000 C   0  0  0  0  0  0  0  0  0  0  0  0
   -2.4608    1.2927    0.0000 O   0  0  0  0  0  0  0  0  0  0  0  0
   -3.1218   -1.2198    0.0000 O   0  0  0  0  0  0  0  0  0  0  0  0
  2  1  1  1
  2  3  1  0
  3  4  1  0
  4  5  1  0
  5  6  1  0
  6  7  1  0
  7  8  1  0
  4  9  1  1
  9 10  2  0
  9 11  1  0
  5  2  1  0
  8  5  1  0
M  END
>  <rName>  (242) 
3-amino-spiro33heptane-1-CO2H_1R_3S

>  <PQ_SYMBOL>  (242) 
3-amino-spiro33heptane-1-CO2H_1R_3S

>  <FULL_NAME>  (242) 
N[C@H]1C[C@@H](C(=O)O)C12CCC2

>  <IUPAC_CONDENSED>  (242) 
3-amino-spiro[3.3]heptane-1-CO2H(1R,3S)

>  <IUPAC>  (242) 
(1R,3S)-3-aminospiro[3.3]heptane-1-carboxylic acid

>  <TYPE>  (242) 
Backbone

>  <CLASS>  (242) 
gamma

>  <ANALOG>  (242) 
X

>  <MOL_WT>  (242) 
155.197

>  <LOGP>  (242) 
0.5884999999999998

>  <TPSA>  (242) 
63.32000000000001

>  <POPULARITY>  (242) 
2.8

>  <PROTECTED>  (242) 
TRUE

>  <SMILES>  (242) 
N[C@H]1C[C@H](C12(CCC2))C(=O)O

>  <INCHIKEY>  (242) 
RLCGTKRTCZUOOS-WDSKDSINSA-N

$$$$
3-aminomethyl-2-oxabicyclo211hexane-1-CO2H
     RDKit          2D

 11 12  0  0  0  0  0  0  0  0999 V2000
    2.6024   -1.8090    0.0000 N   0  0  0  0  0  0  0  0  0  0  0  0
    2.5160   -0.3115    0.0000 C   0  0  0  0  0  0  0  0  0  0  0  0
    1.1402    0.3805    0.0000 C   0  0  0  0  0  0  0  0  0  0  0  0
   -0.2283   -0.3258    0.0000 O   0  0  0  0  0  0  0  0  0  0  0  0
   -1.3230    0.7575    0.0000 C   0  0  0  0  0  0  0  0  0  0  0  0
   -0.6310    2.1333    0.0000 C   0  0  0  0  0  0  0  0  0  0  0  0
    0.8913    1.9003    0.0000 C   0  0  0  0  0  0  0  0  0  0  0  0
   -0.0730    1.0521    0.0000 C   0  0  0  0  0  0  0  0  0  0  0  0
   -1.5559   -0.7649    0.0000 C   0  0  0  0  0  0  0  0  0  0  0  0
   -0.3853   -1.7028    0.0000 O   0  0  0  0  0  0  0  0  0  0  0  0
   -2.9535   -1.3097    0.0000 O   0  0  0  0  0  0  0  0  0  0  0  0
  1  2  1  0
  2  3  1  0
  3  4  1  0
  4  5  1  0
  5  6  1  0
  7  6  1  6
  7  8  1  0
  5  9  1  1
  9 10  2  0
  9 11  1  0
  7  3  1  0
  8  5  1  0
M  END
>  <rName>  (243) 
3-aminomethyl-2-oxabicyclo211hexane-1-CO2H

>  <PQ_SYMBOL>  (243) 
3-aminomethyl-2-oxabicyclo211hexane-1-CO2H

>  <FULL_NAME>  (243) 
3-(Aminomethyl)-2-oxabicyclo[2.1.1]hexane-1-carboxylic acid

>  <IUPAC_CONDENSED>  (243) 
3-aminomethyl-2-oxabicyclo[2.1.1]hexane-1-CO2H

>  <IUPAC>  (243) 
3-(aminomethyl)-2-oxabicyclo[2.1.1]hexane-1-carboxylic acid

>  <TYPE>  (243) 
Backbone

>  <CLASS>  (243) 
delta

>  <ANALOG>  (243) 
Val

>  <MOL_WT>  (243) 
157.16899999999998

>  <LOGP>  (243) 
-0.42270000000000035

>  <TPSA>  (243) 
72.55

>  <POPULARITY>  (243) 
2.6

>  <PROTECTED>  (243) 
TRUE

>  <SMILES>  (243) 
NCC1O[C@@]2(C[C@H]1C2)C(=O)O

>  <INCHIKEY>  (243) 
ZQXXBFIDSMGCTK-QPVKDOIMSA-N

$$$$
3-aminomethyl-bicyclo111pentane-1-CO2H
     RDKit          2D

 10 11  0  0  0  0  0  0  0  0999 V2000
   -3.7505    0.6927    0.0000 N   0  0  0  0  0  0  0  0  0  0  0  0
   -2.8516   -0.5081    0.0000 C   0  0  0  0  0  0  0  0  0  0  0  0
   -1.3622   -0.3300    0.0000 C   0  0  0  0  0  0  0  0  0  0  0  0
   -0.1831   -1.2573    0.0000 C   0  0  0  0  0  0  0  0  0  0  0  0
    0.7441   -0.0782    0.0000 C   0  0  0  0  0  0  0  0  0  0  0  0
   -0.4349    0.8491    0.0000 C   0  0  0  0  0  0  0  0  0  0  0  0
   -0.3518    0.1540    0.0000 C   0  0  0  0  0  0  0  0  0  0  0  0
    2.2335    0.0999    0.0000 C   0  0  0  0  0  0  0  0  0  0  0  0
    2.8240    1.4788    0.0000 O   0  0  0  0  0  0  0  0  0  0  0  0
    3.1325   -1.1009    0.0000 O   0  0  0  0  0  0  0  0  0  0  0  0
  1  2  1  0
  2  3  1  0
  3  4  1  0
  4  5  1  0
  5  6  1  0
  5  7  1  0
  5  8  1  0
  8  9  2  0
  8 10  1  0
  6  3  1  0
  7  3  1  0
M  END
>  <rName>  (244) 
3-aminomethyl-bicyclo111pentane-1-CO2H

>  <PQ_SYMBOL>  (244) 
3-aminomethyl-bicyclo111pentane-1-CO2H

>  <FULL_NAME>  (244) 
3-(Aminomethyl)bicyclo[1.1.1]pentane-1-carboxylic acid

>  <IUPAC_CONDENSED>  (244) 
3-aminomethyl-bicyclo[1.1.1]pentane-1-CO2H

>  <IUPAC>  (244) 
3-(aminomethyl)bicyclo[1.1.1]pentane-1-carboxylic acid

>  <TYPE>  (244) 
Backbone

>  <CLASS>  (244) 
delta

>  <ANALOG>  (244) 
Ala

>  <MOL_WT>  (244) 
141.17

>  <LOGP>  (244) 
0.20000000000000012

>  <TPSA>  (244) 
63.32000000000001

>  <POPULARITY>  (244) 
5.2

>  <PROTECTED>  (244) 
TRUE

>  <SMILES>  (244) 
NCC12CC(C1)(C2)C(=O)O

>  <INCHIKEY>  (244) 
OMSDZSWHARMRFI-UHFFFAOYSA-N

$$$$
3-aminomethyl-cyclobutane-1-CO2H_3OH
     RDKit          2D

 10 10  0  0  0  0  0  0  0  0999 V2000
    3.7353    0.3952    0.0000 N   0  0  0  0  0  0  0  0  0  0  0  0
    2.3106    0.8645    0.0000 C   0  0  0  0  0  0  0  0  0  0  0  0
    1.1919   -0.1347    0.0000 C   0  0  0  0  0  0  0  0  0  0  0  0
    2.1911   -1.2534    0.0000 O   0  0  0  0  0  0  0  0  0  0  0  0
    0.0731   -1.1338    0.0000 C   0  0  0  0  0  0  0  0  0  0  0  0
   -0.9261   -0.0151    0.0000 C   0  0  0  0  0  0  0  0  0  0  0  0
    0.1927    0.9841    0.0000 C   0  0  0  0  0  0  0  0  0  0  0  0
   -2.4237    0.0695    0.0000 C   0  0  0  0  0  0  0  0  0  0  0  0
   -3.2457   -1.1852    0.0000 O   0  0  0  0  0  0  0  0  0  0  0  0
   -3.0993    1.4088    0.0000 O   0  0  0  0  0  0  0  0  0  0  0  0
  1  2  1  0
  2  3  1  0
  3  4  1  0
  3  5  1  0
  5  6  1  0
  6  7  1  0
  6  8  1  0
  8  9  2  0
  8 10  1  0
  7  3  1  0
M  END
>  <rName>  (245) 
3-aminomethyl-cyclobutane-1-CO2H_3OH

>  <PQ_SYMBOL>  (245) 
3-aminomethyl-cyclobutane-1-CO2H_3OH

>  <FULL_NAME>  (245) 
3-(Aminomethyl)-3-hydroxycyclobutane-1-carboxylic acid

>  <IUPAC_CONDENSED>  (245) 
3-aminomethyl-cyclobutane-1-CO2H(3-OH)

>  <IUPAC>  (245) 
3-(aminomethyl)-3-hydroxycyclobutanecarboxylic acid

>  <TYPE>  (245) 
Backbone

>  <CLASS>  (245) 
delta

>  <ANALOG>  (245) 
X

>  <MOL_WT>  (245) 
145.158

>  <LOGP>  (245) 
-0.8292000000000004

>  <TPSA>  (245) 
83.55

>  <POPULARITY>  (245) 
3.3

>  <PROTECTED>  (245) 
TRUE

>  <SMILES>  (245) 
NCC1(O)CC(C1)C(=O)O

>  <INCHIKEY>  (245) 
GADQMLABNILMSD-UHFFFAOYSA-N

$$$$
3-aminomethyl-cyclohexane-1-CO2H
     RDKit          2D

 11 11  0  0  0  0  0  0  0  0999 V2000
    2.9943   -2.0538    0.0000 N   0  0  0  0  0  0  0  0  0  0  0  0
    2.9641   -0.5541    0.0000 C   0  0  0  0  0  0  0  0  0  0  0  0
    1.6502    0.1696    0.0000 C   0  0  0  0  0  0  0  0  0  0  0  0
    0.3666   -0.6064    0.0000 C   0  0  0  0  0  0  0  0  0  0  0  0
   -0.9473    0.1173    0.0000 C   0  0  0  0  0  0  0  0  0  0  0  0
   -0.9775    1.6170    0.0000 C   0  0  0  0  0  0  0  0  0  0  0  0
    0.3062    2.3930    0.0000 C   0  0  0  0  0  0  0  0  0  0  0  0
    1.6200    1.6693    0.0000 C   0  0  0  0  0  0  0  0  0  0  0  0
   -2.2310   -0.6587    0.0000 C   0  0  0  0  0  0  0  0  0  0  0  0
   -2.2008   -2.1584    0.0000 O   0  0  0  0  0  0  0  0  0  0  0  0
   -3.5449    0.0650    0.0000 O   0  0  0  0  0  0  0  0  0  0  0  0
  1  2  1  0
  2  3  1  0
  3  4  1  0
  4  5  1  0
  5  6  1  0
  6  7  1  0
  7  8  1  0
  5  9  1  0
  9 10  2  0
  9 11  1  0
  8  3  1  0
M  END
>  <rName>  (246) 
3-aminomethyl-cyclohexane-1-CO2H

>  <PQ_SYMBOL>  (246) 
3-aminomethyl-cyclohexane-1-CO2H

>  <FULL_NAME>  (246) 
3-(Aminomethyl)cyclohexanecarboxylic acid

>  <IUPAC_CONDENSED>  (246) 
3-aminomethyl-cyclohexane-1-CO2H

>  <IUPAC>  (246) 
3-(aminomethyl)cyclohexanecarboxylic acid

>  <TYPE>  (246) 
Backbone

>  <CLASS>  (246) 
delta

>  <ANALOG>  (246) 
Val

>  <MOL_WT>  (246) 
157.213

>  <LOGP>  (246) 
0.8361000000000001

>  <TPSA>  (246) 
63.32000000000001

>  <POPULARITY>  (246) 
11.9

>  <PROTECTED>  (246) 
TRUE

>  <SMILES>  (246) 
NCC1CC(CCC1)C(=O)O

>  <INCHIKEY>  (246) 
LYRQHZCLXXBANV-UHFFFAOYSA-N

$$$$
3-aminomethyl-cyclopentane-1-CO2H_3F_1S_3R
     RDKit          2D

 11 11  0  0  0  0  0  0  0  0999 V2000
   -3.6052   -1.0627    0.0000 N   0  0  0  0  0  0  0  0  0  0  0  0
   -2.1054   -1.0904    0.0000 C   0  0  0  0  0  0  0  0  0  0  0  0
   -1.3316    0.1946    0.0000 C   0  0  0  0  0  0  0  0  0  0  0  0
   -2.6905    0.8299    0.0000 F   0  0  0  0  0  0  0  0  0  0  0  0
   -0.1345   -0.7093    0.0000 C   0  0  0  0  0  0  0  0  0  0  0  0
    1.0950    0.1499    0.0000 C   0  0  0  0  0  0  0  0  0  0  0  0
    0.6579    1.5848    0.0000 C   0  0  0  0  0  0  0  0  0  0  0  0
   -0.8419    1.6124    0.0000 C   0  0  0  0  0  0  0  0  0  0  0  0
    2.5128   -0.3398    0.0000 C   0  0  0  0  0  0  0  0  0  0  0  0
    3.6458    0.6432    0.0000 O   0  0  0  0  0  0  0  0  0  0  0  0
    2.7976   -1.8125    0.0000 O   0  0  0  0  0  0  0  0  0  0  0  0
  1  2  1  0
  2  3  1  0
  3  4  1  6
  3  5  1  0
  5  6  1  0
  6  7  1  0
  7  8  1  0
  6  9  1  6
  9 10  2  0
  9 11  1  0
  8  3  1  0
M  END
>  <rName>  (247) 
3-aminomethyl-cyclopentane-1-CO2H_3F_1S_3R

>  <PQ_SYMBOL>  (247) 
3-aminomethyl-cyclopentane-1-CO2H_3F_1S_3R

>  <FULL_NAME>  (247) 
rac-(1R,3S)-3-(aminomethyl)-3-fluorocyclopentane-1-carboxylic acid

>  <IUPAC_CONDENSED>  (247) 
3-aminomethyl-cyclopentane-1-CO2H(3-F,1S,3R)

>  <IUPAC>  (247) 
(1S,3R)-3-(aminomethyl)-3-fluorocyclopentanecarboxylic acid

>  <TYPE>  (247) 
Backbone

>  <CLASS>  (247) 
delta

>  <ANALOG>  (247) 
X

>  <MOL_WT>  (247) 
161.176

>  <LOGP>  (247) 
0.5380999999999998

>  <TPSA>  (247) 
63.32000000000001

>  <POPULARITY>  (247) 
3.0

>  <PROTECTED>  (247) 
TRUE

>  <SMILES>  (247) 
NC[C@]1(F)C[C@H](CC1)C(=O)O

>  <INCHIKEY>  (247) 
WJYKYHGCJYGWDL-CAHLUQPWSA-N

$$$$
3-aminomethyl-cyclopentane-1-CO2H_4OH_1R_3S_4S
     RDKit          2D

 11 11  0  0  0  0  0  0  0  0999 V2000
   -3.8367   -0.6115    0.0000 N   0  0  0  0  0  0  0  0  0  0  0  0
   -2.5219   -1.3335    0.0000 C   0  0  0  0  0  0  0  0  0  0  0  0
   -1.2392   -0.5559    0.0000 C   0  0  0  0  0  0  0  0  0  0  0  0
    0.1438   -1.1366    0.0000 C   0  0  0  0  0  0  0  0  0  0  0  0
    1.1234   -0.0006    0.0000 C   0  0  0  0  0  0  0  0  0  0  0  0
    0.3458    1.2821    0.0000 C   0  0  0  0  0  0  0  0  0  0  0  0
   -1.1144    0.9389    0.0000 C   0  0  0  0  0  0  0  0  0  0  0  0
   -2.2503    1.9185    0.0000 O   0  0  0  0  0  0  0  0  0  0  0  0
    2.6182   -0.1255    0.0000 C   0  0  0  0  0  0  0  0  0  0  0  0
    3.4738    1.1066    0.0000 O   0  0  0  0  0  0  0  0  0  0  0  0
    3.2575   -1.4825    0.0000 O   0  0  0  0  0  0  0  0  0  0  0  0
  1  2  1  0
  3  2  1  1
  3  4  1  0
  4  5  1  0
  5  6  1  0
  6  7  1  0
  7  8  1  1
  5  9  1  6
  9 10  2  0
  9 11  1  0
  7  3  1  0
M  END
>  <rName>  (248) 
3-aminomethyl-cyclopentane-1-CO2H_4OH_1R_3S_4S

>  <PQ_SYMBOL>  (248) 
3-aminomethyl-cyclopentane-1-CO2H_4OH_1R_3S_4S

>  <FULL_NAME>  (248) 
rac-(1R,3S,4S)-3-(aminomethyl)-4-hydroxycyclopentane-1-carboxylic acid

>  <IUPAC_CONDENSED>  (248) 
3-aminomethyl-cyclopentane-1-CO2H(4-OH,1R,3S,4S)

>  <IUPAC>  (248) 
(1R,3S,4S)-3-(aminomethyl)-4-hydroxycyclopentanecarboxylic acid

>  <TYPE>  (248) 
Backbone

>  <CLASS>  (248) 
delta

>  <ANALOG>  (248) 
Thr

>  <MOL_WT>  (248) 
159.18499999999997

>  <LOGP>  (248) 
-0.5831999999999999

>  <TPSA>  (248) 
83.55

>  <POPULARITY>  (248) 
3.2

>  <PROTECTED>  (248) 
TRUE

>  <SMILES>  (248) 
NC[C@@H]1C[C@H](C[C@@H]1O)C(=O)O

>  <INCHIKEY>  (248) 
AZFYYTIVRCFHAP-SRQIZXRXSA-N

$$$$
3-aminomethyl-cyclopropane-1-CO2H_22diF_1R_3R
     RDKit          2D

 10 10  0  0  0  0  0  0  0  0999 V2000
   -3.4155   -1.0007    0.0000 N   0  0  0  0  0  0  0  0  0  0  0  0
   -1.9811   -1.4396    0.0000 C   0  0  0  0  0  0  0  0  0  0  0  0
   -0.8838   -0.4168    0.0000 C   0  0  0  0  0  0  0  0  0  0  0  0
    0.5778   -0.0797    0.0000 C   0  0  0  0  0  0  0  0  0  0  0  0
   -0.4450    1.0175    0.0000 C   0  0  0  0  0  0  0  0  0  0  0  0
   -1.7813    1.6988    0.0000 F   0  0  0  0  0  0  0  0  0  0  0  0
    0.4580    2.2153    0.0000 F   0  0  0  0  0  0  0  0  0  0  0  0
    2.0122   -0.5186    0.0000 C   0  0  0  0  0  0  0  0  0  0  0  0
    3.1094    0.5041    0.0000 O   0  0  0  0  0  0  0  0  0  0  0  0
    2.3493   -1.9802    0.0000 O   0  0  0  0  0  0  0  0  0  0  0  0
  1  2  1  0
  3  2  1  6
  3  4  1  0
  4  5  1  0
  5  6  1  0
  5  7  1  0
  4  8  1  1
  8  9  2  0
  8 10  1  0
  5  3  1  0
M  END
>  <rName>  (249) 
3-aminomethyl-cyclopropane-1-CO2H_22diF_1R_3R

>  <PQ_SYMBOL>  (249) 
3-aminomethyl-cyclopropane-1-CO2H_22diF_1R_3R

>  <FULL_NAME>  (249) 
NC[C@H]1[C@H](C(=O)O)C1(F)F

>  <IUPAC_CONDENSED>  (249) 
3-aminomethyl-cyclopropane-1-CO2H(2,2-diF,1R,3R)

>  <IUPAC>  (249) 
(1R,2R)-2-(aminomethyl)-3,3-difluorocyclopropanecarboxylic acid

>  <TYPE>  (249) 
Backbone

>  <CLASS>  (249) 
gamma

>  <ANALOG>  (249) 
X

>  <MOL_WT>  (249) 
151.11200000000002

>  <LOGP>  (249) 
-0.08900000000000002

>  <TPSA>  (249) 
63.32000000000001

>  <POPULARITY>  (249) 
4.1

>  <PROTECTED>  (249) 
TRUE

>  <SMILES>  (249) 
NC[C@H]1[C@@H](C1(F)F)C(=O)O

>  <INCHIKEY>  (249) 
TXSUTDIZPLMVSK-STHAYSLISA-N

$$$$
3-aminomethyl-cyclopropane-1-CO2H_22diF_1S_3R
     RDKit          2D

 10 10  0  0  0  0  0  0  0  0999 V2000
   -3.4155   -1.0007    0.0000 N   0  0  0  0  0  0  0  0  0  0  0  0
   -1.9811   -1.4396    0.0000 C   0  0  0  0  0  0  0  0  0  0  0  0
   -0.8838   -0.4168    0.0000 C   0  0  0  0  0  0  0  0  0  0  0  0
    0.5778   -0.0797    0.0000 C   0  0  0  0  0  0  0  0  0  0  0  0
   -0.4450    1.0175    0.0000 C   0  0  0  0  0  0  0  0  0  0  0  0
   -1.7813    1.6988    0.0000 F   0  0  0  0  0  0  0  0  0  0  0  0
    0.4580    2.2153    0.0000 F   0  0  0  0  0  0  0  0  0  0  0  0
    2.0122   -0.5186    0.0000 C   0  0  0  0  0  0  0  0  0  0  0  0
    3.1094    0.5041    0.0000 O   0  0  0  0  0  0  0  0  0  0  0  0
    2.3493   -1.9802    0.0000 O   0  0  0  0  0  0  0  0  0  0  0  0
  1  2  1  0
  3  2  1  6
  3  4  1  0
  4  5  1  0
  5  6  1  0
  5  7  1  0
  4  8  1  6
  8  9  2  0
  8 10  1  0
  5  3  1  0
M  END
>  <rName>  (250) 
3-aminomethyl-cyclopropane-1-CO2H_22diF_1S_3R

>  <PQ_SYMBOL>  (250) 
3-aminomethyl-cyclopropane-1-CO2H_22diF_1S_3R

>  <FULL_NAME>  (250) 
trans-(1S,3R)-3-(aminomethyl)-2,2-difluorocyclopropane-1-carboxylic acid

>  <IUPAC_CONDENSED>  (250) 
3-aminomethyl-cyclopropane-1-CO2H(2,2-diF,1S,3R)

>  <IUPAC>  (250) 
(1S,2R)-2-(aminomethyl)-3,3-difluorocyclopropanecarboxylic acid

>  <TYPE>  (250) 
Backbone

>  <CLASS>  (250) 
gamma

>  <ANALOG>  (250) 
X

>  <MOL_WT>  (250) 
151.11200000000002

>  <LOGP>  (250) 
-0.08900000000000002

>  <TPSA>  (250) 
63.32000000000001

>  <POPULARITY>  (250) 
3.9

>  <PROTECTED>  (250) 
TRUE

>  <SMILES>  (250) 
NC[C@H]1[C@H](C1(F)F)C(=O)O

>  <INCHIKEY>  (250) 
TXSUTDIZPLMVSK-HRFVKAFMSA-N

$$$$
3-aminomethyl-cyclopropane-1-CO2H_22diMe_1R_3S
     RDKit          2D

 10 10  0  0  0  0  0  0  0  0999 V2000
   -3.4155   -1.0007    0.0000 N   0  0  0  0  0  0  0  0  0  0  0  0
   -1.9811   -1.4396    0.0000 C   0  0  0  0  0  0  0  0  0  0  0  0
   -0.8838   -0.4168    0.0000 C   0  0  0  0  0  0  0  0  0  0  0  0
    0.5778   -0.0797    0.0000 C   0  0  0  0  0  0  0  0  0  0  0  0
   -0.4450    1.0175    0.0000 C   0  0  0  0  0  0  0  0  0  0  0  0
   -1.7813    1.6988    0.0000 C   0  0  0  0  0  0  0  0  0  0  0  0
    0.4580    2.2153    0.0000 C   0  0  0  0  0  0  0  0  0  0  0  0
    2.0122   -0.5186    0.0000 C   0  0  0  0  0  0  0  0  0  0  0  0
    3.1094    0.5041    0.0000 O   0  0  0  0  0  0  0  0  0  0  0  0
    2.3493   -1.9802    0.0000 O   0  0  0  0  0  0  0  0  0  0  0  0
  1  2  1  0
  3  2  1  6
  3  4  1  0
  4  5  1  0
  5  6  1  0
  5  7  1  0
  4  8  1  6
  8  9  2  0
  8 10  1  0
  5  3  1  0
M  END
>  <rName>  (251) 
3-aminomethyl-cyclopropane-1-CO2H_22diMe_1R_3S

>  <PQ_SYMBOL>  (251) 
3-aminomethyl-cyclopropane-1-CO2H_22diMe_1R_3S

>  <FULL_NAME>  (251) 
rac-(1R,3S)-3-(aminomethyl)-2,2-dimethylcyclopropane-1-carboxylic acid

>  <IUPAC_CONDENSED>  (251) 
3-aminomethyl-cyclopropane-1-CO2H(2,2-diMe,1R,3S)

>  <IUPAC>  (251) 
(1R,2S)-2-(aminomethyl)-3,3-dimethylcyclopropanecarboxylic acid

>  <TYPE>  (251) 
Backbone

>  <CLASS>  (251) 
gamma

>  <ANALOG>  (251) 
Val

>  <MOL_WT>  (251) 
143.186

>  <LOGP>  (251) 
0.3019000000000002

>  <TPSA>  (251) 
63.32000000000001

>  <POPULARITY>  (251) 
4.3

>  <PROTECTED>  (251) 
TRUE

>  <SMILES>  (251) 
NC[C@H]1[C@H](C1(C)C)C(=O)O

>  <INCHIKEY>  (251) 
GGEJEJJTABCYJP-WHFBIAKZSA-N

$$$$
3-aminomethyl-oxolane-2-CO2H_2S_3S
     RDKit          2D

 10 10  0  0  0  0  0  0  0  0999 V2000
   -2.9143   -1.6284    0.0000 N   0  0  0  0  0  0  0  0  0  0  0  0
   -1.4299   -1.4129    0.0000 C   0  0  0  0  0  0  0  0  0  0  0  0
   -0.8743   -0.0196    0.0000 C   0  0  0  0  0  0  0  0  0  0  0  0
    0.5795    0.3498    0.0000 C   0  0  0  0  0  0  0  0  0  0  0  0
    0.6774    1.8466    0.0000 O   0  0  0  0  0  0  0  0  0  0  0  0
   -0.7159    2.4022    0.0000 C   0  0  0  0  0  0  0  0  0  0  0  0
   -1.6749    1.2488    0.0000 C   0  0  0  0  0  0  0  0  0  0  0  0
    1.7329   -0.6092    0.0000 C   0  0  0  0  0  0  0  0  0  0  0  0
    1.4791   -2.0876    0.0000 O   0  0  0  0  0  0  0  0  0  0  0  0
    3.1402   -0.0898    0.0000 O   0  0  0  0  0  0  0  0  0  0  0  0
  1  2  1  0
  3  2  1  6
  3  4  1  0
  4  5  1  0
  5  6  1  0
  6  7  1  0
  4  8  1  6
  8  9  2  0
  8 10  1  0
  7  3  1  0
M  END
>  <rName>  (252) 
3-aminomethyl-oxolane-2-CO2H_2S_3S

>  <PQ_SYMBOL>  (252) 
3-aminomethyl-oxolane-2-CO2H_2S_3S

>  <FULL_NAME>  (252) 
rac-(2R,3R)-3-(aminomethyl)oxolane-2-carboxylic acid

>  <IUPAC_CONDENSED>  (252) 
3-aminomethyl-oxolane-2-CO2H(2S,3S)

>  <IUPAC>  (252) 
(2S,3S)-3-(aminomethyl)oxolane-2-carboxylic acid

>  <TYPE>  (252) 
Backbone

>  <CLASS>  (252) 
gamma

>  <ANALOG>  (252) 
Ser

>  <MOL_WT>  (252) 
145.15800000000002

>  <LOGP>  (252) 
-0.5652000000000004

>  <TPSA>  (252) 
72.55

>  <POPULARITY>  (252) 
5.2

>  <PROTECTED>  (252) 
TRUE

>  <SMILES>  (252) 
NC[C@H]1[C@H](OCC1)C(=O)O

>  <INCHIKEY>  (252) 
SDVAABAIJZSJGU-WHFBIAKZSA-N

$$$$
3-aminomethyl-oxolane-3-CO2H
     RDKit          2D

 10 10  0  0  0  0  0  0  0  0999 V2000
   -2.2802   -1.0134    0.0000 N   0  0  0  0  0  0  0  0  0  0  0  0
   -0.8154   -1.3362    0.0000 C   0  0  0  0  0  0  0  0  0  0  0  0
    0.1967   -0.2291    0.0000 C   0  0  0  0  0  0  0  0  0  0  0  0
    1.1920   -1.3513    0.0000 C   0  0  0  0  0  0  0  0  0  0  0  0
    2.5668   -0.7515    0.0000 C   0  0  0  0  0  0  0  0  0  0  0  0
    2.4212    0.7414    0.0000 O   0  0  0  0  0  0  0  0  0  0  0  0
    0.9564    1.0643    0.0000 C   0  0  0  0  0  0  0  0  0  0  0  0
   -1.0102    0.6617    0.0000 C   0  0  0  0  0  0  0  0  0  0  0  0
   -2.3851    0.0618    0.0000 O   0  0  0  0  0  0  0  0  0  0  0  0
   -0.8422    2.1522    0.0000 O   0  0  0  0  0  0  0  0  0  0  0  0
  1  2  1  0
  2  3  1  0
  3  4  1  0
  4  5  1  0
  5  6  1  0
  6  7  1  0
  3  8  1  0
  8  9  2  0
  8 10  1  0
  7  3  1  0
M  END
>  <rName>  (253) 
3-aminomethyl-oxolane-3-CO2H

>  <PQ_SYMBOL>  (253) 
3-aminomethyl-oxolane-3-CO2H

>  <FULL_NAME>  (253) 
3-(Aminomethyl)oxolane-3-carboxylic acid

>  <IUPAC_CONDENSED>  (253) 
3-aminomethyl-oxolane-3-CO2H

>  <IUPAC>  (253) 
3-(aminomethyl)oxolane-3-carboxylic acid

>  <TYPE>  (253) 
Backbone

>  <CLASS>  (253) 
beta

>  <ANALOG>  (253) 
Ser

>  <MOL_WT>  (253) 
145.158

>  <LOGP>  (253) 
-0.5636000000000001

>  <TPSA>  (253) 
72.55

>  <POPULARITY>  (253) 
6.6

>  <PROTECTED>  (253) 
TRUE

>  <SMILES>  (253) 
NCC1(CCOC1)C(=O)O

>  <INCHIKEY>  (253) 
UCRCEFMAZAMBGX-UHFFFAOYSA-N

$$$$
3-aminomethyl-spiro33heptane-1-CO2H
     RDKit          2D

 12 13  0  0  0  0  0  0  0  0999 V2000
   -3.7465    1.4495    0.0000 N   0  0  0  0  0  0  0  0  0  0  0  0
   -2.8729    0.2302    0.0000 C   0  0  0  0  0  0  0  0  0  0  0  0
   -1.3801    0.3771    0.0000 C   0  0  0  0  0  0  0  0  0  0  0  0
   -0.4284    1.5366    0.0000 C   0  0  0  0  0  0  0  0  0  0  0  0
    0.7310    0.5849    0.0000 C   0  0  0  0  0  0  0  0  0  0  0  0
   -0.2207   -0.5746    0.0000 C   0  0  0  0  0  0  0  0  0  0  0  0
   -1.1724   -1.7340    0.0000 C   0  0  0  0  0  0  0  0  0  0  0  0
   -0.0129   -2.6857    0.0000 C   0  0  0  0  0  0  0  0  0  0  0  0
    0.9388   -1.5263    0.0000 C   0  0  0  0  0  0  0  0  0  0  0  0
    2.2238    0.7318    0.0000 C   0  0  0  0  0  0  0  0  0  0  0  0
    3.0974   -0.4876    0.0000 O   0  0  0  0  0  0  0  0  0  0  0  0
    2.8430    2.0980    0.0000 O   0  0  0  0  0  0  0  0  0  0  0  0
  1  2  1  0
  2  3  1  0
  3  4  1  0
  4  5  1  0
  5  6  1  0
  6  7  1  0
  7  8  1  0
  8  9  1  0
  5 10  1  0
 10 11  2  0
 10 12  1  0
  6  3  1  0
  9  6  1  0
M  END
>  <rName>  (254) 
3-aminomethyl-spiro33heptane-1-CO2H

>  <PQ_SYMBOL>  (254) 
3-aminomethyl-spiro33heptane-1-CO2H

>  <FULL_NAME>  (254) 
3-(Aminomethyl)spiro[3.3]heptane-1-carboxylic acid

>  <IUPAC_CONDENSED>  (254) 
3-aminomethyl-spiro[3.3]heptane-1-CO2H

>  <IUPAC>  (254) 
3-(aminomethyl)spiro[3.3]heptane-1-carboxylic acid

>  <TYPE>  (254) 
Backbone

>  <CLASS>  (254) 
delta

>  <ANALOG>  (254) 
X

>  <MOL_WT>  (254) 
169.224

>  <LOGP>  (254) 
0.8361000000000001

>  <TPSA>  (254) 
63.32000000000001

>  <POPULARITY>  (254) 
2.7

>  <PROTECTED>  (254) 
TRUE

>  <SMILES>  (254) 
NCC1CC(C12(CCC2))C(=O)O

>  <INCHIKEY>  (254) 
WANCAGGUECTWFX-UHFFFAOYSA-N

$$$$
3-azaBCH3101R5R-1-CO2H
     RDKit          2D

  9 10  0  0  0  0  0  0  0  0999 V2000
   -2.0301   -1.1138    0.0000 N   0  0  0  0  0  0  0  0  0  0  0  0
   -0.5328   -1.2046    0.0000 C   0  0  0  0  0  0  0  0  0  0  0  0
    0.0163    0.1913    0.0000 C   0  0  0  0  0  0  0  0  0  0  0  0
    0.2631    1.6708    0.0000 C   0  0  0  0  0  0  0  0  0  0  0  0
   -1.1416    1.1448    0.0000 C   0  0  0  0  0  0  0  0  0  0  0  0
   -2.4063    0.3383    0.0000 C   0  0  0  0  0  0  0  0  0  0  0  0
    1.4619   -0.2089    0.0000 C   0  0  0  0  0  0  0  0  0  0  0  0
    2.5313    0.8430    0.0000 O   0  0  0  0  0  0  0  0  0  0  0  0
    1.8382   -1.6609    0.0000 O   0  0  0  0  0  0  0  0  0  0  0  0
  1  2  1  0
  2  3  1  0
  3  4  1  0
  5  4  1  6
  5  6  1  0
  3  7  1  1
  7  8  2  0
  7  9  1  0
  5  3  1  0
  6  1  1  0
M  END
>  <rName>  (255) 
3-azaBCH3101R5R-1-CO2H

>  <PQ_SYMBOL>  (255) 
3-azaBCH3101R5R-1-CO2H

>  <FULL_NAME>  (255) 
(1R,5R)-3-azabicyclo[3.1.0]hexane-1-carboxylic acid

>  <IUPAC_CONDENSED>  (255) 
3-azaBCH[3.1.0](1R,5R)-1-CO2H

>  <IUPAC>  (255) 
(1R,5R)-3-azabicyclo[3.1.0]hexane-1-carboxylic acid

>  <TYPE>  (255) 
Backbone

>  <CLASS>  (255) 
beta

>  <ANALOG>  (255) 
Pro

>  <MOL_WT>  (255) 
127.14299999999997

>  <LOGP>  (255) 
-0.31949999999999995

>  <TPSA>  (255) 
49.33

>  <POPULARITY>  (255) 
6.1

>  <PROTECTED>  (255) 
TRUE

>  <SMILES>  (255) 
N2C[C@]1(C[C@H]1C2)C(=O)O

>  <INCHIKEY>  (255) 
QQIIAWMFVLXMES-NJGYIYPDSA-N

$$$$
3-azaBCH3101S2R5R-2-CO2H
     RDKit          2D

  9 10  0  0  0  0  0  0  0  0999 V2000
   -0.2807    1.5601    0.0000 N   0  0  0  0  0  0  0  0  0  0  0  0
    0.3118    0.1821    0.0000 C   0  0  0  0  0  0  0  0  0  0  0  0
   -0.8156   -0.8072    0.0000 C   0  0  0  0  0  0  0  0  0  0  0  0
   -2.1242   -1.5405    0.0000 C   0  0  0  0  0  0  0  0  0  0  0  0
   -2.1050   -0.0407    0.0000 C   0  0  0  0  0  0  0  0  0  0  0  0
   -1.7743    1.4225    0.0000 C   0  0  0  0  0  0  0  0  0  0  0  0
    1.7749   -0.1485    0.0000 C   0  0  0  0  0  0  0  0  0  0  0  0
    2.7928    0.9532    0.0000 O   0  0  0  0  0  0  0  0  0  0  0  0
    2.2202   -1.5809    0.0000 O   0  0  0  0  0  0  0  0  0  0  0  0
  1  2  1  0
  2  3  1  0
  3  4  1  1
  5  4  1  1
  5  6  1  0
  2  7  1  1
  7  8  2  0
  7  9  1  0
  5  3  1  0
  6  1  1  0
M  END
>  <rName>  (256) 
3-azaBCH3101S2R5R-2-CO2H

>  <PQ_SYMBOL>  (256) 
3-azaBCH3101S2R5R-2-CO2H

>  <FULL_NAME>  (256) 
(1S,2R,5R)-3-azabicyclo[3.1.0]hexane-2-carboxylic acid

>  <IUPAC_CONDENSED>  (256) 
3-azaBCH[3.1.0](1S,2R,5R)-2-CO2H

>  <IUPAC>  (256) 
(1S,2R,5R)-3-azabicyclo[3.1.0]hexane-2-carboxylic acid

>  <TYPE>  (256) 
Backbone

>  <CLASS>  (256) 
alpha

>  <ANALOG>  (256) 
Pro

>  <MOL_WT>  (256) 
127.14299999999999

>  <LOGP>  (256) 
-0.3211000000000002

>  <TPSA>  (256) 
49.33

>  <POPULARITY>  (256) 
4.7

>  <PROTECTED>  (256) 
TRUE

>  <SMILES>  (256) 
N2[C@H]([C@H]1(C[C@H]1C2))C(=O)O

>  <INCHIKEY>  (256) 
JBDOTWVUXVXVDR-VAYJURFESA-N

$$$$
3-azaBCH3101S2S5R-2-CO2H
     RDKit          2D

  9 10  0  0  0  0  0  0  0  0999 V2000
   -0.2807    1.5601    0.0000 N   0  0  0  0  0  0  0  0  0  0  0  0
    0.3118    0.1821    0.0000 C   0  0  0  0  0  0  0  0  0  0  0  0
   -0.8156   -0.8072    0.0000 C   0  0  0  0  0  0  0  0  0  0  0  0
   -2.1242   -1.5405    0.0000 C   0  0  0  0  0  0  0  0  0  0  0  0
   -2.1050   -0.0407    0.0000 C   0  0  0  0  0  0  0  0  0  0  0  0
   -1.7743    1.4225    0.0000 C   0  0  0  0  0  0  0  0  0  0  0  0
    1.7749   -0.1485    0.0000 C   0  0  0  0  0  0  0  0  0  0  0  0
    2.7928    0.9532    0.0000 O   0  0  0  0  0  0  0  0  0  0  0  0
    2.2202   -1.5809    0.0000 O   0  0  0  0  0  0  0  0  0  0  0  0
  1  2  1  0
  2  3  1  0
  3  4  1  1
  5  4  1  1
  5  6  1  0
  2  7  1  6
  7  8  2  0
  7  9  1  0
  5  3  1  0
  6  1  1  0
M  END
>  <rName>  (257) 
3-azaBCH3101S2S5R-2-CO2H

>  <PQ_SYMBOL>  (257) 
3-azaBCH3101S2S5R-2-CO2H

>  <FULL_NAME>  (257) 
(1S,2S,5R)-3-azabicyclo[3.1.0]hexane-2-carboxylic acid

>  <IUPAC_CONDENSED>  (257) 
3-azaBCH[3.1.0](1S,2S,5R)-2-CO2H

>  <IUPAC>  (257) 
(1S,2S,5R)-3-azabicyclo[3.1.0]hexane-2-carboxylic acid

>  <TYPE>  (257) 
Backbone

>  <CLASS>  (257) 
alpha

>  <ANALOG>  (257) 
Pro

>  <MOL_WT>  (257) 
127.14299999999999

>  <LOGP>  (257) 
-0.3211000000000002

>  <TPSA>  (257) 
49.33

>  <POPULARITY>  (257) 
11.5

>  <PROTECTED>  (257) 
TRUE

>  <SMILES>  (257) 
N2[C@@H]([C@H]1(C[C@H]1C2))C(=O)O

>  <INCHIKEY>  (257) 
JBDOTWVUXVXVDR-YUPRTTJUSA-N

$$$$
3-azaBCH3101S5R-1-CO2H
     RDKit          2D

  9 10  0  0  0  0  0  0  0  0999 V2000
   -2.0301   -1.1138    0.0000 N   0  0  0  0  0  0  0  0  0  0  0  0
   -0.5328   -1.2046    0.0000 C   0  0  0  0  0  0  0  0  0  0  0  0
    0.0163    0.1913    0.0000 C   0  0  0  0  0  0  0  0  0  0  0  0
    0.2631    1.6708    0.0000 C   0  0  0  0  0  0  0  0  0  0  0  0
   -1.1416    1.1448    0.0000 C   0  0  0  0  0  0  0  0  0  0  0  0
   -2.4063    0.3383    0.0000 C   0  0  0  0  0  0  0  0  0  0  0  0
    1.4619   -0.2089    0.0000 C   0  0  0  0  0  0  0  0  0  0  0  0
    2.5313    0.8430    0.0000 O   0  0  0  0  0  0  0  0  0  0  0  0
    1.8382   -1.6609    0.0000 O   0  0  0  0  0  0  0  0  0  0  0  0
  1  2  1  0
  2  3  1  0
  3  4  1  0
  5  4  1  6
  5  6  1  0
  3  7  1  6
  7  8  2  0
  7  9  1  0
  5  3  1  0
  6  1  1  0
M  END
>  <rName>  (258) 
3-azaBCH3101S5R-1-CO2H

>  <PQ_SYMBOL>  (258) 
3-azaBCH3101S5R-1-CO2H

>  <FULL_NAME>  (258) 
(1S,5R)-3-azabicyclo[3.1.0]hexane-1-carboxylic acid

>  <IUPAC_CONDENSED>  (258) 
3-azaBCH[3.1.0](1S,5R)-1-CO2H

>  <IUPAC>  (258) 
(1S,5R)-3-azabicyclo[3.1.0]hexane-1-carboxylic acid

>  <TYPE>  (258) 
Backbone

>  <CLASS>  (258) 
beta

>  <ANALOG>  (258) 
Pro

>  <MOL_WT>  (258) 
127.14299999999997

>  <LOGP>  (258) 
-0.31949999999999995

>  <TPSA>  (258) 
49.33

>  <POPULARITY>  (258) 
3.4

>  <PROTECTED>  (258) 
TRUE

>  <SMILES>  (258) 
N2C[C@@]1(C[C@H]1C2)C(=O)O

>  <INCHIKEY>  (258) 
QQIIAWMFVLXMES-UJURSFKZSA-N

$$$$
3-azaBCH3101S5S-1-CO2H
     RDKit          2D

  9 10  0  0  0  0  0  0  0  0999 V2000
   -2.0301   -1.1138    0.0000 N   0  0  0  0  0  0  0  0  0  0  0  0
   -0.5328   -1.2046    0.0000 C   0  0  0  0  0  0  0  0  0  0  0  0
    0.0163    0.1913    0.0000 C   0  0  0  0  0  0  0  0  0  0  0  0
    0.2631    1.6708    0.0000 C   0  0  0  0  0  0  0  0  0  0  0  0
   -1.1416    1.1448    0.0000 C   0  0  0  0  0  0  0  0  0  0  0  0
   -2.4063    0.3383    0.0000 C   0  0  0  0  0  0  0  0  0  0  0  0
    1.4619   -0.2089    0.0000 C   0  0  0  0  0  0  0  0  0  0  0  0
    2.5313    0.8430    0.0000 O   0  0  0  0  0  0  0  0  0  0  0  0
    1.8382   -1.6609    0.0000 O   0  0  0  0  0  0  0  0  0  0  0  0
  1  2  1  0
  2  3  1  0
  3  4  1  0
  5  4  1  1
  5  6  1  0
  3  7  1  6
  7  8  2  0
  7  9  1  0
  5  3  1  0
  6  1  1  0
M  END
>  <rName>  (259) 
3-azaBCH3101S5S-1-CO2H

>  <PQ_SYMBOL>  (259) 
3-azaBCH3101S5S-1-CO2H

>  <FULL_NAME>  (259) 
(1S,5S)-3-azabicyclo[3.1.0]hexane-1-carboxylic acid

>  <IUPAC_CONDENSED>  (259) 
3-azaBCH[3.1.0](1S,5S)-1-CO2H

>  <IUPAC>  (259) 
(1S,5S)-3-azabicyclo[3.1.0]hexane-1-carboxylic acid

>  <TYPE>  (259) 
Backbone

>  <CLASS>  (259) 
beta

>  <ANALOG>  (259) 
Pro

>  <MOL_WT>  (259) 
127.14299999999997

>  <LOGP>  (259) 
-0.31949999999999995

>  <TPSA>  (259) 
49.33

>  <POPULARITY>  (259) 
4.6

>  <PROTECTED>  (259) 
TRUE

>  <SMILES>  (259) 
N2C[C@@]1(C[C@@H]1C2)C(=O)O

>  <INCHIKEY>  (259) 
QQIIAWMFVLXMES-INEUFUBQSA-N

$$$$
3-azaBCH3211R2S5S-2-CO2H
     RDKit          2D

 11 12  0  0  0  0  0  0  0  0999 V2000
   -0.0377    1.2699    0.0000 N   0  0  0  0  0  0  0  0  0  0  0  0
   -0.6588   -0.0071    0.0000 C   0  0  0  0  0  0  0  0  0  0  0  0
   -0.0477   -1.2889    0.0000 C   0  0  0  0  0  0  0  0  0  0  0  0
    1.3355   -1.6102    0.0000 C   0  0  0  0  0  0  0  0  0  0  0  0
    2.4491   -0.7292    0.0000 C   0  0  0  0  0  0  0  0  0  0  0  0
    2.4547    0.6908    0.0000 C   0  0  0  0  0  0  0  0  0  0  0  0
    1.3479    1.5805    0.0000 C   0  0  0  0  0  0  0  0  0  0  0  0
    0.8933    0.0931    0.0000 C   0  0  0  0  0  0  0  0  0  0  0  0
   -2.0788   -0.0016    0.0000 C   0  0  0  0  0  0  0  0  0  0  0  0
   -2.8338   -1.2977    0.0000 O   0  0  0  0  0  0  0  0  0  0  0  0
   -2.8237    1.3004    0.0000 O   0  0  0  0  0  0  0  0  0  0  0  0
  1  2  1  0
  2  3  1  0
  3  4  1  6
  4  5  1  0
  6  5  1  6
  6  7  1  0
  6  8  1  0
  2  9  1  6
  9 10  2  0
  9 11  1  0
  7  1  1  0
  8  3  1  0
M  END
>  <rName>  (260) 
3-azaBCH3211R2S5S-2-CO2H

>  <PQ_SYMBOL>  (260) 
3-azaBCH3211R2S5S-2-CO2H

>  <FULL_NAME>  (260) 
rac-(1R,2S,5S)-3-azabicyclo[3.2.1]octane-2-carboxylic acid

>  <IUPAC_CONDENSED>  (260) 
3-azaBCH[3.2.1](1R,2S,5S)-2-CO2H

>  <IUPAC>  (260) 
(1S,2R,5R)-3-azabicyclo[3.2.1]octane-2-carboxylic acid

>  <TYPE>  (260) 
Backbone

>  <CLASS>  (260) 
alpha

>  <ANALOG>  (260) 
Pro

>  <MOL_WT>  (260) 
155.197

>  <LOGP>  (260) 
0.4591

>  <TPSA>  (260) 
49.33

>  <POPULARITY>  (260) 
2.8

>  <PROTECTED>  (260) 
TRUE

>  <SMILES>  (260) 
N1[C@H]([C@H]2(CC[C@@H](C1)C2))C(=O)O

>  <INCHIKEY>  (260) 
LCQPGUJJGFMUNL-DSYKOEDSSA-N

$$$$
3-azabicyclo310hexan-6-yl_1R_5S_6S_Ac
     RDKit          2D

 10 11  0  0  0  0  0  0  0  0999 V2000
   -3.3572   -0.4068    0.0000 N   0  0  0  0  0  0  0  0  0  0  0  0
   -2.1793   -1.3355    0.0000 C   0  0  0  0  0  0  0  0  0  0  0  0
   -0.9321   -0.5022    0.0000 C   0  0  0  0  0  0  0  0  0  0  0  0
    0.1147    0.5722    0.0000 C   0  0  0  0  0  0  0  0  0  0  0  0
   -1.3392    0.9415    0.0000 C   0  0  0  0  0  0  0  0  0  0  0  0
   -2.8380    1.0004    0.0000 C   0  0  0  0  0  0  0  0  0  0  0  0
    1.5584    0.9793    0.0000 C   0  0  0  0  0  0  0  0  0  0  0  0
    2.6328   -0.0674    0.0000 C   0  0  0  0  0  0  0  0  0  0  0  0
    2.2635   -1.5212    0.0000 O   0  0  0  0  0  0  0  0  0  0  0  0
    4.0765    0.3397    0.0000 O   0  0  0  0  0  0  0  0  0  0  0  0
  1  2  1  0
  3  2  1  6
  3  4  1  0
  4  5  1  0
  5  6  1  6
  4  7  1  1
  7  8  1  0
  8  9  2  0
  8 10  1  0
  5  3  1  0
  6  1  1  0
M  END
>  <rName>  (261) 
3-azabicyclo310hexan-6-yl_1R_5S_6S_Ac

>  <PQ_SYMBOL>  (261) 
3-azabicyclo310hexan-6-yl_1R_5S_6S_Ac

>  <FULL_NAME>  (261) 
2-((1R,5S,6S)-3-azabicyclo[3.1.0]hexan-6-yl)acetic acid

>  <IUPAC_CONDENSED>  (261) 
3-azabicyclo[3.1.0]hexan-6-yl(1R,5S,6S)Ac

>  <IUPAC>  (261) 
2-[(1S,5R)-3-azabicyclo[3.1.0]hexan-6-yl]acetic acid

>  <TYPE>  (261) 
Backbone

>  <CLASS>  (261) 
delta

>  <ANALOG>  (261) 
Pro

>  <MOL_WT>  (261) 
141.17000000000002

>  <LOGP>  (261) 
-0.07349999999999995

>  <TPSA>  (261) 
49.33

>  <POPULARITY>  (261) 
6.4

>  <PROTECTED>  (261) 
TRUE

>  <SMILES>  (261) 
N2C[C@H]1[C@@H]([C@H]1C2)CC(=O)O

>  <INCHIKEY>  (261) 
GNOMKESJHGOJFG-STNDOWJSSA-N

$$$$
3-azabicyclo310hexan-6-yl_1R_5S_6S_Pr
     RDKit          2D

 11 12  0  0  0  0  0  0  0  0999 V2000
   -4.0591   -0.3604    0.0000 N   0  0  0  0  0  0  0  0  0  0  0  0
   -2.9491   -1.3694    0.0000 C   0  0  0  0  0  0  0  0  0  0  0  0
   -1.6466   -0.6255    0.0000 C   0  0  0  0  0  0  0  0  0  0  0  0
   -0.5272    0.3730    0.0000 C   0  0  0  0  0  0  0  0  0  0  0  0
   -1.9515    0.8432    0.0000 C   0  0  0  0  0  0  0  0  0  0  0  0
   -3.4426    1.0070    0.0000 C   0  0  0  0  0  0  0  0  0  0  0  0
    0.9415    0.6780    0.0000 C   0  0  0  0  0  0  0  0  0  0  0  0
    1.9400   -0.4415    0.0000 C   0  0  0  0  0  0  0  0  0  0  0  0
    3.4086   -0.1365    0.0000 C   0  0  0  0  0  0  0  0  0  0  0  0
    3.8789    1.2879    0.0000 O   0  0  0  0  0  0  0  0  0  0  0  0
    4.4071   -1.2559    0.0000 O   0  0  0  0  0  0  0  0  0  0  0  0
  1  2  1  0
  3  2  1  1
  3  4  1  0
  4  5  1  0
  5  6  1  1
  4  7  1  6
  7  8  1  0
  8  9  1  0
  9 10  2  0
  9 11  1  0
  5  3  1  0
  6  1  1  0
M  END
>  <rName>  (262) 
3-azabicyclo310hexan-6-yl_1R_5S_6S_Pr

>  <PQ_SYMBOL>  (262) 
3-azabicyclo310hexan-6-yl_1R_5S_6S_Pr

>  <FULL_NAME>  (262) 
3-[(1R,5S)-3-azabicyclo[3.1.0]hexan-6-yl]propanoic acid

>  <IUPAC_CONDENSED>  (262) 
3-azabicyclo[3.1.0]hexan-6-yl(1R,5S,6S)Pr

>  <IUPAC>  (262) 
3-[(1R,5S)-3-azabicyclo[3.1.0]hexan-6-yl]propanoic acid

>  <TYPE>  (262) 
Backbone

>  <CLASS>  (262) 
epsilon

>  <ANALOG>  (262) 
Pro

>  <MOL_WT>  (262) 
155.197

>  <LOGP>  (262) 
0.31659999999999994

>  <TPSA>  (262) 
49.33

>  <POPULARITY>  (262) 
3.5

>  <PROTECTED>  (262) 
TRUE

>  <SMILES>  (262) 
N2C[C@@H]1[C@H]([C@@H]1C2)CCC(=O)O

>  <INCHIKEY>  (262) 
QDDLVTSFGSEPDC-POBXSPIYSA-N

$$$$
3-azabicyclo310hexan-6-yl_6Me_1R_5S_6R_Ac
     RDKit          2D

 11 12  0  0  0  0  0  0  0  0999 V2000
    3.5139   -0.3344    0.0000 N   0  0  0  0  0  0  0  0  0  0  0  0
    2.8327    1.0020    0.0000 C   0  0  0  0  0  0  0  0  0  0  0  0
    1.3512    0.7670    0.0000 C   0  0  0  0  0  0  0  0  0  0  0  0
   -0.0491    0.2291    0.0000 C   0  0  0  0  0  0  0  0  0  0  0  0
   -0.8219    1.5147    0.0000 C   0  0  0  0  0  0  0  0  0  0  0  0
    1.1169   -0.7146    0.0000 C   0  0  0  0  0  0  0  0  0  0  0  0
    2.4535   -1.3953    0.0000 C   0  0  0  0  0  0  0  0  0  0  0  0
   -1.1809   -0.7552    0.0000 C   0  0  0  0  0  0  0  0  0  0  0  0
   -2.5993   -0.2672    0.0000 C   0  0  0  0  0  0  0  0  0  0  0  0
   -2.8858    1.2052    0.0000 O   0  0  0  0  0  0  0  0  0  0  0  0
   -3.7311   -1.2515    0.0000 O   0  0  0  0  0  0  0  0  0  0  0  0
  1  2  1  0
  3  2  1  6
  3  4  1  0
  4  5  1  6
  4  6  1  0
  6  7  1  6
  4  8  1  0
  8  9  1  0
  9 10  2  0
  9 11  1  0
  6  3  1  0
  7  1  1  0
M  END
>  <rName>  (263) 
3-azabicyclo310hexan-6-yl_6Me_1R_5S_6R_Ac

>  <PQ_SYMBOL>  (263) 
3-azabicyclo310hexan-6-yl_6Me_1R_5S_6R_Ac

>  <FULL_NAME>  (263) 
C[C@]1(CC(=O)O)[C@@H]2CNC[C@@H]21

>  <IUPAC_CONDENSED>  (263) 
3-azabicyclo[3.1.0]hexan-6-yl(6-Me,1R,5S,6R)Ac

>  <IUPAC>  (263) 
2-(6-methyl-3-azabicyclo[3.1.0]hexan-6-yl)acetic acid

>  <TYPE>  (263) 
Backbone

>  <CLASS>  (263) 
delta

>  <ANALOG>  (263) 
Pro

>  <MOL_WT>  (263) 
155.197

>  <LOGP>  (263) 
0.31659999999999994

>  <TPSA>  (263) 
49.33

>  <POPULARITY>  (263) 
2.7

>  <PROTECTED>  (263) 
TRUE

>  <SMILES>  (263) 
N2C[C@H]1[C@@](C)([C@H]1C2)CC(=O)O

>  <INCHIKEY>  (263) 
HWHATSANEOLUGG-BDINMYNLSA-N

$$$$
3-azabicyclo310hexane-2-CO2H_1R_2R_5S
     RDKit          2D

  9 10  0  0  0  0  0  0  0  0999 V2000
   -0.2807    1.5601    0.0000 N   0  0  0  0  0  0  0  0  0  0  0  0
    0.3118    0.1821    0.0000 C   0  0  0  0  0  0  0  0  0  0  0  0
   -0.8156   -0.8072    0.0000 C   0  0  0  0  0  0  0  0  0  0  0  0
   -2.1242   -1.5405    0.0000 C   0  0  0  0  0  0  0  0  0  0  0  0
   -2.1050   -0.0407    0.0000 C   0  0  0  0  0  0  0  0  0  0  0  0
   -1.7743    1.4225    0.0000 C   0  0  0  0  0  0  0  0  0  0  0  0
    1.7749   -0.1485    0.0000 C   0  0  0  0  0  0  0  0  0  0  0  0
    2.7928    0.9532    0.0000 O   0  0  0  0  0  0  0  0  0  0  0  0
    2.2202   -1.5809    0.0000 O   0  0  0  0  0  0  0  0  0  0  0  0
  1  2  1  0
  2  3  1  0
  3  4  1  6
  5  4  1  6
  5  6  1  0
  2  7  1  1
  7  8  2  0
  7  9  1  0
  5  3  1  0
  6  1  1  0
M  END
>  <rName>  (264) 
3-azabicyclo310hexane-2-CO2H_1R_2R_5S

>  <PQ_SYMBOL>  (264) 
3-azabicyclo310hexane-2-CO2H_1R_2R_5S

>  <FULL_NAME>  (264) 
(1R,2R,5S)-3-Azabicyclo[3.1.0]hexane-2-carboxylic acid

>  <IUPAC_CONDENSED>  (264) 
3-azabicyclo[3.1.0]hexane-2-CO2H(1R,2R,5S)

>  <IUPAC>  (264) 
(1R,2R,5S)-3-azabicyclo[3.1.0]hexane-2-carboxylic acid

>  <TYPE>  (264) 
Backbone

>  <CLASS>  (264) 
alpha

>  <ANALOG>  (264) 
Pro

>  <MOL_WT>  (264) 
127.14299999999999

>  <LOGP>  (264) 
-0.3211000000000002

>  <TPSA>  (264) 
49.33

>  <POPULARITY>  (264) 
2.2

>  <PROTECTED>  (264) 
TRUE

>  <SMILES>  (264) 
N2[C@H]([C@@H]1(C[C@@H]1C2))C(=O)O

>  <INCHIKEY>  (264) 
JBDOTWVUXVXVDR-UOWFLXDJSA-N

$$$$
3-azabicyclo310hexane-2-CO2H_66diMe_1R_2S_5S
     RDKit          2D

 11 12  0  0  0  0  0  0  0  0999 V2000
    0.8700   -1.8014    0.0000 N   0  0  0  0  0  0  0  0  0  0  0  0
    0.9507   -0.3035    0.0000 C   0  0  0  0  0  0  0  0  0  0  0  0
   -0.4488    0.2361    0.0000 C   0  0  0  0  0  0  0  0  0  0  0  0
   -1.3946   -0.9282    0.0000 C   0  0  0  0  0  0  0  0  0  0  0  0
   -0.5795   -2.1874    0.0000 C   0  0  0  0  0  0  0  0  0  0  0  0
   -1.9300    0.4730    0.0000 C   0  0  0  0  0  0  0  0  0  0  0  0
   -3.4029    0.1890    0.0000 C   0  0  0  0  0  0  0  0  0  0  0  0
   -1.9539    1.9728    0.0000 C   0  0  0  0  0  0  0  0  0  0  0  0
    2.2100    0.5115    0.0000 C   0  0  0  0  0  0  0  0  0  0  0  0
    2.1337    2.0096    0.0000 O   0  0  0  0  0  0  0  0  0  0  0  0
    3.5454   -0.1715    0.0000 O   0  0  0  0  0  0  0  0  0  0  0  0
  1  2  1  0
  2  3  1  0
  3  4  1  0
  4  5  1  6
  4  6  1  0
  6  7  1  0
  6  8  1  0
  2  9  1  1
  9 10  2  0
  9 11  1  0
  5  1  1  0
  3  6  1  6
M  END
>  <rName>  (265) 
3-azabicyclo310hexane-2-CO2H_66diMe_1R_2S_5S

>  <PQ_SYMBOL>  (265) 
3-azabicyclo310hexane-2-CO2H_66diMe_1R_2S_5S

>  <FULL_NAME>  (265) 
(1R,2S,5S)-6,6-dimethyl-3-azabicyclo[3.1.0]hexane-2-carboxylic acid

>  <IUPAC_CONDENSED>  (265) 
3-azabicyclo[3.1.0]hexane-2-CO2H(6,6-diMe,1R,2S,5S)

>  <IUPAC>  (265) 
(1R,2S,5S)-6,6-dimethyl-3-azabicyclo[3.1.0]hexane-2-carboxylic acid

>  <TYPE>  (265) 
N-term cap

>  <CLASS>  (265) 
n_cap

>  <ANALOG>  (265) 
X

>  <MOL_WT>  (265) 
155.197

>  <LOGP>  (265) 
0.31499999999999967

>  <TPSA>  (265) 
49.33

>  <POPULARITY>  (265) 
6.9

>  <PROTECTED>  (265) 
FALSE

>  <SMILES>  (265) 
N1[C@@H]([C@@H]2([C@H](C1)C2(C)C))C(=O)O

>  <INCHIKEY>  (265) 
SSKYNJZREFFALT-ZLUOBGJFSA-N

$$$$
3-azabicyclo311heptane-1-CO2H
     RDKit          2D

 10 11  0  0  0  0  0  0  0  0999 V2000
    0.8329    1.3875    0.0000 N   0  0  0  0  0  0  0  0  0  0  0  0
   -0.3785    0.6466    0.0000 C   0  0  0  0  0  0  0  0  0  0  0  0
   -0.3426   -0.7729    0.0000 C   0  0  0  0  0  0  0  0  0  0  0  0
    0.9048   -1.4516    0.0000 C   0  0  0  0  0  0  0  0  0  0  0  0
    2.1162   -0.7107    0.0000 C   0  0  0  0  0  0  0  0  0  0  0  0
    2.0803    0.7088    0.0000 C   0  0  0  0  0  0  0  0  0  0  0  0
    0.8742   -0.2420    0.0000 C   0  0  0  0  0  0  0  0  0  0  0  0
   -1.5899   -0.0942    0.0000 C   0  0  0  0  0  0  0  0  0  0  0  0
   -1.6278    1.4053    0.0000 O   0  0  0  0  0  0  0  0  0  0  0  0
   -2.8695   -0.8769    0.0000 O   0  0  0  0  0  0  0  0  0  0  0  0
  1  2  1  0
  2  3  1  0
  3  4  1  0
  4  5  1  0
  5  6  1  0
  5  7  1  0
  3  8  1  0
  8  9  2  0
  8 10  1  0
  6  1  1  0
  7  3  1  0
M  END
>  <rName>  (266) 
3-azabicyclo311heptane-1-CO2H

>  <PQ_SYMBOL>  (266) 
3-azabicyclo311heptane-1-CO2H

>  <FULL_NAME>  (266) 
3-Azabicyclo[3.1.1]heptane-1-carboxylic acid

>  <IUPAC_CONDENSED>  (266) 
3-azabicyclo[3.1.1]heptane-1-CO2H

>  <IUPAC>  (266) 
3-azabicyclo[3.1.1]heptane-1-carboxylic acid

>  <TYPE>  (266) 
Backbone

>  <CLASS>  (266) 
beta

>  <ANALOG>  (266) 
Pro

>  <MOL_WT>  (266) 
141.17

>  <LOGP>  (266) 
0.07059999999999994

>  <TPSA>  (266) 
49.33

>  <POPULARITY>  (266) 
3.5

>  <PROTECTED>  (266) 
TRUE

>  <SMILES>  (266) 
N1CC2(CC(C1)C2)C(=O)O

>  <INCHIKEY>  (266) 
LGFNFJFXFLVBEW-UHFFFAOYSA-N

$$$$
3-azabicyclo311heptane-1-CO2H_5CHF2
     RDKit          2D

 13 14  0  0  0  0  0  0  0  0999 V2000
    0.0000   -1.3208    0.0000 N   0  0  0  0  0  0  0  0  0  0  0  0
    1.2298   -0.6108    0.0000 C   0  0  0  0  0  0  0  0  0  0  0  0
    1.2298    0.8092    0.0000 C   0  0  0  0  0  0  0  0  0  0  0  0
    0.0000    1.5192    0.0000 C   0  0  0  0  0  0  0  0  0  0  0  0
   -1.2298    0.8092    0.0000 C   0  0  0  0  0  0  0  0  0  0  0  0
   -1.2298   -0.6108    0.0000 C   0  0  0  0  0  0  0  0  0  0  0  0
    0.0000    0.3092    0.0000 C   0  0  0  0  0  0  0  0  0  0  0  0
   -2.4595    0.0992    0.0000 C   0  0  0  0  0  0  0  0  0  0  0  0
   -3.7586    0.8492    0.0000 F   0  0  0  0  0  0  0  0  0  0  0  0
   -2.4595   -1.4008    0.0000 F   0  0  0  0  0  0  0  0  0  0  0  0
    2.4595    0.0992    0.0000 C   0  0  0  0  0  0  0  0  0  0  0  0
    2.4595   -1.4008    0.0000 O   0  0  0  0  0  0  0  0  0  0  0  0
    3.7586    0.8492    0.0000 O   0  0  0  0  0  0  0  0  0  0  0  0
  1  2  1  0
  2  3  1  0
  3  4  1  0
  4  5  1  0
  5  6  1  0
  5  7  1  0
  5  8  1  0
  8  9  1  0
  8 10  1  0
  3 11  1  0
 11 12  2  0
 11 13  1  0
  6  1  1  0
  7  3  1  0
M  END
>  <rName>  (267) 
3-azabicyclo311heptane-1-CO2H_5CHF2

>  <PQ_SYMBOL>  (267) 
3-azabicyclo311heptane-1-CO2H_5CHF2

>  <FULL_NAME>  (267) 
O=C(O)C12CNCC(C(F)F)(C1)C2

>  <IUPAC_CONDENSED>  (267) 
3-azabicyclo[3.1.1]heptane-1-CO2H(5-CHF2)

>  <IUPAC>  (267) 
5-(difluoromethyl)-3-azabicyclo[3.1.1]heptane-1-carboxylic acid

>  <TYPE>  (267) 
Backbone

>  <CLASS>  (267) 
beta

>  <ANALOG>  (267) 
Pro

>  <MOL_WT>  (267) 
191.177

>  <LOGP>  (267) 
0.7059

>  <TPSA>  (267) 
49.33

>  <POPULARITY>  (267) 
2.2

>  <PROTECTED>  (267) 
TRUE

>  <SMILES>  (267) 
N1CC2(CC(C1)(C2)C(F)F)C(=O)O

>  <INCHIKEY>  (267) 
SHGQHHUFWXESIK-UHFFFAOYSA-N

$$$$
3-azabicyclo311heptane-1-CO2H_5OMe
     RDKit          2D

 12 13  0  0  0  0  0  0  0  0999 V2000
    0.0793    1.4499    0.0000 N   0  0  0  0  0  0  0  0  0  0  0  0
   -1.0841    0.6357    0.0000 C   0  0  0  0  0  0  0  0  0  0  0  0
   -0.9608   -0.7789    0.0000 C   0  0  0  0  0  0  0  0  0  0  0  0
    0.3260   -1.3794    0.0000 C   0  0  0  0  0  0  0  0  0  0  0  0
    1.4894   -0.5653    0.0000 C   0  0  0  0  0  0  0  0  0  0  0  0
    2.6529    0.2489    0.0000 O   0  0  0  0  0  0  0  0  0  0  0  0
    4.0122   -0.3855    0.0000 C   0  0  0  0  0  0  0  0  0  0  0  0
    1.3661    0.8494    0.0000 C   0  0  0  0  0  0  0  0  0  0  0  0
    0.2209   -0.1740    0.0000 C   0  0  0  0  0  0  0  0  0  0  0  0
   -2.2476   -0.1784    0.0000 C   0  0  0  0  0  0  0  0  0  0  0  0
   -2.3778    1.3159    0.0000 O   0  0  0  0  0  0  0  0  0  0  0  0
   -3.4765   -1.0384    0.0000 O   0  0  0  0  0  0  0  0  0  0  0  0
  1  2  1  0
  2  3  1  0
  3  4  1  0
  4  5  1  0
  5  6  1  0
  6  7  1  0
  5  8  1  0
  5  9  1  0
  3 10  1  0
 10 11  2  0
 10 12  1  0
  8  1  1  0
  9  3  1  0
M  END
>  <rName>  (268) 
3-azabicyclo311heptane-1-CO2H_5OMe

>  <PQ_SYMBOL>  (268) 
3-azabicyclo311heptane-1-CO2H_5OMe

>  <FULL_NAME>  (268) 
5-Methoxy-3-azabicyclo[3.1.1]heptane-1-carboxylic acid

>  <IUPAC_CONDENSED>  (268) 
3-azabicyclo[3.1.1]heptane-1-CO2H(5-OMe)

>  <IUPAC>  (268) 
5-methoxy-3-azabicyclo[3.1.1]heptane-1-carboxylic acid

>  <TYPE>  (268) 
Backbone

>  <CLASS>  (268) 
beta

>  <ANALOG>  (268) 
Pro

>  <MOL_WT>  (268) 
171.196

>  <LOGP>  (268) 
-0.16040000000000038

>  <TPSA>  (268) 
58.56

>  <POPULARITY>  (268) 
2.6

>  <PROTECTED>  (268) 
TRUE

>  <SMILES>  (268) 
N1CC2(CC(OC)(C1)C2)C(=O)O

>  <INCHIKEY>  (268) 
CJTTVZVBZSWJRU-UHFFFAOYSA-N

$$$$
3-azabicyclo311heptane-6-CO2H
     RDKit          2D

 10 11  0  0  0  0  0  0  0  0999 V2000
   -2.4430    0.0000    0.0000 N   0  0  0  0  0  0  0  0  0  0  0  0
   -1.7330   -1.2298    0.0000 C   0  0  0  0  0  0  0  0  0  0  0  0
   -0.3130   -1.2298    0.0000 C   0  0  0  0  0  0  0  0  0  0  0  0
    0.3970   -0.0000    0.0000 C   0  0  0  0  0  0  0  0  0  0  0  0
   -0.3130    1.2298    0.0000 C   0  0  0  0  0  0  0  0  0  0  0  0
   -1.7330    1.2298    0.0000 C   0  0  0  0  0  0  0  0  0  0  0  0
   -0.8130   -0.0000    0.0000 C   0  0  0  0  0  0  0  0  0  0  0  0
    1.8170   -0.0000    0.0000 C   0  0  0  0  0  0  0  0  0  0  0  0
    2.5670    1.2990    0.0000 O   0  0  0  0  0  0  0  0  0  0  0  0
    2.5670   -1.2990    0.0000 O   0  0  0  0  0  0  0  0  0  0  0  0
  1  2  1  0
  2  3  1  0
  3  4  1  0
  4  5  1  0
  5  6  1  0
  5  7  1  0
  4  8  1  0
  8  9  2  0
  8 10  1  0
  6  1  1  0
  7  3  1  0
M  END
>  <rName>  (269) 
3-azabicyclo311heptane-6-CO2H

>  <PQ_SYMBOL>  (269) 
3-azabicyclo311heptane-6-CO2H

>  <FULL_NAME>  (269) 
3-Azabicyclo[3.1.1]heptane-6-carboxylic acid

>  <IUPAC_CONDENSED>  (269) 
3-azabicyclo[3.1.1]heptane-6-CO2H

>  <IUPAC>  (269) 
3-azabicyclo[3.1.1]heptane-6-carboxylic acid

>  <TYPE>  (269) 
Backbone

>  <CLASS>  (269) 
gamma

>  <ANALOG>  (269) 
Pro

>  <MOL_WT>  (269) 
141.17000000000002

>  <LOGP>  (269) 
-0.07349999999999995

>  <TPSA>  (269) 
49.33

>  <POPULARITY>  (269) 
4.3

>  <PROTECTED>  (269) 
TRUE

>  <SMILES>  (269) 
N1CC2C(C(C1)C2)C(=O)O

>  <INCHIKEY>  (269) 
CHNUPIXQOUGTML-UHFFFAOYSA-N

$$$$
3-azabicyclo311heptane-6-CO2H_1R_5S_6S
     RDKit          2D

 10 11  0  0  0  0  0  0  0  0999 V2000
   -2.4430    0.0000    0.0000 N   0  0  0  0  0  0  0  0  0  0  0  0
   -1.7330   -1.2298    0.0000 C   0  0  0  0  0  0  0  0  0  0  0  0
   -0.3130   -1.2298    0.0000 C   0  0  0  0  0  0  0  0  0  0  0  0
    0.3970   -0.0000    0.0000 C   0  0  0  0  0  0  0  0  0  0  0  0
   -0.3130    1.2298    0.0000 C   0  0  0  0  0  0  0  0  0  0  0  0
   -1.7330    1.2298    0.0000 C   0  0  0  0  0  0  0  0  0  0  0  0
   -0.8130   -0.0000    0.0000 C   0  0  0  0  0  0  0  0  0  0  0  0
    1.8170   -0.0000    0.0000 C   0  0  0  0  0  0  0  0  0  0  0  0
    2.5670    1.2990    0.0000 O   0  0  0  0  0  0  0  0  0  0  0  0
    2.5670   -1.2990    0.0000 O   0  0  0  0  0  0  0  0  0  0  0  0
  1  2  1  0
  3  2  1  6
  3  4  1  0
  4  5  1  0
  5  6  1  6
  5  7  1  0
  4  8  1  6
  8  9  2  0
  8 10  1  0
  6  1  1  0
  7  3  1  0
M  END
>  <rName>  (270) 
3-azabicyclo311heptane-6-CO2H_1R_5S_6S

>  <PQ_SYMBOL>  (270) 
3-azabicyclo311heptane-6-CO2H_1R_5S_6S

>  <FULL_NAME>  (270) 
(1R,5S,6R)-3-azabicyclo[3.1.1]heptane-6-carboxylic acid

>  <IUPAC_CONDENSED>  (270) 
3-azabicyclo[3.1.1]heptane-6-CO2H(1R,5S,6S)

>  <IUPAC>  (270) 
(1S,5R)-3-azabicyclo[3.1.1]heptane-6-carboxylic acid

>  <TYPE>  (270) 
Backbone

>  <CLASS>  (270) 
gamma

>  <ANALOG>  (270) 
Pro

>  <MOL_WT>  (270) 
141.17000000000002

>  <LOGP>  (270) 
-0.07349999999999995

>  <TPSA>  (270) 
49.33

>  <POPULARITY>  (270) 
3.1

>  <PROTECTED>  (270) 
TRUE

>  <SMILES>  (270) 
N1C[C@H]2[C@H]([C@@H](C1)C2)C(=O)O

>  <INCHIKEY>  (270) 
CHNUPIXQOUGTML-FMCRUOTFSA-N

$$$$
3-azabicyclo320heptan-1-yl_1R_5R_Ac
     RDKit          2D

 11 12  0  0  0  0  0  0  0  0999 V2000
   -0.6363   -2.0181    0.0000 N   0  0  0  0  0  0  0  0  0  0  0  0
    0.2960   -0.8430    0.0000 C   0  0  0  0  0  0  0  0  0  0  0  0
   -0.5335    0.4068    0.0000 C   0  0  0  0  0  0  0  0  0  0  0  0
   -0.9362    1.8517    0.0000 C   0  0  0  0  0  0  0  0  0  0  0  0
   -2.3812    1.4490    0.0000 C   0  0  0  0  0  0  0  0  0  0  0  0
   -1.9785    0.0041    0.0000 C   0  0  0  0  0  0  0  0  0  0  0  0
   -2.0420   -1.4946    0.0000 C   0  0  0  0  0  0  0  0  0  0  0  0
    0.8306    1.0305    0.0000 C   0  0  0  0  0  0  0  0  0  0  0  0
    2.0529    0.1610    0.0000 C   0  0  0  0  0  0  0  0  0  0  0  0
    1.9110   -1.3322    0.0000 O   0  0  0  0  0  0  0  0  0  0  0  0
    3.4171    0.7848    0.0000 O   0  0  0  0  0  0  0  0  0  0  0  0
  1  2  1  0
  2  3  1  0
  3  4  1  0
  4  5  1  0
  6  5  1  6
  6  7  1  0
  3  8  1  1
  8  9  1  0
  9 10  2  0
  9 11  1  0
  6  3  1  0
  7  1  1  0
M  END
>  <rName>  (271) 
3-azabicyclo320heptan-1-yl_1R_5R_Ac

>  <PQ_SYMBOL>  (271) 
3-azabicyclo320heptan-1-yl_1R_5R_Ac

>  <FULL_NAME>  (271) 
rac-2-[(1R,5R)-3-azabicyclo[3.2.0]heptan-1-yl]acetic acid

>  <IUPAC_CONDENSED>  (271) 
3-azabicyclo[3.2.0]heptan-1-yl(1R,5R)Ac

>  <IUPAC>  (271) 
2-((1R,5R)-3-azabicyclo[3.2.0]heptan-1-yl)acetic acid

>  <TYPE>  (271) 
Backbone

>  <CLASS>  (271) 
gamma

>  <ANALOG>  (271) 
Pro

>  <MOL_WT>  (271) 
155.197

>  <LOGP>  (271) 
0.46069999999999983

>  <TPSA>  (271) 
49.33

>  <POPULARITY>  (271) 
2.8

>  <PROTECTED>  (271) 
TRUE

>  <SMILES>  (271) 
N2C[C@]1(CC[C@H]1C2)CC(=O)O

>  <INCHIKEY>  (271) 
ORXMDDLMXZCQTH-XPUUQOCRSA-N

$$$$
3-azabicyclo320heptane-1-CO2H
     RDKit          2D

 10 11  0  0  0  0  0  0  0  0999 V2000
   -1.7722   -1.5187    0.0000 N   0  0  0  0  0  0  0  0  0  0  0  0
   -0.2837   -1.3332    0.0000 C   0  0  0  0  0  0  0  0  0  0  0  0
   -0.0001    0.1397    0.0000 C   0  0  0  0  0  0  0  0  0  0  0  0
    0.7248    1.4529    0.0000 C   0  0  0  0  0  0  0  0  0  0  0  0
   -0.5884    2.1778    0.0000 C   0  0  0  0  0  0  0  0  0  0  0  0
   -1.3133    0.8646    0.0000 C   0  0  0  0  0  0  0  0  0  0  0  0
   -2.4085   -0.1603    0.0000 C   0  0  0  0  0  0  0  0  0  0  0  0
    1.4103   -0.3708    0.0000 C   0  0  0  0  0  0  0  0  0  0  0  0
    2.5577    0.5954    0.0000 O   0  0  0  0  0  0  0  0  0  0  0  0
    1.6734   -1.8475    0.0000 O   0  0  0  0  0  0  0  0  0  0  0  0
  1  2  1  0
  2  3  1  0
  3  4  1  0
  4  5  1  0
  5  6  1  0
  6  7  1  0
  3  8  1  0
  8  9  2  0
  8 10  1  0
  6  3  1  0
  7  1  1  0
M  END
>  <rName>  (272) 
3-azabicyclo320heptane-1-CO2H

>  <PQ_SYMBOL>  (272) 
3-azabicyclo320heptane-1-CO2H

>  <FULL_NAME>  (272) 
3-Azabicyclo[3.2.0]heptane-1-carboxylic acid

>  <IUPAC_CONDENSED>  (272) 
3-azabicyclo[3.2.0]heptane-1-CO2H

>  <IUPAC>  (272) 
3-azabicyclo[3.2.0]heptane-1-carboxylic acid

>  <TYPE>  (272) 
Backbone

>  <CLASS>  (272) 
beta

>  <ANALOG>  (272) 
Pro

>  <MOL_WT>  (272) 
141.17

>  <LOGP>  (272) 
0.07059999999999994

>  <TPSA>  (272) 
49.33

>  <POPULARITY>  (272) 
4.0

>  <PROTECTED>  (272) 
TRUE

>  <SMILES>  (272) 
N2CC1(CCC1C2)C(=O)O

>  <INCHIKEY>  (272) 
QAEZUUMPFWMZRI-UHFFFAOYSA-N

$$$$
3-azabicyclo320heptane-1-CO2H_1R_5R
     RDKit          2D

 10 11  0  0  0  0  0  0  0  0999 V2000
   -1.7722   -1.5187    0.0000 N   0  0  0  0  0  0  0  0  0  0  0  0
   -0.2837   -1.3332    0.0000 C   0  0  0  0  0  0  0  0  0  0  0  0
   -0.0001    0.1397    0.0000 C   0  0  0  0  0  0  0  0  0  0  0  0
    0.7248    1.4529    0.0000 C   0  0  0  0  0  0  0  0  0  0  0  0
   -0.5884    2.1778    0.0000 C   0  0  0  0  0  0  0  0  0  0  0  0
   -1.3133    0.8646    0.0000 C   0  0  0  0  0  0  0  0  0  0  0  0
   -2.4085   -0.1603    0.0000 C   0  0  0  0  0  0  0  0  0  0  0  0
    1.4103   -0.3708    0.0000 C   0  0  0  0  0  0  0  0  0  0  0  0
    2.5577    0.5954    0.0000 O   0  0  0  0  0  0  0  0  0  0  0  0
    1.6734   -1.8475    0.0000 O   0  0  0  0  0  0  0  0  0  0  0  0
  1  2  1  0
  2  3  1  0
  3  4  1  0
  4  5  1  0
  6  5  1  6
  6  7  1  0
  3  8  1  1
  8  9  2  0
  8 10  1  0
  6  3  1  0
  7  1  1  0
M  END
>  <rName>  (273) 
3-azabicyclo320heptane-1-CO2H_1R_5R

>  <PQ_SYMBOL>  (273) 
3-azabicyclo320heptane-1-CO2H_1R_5R

>  <FULL_NAME>  (273) 
Rac-(1R,5R)-3-azabicyclo[3.2.0]heptane-1-carboxylic acid

>  <IUPAC_CONDENSED>  (273) 
3-azabicyclo[3.2.0]heptane-1-CO2H(1R,5R)

>  <IUPAC>  (273) 
(1R,5R)-3-azabicyclo[3.2.0]heptane-1-carboxylic acid

>  <TYPE>  (273) 
Backbone

>  <CLASS>  (273) 
beta

>  <ANALOG>  (273) 
Pro

>  <MOL_WT>  (273) 
141.17

>  <LOGP>  (273) 
0.07059999999999994

>  <TPSA>  (273) 
49.33

>  <POPULARITY>  (273) 
2.2

>  <PROTECTED>  (273) 
TRUE

>  <SMILES>  (273) 
N2C[C@]1(CC[C@H]1C2)C(=O)O

>  <INCHIKEY>  (273) 
QAEZUUMPFWMZRI-FSPLSTOPSA-N

$$$$
3-azabicyclo320heptane-1-CO2H_5F_66diF_1S_5R
     RDKit          2D

 13 14  0  0  0  0  0  0  0  0999 V2000
    0.7577   -2.4750    0.0000 N   0  0  0  0  0  0  0  0  0  0  0  0
    1.5516   -1.2023    0.0000 C   0  0  0  0  0  0  0  0  0  0  0  0
    0.5866   -0.0539    0.0000 C   0  0  0  0  0  0  0  0  0  0  0  0
    0.0237    1.3364    0.0000 C   0  0  0  0  0  0  0  0  0  0  0  0
   -1.3667    0.7735    0.0000 C   0  0  0  0  0  0  0  0  0  0  0  0
   -2.7570    0.2106    0.0000 F   0  0  0  0  0  0  0  0  0  0  0  0
   -1.9296    2.1639    0.0000 F   0  0  0  0  0  0  0  0  0  0  0  0
   -0.8038   -0.6169    0.0000 C   0  0  0  0  0  0  0  0  0  0  0  0
   -2.2651   -0.9554    0.0000 F   0  0  0  0  0  0  0  0  0  0  0  0
   -0.6980   -2.1131    0.0000 C   0  0  0  0  0  0  0  0  0  0  0  0
    1.8718    0.7196    0.0000 C   0  0  0  0  0  0  0  0  0  0  0  0
    1.8445    2.2193    0.0000 O   0  0  0  0  0  0  0  0  0  0  0  0
    3.1843   -0.0067    0.0000 O   0  0  0  0  0  0  0  0  0  0  0  0
  1  2  1  0
  2  3  1  0
  3  4  1  0
  4  5  1  0
  5  6  1  0
  5  7  1  0
  5  8  1  0
  8  9  1  6
  8 10  1  0
  3 11  1  6
 11 12  2  0
 11 13  1  0
  8  3  1  0
 10  1  1  0
M  END
>  <rName>  (274) 
3-azabicyclo320heptane-1-CO2H_5F_66diF_1S_5R

>  <PQ_SYMBOL>  (274) 
3-azabicyclo320heptane-1-CO2H_5F_66diF_1S_5R

>  <FULL_NAME>  (274) 
O=C(O)[C@]12CNC[C@@]1(F)C(F)(F)C2

>  <IUPAC_CONDENSED>  (274) 
3-azabicyclo[3.2.0]heptane-1-CO2H(5-F,6,6-diF,1S,5R)

>  <IUPAC>  (274) 
(1S,5R)-5,6,6-trifluoro-3-azabicyclo[3.2.0]heptane-1-carboxylic acid

>  <TYPE>  (274) 
Backbone

>  <CLASS>  (274) 
beta

>  <ANALOG>  (274) 
Pro

>  <MOL_WT>  (274) 
195.14

>  <LOGP>  (274) 
0.4079000000000001

>  <TPSA>  (274) 
49.33

>  <POPULARITY>  (274) 
2.5

>  <PROTECTED>  (274) 
TRUE

>  <SMILES>  (274) 
N2C[C@@]1(CC(F)(F)[C@]1(F)C2)C(=O)O

>  <INCHIKEY>  (274) 
VVTPXLLSHIFBQZ-WDSKDSINSA-N

$$$$
3-azabicyclo320heptane-1-CO2H_66diF_77diF_1R_5S
     RDKit          2D

 14 15  0  0  0  0  0  0  0  0999 V2000
    1.9177   -2.1840    0.0000 N   0  0  0  0  0  0  0  0  0  0  0  0
    1.9569   -0.6845    0.0000 C   0  0  0  0  0  0  0  0  0  0  0  0
    0.5430   -0.1839    0.0000 C   0  0  0  0  0  0  0  0  0  0  0  0
   -0.3701   -1.3739    0.0000 C   0  0  0  0  0  0  0  0  0  0  0  0
    0.4795   -2.6101    0.0000 C   0  0  0  0  0  0  0  0  0  0  0  0
   -1.5602   -0.4608    0.0000 C   0  0  0  0  0  0  0  0  0  0  0  0
   -2.7503    0.4522    0.0000 F   0  0  0  0  0  0  0  0  0  0  0  0
   -2.4733   -1.6509    0.0000 F   0  0  0  0  0  0  0  0  0  0  0  0
   -0.6471    0.7292    0.0000 C   0  0  0  0  0  0  0  0  0  0  0  0
   -0.0305    1.7762    0.0000 F   0  0  0  0  0  0  0  0  0  0  0  0
   -1.8372    1.6423    0.0000 F   0  0  0  0  0  0  0  0  0  0  0  0
    1.2586    1.1344    0.0000 C   0  0  0  0  0  0  0  0  0  0  0  0
    0.7548    2.2400    0.0000 O   0  0  0  0  0  0  0  0  0  0  0  0
    2.7581    1.1737    0.0000 O   0  0  0  0  0  0  0  0  0  0  0  0
  1  2  1  0
  2  3  1  0
  3  4  1  0
  4  5  1  1
  4  6  1  0
  6  7  1  0
  6  8  1  0
  6  9  1  0
  9 10  1  0
  9 11  1  0
  3 12  1  6
 12 13  2  0
 12 14  1  0
  5  1  1  0
  9  3  1  0
M  END
>  <rName>  (275) 
3-azabicyclo320heptane-1-CO2H_66diF_77diF_1R_5S

>  <PQ_SYMBOL>  (275) 
3-azabicyclo320heptane-1-CO2H_66diF_77diF_1R_5S

>  <FULL_NAME>  (275) 
O=C(O)[C@]12CNC[C@H]1C(F)(F)C2(F)F

>  <IUPAC_CONDENSED>  (275) 
3-azabicyclo[3.2.0]heptane-1-CO2H(6,6-diF,7,7-diF,1R,5S)

>  <IUPAC>  (275) 
(1R,5S)-6,6,7,7-tetrafluoro-3-azabicyclo[3.2.0]heptane-1-carboxylic acid

>  <TYPE>  (275) 
Backbone

>  <CLASS>  (275) 
beta

>  <ANALOG>  (275) 
Pro

>  <MOL_WT>  (275) 
213.13

>  <LOGP>  (275) 
0.5609999999999999

>  <TPSA>  (275) 
49.33

>  <POPULARITY>  (275) 
2.3

>  <PROTECTED>  (275) 
TRUE

>  <SMILES>  (275) 
N1C[C@]2([C@@H](C1)C(F)(F)C2(F)F)C(=O)O

>  <INCHIKEY>  (275) 
JZZSSBOMHQAZBM-WUJLRWPWSA-N

$$$$
3-azabicyclo320heptane-1-CO2H_6CF3_1S_5S_6R
     RDKit          2D

 14 15  0  0  0  0  0  0  0  0999 V2000
    2.0662   -2.2139    0.0000 N   0  0  0  0  0  0  0  0  0  0  0  0
    2.3562   -0.7422    0.0000 C   0  0  0  0  0  0  0  0  0  0  0  0
    1.0462   -0.0116    0.0000 C   0  0  0  0  0  0  0  0  0  0  0  0
    0.0260    1.0881    0.0000 C   0  0  0  0  0  0  0  0  0  0  0  0
   -1.0736    0.0679    0.0000 C   0  0  0  0  0  0  0  0  0  0  0  0
   -0.0535   -1.0318    0.0000 C   0  0  0  0  0  0  0  0  0  0  0  0
    0.5769   -2.3929    0.0000 C   0  0  0  0  0  0  0  0  0  0  0  0
   -2.5726    0.1241    0.0000 C   0  0  0  0  0  0  0  0  0  0  0  0
   -4.0715    0.1803    0.0000 F   0  0  0  0  0  0  0  0  0  0  0  0
   -2.5164    1.6231    0.0000 F   0  0  0  0  0  0  0  0  0  0  0  0
   -2.6288   -1.3748    0.0000 F   0  0  0  0  0  0  0  0  0  0  0  0
    1.9727    1.1680    0.0000 C   0  0  0  0  0  0  0  0  0  0  0  0
    1.4144    2.5602    0.0000 O   0  0  0  0  0  0  0  0  0  0  0  0
    3.4576    0.9554    0.0000 O   0  0  0  0  0  0  0  0  0  0  0  0
  1  2  1  0
  2  3  1  0
  3  4  1  0
  4  5  1  0
  5  6  1  0
  6  7  1  1
  5  8  1  6
  8  9  1  0
  8 10  1  0
  8 11  1  0
  3 12  1  6
 12 13  2  0
 12 14  1  0
  6  3  1  0
  7  1  1  0
M  END
>  <rName>  (276) 
3-azabicyclo320heptane-1-CO2H_6CF3_1S_5S_6R

>  <PQ_SYMBOL>  (276) 
3-azabicyclo320heptane-1-CO2H_6CF3_1S_5S_6R

>  <FULL_NAME>  (276) 
O=C(O)[C@]12CNC[C@H]1[C@H](C(F)(F)F)C2

>  <IUPAC_CONDENSED>  (276) 
3-azabicyclo[3.2.0]heptane-1-CO2H(6-CF3,1S,5S,6R)

>  <IUPAC>  (276) 
(1S,5S,6R)-6-(trifluoromethyl)-3-azabicyclo[3.2.0]heptane-1-carboxylic acid

>  <TYPE>  (276) 
Backbone

>  <CLASS>  (276) 
beta

>  <ANALOG>  (276) 
Pro

>  <MOL_WT>  (276) 
209.16699999999997

>  <LOGP>  (276) 
0.859

>  <TPSA>  (276) 
49.33

>  <POPULARITY>  (276) 
2.6

>  <PROTECTED>  (276) 
TRUE

>  <SMILES>  (276) 
N2C[C@@]1(C[C@H]([C@@H]1C2)C(F)(F)F)C(=O)O

>  <INCHIKEY>  (276) 
KXELHQCAVIUWPB-JCGDXUMPSA-N

$$$$
3-azabicyclo320heptane-2-CO2H_1S_2S_5R
     RDKit          2D

 10 11  0  0  0  0  0  0  0  0999 V2000
   -0.2385    1.7330    0.0000 N   0  0  0  0  0  0  0  0  0  0  0  0
   -0.5980    0.2768    0.0000 C   0  0  0  0  0  0  0  0  0  0  0  0
    0.6759   -0.5152    0.0000 C   0  0  0  0  0  0  0  0  0  0  0  0
    1.6427   -1.6620    0.0000 C   0  0  0  0  0  0  0  0  0  0  0  0
    2.7896   -0.6952    0.0000 C   0  0  0  0  0  0  0  0  0  0  0  0
    1.8227    0.4516    0.0000 C   0  0  0  0  0  0  0  0  0  0  0  0
    1.2576    1.8411    0.0000 C   0  0  0  0  0  0  0  0  0  0  0  0
   -1.9875   -0.2884    0.0000 C   0  0  0  0  0  0  0  0  0  0  0  0
   -2.1928   -1.7742    0.0000 O   0  0  0  0  0  0  0  0  0  0  0  0
   -3.1716    0.6324    0.0000 O   0  0  0  0  0  0  0  0  0  0  0  0
  1  2  1  0
  2  3  1  0
  3  4  1  6
  4  5  1  0
  6  5  1  6
  6  7  1  0
  2  8  1  1
  8  9  2  0
  8 10  1  0
  6  3  1  0
  7  1  1  0
M  END
>  <rName>  (277) 
3-azabicyclo320heptane-2-CO2H_1S_2S_5R

>  <PQ_SYMBOL>  (277) 
3-azabicyclo320heptane-2-CO2H_1S_2S_5R

>  <FULL_NAME>  (277) 
(1S,2S,5R)-rel-3-azabicyclo[3.2.0]heptane-2-carboxylic acid

>  <IUPAC_CONDENSED>  (277) 
3-azabicyclo[3.2.0]heptane-2-CO2H(1S,2S,5R)

>  <IUPAC>  (277) 
(1S,2S,5R)-3-azabicyclo[3.2.0]heptane-2-carboxylic acid

>  <TYPE>  (277) 
Backbone

>  <CLASS>  (277) 
alpha

>  <ANALOG>  (277) 
Pro

>  <MOL_WT>  (277) 
141.17000000000002

>  <LOGP>  (277) 
0.06899999999999967

>  <TPSA>  (277) 
49.33

>  <POPULARITY>  (277) 
3.6

>  <PROTECTED>  (277) 
TRUE

>  <SMILES>  (277) 
N2[C@@H]([C@H]1(CC[C@H]1C2))C(=O)O

>  <INCHIKEY>  (277) 
WGVSZLKCAUSBGO-ZLUOBGJFSA-N

$$$$
3-azabicyclo320heptane-6-CO2H_1R_5R_6R
     RDKit          2D

 10 11  0  0  0  0  0  0  0  0999 V2000
   -2.9462   -0.7355    0.0000 N   0  0  0  0  0  0  0  0  0  0  0  0
   -1.6173   -1.4313    0.0000 C   0  0  0  0  0  0  0  0  0  0  0  0
   -0.5449   -0.3825    0.0000 C   0  0  0  0  0  0  0  0  0  0  0  0
    0.7991    0.2836    0.0000 C   0  0  0  0  0  0  0  0  0  0  0  0
    0.1330    1.6276    0.0000 C   0  0  0  0  0  0  0  0  0  0  0  0
   -1.2110    0.9615    0.0000 C   0  0  0  0  0  0  0  0  0  0  0  0
   -2.6951    0.7433    0.0000 C   0  0  0  0  0  0  0  0  0  0  0  0
    2.2204   -0.1958    0.0000 C   0  0  0  0  0  0  0  0  0  0  0  0
    3.3462    0.7955    0.0000 O   0  0  0  0  0  0  0  0  0  0  0  0
    2.5159   -1.6664    0.0000 O   0  0  0  0  0  0  0  0  0  0  0  0
  1  2  1  0
  3  2  1  6
  3  4  1  0
  4  5  1  0
  6  5  1  6
  6  7  1  0
  4  8  1  1
  8  9  2  0
  8 10  1  0
  6  3  1  0
  7  1  1  0
M  END
>  <rName>  (278) 
3-azabicyclo320heptane-6-CO2H_1R_5R_6R

>  <PQ_SYMBOL>  (278) 
3-azabicyclo320heptane-6-CO2H_1R_5R_6R

>  <FULL_NAME>  (278) 
(1R,5R,6R)-3-azabicyclo[3.2.0]heptane-6-carboxylic acid

>  <IUPAC_CONDENSED>  (278) 
3-azabicyclo[3.2.0]heptane-6-CO2H(1R,5R,6R)

>  <IUPAC>  (278) 
(1R,5R,6R)-3-azabicyclo[3.2.0]heptane-6-carboxylic acid

>  <TYPE>  (278) 
Backbone

>  <CLASS>  (278) 
gamma

>  <ANALOG>  (278) 
Pro

>  <MOL_WT>  (278) 
141.17000000000002

>  <LOGP>  (278) 
-0.07349999999999995

>  <TPSA>  (278) 
49.33

>  <POPULARITY>  (278) 
3.2

>  <PROTECTED>  (278) 
TRUE

>  <SMILES>  (278) 
N2C[C@H]1[C@@H](C[C@H]1C2)C(=O)O

>  <INCHIKEY>  (278) 
NHZNEHGHXVHYFD-KVQBGUIXSA-N

$$$$
3-azabicyclo320heptane-6-CO2H_1S_5S_6S
     RDKit          2D

 10 11  0  0  0  0  0  0  0  0999 V2000
   -2.9462   -0.7355    0.0000 N   0  0  0  0  0  0  0  0  0  0  0  0
   -1.6173   -1.4313    0.0000 C   0  0  0  0  0  0  0  0  0  0  0  0
   -0.5449   -0.3825    0.0000 C   0  0  0  0  0  0  0  0  0  0  0  0
    0.7991    0.2836    0.0000 C   0  0  0  0  0  0  0  0  0  0  0  0
    0.1330    1.6276    0.0000 C   0  0  0  0  0  0  0  0  0  0  0  0
   -1.2110    0.9615    0.0000 C   0  0  0  0  0  0  0  0  0  0  0  0
   -2.6951    0.7433    0.0000 C   0  0  0  0  0  0  0  0  0  0  0  0
    2.2204   -0.1958    0.0000 C   0  0  0  0  0  0  0  0  0  0  0  0
    3.3462    0.7955    0.0000 O   0  0  0  0  0  0  0  0  0  0  0  0
    2.5159   -1.6664    0.0000 O   0  0  0  0  0  0  0  0  0  0  0  0
  1  2  1  0
  3  2  1  1
  3  4  1  0
  4  5  1  0
  6  5  1  1
  6  7  1  0
  4  8  1  6
  8  9  2  0
  8 10  1  0
  6  3  1  0
  7  1  1  0
M  END
>  <rName>  (279) 
3-azabicyclo320heptane-6-CO2H_1S_5S_6S

>  <PQ_SYMBOL>  (279) 
3-azabicyclo320heptane-6-CO2H_1S_5S_6S

>  <FULL_NAME>  (279) 
(1S,5S,6S)-3-azabicyclo[3.2.0]heptane-6-carboxylic acid

>  <IUPAC_CONDENSED>  (279) 
3-azabicyclo[3.2.0]heptane-6-CO2H(1S,5S,6S)

>  <IUPAC>  (279) 
(1S,5S,6S)-3-azabicyclo[3.2.0]heptane-6-carboxylic acid

>  <TYPE>  (279) 
Backbone

>  <CLASS>  (279) 
gamma

>  <ANALOG>  (279) 
Pro

>  <MOL_WT>  (279) 
141.17000000000002

>  <LOGP>  (279) 
-0.07349999999999995

>  <TPSA>  (279) 
49.33

>  <POPULARITY>  (279) 
3.2

>  <PROTECTED>  (279) 
TRUE

>  <SMILES>  (279) 
N2C[C@@H]1[C@H](C[C@@H]1C2)C(=O)O

>  <INCHIKEY>  (279) 
NHZNEHGHXVHYFD-SRQIZXRXSA-N

$$$$
3-azabicyclo321octane-1-CO2H
     RDKit          2D

 11 12  0  0  0  0  0  0  0  0999 V2000
   -1.8732   -1.3223    0.0000 N   0  0  0  0  0  0  0  0  0  0  0  0
   -0.4856   -1.6243    0.0000 C   0  0  0  0  0  0  0  0  0  0  0  0
    0.6156   -0.7277    0.0000 C   0  0  0  0  0  0  0  0  0  0  0  0
    0.6012    0.6922    0.0000 C   0  0  0  0  0  0  0  0  0  0  0  0
   -0.5179    1.5663    0.0000 C   0  0  0  0  0  0  0  0  0  0  0  0
   -1.8990    1.2363    0.0000 C   0  0  0  0  0  0  0  0  0  0  0  0
   -2.5022   -0.0492    0.0000 C   0  0  0  0  0  0  0  0  0  0  0  0
   -0.9495   -0.1397    0.0000 C   0  0  0  0  0  0  0  0  0  0  0  0
    1.8886   -0.0987    0.0000 C   0  0  0  0  0  0  0  0  0  0  0  0
    1.9856    1.3982    0.0000 O   0  0  0  0  0  0  0  0  0  0  0  0
    3.1365   -0.9311    0.0000 O   0  0  0  0  0  0  0  0  0  0  0  0
  1  2  1  0
  2  3  1  0
  3  4  1  0
  4  5  1  0
  5  6  1  0
  6  7  1  0
  6  8  1  0
  3  9  1  0
  9 10  2  0
  9 11  1  0
  7  1  1  0
  8  3  1  0
M  END
>  <rName>  (280) 
3-azabicyclo321octane-1-CO2H

>  <PQ_SYMBOL>  (280) 
3-azabicyclo321octane-1-CO2H

>  <FULL_NAME>  (280) 
3-Azabicyclo[3.2.1]octane-1-carboxylic acid

>  <IUPAC_CONDENSED>  (280) 
3-azabicyclo[3.2.1]octane-1-CO2H

>  <IUPAC>  (280) 
3-azabicyclo[3.2.1]octane-1-carboxylic acid

>  <TYPE>  (280) 
Backbone

>  <CLASS>  (280) 
beta

>  <ANALOG>  (280) 
Pro

>  <MOL_WT>  (280) 
155.197

>  <LOGP>  (280) 
0.46069999999999983

>  <TPSA>  (280) 
49.33

>  <POPULARITY>  (280) 
3.5

>  <PROTECTED>  (280) 
TRUE

>  <SMILES>  (280) 
N1CC2(CCC(C1)C2)C(=O)O

>  <INCHIKEY>  (280) 
SSYIXPHYICNAKT-UHFFFAOYSA-N

$$$$
3-azabicyclo321octane-1-CO2H_88diF
     RDKit          2D

 13 14  0  0  0  0  0  0  0  0999 V2000
   -1.5242    0.3603    0.0000 N   0  0  0  0  0  0  0  0  0  0  0  0
   -1.0402   -0.9747    0.0000 C   0  0  0  0  0  0  0  0  0  0  0  0
    0.3580   -1.2229    0.0000 C   0  0  0  0  0  0  0  0  0  0  0  0
   -0.0895   -0.3108    0.0000 C   0  0  0  0  0  0  0  0  0  0  0  0
    0.0539    0.4964    0.0000 C   0  0  0  0  0  0  0  0  0  0  0  0
    0.7879    1.1987    0.0000 C   0  0  0  0  0  0  0  0  0  0  0  0
   -0.6102    1.4470    0.0000 C   0  0  0  0  0  0  0  0  0  0  0  0
    1.2720   -0.1362    0.0000 C   0  0  0  0  0  0  0  0  0  0  0  0
    2.1835   -1.2251    0.0000 F   0  0  0  0  0  0  0  0  0  0  0  0
    2.5026    0.5723    0.0000 F   0  0  0  0  0  0  0  0  0  0  0  0
   -0.7766   -0.3690    0.0000 C   0  0  0  0  0  0  0  0  0  0  0  0
   -0.9602    1.1198    0.0000 O   0  0  0  0  0  0  0  0  0  0  0  0
   -2.1570   -0.9558    0.0000 O   0  0  0  0  0  0  0  0  0  0  0  0
  1  2  1  0
  2  3  1  0
  3  4  1  0
  4  5  1  0
  5  6  1  0
  6  7  1  0
  6  8  1  0
  8  9  1  0
  8 10  1  0
  3 11  1  0
 11 12  2  0
 11 13  1  0
  7  1  1  0
  8  3  1  0
M  END
>  <rName>  (281) 
3-azabicyclo321octane-1-CO2H_88diF

>  <PQ_SYMBOL>  (281) 
3-azabicyclo321octane-1-CO2H_88diF

>  <FULL_NAME>  (281) 
8,8-Difluoro-3-azabicyclo[3.2.1]octane-1-carboxylic acid

>  <IUPAC_CONDENSED>  (281) 
3-azabicyclo[3.2.1]octane-1-CO2H(8,8-diF)

>  <IUPAC>  (281) 
8,8-difluoro-3-azabicyclo[3.2.1]octane-1-carboxylic acid

>  <TYPE>  (281) 
Backbone

>  <CLASS>  (281) 
beta

>  <ANALOG>  (281) 
Pro

>  <MOL_WT>  (281) 
191.177

>  <LOGP>  (281) 
0.7059

>  <TPSA>  (281) 
49.33

>  <POPULARITY>  (281) 
2.7

>  <PROTECTED>  (281) 
TRUE

>  <SMILES>  (281) 
N1CC2(CCC(C1)C2(F)F)C(=O)O

>  <INCHIKEY>  (281) 
DJJFOHYBNUPNHW-UHFFFAOYSA-N

$$$$
3-azabicyclo321octane-6-CO2H
     RDKit          2D

 11 12  0  0  0  0  0  0  0  0999 V2000
   -2.4349   -0.6984    0.0000 N   0  0  0  0  0  0  0  0  0  0  0  0
   -1.3270   -1.5866    0.0000 C   0  0  0  0  0  0  0  0  0  0  0  0
    0.0582   -1.2742    0.0000 C   0  0  0  0  0  0  0  0  0  0  0  0
    0.6776    0.0036    0.0000 C   0  0  0  0  0  0  0  0  0  0  0  0
    0.0648    1.2846    0.0000 C   0  0  0  0  0  0  0  0  0  0  0  0
   -1.3188    1.6041    0.0000 C   0  0  0  0  0  0  0  0  0  0  0  0
   -2.4313    0.7216    0.0000 C   0  0  0  0  0  0  0  0  0  0  0  0
   -1.0813   -0.0508    0.0000 C   0  0  0  0  0  0  0  0  0  0  0  0
    2.0976   -0.0000    0.0000 C   0  0  0  0  0  0  0  0  0  0  0  0
    2.8509    1.2971    0.0000 O   0  0  0  0  0  0  0  0  0  0  0  0
    2.8443   -1.3010    0.0000 O   0  0  0  0  0  0  0  0  0  0  0  0
  1  2  1  0
  2  3  1  0
  3  4  1  0
  4  5  1  0
  5  6  1  0
  6  7  1  0
  6  8  1  0
  4  9  1  0
  9 10  2  0
  9 11  1  0
  7  1  1  0
  8  3  1  0
M  END
>  <rName>  (282) 
3-azabicyclo321octane-6-CO2H

>  <PQ_SYMBOL>  (282) 
3-azabicyclo321octane-6-CO2H

>  <FULL_NAME>  (282) 
3-Azabicyclo[3.2.1]octane-6-carboxylic acid

>  <IUPAC_CONDENSED>  (282) 
3-azabicyclo[3.2.1]octane-6-CO2H

>  <IUPAC>  (282) 
3-azabicyclo[3.2.1]octane-6-carboxylic acid

>  <TYPE>  (282) 
Backbone

>  <CLASS>  (282) 
gamma

>  <ANALOG>  (282) 
Pro

>  <MOL_WT>  (282) 
155.197

>  <LOGP>  (282) 
0.31659999999999994

>  <TPSA>  (282) 
49.33

>  <POPULARITY>  (282) 
3.0

>  <PROTECTED>  (282) 
TRUE

>  <SMILES>  (282) 
N1CC2C(CC(C1)C2)C(=O)O

>  <INCHIKEY>  (282) 
YQOVXGBTMJWJPD-UHFFFAOYSA-N

$$$$
3-azabicyclo321octane-6-CO2H_1R_5S_6S
     RDKit          2D

 11 12  0  0  0  0  0  0  0  0999 V2000
   -2.4349   -0.6984    0.0000 N   0  0  0  0  0  0  0  0  0  0  0  0
   -1.3270   -1.5866    0.0000 C   0  0  0  0  0  0  0  0  0  0  0  0
    0.0582   -1.2742    0.0000 C   0  0  0  0  0  0  0  0  0  0  0  0
    0.6776    0.0036    0.0000 C   0  0  0  0  0  0  0  0  0  0  0  0
    0.0648    1.2846    0.0000 C   0  0  0  0  0  0  0  0  0  0  0  0
   -1.3188    1.6041    0.0000 C   0  0  0  0  0  0  0  0  0  0  0  0
   -2.4313    0.7216    0.0000 C   0  0  0  0  0  0  0  0  0  0  0  0
   -1.0813   -0.0508    0.0000 C   0  0  0  0  0  0  0  0  0  0  0  0
    2.0976   -0.0000    0.0000 C   0  0  0  0  0  0  0  0  0  0  0  0
    2.8509    1.2971    0.0000 O   0  0  0  0  0  0  0  0  0  0  0  0
    2.8443   -1.3010    0.0000 O   0  0  0  0  0  0  0  0  0  0  0  0
  1  2  1  0
  3  2  1  1
  3  4  1  0
  4  5  1  0
  6  5  1  1
  6  7  1  0
  6  8  1  0
  4  9  1  6
  9 10  2  0
  9 11  1  0
  7  1  1  0
  8  3  1  0
M  END
>  <rName>  (283) 
3-azabicyclo321octane-6-CO2H_1R_5S_6S

>  <PQ_SYMBOL>  (283) 
3-azabicyclo321octane-6-CO2H_1R_5S_6S

>  <FULL_NAME>  (283) 
(1R,5S,6S)-3-azabicyclo[3.2.1]octane-6-carboxylic acid

>  <IUPAC_CONDENSED>  (283) 
3-azabicyclo[3.2.1]octane-6-CO2H(1R,5S,6S)

>  <IUPAC>  (283) 
(1R,5S,6S)-3-azabicyclo[3.2.1]octane-6-carboxylic acid

>  <TYPE>  (283) 
Backbone

>  <CLASS>  (283) 
gamma

>  <ANALOG>  (283) 
Pro

>  <MOL_WT>  (283) 
155.197

>  <LOGP>  (283) 
0.31659999999999994

>  <TPSA>  (283) 
49.33

>  <POPULARITY>  (283) 
3.0

>  <PROTECTED>  (283) 
TRUE

>  <SMILES>  (283) 
N1C[C@@H]2[C@H](C[C@H](C1)C2)C(=O)O

>  <INCHIKEY>  (283) 
YQOVXGBTMJWJPD-QYNIQEEDSA-N

$$$$
3-azabicyclo321octane-6-CO2H_6F_1S_5S_6S
     RDKit          2D

 12 13  0  0  0  0  0  0  0  0999 V2000
   -2.6216   -0.3617    0.0000 N   0  0  0  0  0  0  0  0  0  0  0  0
   -1.7338   -1.4700    0.0000 C   0  0  0  0  0  0  0  0  0  0  0  0
   -0.3138   -1.4669    0.0000 C   0  0  0  0  0  0  0  0  0  0  0  0
    0.5691   -0.3547    0.0000 C   0  0  0  0  0  0  0  0  0  0  0  0
    1.4569   -1.4630    0.0000 F   0  0  0  0  0  0  0  0  0  0  0  0
    0.2501    1.0290    0.0000 C   0  0  0  0  0  0  0  0  0  0  0  0
   -1.0306    1.6423    0.0000 C   0  0  0  0  0  0  0  0  0  0  0  0
   -2.3086    1.0234    0.0000 C   0  0  0  0  0  0  0  0  0  0  0  0
   -1.1594   -0.0246    0.0000 C   0  0  0  0  0  0  0  0  0  0  0  0
    1.8472    0.2642    0.0000 C   0  0  0  0  0  0  0  0  0  0  0  0
    1.9560    1.7602    0.0000 O   0  0  0  0  0  0  0  0  0  0  0  0
    3.0884   -0.5781    0.0000 O   0  0  0  0  0  0  0  0  0  0  0  0
  1  2  1  0
  3  2  1  6
  3  4  1  0
  4  5  1  6
  4  6  1  0
  7  6  1  6
  7  8  1  0
  7  9  1  0
  4 10  1  0
 10 11  2  0
 10 12  1  0
  8  1  1  0
  9  3  1  0
M  END
>  <rName>  (284) 
3-azabicyclo321octane-6-CO2H_6F_1S_5S_6S

>  <PQ_SYMBOL>  (284) 
3-azabicyclo321octane-6-CO2H_6F_1S_5S_6S

>  <FULL_NAME>  (284) 
O=C(O)[C@]1(F)C[C@H]2CNC[C@@H]1C2

>  <IUPAC_CONDENSED>  (284) 
3-azabicyclo[3.2.1]octane-6-CO2H(6-F,1S,5S,6S)

>  <IUPAC>  (284) 
(1S,5S,6S)-6-fluoro-3-azabicyclo[3.2.1]octane-6-carboxylic acid

>  <TYPE>  (284) 
Backbone

>  <CLASS>  (284) 
gamma

>  <ANALOG>  (284) 
Pro

>  <MOL_WT>  (284) 
173.18699999999998

>  <LOGP>  (284) 
0.4087

>  <TPSA>  (284) 
49.33

>  <POPULARITY>  (284) 
2.5

>  <PROTECTED>  (284) 
TRUE

>  <SMILES>  (284) 
N1C[C@H]2[C@@](F)(C[C@@H](C1)C2)C(=O)O

>  <INCHIKEY>  (284) 
POSZLISZVHAMPQ-HAFWLYHUSA-N

$$$$
3-azabicyclo321octane-6-CO2H_7CF3_1R_5S_6S_7S
     RDKit          2D

 15 16  0  0  0  0  0  0  0  0999 V2000
   -3.0904    0.1928    0.0000 N   0  0  0  0  0  0  0  0  0  0  0  0
   -2.5926   -1.1371    0.0000 C   0  0  0  0  0  0  0  0  0  0  0  0
   -1.2425   -1.5771    0.0000 C   0  0  0  0  0  0  0  0  0  0  0  0
   -0.0567   -0.7958    0.0000 C   0  0  0  0  0  0  0  0  0  0  0  0
    0.0718    0.6183    0.0000 C   0  0  0  0  0  0  0  0  0  0  0  0
   -0.9538    1.6005    0.0000 C   0  0  0  0  0  0  0  0  0  0  0  0
   -2.3611    1.4111    0.0000 C   0  0  0  0  0  0  0  0  0  0  0  0
   -1.5961    0.0570    0.0000 C   0  0  0  0  0  0  0  0  0  0  0  0
    1.4017    1.1161    0.0000 C   0  0  0  0  0  0  0  0  0  0  0  0
    2.8065    1.6420    0.0000 F   0  0  0  0  0  0  0  0  0  0  0  0
    2.0255   -0.0811    0.0000 F   0  0  0  0  0  0  0  0  0  0  0  0
    0.8758    2.5209    0.0000 F   0  0  0  0  0  0  0  0  0  0  0  0
    1.1616   -1.5252    0.0000 C   0  0  0  0  0  0  0  0  0  0  0  0
    2.4125   -1.0175    0.0000 O   0  0  0  0  0  0  0  0  0  0  0  0
    1.1379   -3.0250    0.0000 O   0  0  0  0  0  0  0  0  0  0  0  0
  1  2  1  0
  3  2  1  1
  3  4  1  0
  4  5  1  0
  5  6  1  0
  6  7  1  1
  6  8  1  0
  5  9  1  6
  9 10  1  0
  9 11  1  0
  9 12  1  0
  4 13  1  1
 13 14  2  0
 13 15  1  0
  7  1  1  0
  8  3  1  0
M  END
>  <rName>  (285) 
3-azabicyclo321octane-6-CO2H_7CF3_1R_5S_6S_7S

>  <PQ_SYMBOL>  (285) 
3-azabicyclo321octane-6-CO2H_7CF3_1R_5S_6S_7S

>  <FULL_NAME>  (285) 
O=C(O)[C@H]1[C@H]2CNC[C@H](C2)[C@@H]1C(F)(F)F

>  <IUPAC_CONDENSED>  (285) 
3-azabicyclo[3.2.1]octane-6-CO2H(7-CF3,1R,5S,6S,7S)

>  <IUPAC>  (285) 
(1R,5S,6S,7S)-7-(trifluoromethyl)-3-azabicyclo[3.2.1]octane-6-carboxylic acid

>  <TYPE>  (285) 
Backbone

>  <CLASS>  (285) 
gamma

>  <ANALOG>  (285) 
Pro

>  <MOL_WT>  (285) 
223.19399999999996

>  <LOGP>  (285) 
1.105

>  <TPSA>  (285) 
49.33

>  <POPULARITY>  (285) 
2.2

>  <PROTECTED>  (285) 
TRUE

>  <SMILES>  (285) 
N1C[C@@H]2[C@@H]([C@H]([C@H](C1)C2)C(F)(F)F)C(=O)O

>  <INCHIKEY>  (285) 
NQURMVAPWSPXQQ-BWBBJGPYSA-N

$$$$
3-azabicyclo321octane-6-CO2H_7CF3_1S_5R_6S_7S
     RDKit          2D

 15 16  0  0  0  0  0  0  0  0999 V2000
   -3.0904    0.1928    0.0000 N   0  0  0  0  0  0  0  0  0  0  0  0
   -2.5926   -1.1371    0.0000 C   0  0  0  0  0  0  0  0  0  0  0  0
   -1.2425   -1.5771    0.0000 C   0  0  0  0  0  0  0  0  0  0  0  0
   -0.0567   -0.7958    0.0000 C   0  0  0  0  0  0  0  0  0  0  0  0
    0.0718    0.6183    0.0000 C   0  0  0  0  0  0  0  0  0  0  0  0
   -0.9538    1.6005    0.0000 C   0  0  0  0  0  0  0  0  0  0  0  0
   -2.3611    1.4111    0.0000 C   0  0  0  0  0  0  0  0  0  0  0  0
   -1.5961    0.0570    0.0000 C   0  0  0  0  0  0  0  0  0  0  0  0
    1.4017    1.1161    0.0000 C   0  0  0  0  0  0  0  0  0  0  0  0
    2.8065    1.6420    0.0000 F   0  0  0  0  0  0  0  0  0  0  0  0
    2.0255   -0.0811    0.0000 F   0  0  0  0  0  0  0  0  0  0  0  0
    0.8758    2.5209    0.0000 F   0  0  0  0  0  0  0  0  0  0  0  0
    1.1616   -1.5252    0.0000 C   0  0  0  0  0  0  0  0  0  0  0  0
    2.4125   -1.0175    0.0000 O   0  0  0  0  0  0  0  0  0  0  0  0
    1.1379   -3.0250    0.0000 O   0  0  0  0  0  0  0  0  0  0  0  0
  1  2  1  0
  3  2  1  6
  3  4  1  0
  4  5  1  0
  5  6  1  0
  6  7  1  6
  6  8  1  0
  5  9  1  6
  9 10  1  0
  9 11  1  0
  9 12  1  0
  4 13  1  1
 13 14  2  0
 13 15  1  0
  7  1  1  0
  8  3  1  0
M  END
>  <rName>  (286) 
3-azabicyclo321octane-6-CO2H_7CF3_1S_5R_6S_7S

>  <PQ_SYMBOL>  (286) 
3-azabicyclo321octane-6-CO2H_7CF3_1S_5R_6S_7S

>  <FULL_NAME>  (286) 
O=C(O)[C@H]1[C@@H]2CNC[C@@H](C2)[C@@H]1C(F)(F)F

>  <IUPAC_CONDENSED>  (286) 
3-azabicyclo[3.2.1]octane-6-CO2H(7-CF3,1S,5R,6S,7S)

>  <IUPAC>  (286) 
(1S,5R,6S,7S)-7-(trifluoromethyl)-3-azabicyclo[3.2.1]octane-6-carboxylic acid

>  <TYPE>  (286) 
Backbone

>  <CLASS>  (286) 
gamma

>  <ANALOG>  (286) 
Pro

>  <MOL_WT>  (286) 
223.19399999999996

>  <LOGP>  (286) 
1.105

>  <TPSA>  (286) 
49.33

>  <POPULARITY>  (286) 
2.2

>  <PROTECTED>  (286) 
TRUE

>  <SMILES>  (286) 
N1C[C@H]2[C@@H]([C@H]([C@@H](C1)C2)C(F)(F)F)C(=O)O

>  <INCHIKEY>  (286) 
NQURMVAPWSPXQQ-VZFHVOOUSA-N

$$$$
3-azabicyclo321octane-8-CO2H
     RDKit          2D

 11 12  0  0  0  0  0  0  0  0999 V2000
   -2.3509    0.0000    0.0000 N   0  0  0  0  0  0  0  0  0  0  0  0
   -1.6409   -1.2298    0.0000 C   0  0  0  0  0  0  0  0  0  0  0  0
   -0.2209   -1.2298    0.0000 C   0  0  0  0  0  0  0  0  0  0  0  0
    0.4891   -0.0000    0.0000 C   0  0  0  0  0  0  0  0  0  0  0  0
   -0.2209    1.2298    0.0000 C   0  0  0  0  0  0  0  0  0  0  0  0
   -0.8209    0.4099    0.0000 C   0  0  0  0  0  0  0  0  0  0  0  0
   -0.8209   -0.4099    0.0000 C   0  0  0  0  0  0  0  0  0  0  0  0
   -1.6409    1.2298    0.0000 C   0  0  0  0  0  0  0  0  0  0  0  0
    1.9091   -0.0000    0.0000 C   0  0  0  0  0  0  0  0  0  0  0  0
    2.6591    1.2990    0.0000 O   0  0  0  0  0  0  0  0  0  0  0  0
    2.6591   -1.2990    0.0000 O   0  0  0  0  0  0  0  0  0  0  0  0
  1  2  1  0
  2  3  1  0
  3  4  1  0
  4  5  1  0
  5  6  1  0
  6  7  1  0
  5  8  1  0
  4  9  1  0
  9 10  2  0
  9 11  1  0
  7  3  1  0
  8  1  1  0
M  END
>  <rName>  (287) 
3-azabicyclo321octane-8-CO2H

>  <PQ_SYMBOL>  (287) 
3-azabicyclo321octane-8-CO2H

>  <FULL_NAME>  (287) 
3-Azabicyclo[3.2.1]octane-8-carboxylic acid

>  <IUPAC_CONDENSED>  (287) 
3-azabicyclo[3.2.1]octane-8-CO2H

>  <IUPAC>  (287) 
3-azabicyclo[3.2.1]octane-8-carboxylic acid

>  <TYPE>  (287) 
Backbone

>  <CLASS>  (287) 
gamma

>  <ANALOG>  (287) 
Pro

>  <MOL_WT>  (287) 
155.197

>  <LOGP>  (287) 
0.31659999999999994

>  <TPSA>  (287) 
49.33

>  <POPULARITY>  (287) 
4.2

>  <PROTECTED>  (287) 
TRUE

>  <SMILES>  (287) 
N2CC1C(C(CC1)C2)C(=O)O

>  <INCHIKEY>  (287) 
JRALIEYOLZNWNV-UHFFFAOYSA-N

$$$$
3-azabicyclo322nonane-6-CO2H
     RDKit          2D

 12 13  0  0  0  0  0  0  0  0999 V2000
   -2.3279   -0.6932    0.0000 N   0  0  0  0  0  0  0  0  0  0  0  0
   -1.2176   -1.5784    0.0000 C   0  0  0  0  0  0  0  0  0  0  0  0
    0.1667   -1.2623    0.0000 C   0  0  0  0  0  0  0  0  0  0  0  0
    0.7827    0.0171    0.0000 C   0  0  0  0  0  0  0  0  0  0  0  0
    0.1664    1.2965    0.0000 C   0  0  0  0  0  0  0  0  0  0  0  0
   -1.2180    1.6123    0.0000 C   0  0  0  0  0  0  0  0  0  0  0  0
   -1.2970    0.3937    0.0000 C   0  0  0  0  0  0  0  0  0  0  0  0
   -0.8354   -0.5645    0.0000 C   0  0  0  0  0  0  0  0  0  0  0  0
   -2.3281    0.7268    0.0000 C   0  0  0  0  0  0  0  0  0  0  0  0
    2.2027    0.0173    0.0000 C   0  0  0  0  0  0  0  0  0  0  0  0
    2.9526    1.3164    0.0000 O   0  0  0  0  0  0  0  0  0  0  0  0
    2.9528   -1.2817    0.0000 O   0  0  0  0  0  0  0  0  0  0  0  0
  1  2  1  0
  2  3  1  0
  3  4  1  0
  4  5  1  0
  5  6  1  0
  6  7  1  0
  7  8  1  0
  6  9  1  0
  4 10  1  0
 10 11  2  0
 10 12  1  0
  8  3  1  0
  9  1  1  0
M  END
>  <rName>  (288) 
3-azabicyclo322nonane-6-CO2H

>  <PQ_SYMBOL>  (288) 
3-azabicyclo322nonane-6-CO2H

>  <FULL_NAME>  (288) 
3-Azabicyclo[3.2.2]nonane-6-carboxylic acid

>  <IUPAC_CONDENSED>  (288) 
3-azabicyclo[3.2.2]nonane-6-CO2H

>  <IUPAC>  (288) 
3-azabicyclo[3.2.2]nonane-6-carboxylic acid

>  <TYPE>  (288) 
Backbone

>  <CLASS>  (288) 
gamma

>  <ANALOG>  (288) 
Pro

>  <MOL_WT>  (288) 
169.22400000000002

>  <LOGP>  (288) 
0.7066999999999999

>  <TPSA>  (288) 
49.33

>  <POPULARITY>  (288) 
2.8

>  <PROTECTED>  (288) 
TRUE

>  <SMILES>  (288) 
N2CC1C(CC(CC1)C2)C(=O)O

>  <INCHIKEY>  (288) 
PSDOFMRNUFWEEX-UHFFFAOYSA-N

$$$$
3-azabicyclo330octan-6-yl_1R_5S_6R_Ac
     RDKit          2D

 12 13  0  0  0  0  0  0  0  0999 V2000
   -2.0097   -2.0754    0.0000 N   0  0  0  0  0  0  0  0  0  0  0  0
   -0.5798   -1.6219    0.0000 C   0  0  0  0  0  0  0  0  0  0  0  0
   -0.5692   -0.1220    0.0000 C   0  0  0  0  0  0  0  0  0  0  0  0
    0.3210    1.0853    0.0000 C   0  0  0  0  0  0  0  0  0  0  0  0
   -0.5521    2.3050    0.0000 C   0  0  0  0  0  0  0  0  0  0  0  0
   -1.9819    1.8516    0.0000 C   0  0  0  0  0  0  0  0  0  0  0  0
   -1.9925    0.3516    0.0000 C   0  0  0  0  0  0  0  0  0  0  0  0
   -2.8827   -0.8557    0.0000 C   0  0  0  0  0  0  0  0  0  0  0  0
    1.8210    1.0747    0.0000 C   0  0  0  0  0  0  0  0  0  0  0  0
    2.5618   -0.2296    0.0000 C   0  0  0  0  0  0  0  0  0  0  0  0
    1.8026   -1.5233    0.0000 O   0  0  0  0  0  0  0  0  0  0  0  0
    4.0617   -0.2402    0.0000 O   0  0  0  0  0  0  0  0  0  0  0  0
  1  2  1  0
  3  2  1  6
  3  4  1  0
  4  5  1  0
  5  6  1  0
  7  6  1  6
  7  8  1  0
  4  9  1  6
  9 10  1  0
 10 11  2  0
 10 12  1  0
  7  3  1  0
  8  1  1  0
M  END
>  <rName>  (289) 
3-azabicyclo330octan-6-yl_1R_5S_6R_Ac

>  <PQ_SYMBOL>  (289) 
3-azabicyclo330octan-6-yl_1R_5S_6R_Ac

>  <FULL_NAME>  (289) 
O=C(O)C[C@H]1CC[C@H]2CNC[C@@H]12

>  <IUPAC_CONDENSED>  (289) 
3-azabicyclo[3.3.0]octan-6-yl(1R,5S,6R)Ac

>  <IUPAC>  (289) 
2-((1R,5S,6R)-3-azabicyclo[3.3.0]octan-6-yl)acetic acid

>  <TYPE>  (289) 
Backbone

>  <CLASS>  (289) 
delta

>  <ANALOG>  (289) 
Pro

>  <MOL_WT>  (289) 
169.22400000000002

>  <LOGP>  (289) 
0.7066999999999999

>  <TPSA>  (289) 
49.33

>  <POPULARITY>  (289) 
3.1

>  <PROTECTED>  (289) 
TRUE

>  <SMILES>  (289) 
N2C[C@H]1[C@H](CC[C@H]1C2)CC(=O)O

>  <INCHIKEY>  (289) 
BCLVDJDIYNVLCV-CSMHCCOUSA-N

$$$$
3-azabicyclo330octane-1-CO2H_1R_5R
     RDKit          2D

 11 12  0  0  0  0  0  0  0  0999 V2000
   -0.7500   -2.3083    0.0000 N   0  0  0  0  0  0  0  0  0  0  0  0
    0.4635   -1.4266    0.0000 C   0  0  0  0  0  0  0  0  0  0  0  0
    0.0000    0.0000    0.0000 C   0  0  0  0  0  0  0  0  0  0  0  0
    0.4635    1.4266    0.0000 C   0  0  0  0  0  0  0  0  0  0  0  0
   -0.7500    2.3083    0.0000 C   0  0  0  0  0  0  0  0  0  0  0  0
   -1.9635    1.4266    0.0000 C   0  0  0  0  0  0  0  0  0  0  0  0
   -1.5000   -0.0000    0.0000 C   0  0  0  0  0  0  0  0  0  0  0  0
   -1.9635   -1.4266    0.0000 C   0  0  0  0  0  0  0  0  0  0  0  0
    1.5000    0.0000    0.0000 C   0  0  0  0  0  0  0  0  0  0  0  0
    2.2500    1.2990    0.0000 O   0  0  0  0  0  0  0  0  0  0  0  0
    2.2500   -1.2990    0.0000 O   0  0  0  0  0  0  0  0  0  0  0  0
  1  2  1  0
  2  3  1  0
  3  4  1  0
  4  5  1  0
  5  6  1  0
  7  6  1  6
  7  8  1  0
  3  9  1  1
  9 10  2  0
  9 11  1  0
  7  3  1  0
  8  1  1  0
M  END
>  <rName>  (290) 
3-azabicyclo330octane-1-CO2H_1R_5R

>  <PQ_SYMBOL>  (290) 
3-azabicyclo330octane-1-CO2H_1R_5R

>  <FULL_NAME>  (290) 
rac-(3aR,6aR)-octahydrocyclopenta(c)pyrrole-3a-carboxylic acid

>  <IUPAC_CONDENSED>  (290) 
3-azabicyclo[3.3.0]octane-1-CO2H(1R,5R)

>  <IUPAC>  (290) 
(1R,5R)-3-azabicyclo[3.3.0]octane-1-carboxylic acid

>  <TYPE>  (290) 
Backbone

>  <CLASS>  (290) 
beta

>  <ANALOG>  (290) 
Pro

>  <MOL_WT>  (290) 
155.197

>  <LOGP>  (290) 
0.46069999999999983

>  <TPSA>  (290) 
49.33

>  <POPULARITY>  (290) 
6.2

>  <PROTECTED>  (290) 
TRUE

>  <SMILES>  (290) 
N2C[C@]1(CCC[C@H]1C2)C(=O)O

>  <INCHIKEY>  (290) 
JTTVKCQDFDFKRG-XPUUQOCRSA-N

$$$$
3-azabicyclo330octane-1-CO2H_5F_1S_5R
     RDKit          2D

 12 13  0  0  0  0  0  0  0  0999 V2000
   -0.5000   -2.3083    0.0000 N   0  0  0  0  0  0  0  0  0  0  0  0
    0.7135   -1.4266    0.0000 C   0  0  0  0  0  0  0  0  0  0  0  0
    0.2500    0.0000    0.0000 C   0  0  0  0  0  0  0  0  0  0  0  0
    0.7135    1.4266    0.0000 C   0  0  0  0  0  0  0  0  0  0  0  0
   -0.5000    2.3083    0.0000 C   0  0  0  0  0  0  0  0  0  0  0  0
   -1.7135    1.4266    0.0000 C   0  0  0  0  0  0  0  0  0  0  0  0
   -1.2500   -0.0000    0.0000 C   0  0  0  0  0  0  0  0  0  0  0  0
   -2.7500   -0.0000    0.0000 F   0  0  0  0  0  0  0  0  0  0  0  0
   -1.7135   -1.4266    0.0000 C   0  0  0  0  0  0  0  0  0  0  0  0
    1.7500    0.0000    0.0000 C   0  0  0  0  0  0  0  0  0  0  0  0
    2.5000    1.2990    0.0000 O   0  0  0  0  0  0  0  0  0  0  0  0
    2.5000   -1.2990    0.0000 O   0  0  0  0  0  0  0  0  0  0  0  0
  1  2  1  0
  2  3  1  0
  3  4  1  0
  4  5  1  0
  5  6  1  0
  6  7  1  0
  7  8  1  6
  7  9  1  0
  3 10  1  6
 10 11  2  0
 10 12  1  0
  7  3  1  0
  9  1  1  0
M  END
>  <rName>  (291) 
3-azabicyclo330octane-1-CO2H_5F_1S_5R

>  <PQ_SYMBOL>  (291) 
3-azabicyclo330octane-1-CO2H_5F_1S_5R

>  <FULL_NAME>  (291) 
O=C(O)[C@@]12CCC[C@]1(F)CNC2

>  <IUPAC_CONDENSED>  (291) 
3-azabicyclo[3.3.0]octane-1-CO2H(5-F,1S,5R)

>  <IUPAC>  (291) 
(1S,5R)-5-fluoro-3-azabicyclo[3.3.0]octane-1-carboxylic acid

>  <TYPE>  (291) 
Backbone

>  <CLASS>  (291) 
beta

>  <ANALOG>  (291) 
Pro

>  <MOL_WT>  (291) 
173.18699999999998

>  <LOGP>  (291) 
0.5528

>  <TPSA>  (291) 
49.33

>  <POPULARITY>  (291) 
2.8

>  <PROTECTED>  (291) 
TRUE

>  <SMILES>  (291) 
N2C[C@@]1(CCC[C@]1(F)C2)C(=O)O

>  <INCHIKEY>  (291) 
NWKRQBAZHJGWIC-YUMQZZPRSA-N

$$$$
3-azabicyclo330octane-2-CO2H_1S_2R_5R
     RDKit          2D

 11 12  0  0  0  0  0  0  0  0999 V2000
    0.7122    1.8109    0.0000 N   0  0  0  0  0  0  0  0  0  0  0  0
    0.8857    0.3210    0.0000 C   0  0  0  0  0  0  0  0  0  0  0  0
   -0.4778   -0.3044    0.0000 C   0  0  0  0  0  0  0  0  0  0  0  0
   -1.2132   -1.6117    0.0000 C   0  0  0  0  0  0  0  0  0  0  0  0
   -2.6838   -1.3162    0.0000 C   0  0  0  0  0  0  0  0  0  0  0  0
   -2.8573    0.1737    0.0000 C   0  0  0  0  0  0  0  0  0  0  0  0
   -1.4938    0.7991    0.0000 C   0  0  0  0  0  0  0  0  0  0  0  0
   -0.7584    2.1064    0.0000 C   0  0  0  0  0  0  0  0  0  0  0  0
    2.1930   -0.4145    0.0000 C   0  0  0  0  0  0  0  0  0  0  0  0
    3.4836    0.3500    0.0000 O   0  0  0  0  0  0  0  0  0  0  0  0
    2.2097   -1.9144    0.0000 O   0  0  0  0  0  0  0  0  0  0  0  0
  1  2  1  0
  2  3  1  0
  3  4  1  1
  4  5  1  0
  5  6  1  0
  7  6  1  1
  7  8  1  0
  2  9  1  1
  9 10  2  0
  9 11  1  0
  7  3  1  0
  8  1  1  0
M  END
>  <rName>  (292) 
3-azabicyclo330octane-2-CO2H_1S_2R_5R

>  <PQ_SYMBOL>  (292) 
3-azabicyclo330octane-2-CO2H_1S_2R_5R

>  <FULL_NAME>  (292) 
(1R,3aR,6aS)-Octahydrocyclopenta[c]pyrrole-1-carboxylic acid

>  <IUPAC_CONDENSED>  (292) 
3-azabicyclo[3.3.0]octane-2-CO2H(1S,2R,5R)

>  <IUPAC>  (292) 
(1S,2R,5R)-3-azabicyclo[3.3.0]octane-2-carboxylic acid

>  <TYPE>  (292) 
Backbone

>  <CLASS>  (292) 
alpha

>  <ANALOG>  (292) 
Pro

>  <MOL_WT>  (292) 
155.197

>  <LOGP>  (292) 
0.4591

>  <TPSA>  (292) 
49.33

>  <POPULARITY>  (292) 
4.8

>  <PROTECTED>  (292) 
TRUE

>  <SMILES>  (292) 
N2[C@H]([C@H]1(CCC[C@H]1C2))C(=O)O

>  <INCHIKEY>  (292) 
KWRNCAUXSJOYQO-LYFYHCNISA-N

$$$$
3-azabicyclo330octane-2-CO2H_1S_2S_5R
     RDKit          2D

 11 12  0  0  0  0  0  0  0  0999 V2000
    0.7122    1.8109    0.0000 N   0  0  0  0  0  0  0  0  0  0  0  0
    0.8857    0.3210    0.0000 C   0  0  0  0  0  0  0  0  0  0  0  0
   -0.4778   -0.3044    0.0000 C   0  0  0  0  0  0  0  0  0  0  0  0
   -1.2132   -1.6117    0.0000 C   0  0  0  0  0  0  0  0  0  0  0  0
   -2.6838   -1.3162    0.0000 C   0  0  0  0  0  0  0  0  0  0  0  0
   -2.8573    0.1737    0.0000 C   0  0  0  0  0  0  0  0  0  0  0  0
   -1.4938    0.7991    0.0000 C   0  0  0  0  0  0  0  0  0  0  0  0
   -0.7584    2.1064    0.0000 C   0  0  0  0  0  0  0  0  0  0  0  0
    2.1930   -0.4145    0.0000 C   0  0  0  0  0  0  0  0  0  0  0  0
    3.4836    0.3500    0.0000 O   0  0  0  0  0  0  0  0  0  0  0  0
    2.2097   -1.9144    0.0000 O   0  0  0  0  0  0  0  0  0  0  0  0
  1  2  1  0
  2  3  1  0
  3  4  1  1
  4  5  1  0
  5  6  1  0
  7  6  1  1
  7  8  1  0
  2  9  1  6
  9 10  2  0
  9 11  1  0
  7  3  1  0
  8  1  1  0
M  END
>  <rName>  (293) 
3-azabicyclo330octane-2-CO2H_1S_2S_5R

>  <PQ_SYMBOL>  (293) 
3-azabicyclo330octane-2-CO2H_1S_2S_5R

>  <FULL_NAME>  (293) 
(1S,3aR,6aS)-Octahydrocyclopenta[c]pyrrole-1-carboxylic acid

>  <IUPAC_CONDENSED>  (293) 
3-azabicyclo[3.3.0]octane-2-CO2H(1S,2S,5R)

>  <IUPAC>  (293) 
(1S,2S,5R)-3-azabicyclo[3.3.0]octane-2-carboxylic acid

>  <TYPE>  (293) 
Backbone

>  <CLASS>  (293) 
alpha

>  <ANALOG>  (293) 
Pro

>  <MOL_WT>  (293) 
155.197

>  <LOGP>  (293) 
0.4591

>  <TPSA>  (293) 
49.33

>  <POPULARITY>  (293) 
7.4

>  <PROTECTED>  (293) 
TRUE

>  <SMILES>  (293) 
N2[C@@H]([C@H]1(CCC[C@H]1C2))C(=O)O

>  <INCHIKEY>  (293) 
KWRNCAUXSJOYQO-ACZMJKKPSA-N

$$$$
3-azabicyclo330octane-6-CO2H
     RDKit          2D

 11 12  0  0  0  0  0  0  0  0999 V2000
   -2.6838   -1.3162    0.0000 N   0  0  0  0  0  0  0  0  0  0  0  0
   -1.2132   -1.6117    0.0000 C   0  0  0  0  0  0  0  0  0  0  0  0
   -0.4778   -0.3044    0.0000 C   0  0  0  0  0  0  0  0  0  0  0  0
    0.8857    0.3210    0.0000 C   0  0  0  0  0  0  0  0  0  0  0  0
    0.7122    1.8109    0.0000 C   0  0  0  0  0  0  0  0  0  0  0  0
   -0.7584    2.1064    0.0000 C   0  0  0  0  0  0  0  0  0  0  0  0
   -1.4938    0.7991    0.0000 C   0  0  0  0  0  0  0  0  0  0  0  0
   -2.8573    0.1737    0.0000 C   0  0  0  0  0  0  0  0  0  0  0  0
    2.1930   -0.4145    0.0000 C   0  0  0  0  0  0  0  0  0  0  0  0
    3.4836    0.3500    0.0000 O   0  0  0  0  0  0  0  0  0  0  0  0
    2.2097   -1.9144    0.0000 O   0  0  0  0  0  0  0  0  0  0  0  0
  1  2  1  0
  2  3  1  0
  3  4  1  0
  4  5  1  0
  5  6  1  0
  6  7  1  0
  7  8  1  0
  4  9  1  0
  9 10  2  0
  9 11  1  0
  7  3  1  0
  8  1  1  0
M  END
>  <rName>  (294) 
3-azabicyclo330octane-6-CO2H

>  <PQ_SYMBOL>  (294) 
3-azabicyclo330octane-6-CO2H

>  <FULL_NAME>  (294) 
Octahydrocyclopenta[c]pyrrole-4-carboxylic acid

>  <IUPAC_CONDENSED>  (294) 
3-azabicyclo[3.3.0]octane-6-CO2H

>  <IUPAC>  (294) 
3-azabicyclo[3.3.0]octane-6-carboxylic acid

>  <TYPE>  (294) 
Backbone

>  <CLASS>  (294) 
gamma

>  <ANALOG>  (294) 
Pro

>  <MOL_WT>  (294) 
155.197

>  <LOGP>  (294) 
0.31659999999999994

>  <TPSA>  (294) 
49.33

>  <POPULARITY>  (294) 
6.2

>  <PROTECTED>  (294) 
TRUE

>  <SMILES>  (294) 
N2CC1C(CCC1C2)C(=O)O

>  <INCHIKEY>  (294) 
JDDCIGKATQFPDW-UHFFFAOYSA-N

$$$$
3-azabicyclo330octane-7-CO2H_1R_5S_7R
     RDKit          2D

 11 12  0  0  0  0  0  0  0  0999 V2000
    3.4832   -0.0000    0.0000 N   0  0  0  0  0  0  0  0  0  0  0  0
    2.6016    1.2135    0.0000 C   0  0  0  0  0  0  0  0  0  0  0  0
    1.1750    0.7500    0.0000 C   0  0  0  0  0  0  0  0  0  0  0  0
   -0.2516    1.2135    0.0000 C   0  0  0  0  0  0  0  0  0  0  0  0
   -1.1333    0.0000    0.0000 C   0  0  0  0  0  0  0  0  0  0  0  0
   -0.2516   -1.2135    0.0000 C   0  0  0  0  0  0  0  0  0  0  0  0
    1.1750   -0.7500    0.0000 C   0  0  0  0  0  0  0  0  0  0  0  0
    2.6016   -1.2135    0.0000 C   0  0  0  0  0  0  0  0  0  0  0  0
   -2.6333   -0.0000    0.0000 C   0  0  0  0  0  0  0  0  0  0  0  0
   -3.3833   -1.2990    0.0000 O   0  0  0  0  0  0  0  0  0  0  0  0
   -3.3833    1.2990    0.0000 O   0  0  0  0  0  0  0  0  0  0  0  0
  1  2  1  0
  3  2  1  1
  3  4  1  0
  4  5  1  0
  5  6  1  0
  7  6  1  1
  7  8  1  0
  5  9  1  1
  9 10  2  0
  9 11  1  0
  7  3  1  0
  8  1  1  0
M  END
>  <rName>  (295) 
3-azabicyclo330octane-7-CO2H_1R_5S_7R

>  <PQ_SYMBOL>  (295) 
3-azabicyclo330octane-7-CO2H_1R_5S_7R

>  <FULL_NAME>  (295) 
rel-(3aR,6aS)-Octahydrocyclopenta[c]pyrrole-5-carboxylic acid

>  <IUPAC_CONDENSED>  (295) 
3-azabicyclo[3.3.0]octane-7-CO2H(1R,5S,7R)

>  <IUPAC>  (295) 
(3aR,6aS)-1,2,3,3a,4,5,6,6a-octahydrocyclopenta[c]pyrrole-5-carboxylic acid

>  <TYPE>  (295) 
Backbone

>  <CLASS>  (295) 
delta

>  <ANALOG>  (295) 
Pro

>  <MOL_WT>  (295) 
155.197

>  <LOGP>  (295) 
0.31659999999999994

>  <TPSA>  (295) 
49.33

>  <POPULARITY>  (295) 
4.2

>  <PROTECTED>  (295) 
TRUE

>  <SMILES>  (295) 
N2C[C@@H]1C[C@@H](C[C@@H]1C2)C(=O)O

>  <INCHIKEY>  (295) 
XJFXVZKUPVAERR-POBXSPIYSA-N

$$$$
3-azabicyclo331nonane-1-CO2H_99diF
     RDKit          2D

 14 15  0  0  0  0  0  0  0  0999 V2000
    1.6588   -2.2603    0.0000 N   0  0  0  0  0  0  0  0  0  0  0  0
    0.1703   -2.0743    0.0000 C   0  0  0  0  0  0  0  0  0  0  0  0
   -0.4128   -0.6923    0.0000 C   0  0  0  0  0  0  0  0  0  0  0  0
   -0.9960    0.6897    0.0000 C   0  0  0  0  0  0  0  0  0  0  0  0
   -0.0907    1.8857    0.0000 C   0  0  0  0  0  0  0  0  0  0  0  0
    1.3977    1.6997    0.0000 C   0  0  0  0  0  0  0  0  0  0  0  0
    1.9809    0.3178    0.0000 C   0  0  0  0  0  0  0  0  0  0  0  0
    2.5640   -1.0642    0.0000 C   0  0  0  0  0  0  0  0  0  0  0  0
    0.4924    0.5037    0.0000 C   0  0  0  0  0  0  0  0  0  0  0  0
   -0.1081    1.0280    0.0000 F   0  0  0  0  0  0  0  0  0  0  0  0
    0.5358    1.2997    0.0000 F   0  0  0  0  0  0  0  0  0  0  0  0
   -1.9013   -0.5064    0.0000 C   0  0  0  0  0  0  0  0  0  0  0  0
   -2.4844    0.8756    0.0000 O   0  0  0  0  0  0  0  0  0  0  0  0
   -2.8065   -1.7024    0.0000 O   0  0  0  0  0  0  0  0  0  0  0  0
  1  2  1  0
  2  3  1  0
  3  4  1  0
  4  5  1  0
  5  6  1  0
  6  7  1  0
  7  8  1  0
  7  9  1  0
  9 10  1  0
  9 11  1  0
  3 12  1  0
 12 13  2  0
 12 14  1  0
  8  1  1  0
  9  3  1  0
M  END
>  <rName>  (296) 
3-azabicyclo331nonane-1-CO2H_99diF

>  <PQ_SYMBOL>  (296) 
3-azabicyclo331nonane-1-CO2H_99diF

>  <FULL_NAME>  (296) 
9,9-Difluoro-3-azabicyclo[3.3.1]nonane-1-carboxylic acid

>  <IUPAC_CONDENSED>  (296) 
3-azabicyclo[3.3.1]nonane-1-CO2H(9,9-diF)

>  <IUPAC>  (296) 
9,9-difluoro-3-azabicyclo[3.3.1]nonane-1-carboxylic acid

>  <TYPE>  (296) 
Backbone

>  <CLASS>  (296) 
beta

>  <ANALOG>  (296) 
Pro

>  <MOL_WT>  (296) 
205.20399999999998

>  <LOGP>  (296) 
1.096

>  <TPSA>  (296) 
49.33

>  <POPULARITY>  (296) 
2.7

>  <PROTECTED>  (296) 
TRUE

>  <SMILES>  (296) 
N1CC2(CCCC(C1)C2(F)F)C(=O)O

>  <INCHIKEY>  (296) 
XMRFXZJHRRENFT-UHFFFAOYSA-N

$$$$
3-azabicyclo331nonane-7-CO2H
     RDKit          2D

 12 13  0  0  0  0  0  0  0  0999 V2000
    2.7575    0.0000    0.0000 N   0  0  0  0  0  0  0  0  0  0  0  0
    2.2141    1.3119    0.0000 C   0  0  0  0  0  0  0  0  0  0  0  0
    0.9022    1.8553    0.0000 C   0  0  0  0  0  0  0  0  0  0  0  0
   -0.4097    1.3119    0.0000 C   0  0  0  0  0  0  0  0  0  0  0  0
   -0.9532    0.0000    0.0000 C   0  0  0  0  0  0  0  0  0  0  0  0
   -0.4097   -1.3119    0.0000 C   0  0  0  0  0  0  0  0  0  0  0  0
    0.9022   -1.8553    0.0000 C   0  0  0  0  0  0  0  0  0  0  0  0
    2.2141   -1.3119    0.0000 C   0  0  0  0  0  0  0  0  0  0  0  0
    1.4022    0.0000    0.0000 C   0  0  0  0  0  0  0  0  0  0  0  0
   -2.3732   -0.0000    0.0000 C   0  0  0  0  0  0  0  0  0  0  0  0
   -3.1232   -1.2990    0.0000 O   0  0  0  0  0  0  0  0  0  0  0  0
   -3.1232    1.2990    0.0000 O   0  0  0  0  0  0  0  0  0  0  0  0
  1  2  1  0
  2  3  1  0
  3  4  1  0
  4  5  1  0
  5  6  1  0
  6  7  1  0
  7  8  1  0
  7  9  1  0
  5 10  1  0
 10 11  2  0
 10 12  1  0
  8  1  1  0
  9  3  1  0
M  END
>  <rName>  (297) 
3-azabicyclo331nonane-7-CO2H

>  <PQ_SYMBOL>  (297) 
3-azabicyclo331nonane-7-CO2H

>  <FULL_NAME>  (297) 
3-Azabicyclo[3.3.1]nonane-7-carboxylic acid

>  <IUPAC_CONDENSED>  (297) 
3-azabicyclo[3.3.1]nonane-7-CO2H

>  <IUPAC>  (297) 
3-azabicyclo[3.3.1]nonane-7-carboxylic acid

>  <TYPE>  (297) 
Backbone

>  <CLASS>  (297) 
delta

>  <ANALOG>  (297) 
Pro

>  <MOL_WT>  (297) 
169.224

>  <LOGP>  (297) 
0.7066999999999999

>  <TPSA>  (297) 
49.33

>  <POPULARITY>  (297) 
4.8

>  <PROTECTED>  (297) 
TRUE

>  <SMILES>  (297) 
N1CC2CC(CC(C1)C2)C(=O)O

>  <INCHIKEY>  (297) 
DFKCADTTWYPQCP-UHFFFAOYSA-N

$$$$
3-azabicyclo410heptane-6-CO2H
     RDKit          2D

 10 11  0  0  0  0  0  0  0  0999 V2000
    2.6745   -0.3702    0.0000 N   0  0  0  0  0  0  0  0  0  0  0  0
    1.6807   -1.4937    0.0000 C   0  0  0  0  0  0  0  0  0  0  0  0
    0.2108   -1.1949    0.0000 C   0  0  0  0  0  0  0  0  0  0  0  0
   -0.2654    0.2275    0.0000 C   0  0  0  0  0  0  0  0  0  0  0  0
   -0.7415    1.6499    0.0000 C   0  0  0  0  0  0  0  0  0  0  0  0
    0.7284    1.3511    0.0000 C   0  0  0  0  0  0  0  0  0  0  0  0
    2.1983    1.0523    0.0000 C   0  0  0  0  0  0  0  0  0  0  0  0
   -1.6878   -0.2486    0.0000 C   0  0  0  0  0  0  0  0  0  0  0  0
   -1.9866   -1.7186    0.0000 O   0  0  0  0  0  0  0  0  0  0  0  0
   -2.8114    0.7451    0.0000 O   0  0  0  0  0  0  0  0  0  0  0  0
  1  2  1  0
  2  3  1  0
  3  4  1  0
  4  5  1  0
  5  6  1  0
  6  7  1  0
  4  8  1  0
  8  9  2  0
  8 10  1  0
  6  4  1  0
  7  1  1  0
M  END
>  <rName>  (298) 
3-azabicyclo410heptane-6-CO2H

>  <PQ_SYMBOL>  (298) 
3-azabicyclo410heptane-6-CO2H

>  <FULL_NAME>  (298) 
3-Azabicyclo[4.1.0]heptane-6-carboxylic acid

>  <IUPAC_CONDENSED>  (298) 
3-azabicyclo[4.1.0]heptane-6-CO2H

>  <IUPAC>  (298) 
3-azabicyclo[4.1.0]heptane-6-carboxylic acid

>  <TYPE>  (298) 
Backbone

>  <CLASS>  (298) 
gamma

>  <ANALOG>  (298) 
Pro

>  <MOL_WT>  (298) 
141.17

>  <LOGP>  (298) 
0.07059999999999994

>  <TPSA>  (298) 
49.33

>  <POPULARITY>  (298) 
5.8

>  <PROTECTED>  (298) 
TRUE

>  <SMILES>  (298) 
N2CCC1(CC1C2)C(=O)O

>  <INCHIKEY>  (298) 
DIITVVANFKGDNX-UHFFFAOYSA-N

$$$$
3-azabicyclo410heptane-7-CO2H_1R_6S_7S
     RDKit          2D

 10 11  0  0  0  0  0  0  0  0999 V2000
    2.9383   -0.7500    0.0000 N   0  0  0  0  0  0  0  0  0  0  0  0
    1.6392   -1.5000    0.0000 C   0  0  0  0  0  0  0  0  0  0  0  0
    0.3402   -0.7500    0.0000 C   0  0  0  0  0  0  0  0  0  0  0  0
   -0.9588    0.0000    0.0000 C   0  0  0  0  0  0  0  0  0  0  0  0
    0.3402    0.7500    0.0000 C   0  0  0  0  0  0  0  0  0  0  0  0
    1.6392    1.5000    0.0000 C   0  0  0  0  0  0  0  0  0  0  0  0
    2.9383    0.7500    0.0000 C   0  0  0  0  0  0  0  0  0  0  0  0
   -2.4588    0.0000    0.0000 C   0  0  0  0  0  0  0  0  0  0  0  0
   -3.2088   -1.2990    0.0000 O   0  0  0  0  0  0  0  0  0  0  0  0
   -3.2088    1.2990    0.0000 O   0  0  0  0  0  0  0  0  0  0  0  0
  1  2  1  0
  3  2  1  1
  3  4  1  0
  4  5  1  0
  5  6  1  1
  6  7  1  0
  4  8  1  1
  8  9  2  0
  8 10  1  0
  5  3  1  0
  7  1  1  0
M  END
>  <rName>  (299) 
3-azabicyclo410heptane-7-CO2H_1R_6S_7S

>  <PQ_SYMBOL>  (299) 
3-azabicyclo410heptane-7-CO2H_1R_6S_7S

>  <FULL_NAME>  (299) 
(1R,6S,7S)-3-azabicyclo[4.1.0]heptane-7-carboxylic acid

>  <IUPAC_CONDENSED>  (299) 
3-azabicyclo[4.1.0]heptane-7-CO2H(1R,6S,7S)

>  <IUPAC>  (299) 
(1R,6S,7S)-3-azabicyclo[4.1.0]heptane-7-carboxylic acid

>  <TYPE>  (299) 
Backbone

>  <CLASS>  (299) 
gamma

>  <ANALOG>  (299) 
Pro

>  <MOL_WT>  (299) 
141.17000000000002

>  <LOGP>  (299) 
-0.07349999999999995

>  <TPSA>  (299) 
49.33

>  <POPULARITY>  (299) 
3.2

>  <PROTECTED>  (299) 
TRUE

>  <SMILES>  (299) 
N2C[C@H]1[C@H]([C@H]1CC2)C(=O)O

>  <INCHIKEY>  (299) 
ACLOABGXXHOMFW-JKUQZMGJSA-N

$$$$
3-azabicyclo410heptane-7-CO2H_1S_6R_7S
     RDKit          2D

 10 11  0  0  0  0  0  0  0  0999 V2000
    2.9383   -0.7500    0.0000 N   0  0  0  0  0  0  0  0  0  0  0  0
    1.6392   -1.5000    0.0000 C   0  0  0  0  0  0  0  0  0  0  0  0
    0.3402   -0.7500    0.0000 C   0  0  0  0  0  0  0  0  0  0  0  0
   -0.9588    0.0000    0.0000 C   0  0  0  0  0  0  0  0  0  0  0  0
    0.3402    0.7500    0.0000 C   0  0  0  0  0  0  0  0  0  0  0  0
    1.6392    1.5000    0.0000 C   0  0  0  0  0  0  0  0  0  0  0  0
    2.9383    0.7500    0.0000 C   0  0  0  0  0  0  0  0  0  0  0  0
   -2.4588    0.0000    0.0000 C   0  0  0  0  0  0  0  0  0  0  0  0
   -3.2088   -1.2990    0.0000 O   0  0  0  0  0  0  0  0  0  0  0  0
   -3.2088    1.2990    0.0000 O   0  0  0  0  0  0  0  0  0  0  0  0
  1  2  1  0
  3  2  1  6
  3  4  1  0
  4  5  1  0
  5  6  1  6
  6  7  1  0
  4  8  1  1
  8  9  2  0
  8 10  1  0
  5  3  1  0
  7  1  1  0
M  END
>  <rName>  (300) 
3-azabicyclo410heptane-7-CO2H_1S_6R_7S

>  <PQ_SYMBOL>  (300) 
3-azabicyclo410heptane-7-CO2H_1S_6R_7S

>  <FULL_NAME>  (300) 
O=C(O)[C@H]1[C@@H]2CCNC[C@@H]21

>  <IUPAC_CONDENSED>  (300) 
3-azabicyclo[4.1.0]heptane-7-CO2H(1S,6R,7S)

>  <IUPAC>  (300) 
(1S,6R,7S)-3-azabicyclo[4.1.0]heptane-7-carboxylic acid

>  <TYPE>  (300) 
Backbone

>  <CLASS>  (300) 
gamma

>  <ANALOG>  (300) 
Pro

>  <MOL_WT>  (300) 
141.17000000000002

>  <LOGP>  (300) 
-0.07349999999999995

>  <TPSA>  (300) 
49.33

>  <POPULARITY>  (300) 
3.6

>  <PROTECTED>  (300) 
TRUE

>  <SMILES>  (300) 
N2C[C@@H]1[C@H]([C@@H]1CC2)C(=O)O

>  <INCHIKEY>  (300) 
ACLOABGXXHOMFW-SRQIZXRXSA-N

$$$$
3-azabicyclo410heptane-7-CO2H_7Me
     RDKit          2D

 11 12  0  0  0  0  0  0  0  0999 V2000
    3.0783   -0.4138    0.0000 N   0  0  0  0  0  0  0  0  0  0  0  0
    1.9699   -1.4246    0.0000 C   0  0  0  0  0  0  0  0  0  0  0  0
    0.5404   -0.9702    0.0000 C   0  0  0  0  0  0  0  0  0  0  0  0
   -0.8891   -0.5157    0.0000 C   0  0  0  0  0  0  0  0  0  0  0  0
   -1.5848   -1.8446    0.0000 C   0  0  0  0  0  0  0  0  0  0  0  0
    0.2193    0.4950    0.0000 C   0  0  0  0  0  0  0  0  0  0  0  0
    1.3276    1.5058    0.0000 C   0  0  0  0  0  0  0  0  0  0  0  0
    2.7571    1.0514    0.0000 C   0  0  0  0  0  0  0  0  0  0  0  0
   -2.0769    0.4002    0.0000 C   0  0  0  0  0  0  0  0  0  0  0  0
   -1.8776    1.8869    0.0000 O   0  0  0  0  0  0  0  0  0  0  0  0
   -3.4641   -0.1705    0.0000 O   0  0  0  0  0  0  0  0  0  0  0  0
  1  2  1  0
  2  3  1  0
  3  4  1  0
  4  5  1  0
  4  6  1  0
  6  7  1  0
  7  8  1  0
  4  9  1  0
  9 10  2  0
  9 11  1  0
  6  3  1  0
  8  1  1  0
M  END
>  <rName>  (301) 
3-azabicyclo410heptane-7-CO2H_7Me

>  <PQ_SYMBOL>  (301) 
3-azabicyclo410heptane-7-CO2H_7Me

>  <FULL_NAME>  (301) 
7-Methyl-3-azabicyclo[4.1.0]heptane-7-carboxylic acid

>  <IUPAC_CONDENSED>  (301) 
3-azabicyclo[4.1.0]heptane-7-CO2H(7-Me)

>  <IUPAC>  (301) 
7-methyl-3-azabicyclo[4.1.0]heptane-7-carboxylic acid

>  <TYPE>  (301) 
Backbone

>  <CLASS>  (301) 
gamma

>  <ANALOG>  (301) 
Pro

>  <MOL_WT>  (301) 
155.197

>  <LOGP>  (301) 
0.31659999999999994

>  <TPSA>  (301) 
49.33

>  <POPULARITY>  (301) 
2.8

>  <PROTECTED>  (301) 
TRUE

>  <SMILES>  (301) 
N2CC1C(C)(C1CC2)C(=O)O

>  <INCHIKEY>  (301) 
UNVLFFLNPWQXAS-UHFFFAOYSA-N

$$$$
3-azabicyclo420octane-7-CO2H_7Me_1R_6R_7S
     RDKit          2D

 12 13  0  0  0  0  0  0  0  0999 V2000
    3.3590   -0.4623    0.0000 N   0  0  0  0  0  0  0  0  0  0  0  0
    2.2363   -1.4570    0.0000 C   0  0  0  0  0  0  0  0  0  0  0  0
    0.8134   -0.9821    0.0000 C   0  0  0  0  0  0  0  0  0  0  0  0
   -0.6562   -1.2822    0.0000 C   0  0  0  0  0  0  0  0  0  0  0  0
   -0.9564    0.1874    0.0000 C   0  0  0  0  0  0  0  0  0  0  0  0
   -1.2565    1.6571    0.0000 C   0  0  0  0  0  0  0  0  0  0  0  0
    0.5133    0.4876    0.0000 C   0  0  0  0  0  0  0  0  0  0  0  0
    1.6360    1.4823    0.0000 C   0  0  0  0  0  0  0  0  0  0  0  0
    3.0588    1.0074    0.0000 C   0  0  0  0  0  0  0  0  0  0  0  0
   -2.4260   -0.1127    0.0000 C   0  0  0  0  0  0  0  0  0  0  0  0
   -2.9009   -1.5355    0.0000 O   0  0  0  0  0  0  0  0  0  0  0  0
   -3.4208    1.0100    0.0000 O   0  0  0  0  0  0  0  0  0  0  0  0
  1  2  1  0
  3  2  1  6
  3  4  1  0
  4  5  1  0
  5  6  1  1
  5  7  1  0
  7  8  1  6
  8  9  1  0
  5 10  1  0
 10 11  2  0
 10 12  1  0
  7  3  1  0
  9  1  1  0
M  END
>  <rName>  (302) 
3-azabicyclo420octane-7-CO2H_7Me_1R_6R_7S

>  <PQ_SYMBOL>  (302) 
3-azabicyclo420octane-7-CO2H_7Me_1R_6R_7S

>  <FULL_NAME>  (302) 
C[C@]1(C(=O)O)C[C@H]2CNCC[C@H]21

>  <IUPAC_CONDENSED>  (302) 
3-azabicyclo[4.2.0]octane-7-CO2H(7-Me,1R,6R,7S)

>  <IUPAC>  (302) 
(1R,6R,7S)-7-methyl-3-azabicyclo[4.2.0]octane-7-carboxylic acid

>  <TYPE>  (302) 
Backbone

>  <CLASS>  (302) 
delta

>  <ANALOG>  (302) 
Pro

>  <MOL_WT>  (302) 
169.224

>  <LOGP>  (302) 
0.7066999999999999

>  <TPSA>  (302) 
49.33

>  <POPULARITY>  (302) 
2.6

>  <PROTECTED>  (302) 
TRUE

>  <SMILES>  (302) 
N2C[C@@H]1C[C@@](C)([C@@H]1CC2)C(=O)O

>  <INCHIKEY>  (302) 
GFDFSHOZEFJIQU-OOZYFLPDSA-N

$$$$
3-azabicyclo430nonane-5-CO2H
     RDKit          2D

 12 13  0  0  0  0  0  0  0  0999 V2000
   -0.2036    2.6111    0.0000 N   0  0  0  0  0  0  0  0  0  0  0  0
    1.0415    1.7747    0.0000 C   0  0  0  0  0  0  0  0  0  0  0  0
    0.9397    0.2781    0.0000 C   0  0  0  0  0  0  0  0  0  0  0  0
   -0.4072   -0.3820    0.0000 C   0  0  0  0  0  0  0  0  0  0  0  0
   -0.8179   -1.8247    0.0000 C   0  0  0  0  0  0  0  0  0  0  0  0
   -2.3169   -1.8799    0.0000 C   0  0  0  0  0  0  0  0  0  0  0  0
   -2.8326   -0.4713    0.0000 C   0  0  0  0  0  0  0  0  0  0  0  0
   -1.6523    0.4544    0.0000 C   0  0  0  0  0  0  0  0  0  0  0  0
   -1.5506    1.9510    0.0000 C   0  0  0  0  0  0  0  0  0  0  0  0
    2.1849   -0.5583    0.0000 C   0  0  0  0  0  0  0  0  0  0  0  0
    2.0831   -2.0548    0.0000 O   0  0  0  0  0  0  0  0  0  0  0  0
    3.5318    0.1018    0.0000 O   0  0  0  0  0  0  0  0  0  0  0  0
  1  2  1  0
  2  3  1  0
  3  4  1  0
  4  5  1  0
  5  6  1  0
  6  7  1  0
  7  8  1  0
  8  9  1  0
  3 10  1  0
 10 11  2  0
 10 12  1  0
  8  4  1  0
  9  1  1  0
M  END
>  <rName>  (303) 
3-azabicyclo430nonane-5-CO2H

>  <PQ_SYMBOL>  (303) 
3-azabicyclo430nonane-5-CO2H

>  <FULL_NAME>  (303) 
O=C(O)C1CNCC2CCCC21

>  <IUPAC_CONDENSED>  (303) 
3-azabicyclo[4.3.0]nonane-5-CO2H

>  <IUPAC>  (303) 
3-azabicyclo[4.3.0]nonane-5-carboxylic acid

>  <TYPE>  (303) 
Backbone

>  <CLASS>  (303) 
beta

>  <ANALOG>  (303) 
Pro

>  <MOL_WT>  (303) 
169.22400000000002

>  <LOGP>  (303) 
0.7066999999999999

>  <TPSA>  (303) 
49.33

>  <POPULARITY>  (303) 
3.6

>  <PROTECTED>  (303) 
TRUE

>  <SMILES>  (303) 
N2CC(C1(CCCC1C2))C(=O)O

>  <INCHIKEY>  (303) 
NATUQOVUJXHADR-UHFFFAOYSA-N

$$$$
3-hydroxypropionyl
     RDKit          2D

  6  5  0  0  0  0  0  0  0  0999 V2000
    2.8748   -0.2197    0.0000 O   0  0  0  0  0  0  0  0  0  0  0  0
    1.4825    0.3386    0.0000 C   0  0  0  0  0  0  0  0  0  0  0  0
    0.3029   -0.5880    0.0000 C   0  0  0  0  0  0  0  0  0  0  0  0
   -1.0893   -0.0297    0.0000 C   0  0  0  0  0  0  0  0  0  0  0  0
   -1.3020    1.4551    0.0000 O   0  0  0  0  0  0  0  0  0  0  0  0
   -2.2689   -0.9563    0.0000 O   0  0  0  0  0  0  0  0  0  0  0  0
  1  2  1  0
  2  3  1  0
  3  4  1  0
  4  5  2  0
  4  6  1  0
M  END
>  <rName>  (304) 
3-hydroxypropionyl

>  <PQ_SYMBOL>  (304) 
3-hydroxypropionyl

>  <FULL_NAME>  (304) 
3-Hydroxypropionic acid

>  <IUPAC_CONDENSED>  (304) 
3-hydroxypropionyl

>  <IUPAC>  (304) 
3-hydroxypropanoic acid

>  <TYPE>  (304) 
N-term cap

>  <CLASS>  (304) 
n_cap

>  <ANALOG>  (304) 
X

>  <MOL_WT>  (304) 
90.07799999999999

>  <LOGP>  (304) 
-0.5466000000000002

>  <TPSA>  (304) 
57.53

>  <POPULARITY>  (304) 
17.0

>  <PROTECTED>  (304) 
TRUE

>  <SMILES>  (304) 
OCCC(=O)O

>  <INCHIKEY>  (304) 
ALRHLSYJTWAHJZ-UHFFFAOYSA-N

$$$$
3-methylamino-cyclobutane-1-CO2H_1Me
     RDKit          2D

 10 10  0  0  0  0  0  0  0  0999 V2000
   -2.8546   -0.6789    0.0000 N   0  0  0  0  0  0  0  0  0  0  0  0
   -3.9526    0.3431    0.0000 C   0  0  0  0  0  0  0  0  0  0  0  0
   -1.4205   -0.2389    0.0000 C   0  0  0  0  0  0  0  0  0  0  0  0
   -0.7176    1.0862    0.0000 C   0  0  0  0  0  0  0  0  0  0  0  0
    0.6075    0.3833    0.0000 C   0  0  0  0  0  0  0  0  0  0  0  0
    1.3104    1.7085    0.0000 C   0  0  0  0  0  0  0  0  0  0  0  0
   -0.0954   -0.9418    0.0000 C   0  0  0  0  0  0  0  0  0  0  0  0
    1.9326   -0.3196    0.0000 C   0  0  0  0  0  0  0  0  0  0  0  0
    3.2039    0.4766    0.0000 O   0  0  0  0  0  0  0  0  0  0  0  0
    1.9864   -1.8186    0.0000 O   0  0  0  0  0  0  0  0  0  0  0  0
  1  2  1  0
  1  3  1  0
  3  4  1  0
  4  5  1  0
  5  6  1  0
  5  7  1  0
  5  8  1  0
  8  9  2  0
  8 10  1  0
  7  3  1  0
M  END
>  <rName>  (305) 
3-methylamino-cyclobutane-1-CO2H_1Me

>  <PQ_SYMBOL>  (305) 
3-methylamino-cyclobutane-1-CO2H_1Me

>  <FULL_NAME>  (305) 
1-Methyl-3-(methylamino)cyclobutane-1-carboxylic acid

>  <IUPAC_CONDENSED>  (305) 
3-methylamino-cyclobutane-1-CO2H(1-Me)

>  <IUPAC>  (305) 
1-methyl-3-(methylamino)cyclobutanecarboxylic acid

>  <TYPE>  (305) 
Backbone

>  <CLASS>  (305) 
gamma

>  <ANALOG>  (305) 
Ala

>  <MOL_WT>  (305) 
143.186

>  <LOGP>  (305) 
0.4591

>  <TPSA>  (305) 
49.33

>  <POPULARITY>  (305) 
6.4

>  <PROTECTED>  (305) 
TRUE

>  <SMILES>  (305) 
N(C)C1CC(C)(C1)C(=O)O

>  <INCHIKEY>  (305) 
HEZWTZXEAQPWPT-UHFFFAOYSA-N

$$$$
3-oxa-7-azabicyclo330octane-1-CO2H_1R_5R
     RDKit          2D

 11 12  0  0  0  0  0  0  0  0999 V2000
   -0.7500   -2.3083    0.0000 N   0  0  0  0  0  0  0  0  0  0  0  0
    0.4635   -1.4266    0.0000 C   0  0  0  0  0  0  0  0  0  0  0  0
    0.0000    0.0000    0.0000 C   0  0  0  0  0  0  0  0  0  0  0  0
    0.4635    1.4266    0.0000 C   0  0  0  0  0  0  0  0  0  0  0  0
   -0.7500    2.3083    0.0000 O   0  0  0  0  0  0  0  0  0  0  0  0
   -1.9635    1.4266    0.0000 C   0  0  0  0  0  0  0  0  0  0  0  0
   -1.5000   -0.0000    0.0000 C   0  0  0  0  0  0  0  0  0  0  0  0
   -1.9635   -1.4266    0.0000 C   0  0  0  0  0  0  0  0  0  0  0  0
    1.5000    0.0000    0.0000 C   0  0  0  0  0  0  0  0  0  0  0  0
    2.2500    1.2990    0.0000 O   0  0  0  0  0  0  0  0  0  0  0  0
    2.2500   -1.2990    0.0000 O   0  0  0  0  0  0  0  0  0  0  0  0
  1  2  1  0
  2  3  1  0
  3  4  1  0
  4  5  1  0
  5  6  1  0
  7  6  1  6
  7  8  1  0
  3  9  1  1
  9 10  2  0
  9 11  1  0
  7  3  1  0
  8  1  1  0
M  END
>  <rName>  (306) 
3-oxa-7-azabicyclo330octane-1-CO2H_1R_5R

>  <PQ_SYMBOL>  (306) 
3-oxa-7-azabicyclo330octane-1-CO2H_1R_5R

>  <FULL_NAME>  (306) 
(3AR,6aR)-tetrahydro-1H-furo[3,4-c]pyrrole-3a(3H)-carboxylic acid

>  <IUPAC_CONDENSED>  (306) 
3-oxa-7-azabicyclo[3.3.0]octane-1-CO2H(1R,5R)

>  <IUPAC>  (306) 
(1R,5R)-3-oxa-7-azabicyclo[3.3.0]octane-1-carboxylic acid

>  <TYPE>  (306) 
Backbone

>  <CLASS>  (306) 
beta

>  <ANALOG>  (306) 
Pro

>  <MOL_WT>  (306) 
157.16899999999998

>  <LOGP>  (306) 
-0.6929999999999998

>  <TPSA>  (306) 
58.56

>  <POPULARITY>  (306) 
5.7

>  <PROTECTED>  (306) 
TRUE

>  <SMILES>  (306) 
N2C[C@]1(COC[C@H]1C2)C(=O)O

>  <INCHIKEY>  (306) 
IUCFQVNSGQWKRI-IYSWYEEDSA-N

$$$$
3-oxa-7-azabicyclo330octane-6-CO2H_1Me_5Me_1R_5S_6R
     RDKit          2D

 13 14  0  0  0  0  0  0  0  0999 V2000
    0.5074    1.9058    0.0000 N   0  0  0  0  0  0  0  0  0  0  0  0
    0.9637    0.4768    0.0000 C   0  0  0  0  0  0  0  0  0  0  0  0
   -0.2543   -0.3987    0.0000 C   0  0  0  0  0  0  0  0  0  0  0  0
    0.9548   -1.2865    0.0000 C   0  0  0  0  0  0  0  0  0  0  0  0
   -0.7250   -1.8229    0.0000 C   0  0  0  0  0  0  0  0  0  0  0  0
   -2.2250   -1.8153    0.0000 O   0  0  0  0  0  0  0  0  0  0  0  0
   -2.6813   -0.3863    0.0000 C   0  0  0  0  0  0  0  0  0  0  0  0
   -1.4633    0.4892    0.0000 C   0  0  0  0  0  0  0  0  0  0  0  0
   -2.6723    1.3770    0.0000 C   0  0  0  0  0  0  0  0  0  0  0  0
   -0.9925    1.9134    0.0000 C   0  0  0  0  0  0  0  0  0  0  0  0
    2.3879    0.0061    0.0000 C   0  0  0  0  0  0  0  0  0  0  0  0
    2.6923   -1.4627    0.0000 O   0  0  0  0  0  0  0  0  0  0  0  0
    3.5077    1.0041    0.0000 O   0  0  0  0  0  0  0  0  0  0  0  0
  1  2  1  0
  2  3  1  0
  3  4  1  6
  3  5  1  0
  5  6  1  0
  6  7  1  0
  7  8  1  0
  8  9  1  6
  8 10  1  0
  2 11  1  1
 11 12  2  0
 11 13  1  0
  8  3  1  0
 10  1  1  0
M  END
>  <rName>  (307) 
3-oxa-7-azabicyclo330octane-6-CO2H_1Me_5Me_1R_5S_6R

>  <PQ_SYMBOL>  (307) 
3-oxa-7-azabicyclo330octane-6-CO2H_1Me_5Me_1R_5S_6R

>  <FULL_NAME>  (307) 
C[C@]12CN[C@@H](C(=O)O)[C@@]1(C)COC2

>  <IUPAC_CONDENSED>  (307) 
3-oxa-7-azabicyclo[3.3.0]octane-6-CO2H(1-Me,5-Me,1R,5S,6R)

>  <IUPAC>  (307) 
(1R,5S,6R)-1,5-dimethyl-3-oxa-7-azabicyclo[3.3.0]octane-6-carboxylic acid

>  <TYPE>  (307) 
Backbone

>  <CLASS>  (307) 
alpha

>  <ANALOG>  (307) 
Pro

>  <MOL_WT>  (307) 
185.22299999999998

>  <LOGP>  (307) 
0.08559999999999962

>  <TPSA>  (307) 
58.56

>  <POPULARITY>  (307) 
2.3

>  <PROTECTED>  (307) 
TRUE

>  <SMILES>  (307) 
N2[C@H]([C@@]1(C)(COC[C@@]1(C)C2))C(=O)O

>  <INCHIKEY>  (307) 
RQJYCUYGTAITNK-NBEYISGCSA-N

$$$$
3-oxa-7-azabicyclo331nonane-1-CO2H_99diF
     RDKit          2D

 14 15  0  0  0  0  0  0  0  0999 V2000
    1.5131   -2.4064    0.0000 N   0  0  0  0  0  0  0  0  0  0  0  0
    0.0387   -2.1307    0.0000 C   0  0  0  0  0  0  0  0  0  0  0  0
   -0.4598   -0.7159    0.0000 C   0  0  0  0  0  0  0  0  0  0  0  0
   -0.9582    0.6988    0.0000 C   0  0  0  0  0  0  0  0  0  0  0  0
    0.0178    1.8379    0.0000 O   0  0  0  0  0  0  0  0  0  0  0  0
    1.4923    1.5621    0.0000 C   0  0  0  0  0  0  0  0  0  0  0  0
    1.9907    0.1474    0.0000 C   0  0  0  0  0  0  0  0  0  0  0  0
    2.4891   -1.2674    0.0000 C   0  0  0  0  0  0  0  0  0  0  0  0
    0.5163    0.4231    0.0000 C   0  0  0  0  0  0  0  0  0  0  0  0
   -0.0514    0.9828    0.0000 F   0  0  0  0  0  0  0  0  0  0  0  0
    0.6884    1.9132    0.0000 F   0  0  0  0  0  0  0  0  0  0  0  0
   -1.9342   -0.4402    0.0000 C   0  0  0  0  0  0  0  0  0  0  0  0
   -2.4326    0.9746    0.0000 O   0  0  0  0  0  0  0  0  0  0  0  0
   -2.9102   -1.5792    0.0000 O   0  0  0  0  0  0  0  0  0  0  0  0
  1  2  1  0
  2  3  1  0
  3  4  1  0
  4  5  1  0
  5  6  1  0
  6  7  1  0
  7  8  1  0
  7  9  1  0
  9 10  1  0
  9 11  1  0
  3 12  1  0
 12 13  2  0
 12 14  1  0
  8  1  1  0
  9  3  1  0
M  END
>  <rName>  (308) 
3-oxa-7-azabicyclo331nonane-1-CO2H_99diF

>  <PQ_SYMBOL>  (308) 
3-oxa-7-azabicyclo331nonane-1-CO2H_99diF

>  <FULL_NAME>  (308) 
9,9-Difluoro-3-oxa-7-azabicyclo[3.3.1]nonane-1-carboxylic acid

>  <IUPAC_CONDENSED>  (308) 
3-oxa-7-azabicyclo[3.3.1]nonane-1-CO2H(9,9-diF)

>  <IUPAC>  (308) 
9,9-difluoro-3-oxa-7-azabicyclo[3.3.1]nonane-1-carboxylic acid

>  <TYPE>  (308) 
Backbone

>  <CLASS>  (308) 
beta

>  <ANALOG>  (308) 
Pro

>  <MOL_WT>  (308) 
207.17599999999996

>  <LOGP>  (308) 
-0.05769999999999992

>  <TPSA>  (308) 
58.56

>  <POPULARITY>  (308) 
2.6

>  <PROTECTED>  (308) 
TRUE

>  <SMILES>  (308) 
N1CC2(COCC(C1)C2(F)F)C(=O)O

>  <INCHIKEY>  (308) 
YHAMVMSSRAPPSL-UHFFFAOYSA-N

$$$$
3-oxa-7-azabicyclo331nonane-9-CO2H
     RDKit          2D

 12 13  0  0  0  0  0  0  0  0999 V2000
    3.0000   -0.0000    0.0000 N   0  0  0  0  0  0  0  0  0  0  0  0
    2.2500   -1.2990    0.0000 C   0  0  0  0  0  0  0  0  0  0  0  0
    0.7500   -1.2990    0.0000 C   0  0  0  0  0  0  0  0  0  0  0  0
    0.0000   -0.0000    0.0000 C   0  0  0  0  0  0  0  0  0  0  0  0
    0.7500    1.2990    0.0000 C   0  0  0  0  0  0  0  0  0  0  0  0
    2.2500    1.2990    0.0000 C   0  0  0  0  0  0  0  0  0  0  0  0
   -0.7500    1.2990    0.0000 C   0  0  0  0  0  0  0  0  0  0  0  0
   -1.5000    0.0000    0.0000 O   0  0  0  0  0  0  0  0  0  0  0  0
   -0.7500   -1.2990    0.0000 C   0  0  0  0  0  0  0  0  0  0  0  0
   -1.5000   -0.0000    0.0000 C   0  0  0  0  0  0  0  0  0  0  0  0
   -2.2500   -1.2990    0.0000 O   0  0  0  0  0  0  0  0  0  0  0  0
   -2.2500    1.2990    0.0000 O   0  0  0  0  0  0  0  0  0  0  0  0
  1  2  1  0
  2  3  1  0
  3  4  1  0
  4  5  1  0
  5  6  1  0
  5  7  1  0
  7  8  1  0
  8  9  1  0
  4 10  1  0
 10 11  2  0
 10 12  1  0
  6  1  1  0
  9  3  1  0
M  END
>  <rName>  (309) 
3-oxa-7-azabicyclo331nonane-9-CO2H

>  <PQ_SYMBOL>  (309) 
3-oxa-7-azabicyclo331nonane-9-CO2H

>  <FULL_NAME>  (309) 
3-Oxa-7-azabicyclo[3.3.1]nonane-9-carboxylic acid

>  <IUPAC_CONDENSED>  (309) 
3-oxa-7-azabicyclo[3.3.1]nonane-9-CO2H

>  <IUPAC>  (309) 
3-oxa-7-azabicyclo[3.3.1]nonane-9-carboxylic acid

>  <TYPE>  (309) 
Backbone

>  <CLASS>  (309) 
gamma

>  <ANALOG>  (309) 
Pro

>  <MOL_WT>  (309) 
171.196

>  <LOGP>  (309) 
-0.4469999999999999

>  <TPSA>  (309) 
58.56

>  <POPULARITY>  (309) 
2.8

>  <PROTECTED>  (309) 
TRUE

>  <SMILES>  (309) 
N1CC2C(C(C1)COC2)C(=O)O

>  <INCHIKEY>  (309) 
QRJMFSHVTULZAH-UHFFFAOYSA-N

$$$$
3-oxa-8-azabicyclo430nonane-1-CO2H_1S_6S
     RDKit          2D

 12 13  0  0  0  0  0  0  0  0999 V2000
   -1.6963    1.9285    0.0000 N   0  0  0  0  0  0  0  0  0  0  0  0
   -1.6231    0.4303    0.0000 C   0  0  0  0  0  0  0  0  0  0  0  0
   -0.1756    0.0369    0.0000 C   0  0  0  0  0  0  0  0  0  0  0  0
    0.5007   -1.3020    0.0000 C   0  0  0  0  0  0  0  0  0  0  0  0
    1.9984   -1.3857    0.0000 O   0  0  0  0  0  0  0  0  0  0  0  0
    2.8197   -0.1306    0.0000 C   0  0  0  0  0  0  0  0  0  0  0  0
    2.1435    1.2083    0.0000 C   0  0  0  0  0  0  0  0  0  0  0  0
    0.6458    1.2921    0.0000 C   0  0  0  0  0  0  0  0  0  0  0  0
   -0.2941    2.4611    0.0000 C   0  0  0  0  0  0  0  0  0  0  0  0
   -1.1237   -1.1255    0.0000 C   0  0  0  0  0  0  0  0  0  0  0  0
   -0.5910   -2.5277    0.0000 O   0  0  0  0  0  0  0  0  0  0  0  0
   -2.6044   -0.8856    0.0000 O   0  0  0  0  0  0  0  0  0  0  0  0
  1  2  1  0
  2  3  1  0
  3  4  1  0
  4  5  1  0
  5  6  1  0
  6  7  1  0
  8  7  1  1
  8  9  1  0
  3 10  1  6
 10 11  2  0
 10 12  1  0
  8  3  1  0
  9  1  1  0
M  END
>  <rName>  (310) 
3-oxa-8-azabicyclo430nonane-1-CO2H_1S_6S

>  <PQ_SYMBOL>  (310) 
3-oxa-8-azabicyclo430nonane-1-CO2H_1S_6S

>  <FULL_NAME>  (310) 
rac-(3aR,7aR)-octahydropyrano[3,4-c]pyrrole-3a-carboxylic acid

>  <IUPAC_CONDENSED>  (310) 
3-oxa-8-azabicyclo[4.3.0]nonane-1-CO2H(1S,6S)

>  <IUPAC>  (310) 
(1S,6S)-3-oxa-8-azabicyclo[4.3.0]nonane-1-carboxylic acid

>  <TYPE>  (310) 
Backbone

>  <CLASS>  (310) 
beta

>  <ANALOG>  (310) 
Pro

>  <MOL_WT>  (310) 
171.196

>  <LOGP>  (310) 
-0.30290000000000045

>  <TPSA>  (310) 
58.56

>  <POPULARITY>  (310) 
3.3

>  <PROTECTED>  (310) 
TRUE

>  <SMILES>  (310) 
N2C[C@@]1(COCC[C@@H]1C2)C(=O)O

>  <INCHIKEY>  (310) 
PDBMIGVEVXHGSL-SVRRBLITSA-N

$$$$
3-oxa-8-azabicyclo430nonane-6-CO2H_1S_6S
     RDKit          2D

 12 13  0  0  0  0  0  0  0  0999 V2000
   -1.6963    1.9285    0.0000 N   0  0  0  0  0  0  0  0  0  0  0  0
   -1.6231    0.4303    0.0000 C   0  0  0  0  0  0  0  0  0  0  0  0
   -0.1756    0.0369    0.0000 C   0  0  0  0  0  0  0  0  0  0  0  0
    0.5007   -1.3020    0.0000 C   0  0  0  0  0  0  0  0  0  0  0  0
    1.9984   -1.3857    0.0000 C   0  0  0  0  0  0  0  0  0  0  0  0
    2.8197   -0.1306    0.0000 O   0  0  0  0  0  0  0  0  0  0  0  0
    2.1435    1.2083    0.0000 C   0  0  0  0  0  0  0  0  0  0  0  0
    0.6458    1.2921    0.0000 C   0  0  0  0  0  0  0  0  0  0  0  0
   -0.2941    2.4611    0.0000 C   0  0  0  0  0  0  0  0  0  0  0  0
   -1.1237   -1.1255    0.0000 C   0  0  0  0  0  0  0  0  0  0  0  0
   -0.5910   -2.5277    0.0000 O   0  0  0  0  0  0  0  0  0  0  0  0
   -2.6044   -0.8856    0.0000 O   0  0  0  0  0  0  0  0  0  0  0  0
  1  2  1  0
  2  3  1  0
  3  4  1  0
  4  5  1  0
  5  6  1  0
  6  7  1  0
  8  7  1  1
  8  9  1  0
  3 10  1  6
 10 11  2  0
 10 12  1  0
  8  3  1  0
  9  1  1  0
M  END
>  <rName>  (311) 
3-oxa-8-azabicyclo430nonane-6-CO2H_1S_6S

>  <PQ_SYMBOL>  (311) 
3-oxa-8-azabicyclo430nonane-6-CO2H_1S_6S

>  <FULL_NAME>  (311) 
rac-(3aR,7aR)-octahydropyrano[3,4-c]pyrrole-7a-carboxylic acid

>  <IUPAC_CONDENSED>  (311) 
3-oxa-8-azabicyclo[4.3.0]nonane-6-CO2H(1S,6S)

>  <IUPAC>  (311) 
(1S,6S)-3-oxa-8-azabicyclo[4.3.0]nonane-6-carboxylic acid

>  <TYPE>  (311) 
Backbone

>  <CLASS>  (311) 
beta

>  <ANALOG>  (311) 
Pro

>  <MOL_WT>  (311) 
171.196

>  <LOGP>  (311) 
-0.3029

>  <TPSA>  (311) 
58.56

>  <POPULARITY>  (311) 
4.6

>  <PROTECTED>  (311) 
TRUE

>  <SMILES>  (311) 
N2C[C@@]1(CCOC[C@@H]1C2)C(=O)O

>  <INCHIKEY>  (311) 
QESITGGBKKRCDP-POYBYMJQSA-N

$$$$
3-oxa-9-azaspiro55undecane-7-CO2H
     RDKit          2D

 14 15  0  0  0  0  0  0  0  0999 V2000
   -3.0912   -0.4367    0.0000 N   0  0  0  0  0  0  0  0  0  0  0  0
   -2.2531    0.8073    0.0000 C   0  0  0  0  0  0  0  0  0  0  0  0
   -0.7567    0.7036    0.0000 C   0  0  0  0  0  0  0  0  0  0  0  0
   -0.0984   -0.6443    0.0000 C   0  0  0  0  0  0  0  0  0  0  0  0
   -0.9364   -1.8883    0.0000 C   0  0  0  0  0  0  0  0  0  0  0  0
   -2.4329   -1.7845    0.0000 C   0  0  0  0  0  0  0  0  0  0  0  0
    0.5600   -1.9921    0.0000 C   0  0  0  0  0  0  0  0  0  0  0  0
    2.0564   -2.0958    0.0000 C   0  0  0  0  0  0  0  0  0  0  0  0
    2.8944   -0.8518    0.0000 O   0  0  0  0  0  0  0  0  0  0  0  0
    2.2361    0.4960    0.0000 C   0  0  0  0  0  0  0  0  0  0  0  0
    0.7397    0.5998    0.0000 C   0  0  0  0  0  0  0  0  0  0  0  0
    0.0814    1.9476    0.0000 C   0  0  0  0  0  0  0  0  0  0  0  0
    1.5778    1.8438    0.0000 O   0  0  0  0  0  0  0  0  0  0  0  0
   -0.5770    3.2954    0.0000 O   0  0  0  0  0  0  0  0  0  0  0  0
  1  2  1  0
  2  3  1  0
  3  4  1  0
  4  5  1  0
  5  6  1  0
  4  7  1  0
  7  8  1  0
  8  9  1  0
  9 10  1  0
 10 11  1  0
  3 12  1  0
 12 13  2  0
 12 14  1  0
  6  1  1  0
 11  4  1  0
M  END
>  <rName>  (312) 
3-oxa-9-azaspiro55undecane-7-CO2H

>  <PQ_SYMBOL>  (312) 
3-oxa-9-azaspiro55undecane-7-CO2H

>  <FULL_NAME>  (312) 
3-Oxa-9-azaspiro[5.5]undecane-7-carboxylic acid

>  <IUPAC_CONDENSED>  (312) 
3-oxa-9-azaspiro[5.5]undecane-7-CO2H

>  <IUPAC>  (312) 
9-oxa-3-azaspiro[5.5]undecane-1-carboxylic acid

>  <TYPE>  (312) 
Backbone

>  <CLASS>  (312) 
beta

>  <ANALOG>  (312) 
Pro

>  <MOL_WT>  (312) 
199.24999999999997

>  <LOGP>  (312) 
0.4772999999999998

>  <TPSA>  (312) 
58.56

>  <POPULARITY>  (312) 
2.8

>  <PROTECTED>  (312) 
TRUE

>  <SMILES>  (312) 
N1CC(C2(CC1)(CCOCC2))C(=O)O

>  <INCHIKEY>  (312) 
BGPZFKUFYLDTRY-UHFFFAOYSA-N

$$$$
3-oxa-Ac4c
     RDKit          2D

  8  8  0  0  0  0  0  0  0  0999 V2000
    0.2785   -1.7061    0.0000 N   0  0  0  0  0  0  0  0  0  0  0  0
   -0.2785   -0.3134    0.0000 C   0  0  0  0  0  0  0  0  0  0  0  0
   -1.6713   -0.8704    0.0000 C   0  0  0  0  0  0  0  0  0  0  0  0
   -2.2283    0.5223    0.0000 O   0  0  0  0  0  0  0  0  0  0  0  0
   -0.8356    1.0794    0.0000 C   0  0  0  0  0  0  0  0  0  0  0  0
    1.1142    0.2437    0.0000 C   0  0  0  0  0  0  0  0  0  0  0  0
    1.3281    1.7284    0.0000 O   0  0  0  0  0  0  0  0  0  0  0  0
    2.2930   -0.6839    0.0000 O   0  0  0  0  0  0  0  0  0  0  0  0
  1  2  1  0
  2  3  1  0
  3  4  1  0
  4  5  1  0
  2  6  1  0
  6  7  2  0
  6  8  1  0
  5  2  1  0
M  END
>  <rName>  (313) 
3-oxa-Ac4c

>  <PQ_SYMBOL>  (313) 
3-oxa-Ac4c

>  <FULL_NAME>  (313) 
3-Aminooxetane-3-carboxylic acid

>  <IUPAC_CONDENSED>  (313) 
3-oxa-Ac4c

>  <IUPAC>  (313) 
3-amino-1-oxacyclobutane-3-carboxylic acid

>  <TYPE>  (313) 
Backbone

>  <CLASS>  (313) 
alpha

>  <ANALOG>  (313) 
Ser

>  <MOL_WT>  (313) 
117.10399999999998

>  <LOGP>  (313) 
-1.2012999999999998

>  <TPSA>  (313) 
72.55

>  <POPULARITY>  (313) 
8.2

>  <PROTECTED>  (313) 
TRUE

>  <SMILES>  (313) 
NC1(COC1)C(=O)O

>  <INCHIKEY>  (313) 
LXRNYRAHXDUNKR-UHFFFAOYSA-N

$$$$
34-dehydro-Pro
     RDKit          2D

  8  8  0  0  0  0  0  0  0  0999 V2000
   -2.2608   -0.7500    0.0000 C   0  0  0  0  0  0  0  0  0  0  0  0
   -0.8342   -1.2135    0.0000 C   0  0  0  0  0  0  0  0  0  0  0  0
    0.0475    0.0000    0.0000 C   0  0  0  0  0  0  0  0  0  0  0  0
   -0.8342    1.2135    0.0000 N   0  0  0  0  0  0  0  0  0  0  0  0
   -2.2608    0.7500    0.0000 C   0  0  0  0  0  0  0  0  0  0  0  0
    1.5475    0.0000    0.0000 C   0  0  0  0  0  0  0  0  0  0  0  0
    2.2975    1.2990    0.0000 O   0  0  0  0  0  0  0  0  0  0  0  0
    2.2975   -1.2990    0.0000 O   0  0  0  0  0  0  0  0  0  0  0  0
  1  2  1  0
  2  3  1  0
  3  4  1  0
  4  5  2  0
  3  6  1  6
  6  7  2  0
  6  8  1  0
  5  1  1  0
M  END
>  <rName>  (314) 
34-dehydro-Pro

>  <PQ_SYMBOL>  (314) 
34-dehydro-Pro

>  <FULL_NAME>  (314) 
(2S)-3,4-dihydro-2H-pyrrole-2-carboxylic acid

>  <IUPAC_CONDENSED>  (314) 
3,4-dehydro-Pro

>  <IUPAC>  (314) 
(2S)-1-azacyclopent-5-ene-2-carboxylic acid

>  <TYPE>  (314) 
N-term cap

>  <CLASS>  (314) 
n_cap

>  <ANALOG>  (314) 
X

>  <MOL_WT>  (314) 
113.11599999999997

>  <LOGP>  (314) 
0.30419999999999997

>  <TPSA>  (314) 
49.66

>  <POPULARITY>  (314) 
6.8

>  <PROTECTED>  (314) 
FALSE

>  <SMILES>  (314) 
C1C[C@H](N=C1)C(=O)O

>  <INCHIKEY>  (314) 
DWAKNKKXGALPNW-BYPYZUCNSA-N

$$$$
3Abz
     RDKit          2D

 10 10  0  0  0  0  0  0  0  0999 V2000
    2.9197   -1.6440    0.0000 N   0  0  0  0  0  0  0  0  0  0  0  0
    1.8615   -0.5809    0.0000 C   0  0  0  0  0  0  0  0  0  0  0  0
    0.4117   -0.9659    0.0000 C   0  0  0  0  0  0  0  0  0  0  0  0
   -0.6466    0.0971    0.0000 C   0  0  0  0  0  0  0  0  0  0  0  0
   -0.2551    1.5451    0.0000 C   0  0  0  0  0  0  0  0  0  0  0  0
    1.1946    1.9301    0.0000 C   0  0  0  0  0  0  0  0  0  0  0  0
    2.2529    0.8671    0.0000 C   0  0  0  0  0  0  0  0  0  0  0  0
   -2.0963   -0.2879    0.0000 C   0  0  0  0  0  0  0  0  0  0  0  0
   -2.4878   -1.7359    0.0000 O   0  0  0  0  0  0  0  0  0  0  0  0
   -3.1546    0.7752    0.0000 O   0  0  0  0  0  0  0  0  0  0  0  0
  1  2  1  0
  2  3  2  0
  3  4  1  0
  4  5  2  0
  5  6  1  0
  6  7  2  0
  4  8  1  0
  8  9  2  0
  8 10  1  0
  7  2  1  0
M  END
>  <rName>  (315) 
3Abz

>  <PQ_SYMBOL>  (315) 
3Abz

>  <FULL_NAME>  (315) 
3-aminobenzoic acid

>  <IUPAC_CONDENSED>  (315) 
3Abz

>  <IUPAC>  (315) 
3-aminobenzene-1-carboxylic acid

>  <TYPE>  (315) 
Backbone

>  <CLASS>  (315) 
gamma

>  <ANALOG>  (315) 
X

>  <MOL_WT>  (315) 
137.13799999999998

>  <LOGP>  (315) 
0.9670000000000001

>  <TPSA>  (315) 
63.32000000000001

>  <POPULARITY>  (315) 
14.2

>  <PROTECTED>  (315) 
FALSE

>  <SMILES>  (315) 
Nc1cc(ccc1)C(=O)O

>  <INCHIKEY>  (315) 
XFDUHJPVQKIXHO-UHFFFAOYSA-N

$$$$
3CF3-tetrahydroindazol-1-acetyl
     RDKit          2D

 17 18  0  0  0  0  0  0  0  0999 V2000
    2.7491   -2.5918    0.0000 C   0  0  0  0  0  0  0  0  0  0  0  0
    1.5264   -3.4607    0.0000 C   0  0  0  0  0  0  0  0  0  0  0  0
    0.1625   -2.8363    0.0000 C   0  0  0  0  0  0  0  0  0  0  0  0
    0.0214   -1.3430    0.0000 C   0  0  0  0  0  0  0  0  0  0  0  0
   -1.1828   -0.4486    0.0000 N   0  0  0  0  0  0  0  0  0  0  0  0
   -0.7044    0.9730    0.0000 N   0  0  0  0  0  0  0  0  0  0  0  0
    0.7955    0.9573    0.0000 C   0  0  0  0  0  0  0  0  0  0  0  0
    1.2441   -0.4741    0.0000 C   0  0  0  0  0  0  0  0  0  0  0  0
    2.6079   -1.0985    0.0000 C   0  0  0  0  0  0  0  0  0  0  0  0
    1.6898    2.1615    0.0000 C   0  0  0  0  0  0  0  0  0  0  0  0
    2.5842    3.3658    0.0000 F   0  0  0  0  0  0  0  0  0  0  0  0
    0.4856    3.0559    0.0000 F   0  0  0  0  0  0  0  0  0  0  0  0
    2.8941    1.2672    0.0000 F   0  0  0  0  0  0  0  0  0  0  0  0
   -2.6142   -0.8972    0.0000 C   0  0  0  0  0  0  0  0  0  0  0  0
   -3.7184    0.1181    0.0000 C   0  0  0  0  0  0  0  0  0  0  0  0
   -3.3911    1.5820    0.0000 O   0  0  0  0  0  0  0  0  0  0  0  0
   -5.1497   -0.3305    0.0000 O   0  0  0  0  0  0  0  0  0  0  0  0
  1  2  1  0
  2  3  1  0
  3  4  1  0
  4  5  1  0
  5  6  1  0
  6  7  2  0
  7  8  1  0
  8  9  1  0
  7 10  1  0
 10 11  1  0
 10 12  1  0
 10 13  1  0
  5 14  1  0
 14 15  1  0
 15 16  2  0
 15 17  1  0
  8  4  2  0
  9  1  1  0
M  END
>  <rName>  (316) 
3CF3-tetrahydroindazol-1-acetyl

>  <PQ_SYMBOL>  (316) 
3CF3-tetrahydroindazol-1-acetyl

>  <FULL_NAME>  (316) 
[3-(trifluoromethyl)-4,5,6,7-tetrahydro-1H-indazol-1-yl]acetic acid

>  <IUPAC_CONDENSED>  (316) 
3CF3-tetrahydroindazol-1-acetyl

>  <IUPAC>  (316) 
2-(9-(trifluoromethyl)-7,8-diazabicyclo[4.3.0]nona-1(6),8-dien-7-yl)acetic acid

>  <TYPE>  (316) 
N-term cap

>  <CLASS>  (316) 
n_cap

>  <ANALOG>  (316) 
X

>  <MOL_WT>  (316) 
248.20399999999995

>  <LOGP>  (316) 
1.8653

>  <TPSA>  (316) 
55.120000000000005

>  <POPULARITY>  (316) 
10.0

>  <PROTECTED>  (316) 
FALSE

>  <SMILES>  (316) 
C2CCc1n(nc(c1C2)C(F)(F)F)CC(=O)O

>  <INCHIKEY>  (316) 
NOFFCWXIBYKMBU-UHFFFAOYSA-N

$$$$
3Me-uracil-6-carbonyl
     RDKit          2D

 12 12  0  0  0  0  0  0  0  0999 V2000
    3.3750    0.0000    0.0000 C   0  0  0  0  0  0  0  0  0  0  0  0
    1.8750    0.0000    0.0000 N   0  0  0  0  0  0  0  0  0  0  0  0
    1.1250   -1.2990    0.0000 C   0  0  0  0  0  0  0  0  0  0  0  0
    1.8750   -2.5981    0.0000 O   0  0  0  0  0  0  0  0  0  0  0  0
   -0.3750   -1.2990    0.0000 C   0  0  0  0  0  0  0  0  0  0  0  0
   -1.1250    0.0000    0.0000 C   0  0  0  0  0  0  0  0  0  0  0  0
   -0.3750    1.2990    0.0000 N   0  0  0  0  0  0  0  0  0  0  0  0
    1.1250    1.2990    0.0000 C   0  0  0  0  0  0  0  0  0  0  0  0
    1.8750    2.5981    0.0000 O   0  0  0  0  0  0  0  0  0  0  0  0
   -2.6250    0.0000    0.0000 C   0  0  0  0  0  0  0  0  0  0  0  0
   -3.3750   -1.2990    0.0000 O   0  0  0  0  0  0  0  0  0  0  0  0
   -3.3750    1.2990    0.0000 O   0  0  0  0  0  0  0  0  0  0  0  0
  1  2  1  0
  2  3  1  0
  3  4  2  0
  3  5  1  0
  5  6  2  0
  6  7  1  0
  7  8  1  0
  8  9  2  0
  6 10  1  0
 10 11  2  0
 10 12  1  0
  8  2  1  0
M  END
>  <rName>  (317) 
3Me-uracil-6-carbonyl

>  <PQ_SYMBOL>  (317) 
3Me-uracil-6-carbonyl

>  <FULL_NAME>  (317) 
3-methyl-2,4-dioxo-1H-pyrimidine-6-carboxylic acid

>  <IUPAC_CONDENSED>  (317) 
3Me-uracil-6-carbonyl

>  <IUPAC>  (317) 
1-methyl-2,6-dioxo-1,3-diazacyclohex-4-ene-4-carboxylic acid

>  <TYPE>  (317) 
N-term cap

>  <CLASS>  (317) 
n_cap

>  <ANALOG>  (317) 
X

>  <MOL_WT>  (317) 
170.124

>  <LOGP>  (317) 
-1.2282

>  <TPSA>  (317) 
92.16000000000001

>  <POPULARITY>  (317) 
7.2

>  <PROTECTED>  (317) 
TRUE

>  <SMILES>  (317) 
Cn1c(=O)cc([nH]c1=O)C(=O)O

>  <INCHIKEY>  (317) 
OEGWVZNGNUHUQP-UHFFFAOYSA-N

$$$$
3OH-Phg_CONHpropylNMe2
     RDKit          2D

 18 18  0  0  0  0  0  0  0  0999 V2000
    1.1511   -2.2518    0.0000 N   0  0  0  0  0  0  0  0  0  0  0  0
    1.3016   -0.7594    0.0000 C   0  0  0  0  0  0  0  0  0  0  0  0
    2.6693   -0.1435    0.0000 C   0  0  0  0  0  0  0  0  0  0  0  0
    2.8198    1.3489    0.0000 C   0  0  0  0  0  0  0  0  0  0  0  0
    4.1875    1.9649    0.0000 C   0  0  0  0  0  0  0  0  0  0  0  0
    5.4048    1.0883    0.0000 C   0  0  0  0  0  0  0  0  0  0  0  0
    5.2543   -0.4041    0.0000 C   0  0  0  0  0  0  0  0  0  0  0  0
    6.4715   -1.2806    0.0000 O   0  0  0  0  0  0  0  0  0  0  0  0
    3.8866   -1.0200    0.0000 C   0  0  0  0  0  0  0  0  0  0  0  0
    0.0843    0.1171    0.0000 C   0  0  0  0  0  0  0  0  0  0  0  0
    0.2348    1.6096    0.0000 O   0  0  0  0  0  0  0  0  0  0  0  0
   -1.2834   -0.4988    0.0000 N   0  0  0  0  0  0  0  0  0  0  0  0
   -2.5006    0.3777    0.0000 C   0  0  0  0  0  0  0  0  0  0  0  0
   -3.8683   -0.2382    0.0000 C   0  0  0  0  0  0  0  0  0  0  0  0
   -5.0856    0.6384    0.0000 C   0  0  0  0  0  0  0  0  0  0  0  0
   -6.4533    0.0225    0.0000 N   0  0  0  0  0  0  0  0  0  0  0  0
   -7.6706    0.8990    0.0000 C   0  0  0  0  0  0  0  0  0  0  0  0
   -6.6038   -1.4700    0.0000 C   0  0  0  0  0  0  0  0  0  0  0  0
  2  1  1  6
  2  3  1  0
  3  4  2  0
  4  5  1  0
  5  6  2  0
  6  7  1  0
  7  8  1  0
  7  9  2  0
  2 10  1  0
 10 11  2  0
 10 12  1  0
 12 13  1  0
 13 14  1  0
 14 15  1  0
 15 16  1  0
 16 17  1  0
 16 18  1  0
  9  3  1  0
M  END
>  <rName>  (318) 
3OH-Phg_CONHpropylNMe2

>  <PQ_SYMBOL>  (318) 
3OH-Phg_CONHpropylNMe2

>  <FULL_NAME>  (318) 
(2S)-2-azanyl-N-[3-(dimethylamino)propyl]-2-(3-hydroxyphenyl)ethanamide

>  <IUPAC_CONDENSED>  (318) 
3OH-Phg(CONHpropylNMe2)

>  <IUPAC>  (318) 
(2S)-2-amino-N-(3-(dimethylamino)propyl)-2-(3-hydroxyphenyl)acetamide

>  <TYPE>  (318) 
C-term cap

>  <CLASS>  (318) 
c_cap

>  <ANALOG>  (318) 
X

>  <MOL_WT>  (318) 
251.32999999999993

>  <LOGP>  (318) 
0.4599

>  <TPSA>  (318) 
78.58999999999999

>  <POPULARITY>  (318) 
4.0

>  <PROTECTED>  (318) 
FALSE

>  <SMILES>  (318) 
N[C@@H](c1(cccc(O)c1))C(=O)NCCCN(C)C

>  <INCHIKEY>  (318) 
KSEUOWAHQDFOCP-LBPRGKRZSA-N

$$$$
3OH-picolinoyl
     RDKit          2D

 10 10  0  0  0  0  0  0  0  0999 V2000
   -2.7096    0.1244    0.0000 C   0  0  0  0  0  0  0  0  0  0  0  0
   -2.0255    1.4594    0.0000 C   0  0  0  0  0  0  0  0  0  0  0  0
   -0.5274    1.5344    0.0000 N   0  0  0  0  0  0  0  0  0  0  0  0
    0.2866    0.2745    0.0000 C   0  0  0  0  0  0  0  0  0  0  0  0
   -0.3975   -1.0604    0.0000 C   0  0  0  0  0  0  0  0  0  0  0  0
    0.4166   -2.3203    0.0000 O   0  0  0  0  0  0  0  0  0  0  0  0
   -1.8956   -1.1355    0.0000 C   0  0  0  0  0  0  0  0  0  0  0  0
    1.7848    0.3495    0.0000 C   0  0  0  0  0  0  0  0  0  0  0  0
    2.4688    1.6844    0.0000 O   0  0  0  0  0  0  0  0  0  0  0  0
    2.5988   -0.9104    0.0000 O   0  0  0  0  0  0  0  0  0  0  0  0
  1  2  2  0
  2  3  1  0
  3  4  2  0
  4  5  1  0
  5  6  1  0
  5  7  2  0
  4  8  1  0
  8  9  2  0
  8 10  1  0
  7  1  1  0
M  END
>  <rName>  (319) 
3OH-picolinoyl

>  <PQ_SYMBOL>  (319) 
3OH-picolinoyl

>  <FULL_NAME>  (319) 
3-HYDROXYPICOLINIC ACID

>  <IUPAC_CONDENSED>  (319) 
3OH-picolinoyl

>  <IUPAC>  (319) 
3-hydroxypyridine-2-carboxylic acid

>  <TYPE>  (319) 
N-term cap

>  <CLASS>  (319) 
n_cap

>  <ANALOG>  (319) 
X

>  <MOL_WT>  (319) 
139.10999999999999

>  <LOGP>  (319) 
0.48539999999999994

>  <TPSA>  (319) 
70.42

>  <POPULARITY>  (319) 
22.9

>  <PROTECTED>  (319) 
FALSE

>  <SMILES>  (319) 
c1cnc(c(O)c1)C(=O)O

>  <INCHIKEY>  (319) 
BRARRAHGNDUELT-UHFFFAOYSA-N

$$$$
3Pal
     RDKit          2D

 12 12  0  0  0  0  0  0  0  0999 V2000
   -1.2391    1.6805    0.0000 N   0  0  0  0  0  0  0  0  0  0  0  0
   -1.6184    0.2292    0.0000 C   0  0  0  0  0  0  0  0  0  0  0  0
   -0.5513   -0.8249    0.0000 C   0  0  0  0  0  0  0  0  0  0  0  0
    0.8952   -0.4278    0.0000 C   0  0  0  0  0  0  0  0  0  0  0  0
    1.2745    1.0235    0.0000 C   0  0  0  0  0  0  0  0  0  0  0  0
    2.7210    1.4206    0.0000 C   0  0  0  0  0  0  0  0  0  0  0  0
    3.7882    0.3665    0.0000 C   0  0  0  0  0  0  0  0  0  0  0  0
    3.4088   -1.0848    0.0000 N   0  0  0  0  0  0  0  0  0  0  0  0
    1.9624   -1.4819    0.0000 C   0  0  0  0  0  0  0  0  0  0  0  0
   -3.0649   -0.1679    0.0000 C   0  0  0  0  0  0  0  0  0  0  0  0
   -3.4442   -1.6191    0.0000 O   0  0  0  0  0  0  0  0  0  0  0  0
   -4.1321    0.8862    0.0000 O   0  0  0  0  0  0  0  0  0  0  0  0
  2  1  1  1
  2  3  1  0
  3  4  1  0
  4  5  2  0
  5  6  1  0
  6  7  2  0
  7  8  1  0
  8  9  2  0
  2 10  1  0
 10 11  2  0
 10 12  1  0
  9  4  1  0
M  END
>  <rName>  (320) 
3Pal

>  <PQ_SYMBOL>  (320) 
3Pal

>  <FULL_NAME>  (320) 
3-(3-Pyridyl)-L-Alanine, 3-Pya

>  <IUPAC_CONDENSED>  (320) 
3Pal

>  <IUPAC>  (320) 
(2S)-2-amino-3-(pyridin-3-yl)propanoic acid

>  <TYPE>  (320) 
Backbone

>  <CLASS>  (320) 
alpha

>  <ANALOG>  (320) 
Phe

>  <MOL_WT>  (320) 
166.17999999999998

>  <LOGP>  (320) 
0.0360000000000002

>  <TPSA>  (320) 
76.21

>  <POPULARITY>  (320) 
31.5

>  <PROTECTED>  (320) 
TRUE

>  <SMILES>  (320) 
N[C@@H](Cc1(cccnc1))C(=O)O

>  <INCHIKEY>  (320) 
DFZVZEMNPGABKO-ZETCQYMHSA-N

$$$$
3Pal_2CN
     RDKit          2D

 14 14  0  0  0  0  0  0  0  0999 V2000
   -1.7887    1.9295    0.0000 N   0  0  0  0  0  0  0  0  0  0  0  0
   -1.9182    0.4351    0.0000 C   0  0  0  0  0  0  0  0  0  0  0  0
   -0.6887   -0.4243    0.0000 C   0  0  0  0  0  0  0  0  0  0  0  0
    0.6702    0.2108    0.0000 C   0  0  0  0  0  0  0  0  0  0  0  0
    0.7997    1.7052    0.0000 C   0  0  0  0  0  0  0  0  0  0  0  0
    2.1586    2.3403    0.0000 C   0  0  0  0  0  0  0  0  0  0  0  0
    3.3881    1.4809    0.0000 C   0  0  0  0  0  0  0  0  0  0  0  0
    3.2586   -0.0135    0.0000 N   0  0  0  0  0  0  0  0  0  0  0  0
    1.8997   -0.6485    0.0000 C   0  0  0  0  0  0  0  0  0  0  0  0
    1.7702   -2.1429    0.0000 C   0  0  0  0  0  0  0  0  0  0  0  0
    1.6407   -3.6373    0.0000 N   0  0  0  0  0  0  0  0  0  0  0  0
   -3.2771   -0.2000    0.0000 C   0  0  0  0  0  0  0  0  0  0  0  0
   -3.4066   -1.6944    0.0000 O   0  0  0  0  0  0  0  0  0  0  0  0
   -4.5065    0.6593    0.0000 O   0  0  0  0  0  0  0  0  0  0  0  0
  2  1  1  1
  2  3  1  0
  3  4  1  0
  4  5  2  0
  5  6  1  0
  6  7  2  0
  7  8  1  0
  8  9  2  0
  9 10  1  0
 10 11  3  0
  2 12  1  0
 12 13  2  0
 12 14  1  0
  9  4  1  0
M  END
>  <rName>  (321) 
3Pal_2CN

>  <PQ_SYMBOL>  (321) 
3Pal_2CN

>  <FULL_NAME>  (321) 
(S)-2-amino-3-(2-cyanopyridin-3-yl)propanoic acid

>  <IUPAC_CONDENSED>  (321) 
3Pal(2-CN)

>  <IUPAC>  (321) 
(2S)-2-amino-3-(2-(nitrilomethyl)pyridin-3-yl)propanoic acid

>  <TYPE>  (321) 
Backbone

>  <CLASS>  (321) 
alpha

>  <ANALOG>  (321) 
Phe

>  <MOL_WT>  (321) 
191.18999999999997

>  <LOGP>  (321) 
-0.09232000000000001

>  <TPSA>  (321) 
100.0

>  <POPULARITY>  (321) 
4.0

>  <PROTECTED>  (321) 
TRUE

>  <SMILES>  (321) 
N[C@@H](Cc1(cccnc1C#N))C(=O)O

>  <INCHIKEY>  (321) 
QZOMLJIJFFBNPC-ZETCQYMHSA-N

$$$$
3Pal_2CO2H
     RDKit          2D

 15 15  0  0  0  0  0  0  0  0999 V2000
   -2.0511    1.9295    0.0000 N   0  0  0  0  0  0  0  0  0  0  0  0
   -2.0725    0.4296    0.0000 C   0  0  0  0  0  0  0  0  0  0  0  0
   -0.7843   -0.3388    0.0000 C   0  0  0  0  0  0  0  0  0  0  0  0
    0.5253    0.3925    0.0000 C   0  0  0  0  0  0  0  0  0  0  0  0
    0.5467    1.8924    0.0000 C   0  0  0  0  0  0  0  0  0  0  0  0
    1.8563    2.6238    0.0000 C   0  0  0  0  0  0  0  0  0  0  0  0
    3.1445    1.8553    0.0000 C   0  0  0  0  0  0  0  0  0  0  0  0
    3.1231    0.3555    0.0000 N   0  0  0  0  0  0  0  0  0  0  0  0
    1.8135   -0.3759    0.0000 C   0  0  0  0  0  0  0  0  0  0  0  0
    1.7921   -1.8758    0.0000 C   0  0  0  0  0  0  0  0  0  0  0  0
    0.4825   -2.6072    0.0000 O   0  0  0  0  0  0  0  0  0  0  0  0
    3.0803   -2.6442    0.0000 O   0  0  0  0  0  0  0  0  0  0  0  0
   -3.3821   -0.3018    0.0000 C   0  0  0  0  0  0  0  0  0  0  0  0
   -3.4036   -1.8016    0.0000 O   0  0  0  0  0  0  0  0  0  0  0  0
   -4.6704    0.4667    0.0000 O   0  0  0  0  0  0  0  0  0  0  0  0
  2  1  1  1
  2  3  1  0
  3  4  1  0
  4  5  2  0
  5  6  1  0
  6  7  2  0
  7  8  1  0
  8  9  2  0
  9 10  1  0
 10 11  2  0
 10 12  1  0
  2 13  1  0
 13 14  2  0
 13 15  1  0
  9  4  1  0
M  END
>  <rName>  (322) 
3Pal_2CO2H

>  <PQ_SYMBOL>  (322) 
3Pal_2CO2H

>  <FULL_NAME>  (322) 
(S)-3-(2-amino-2-carboxyethyl)picolinic acid

>  <IUPAC_CONDENSED>  (322) 
3Pal(2-CO2H)

>  <IUPAC>  (322) 
3-((2S)-2-amino-3-hydroxy-3-oxopropyl)pyridine-2-carboxylic acid

>  <TYPE>  (322) 
Backbone

>  <CLASS>  (322) 
alpha

>  <ANALOG>  (322) 
Phe

>  <MOL_WT>  (322) 
210.18899999999996

>  <LOGP>  (322) 
-0.2658000000000001

>  <TPSA>  (322) 
113.51

>  <POPULARITY>  (322) 
2.5

>  <PROTECTED>  (322) 
TRUE

>  <SMILES>  (322) 
N[C@@H](Cc1(cccnc1C(=O)O))C(=O)O

>  <INCHIKEY>  (322) 
FCANCHBPBMZGSN-LURJTMIESA-N

$$$$
3Pal_2Cl_5Me
     RDKit          2D

 14 14  0  0  0  0  0  0  0  0999 V2000
   -1.4552    1.7882    0.0000 N   0  0  0  0  0  0  0  0  0  0  0  0
   -1.9325    0.3661    0.0000 C   0  0  0  0  0  0  0  0  0  0  0  0
   -0.9397   -0.7583    0.0000 C   0  0  0  0  0  0  0  0  0  0  0  0
    0.5305   -0.4606    0.0000 C   0  0  0  0  0  0  0  0  0  0  0  0
    1.0078    0.9614    0.0000 C   0  0  0  0  0  0  0  0  0  0  0  0
    2.4780    1.2591    0.0000 C   0  0  0  0  0  0  0  0  0  0  0  0
    2.9553    2.6811    0.0000 C   0  0  0  0  0  0  0  0  0  0  0  0
    3.4709    0.1347    0.0000 C   0  0  0  0  0  0  0  0  0  0  0  0
    2.9935   -1.2874    0.0000 N   0  0  0  0  0  0  0  0  0  0  0  0
    1.5234   -1.5850    0.0000 C   0  0  0  0  0  0  0  0  0  0  0  0
    1.0461   -3.0070    0.0000 Cl  0  0  0  0  0  0  0  0  0  0  0  0
   -3.4027    0.0685    0.0000 C   0  0  0  0  0  0  0  0  0  0  0  0
   -3.8800   -1.3536    0.0000 O   0  0  0  0  0  0  0  0  0  0  0  0
   -4.3955    1.1929    0.0000 O   0  0  0  0  0  0  0  0  0  0  0  0
  2  1  1  1
  2  3  1  0
  3  4  1  0
  4  5  1  0
  5  6  2  0
  6  7  1  0
  6  8  1  0
  8  9  2  0
  9 10  1  0
 10 11  1  0
  2 12  1  0
 12 13  2  0
 12 14  1  0
 10  4  2  0
M  END
>  <rName>  (323) 
3Pal_2Cl_5Me

>  <PQ_SYMBOL>  (323) 
3Pal_2Cl_5Me

>  <FULL_NAME>  (323) 
(S)-2-amino-3-(2-chloro-5-methylpyridin-3-yl)propanoic acid

>  <IUPAC_CONDENSED>  (323) 
3Pal(2-Cl,5-Me)

>  <IUPAC>  (323) 
(2S)-2-amino-3-(2-chloro-5-methylpyridin-3-yl)propanoic acid

>  <TYPE>  (323) 
Backbone

>  <CLASS>  (323) 
alpha

>  <ANALOG>  (323) 
Phe

>  <MOL_WT>  (323) 
214.652

>  <LOGP>  (323) 
0.9978199999999999

>  <TPSA>  (323) 
76.21

>  <POPULARITY>  (323) 
2.9

>  <PROTECTED>  (323) 
TRUE

>  <SMILES>  (323) 
N[C@@H](Cc1(cc(C)cnc1Cl))C(=O)O

>  <INCHIKEY>  (323) 
YCCXDCAMYFQELY-ZETCQYMHSA-N

$$$$
3Pal_2Cl_6NH2
     RDKit          2D

 14 14  0  0  0  0  0  0  0  0999 V2000
   -1.7174    1.8436    0.0000 N   0  0  0  0  0  0  0  0  0  0  0  0
   -2.1036    0.3942    0.0000 C   0  0  0  0  0  0  0  0  0  0  0  0
   -1.0414   -0.6650    0.0000 C   0  0  0  0  0  0  0  0  0  0  0  0
    0.4069   -0.2747    0.0000 C   0  0  0  0  0  0  0  0  0  0  0  0
    0.7931    1.1747    0.0000 C   0  0  0  0  0  0  0  0  0  0  0  0
    2.2415    1.5649    0.0000 C   0  0  0  0  0  0  0  0  0  0  0  0
    3.3036    0.5057    0.0000 C   0  0  0  0  0  0  0  0  0  0  0  0
    4.7520    0.8960    0.0000 N   0  0  0  0  0  0  0  0  0  0  0  0
    2.9174   -0.9437    0.0000 N   0  0  0  0  0  0  0  0  0  0  0  0
    1.4691   -1.3339    0.0000 C   0  0  0  0  0  0  0  0  0  0  0  0
    1.0829   -2.7834    0.0000 Cl  0  0  0  0  0  0  0  0  0  0  0  0
   -3.5519    0.0039    0.0000 C   0  0  0  0  0  0  0  0  0  0  0  0
   -3.9381   -1.4455    0.0000 O   0  0  0  0  0  0  0  0  0  0  0  0
   -4.6140    1.0631    0.0000 O   0  0  0  0  0  0  0  0  0  0  0  0
  2  1  1  1
  2  3  1  0
  3  4  1  0
  4  5  1  0
  5  6  2  0
  6  7  1  0
  7  8  1  0
  7  9  2  0
  9 10  1  0
 10 11  1  0
  2 12  1  0
 12 13  2  0
 12 14  1  0
 10  4  2  0
M  END
>  <rName>  (324) 
3Pal_2Cl_6NH2

>  <PQ_SYMBOL>  (324) 
3Pal_2Cl_6NH2

>  <FULL_NAME>  (324) 
(S)-2-amino-3-(6-amino-2-chloropyridin-3-yl)propanoic acid

>  <IUPAC_CONDENSED>  (324) 
3Pal(2-Cl,6-NH2)

>  <IUPAC>  (324) 
(2S)-2-amino-3-(6-amino-2-chloropyridin-3-yl)propanoic acid

>  <TYPE>  (324) 
Backbone

>  <CLASS>  (324) 
alpha

>  <ANALOG>  (324) 
Phe

>  <MOL_WT>  (324) 
215.64

>  <LOGP>  (324) 
0.2716000000000001

>  <TPSA>  (324) 
102.23

>  <POPULARITY>  (324) 
2.2

>  <PROTECTED>  (324) 
TRUE

>  <SMILES>  (324) 
N[C@@H](Cc1(ccc(N)nc1Cl))C(=O)O

>  <INCHIKEY>  (324) 
CQRBJGYRMCJJHF-YFKPBYRVSA-N

$$$$
3Pal_2F_5Me
     RDKit          2D

 14 14  0  0  0  0  0  0  0  0999 V2000
   -1.4552    1.7882    0.0000 N   0  0  0  0  0  0  0  0  0  0  0  0
   -1.9325    0.3661    0.0000 C   0  0  0  0  0  0  0  0  0  0  0  0
   -0.9397   -0.7583    0.0000 C   0  0  0  0  0  0  0  0  0  0  0  0
    0.5305   -0.4606    0.0000 C   0  0  0  0  0  0  0  0  0  0  0  0
    1.0078    0.9614    0.0000 C   0  0  0  0  0  0  0  0  0  0  0  0
    2.4780    1.2591    0.0000 C   0  0  0  0  0  0  0  0  0  0  0  0
    2.9553    2.6811    0.0000 C   0  0  0  0  0  0  0  0  0  0  0  0
    3.4709    0.1347    0.0000 C   0  0  0  0  0  0  0  0  0  0  0  0
    2.9935   -1.2874    0.0000 N   0  0  0  0  0  0  0  0  0  0  0  0
    1.5234   -1.5850    0.0000 C   0  0  0  0  0  0  0  0  0  0  0  0
    1.0461   -3.0070    0.0000 F   0  0  0  0  0  0  0  0  0  0  0  0
   -3.4027    0.0685    0.0000 C   0  0  0  0  0  0  0  0  0  0  0  0
   -3.8800   -1.3536    0.0000 O   0  0  0  0  0  0  0  0  0  0  0  0
   -4.3955    1.1929    0.0000 O   0  0  0  0  0  0  0  0  0  0  0  0
  2  1  1  1
  2  3  1  0
  3  4  1  0
  4  5  1  0
  5  6  2  0
  6  7  1  0
  6  8  1  0
  8  9  2  0
  9 10  1  0
 10 11  1  0
  2 12  1  0
 12 13  2  0
 12 14  1  0
 10  4  2  0
M  END
>  <rName>  (325) 
3Pal_2F_5Me

>  <PQ_SYMBOL>  (325) 
3Pal_2F_5Me

>  <FULL_NAME>  (325) 
(S)-2-amino-3-(2-fluoro-5-methylpyridin-3-yl)propanoic acid

>  <IUPAC_CONDENSED>  (325) 
3Pal(2-F,5-Me)

>  <IUPAC>  (325) 
(2S)-2-amino-3-(2-fluoro-5-methylpyridin-3-yl)propanoic acid

>  <TYPE>  (325) 
Backbone

>  <CLASS>  (325) 
alpha

>  <ANALOG>  (325) 
Phe

>  <MOL_WT>  (325) 
198.19699999999997

>  <LOGP>  (325) 
0.4835199999999999

>  <TPSA>  (325) 
76.21

>  <POPULARITY>  (325) 
2.5

>  <PROTECTED>  (325) 
TRUE

>  <SMILES>  (325) 
N[C@@H](Cc1(cc(C)cnc1F))C(=O)O

>  <INCHIKEY>  (325) 
JUCOCSXJVNWPNR-ZETCQYMHSA-N

$$$$
3Pal_2F_6F
     RDKit          2D

 14 14  0  0  0  0  0  0  0  0999 V2000
   -1.7174    1.8436    0.0000 N   0  0  0  0  0  0  0  0  0  0  0  0
   -2.1036    0.3942    0.0000 C   0  0  0  0  0  0  0  0  0  0  0  0
   -1.0414   -0.6650    0.0000 C   0  0  0  0  0  0  0  0  0  0  0  0
    0.4069   -0.2747    0.0000 C   0  0  0  0  0  0  0  0  0  0  0  0
    0.7931    1.1747    0.0000 C   0  0  0  0  0  0  0  0  0  0  0  0
    2.2415    1.5649    0.0000 C   0  0  0  0  0  0  0  0  0  0  0  0
    3.3036    0.5057    0.0000 C   0  0  0  0  0  0  0  0  0  0  0  0
    4.7520    0.8960    0.0000 F   0  0  0  0  0  0  0  0  0  0  0  0
    2.9174   -0.9437    0.0000 N   0  0  0  0  0  0  0  0  0  0  0  0
    1.4691   -1.3339    0.0000 C   0  0  0  0  0  0  0  0  0  0  0  0
    1.0829   -2.7834    0.0000 F   0  0  0  0  0  0  0  0  0  0  0  0
   -3.5519    0.0039    0.0000 C   0  0  0  0  0  0  0  0  0  0  0  0
   -3.9381   -1.4455    0.0000 O   0  0  0  0  0  0  0  0  0  0  0  0
   -4.6140    1.0631    0.0000 O   0  0  0  0  0  0  0  0  0  0  0  0
  2  1  1  1
  2  3  1  0
  3  4  1  0
  4  5  1  0
  5  6  2  0
  6  7  1  0
  7  8  1  0
  7  9  2  0
  9 10  1  0
 10 11  1  0
  2 12  1  0
 12 13  2  0
 12 14  1  0
 10  4  2  0
M  END
>  <rName>  (326) 
3Pal_2F_6F

>  <PQ_SYMBOL>  (326) 
3Pal_2F_6F

>  <FULL_NAME>  (326) 
(S)-2-amino-3-(2,6-difluoropyridin-3-yl)propanoic acid

>  <IUPAC_CONDENSED>  (326) 
3Pal(2-F,6-F)

>  <IUPAC>  (326) 
(2S)-2-amino-3-(2,6-difluoropyridin-3-yl)propanoic acid

>  <TYPE>  (326) 
Backbone

>  <CLASS>  (326) 
alpha

>  <ANALOG>  (326) 
Phe

>  <MOL_WT>  (326) 
202.15999999999997

>  <LOGP>  (326) 
0.3142000000000002

>  <TPSA>  (326) 
76.21

>  <POPULARITY>  (326) 
2.6

>  <PROTECTED>  (326) 
TRUE

>  <SMILES>  (326) 
N[C@@H](Cc1(ccc(F)nc1F))C(=O)O

>  <INCHIKEY>  (326) 
TZTBYBDFDRGXOJ-YFKPBYRVSA-N

$$$$
3Pal_2F_6Me
     RDKit          2D

 14 14  0  0  0  0  0  0  0  0999 V2000
   -1.7174    1.8436    0.0000 N   0  0  0  0  0  0  0  0  0  0  0  0
   -2.1036    0.3942    0.0000 C   0  0  0  0  0  0  0  0  0  0  0  0
   -1.0414   -0.6650    0.0000 C   0  0  0  0  0  0  0  0  0  0  0  0
    0.4069   -0.2747    0.0000 C   0  0  0  0  0  0  0  0  0  0  0  0
    0.7931    1.1747    0.0000 C   0  0  0  0  0  0  0  0  0  0  0  0
    2.2415    1.5649    0.0000 C   0  0  0  0  0  0  0  0  0  0  0  0
    3.3036    0.5057    0.0000 C   0  0  0  0  0  0  0  0  0  0  0  0
    4.7520    0.8960    0.0000 C   0  0  0  0  0  0  0  0  0  0  0  0
    2.9174   -0.9437    0.0000 N   0  0  0  0  0  0  0  0  0  0  0  0
    1.4691   -1.3339    0.0000 C   0  0  0  0  0  0  0  0  0  0  0  0
    1.0829   -2.7834    0.0000 F   0  0  0  0  0  0  0  0  0  0  0  0
   -3.5519    0.0039    0.0000 C   0  0  0  0  0  0  0  0  0  0  0  0
   -3.9381   -1.4455    0.0000 O   0  0  0  0  0  0  0  0  0  0  0  0
   -4.6140    1.0631    0.0000 O   0  0  0  0  0  0  0  0  0  0  0  0
  2  1  1  1
  2  3  1  0
  3  4  1  0
  4  5  1  0
  5  6  2  0
  6  7  1  0
  7  8  1  0
  7  9  2  0
  9 10  1  0
 10 11  1  0
  2 12  1  0
 12 13  2  0
 12 14  1  0
 10  4  2  0
M  END
>  <rName>  (327) 
3Pal_2F_6Me

>  <PQ_SYMBOL>  (327) 
3Pal_2F_6Me

>  <FULL_NAME>  (327) 
(S)-2-amino-3-(2-fluoro-6-methylpyridin-3-yl)propanoic acid

>  <IUPAC_CONDENSED>  (327) 
3Pal(2-F,6-Me)

>  <IUPAC>  (327) 
(2S)-2-amino-3-(2-fluoro-6-methylpyridin-3-yl)propanoic acid

>  <TYPE>  (327) 
Backbone

>  <CLASS>  (327) 
alpha

>  <ANALOG>  (327) 
Phe

>  <MOL_WT>  (327) 
198.19699999999997

>  <LOGP>  (327) 
0.4835199999999999

>  <TPSA>  (327) 
76.21

>  <POPULARITY>  (327) 
2.5

>  <PROTECTED>  (327) 
TRUE

>  <SMILES>  (327) 
N[C@@H](Cc1(ccc(C)nc1F))C(=O)O

>  <INCHIKEY>  (327) 
XWRABTWEQNXYTG-ZETCQYMHSA-N

$$$$
3Pal_2F_6NHAc
     RDKit          2D

 17 17  0  0  0  0  0  0  0  0999 V2000
   -6.2447   -0.3311    0.0000 C   0  0  0  0  0  0  0  0  0  0  0  0
   -4.8174    0.1300    0.0000 C   0  0  0  0  0  0  0  0  0  0  0  0
   -4.5031    1.5967    0.0000 O   0  0  0  0  0  0  0  0  0  0  0  0
   -3.7043   -0.8755    0.0000 N   0  0  0  0  0  0  0  0  0  0  0  0
   -2.2770   -0.4144    0.0000 C   0  0  0  0  0  0  0  0  0  0  0  0
   -1.9627    1.0523    0.0000 C   0  0  0  0  0  0  0  0  0  0  0  0
   -0.5353    1.5134    0.0000 C   0  0  0  0  0  0  0  0  0  0  0  0
    0.5777    0.5079    0.0000 C   0  0  0  0  0  0  0  0  0  0  0  0
    2.0051    0.9690    0.0000 C   0  0  0  0  0  0  0  0  0  0  0  0
    3.1181   -0.0366    0.0000 C   0  0  0  0  0  0  0  0  0  0  0  0
    2.8038   -1.5033    0.0000 N   0  0  0  0  0  0  0  0  0  0  0  0
    4.5455    0.4246    0.0000 C   0  0  0  0  0  0  0  0  0  0  0  0
    4.8598    1.8913    0.0000 O   0  0  0  0  0  0  0  0  0  0  0  0
    5.6585   -0.5810    0.0000 O   0  0  0  0  0  0  0  0  0  0  0  0
    0.2634   -0.9588    0.0000 C   0  0  0  0  0  0  0  0  0  0  0  0
    1.3764   -1.9644    0.0000 F   0  0  0  0  0  0  0  0  0  0  0  0
   -1.1640   -1.4200    0.0000 N   0  0  0  0  0  0  0  0  0  0  0  0
  1  2  1  0
  2  3  2  0
  2  4  1  0
  4  5  1  0
  5  6  1  0
  6  7  2  0
  7  8  1  0
  8  9  1  0
  9 10  1  0
 10 11  1  1
 10 12  1  0
 12 13  2  0
 12 14  1  0
  8 15  2  0
 15 16  1  0
 15 17  1  0
 17  5  2  0
M  END
>  <rName>  (328) 
3Pal_2F_6NHAc

>  <PQ_SYMBOL>  (328) 
3Pal_2F_6NHAc

>  <FULL_NAME>  (328) 
3Pal(2-F,6-NHAc)

>  <IUPAC_CONDENSED>  (328) 
3Pal(2-F,6-NHAc)

>  <IUPAC>  (328) 
(2S)-2-amino-3-(2-fluoro-6-methylcarbonylaminopyridin-3-yl)propanoic acid

>  <TYPE>  (328) 
Backbone

>  <CLASS>  (328) 
alpha

>  <ANALOG>  (328) 
Phe

>  <MOL_WT>  (328) 
241.22199999999998

>  <LOGP>  (328) 
0.13349999999999979

>  <TPSA>  (328) 
105.31

>  <POPULARITY>  (328) 
2.2

>  <PROTECTED>  (328) 
TRUE

>  <SMILES>  (328) 
CC(=O)Nc1ccc(C[C@H](N)C(=O)O)c(F)n1

>  <INCHIKEY>  (328) 
VSFOTTPTEYXKQO-ZETCQYMHSA-N

$$$$
3Pal_2Me_6F
     RDKit          2D

 14 14  0  0  0  0  0  0  0  0999 V2000
   -1.7174    1.8436    0.0000 N   0  0  0  0  0  0  0  0  0  0  0  0
   -2.1036    0.3942    0.0000 C   0  0  0  0  0  0  0  0  0  0  0  0
   -1.0414   -0.6650    0.0000 C   0  0  0  0  0  0  0  0  0  0  0  0
    0.4069   -0.2747    0.0000 C   0  0  0  0  0  0  0  0  0  0  0  0
    0.7931    1.1747    0.0000 C   0  0  0  0  0  0  0  0  0  0  0  0
    2.2415    1.5649    0.0000 C   0  0  0  0  0  0  0  0  0  0  0  0
    3.3036    0.5057    0.0000 C   0  0  0  0  0  0  0  0  0  0  0  0
    4.7520    0.8960    0.0000 F   0  0  0  0  0  0  0  0  0  0  0  0
    2.9174   -0.9437    0.0000 N   0  0  0  0  0  0  0  0  0  0  0  0
    1.4691   -1.3339    0.0000 C   0  0  0  0  0  0  0  0  0  0  0  0
    1.0829   -2.7834    0.0000 C   0  0  0  0  0  0  0  0  0  0  0  0
   -3.5519    0.0039    0.0000 C   0  0  0  0  0  0  0  0  0  0  0  0
   -3.9381   -1.4455    0.0000 O   0  0  0  0  0  0  0  0  0  0  0  0
   -4.6140    1.0631    0.0000 O   0  0  0  0  0  0  0  0  0  0  0  0
  2  1  1  1
  2  3  1  0
  3  4  1  0
  4  5  1  0
  5  6  2  0
  6  7  1  0
  7  8  1  0
  7  9  2  0
  9 10  1  0
 10 11  1  0
  2 12  1  0
 12 13  2  0
 12 14  1  0
 10  4  2  0
M  END
>  <rName>  (329) 
3Pal_2Me_6F

>  <PQ_SYMBOL>  (329) 
3Pal_2Me_6F

>  <FULL_NAME>  (329) 
(S)-2-amino-3-(6-fluoro-2-methylpyridin-3-yl)propanoic acid

>  <IUPAC_CONDENSED>  (329) 
3Pal(2-Me,6-F)

>  <IUPAC>  (329) 
(2S)-2-amino-3-(6-fluoro-2-methylpyridin-3-yl)propanoic acid

>  <TYPE>  (329) 
Backbone

>  <CLASS>  (329) 
alpha

>  <ANALOG>  (329) 
Phe

>  <MOL_WT>  (329) 
198.19699999999997

>  <LOGP>  (329) 
0.4835199999999999

>  <TPSA>  (329) 
76.21

>  <POPULARITY>  (329) 
2.4

>  <PROTECTED>  (329) 
TRUE

>  <SMILES>  (329) 
N[C@@H](Cc1(ccc(F)nc1C))C(=O)O

>  <INCHIKEY>  (329) 
XNAWFZLBPKWJPO-ZETCQYMHSA-N

$$$$
3Pal_2Me_6OH
     RDKit          2D

 14 14  0  0  0  0  0  0  0  0999 V2000
   -1.7174    1.8436    0.0000 N   0  0  0  0  0  0  0  0  0  0  0  0
   -2.1036    0.3942    0.0000 C   0  0  0  0  0  0  0  0  0  0  0  0
   -1.0414   -0.6650    0.0000 C   0  0  0  0  0  0  0  0  0  0  0  0
    0.4069   -0.2747    0.0000 C   0  0  0  0  0  0  0  0  0  0  0  0
    0.7931    1.1747    0.0000 C   0  0  0  0  0  0  0  0  0  0  0  0
    2.2415    1.5649    0.0000 C   0  0  0  0  0  0  0  0  0  0  0  0
    3.3036    0.5057    0.0000 C   0  0  0  0  0  0  0  0  0  0  0  0
    4.7520    0.8960    0.0000 O   0  0  0  0  0  0  0  0  0  0  0  0
    2.9174   -0.9437    0.0000 N   0  0  0  0  0  0  0  0  0  0  0  0
    1.4691   -1.3339    0.0000 C   0  0  0  0  0  0  0  0  0  0  0  0
    1.0829   -2.7834    0.0000 C   0  0  0  0  0  0  0  0  0  0  0  0
   -3.5519    0.0039    0.0000 C   0  0  0  0  0  0  0  0  0  0  0  0
   -3.9381   -1.4455    0.0000 O   0  0  0  0  0  0  0  0  0  0  0  0
   -4.6140    1.0631    0.0000 O   0  0  0  0  0  0  0  0  0  0  0  0
  2  1  1  1
  2  3  1  0
  3  4  1  0
  4  5  1  0
  5  6  2  0
  6  7  1  0
  7  8  1  0
  7  9  2  0
  9 10  1  0
 10 11  1  0
  2 12  1  0
 12 13  2  0
 12 14  1  0
 10  4  2  0
M  END
>  <rName>  (330) 
3Pal_2Me_6OH

>  <PQ_SYMBOL>  (330) 
3Pal_2Me_6OH

>  <FULL_NAME>  (330) 
(S)-2-amino-3-(6-hydroxy-2-methylpyridin-3-yl)propanoic acid

>  <IUPAC_CONDENSED>  (330) 
3Pal(2-Me,6-OH)

>  <IUPAC>  (330) 
(2S)-2-amino-3-(6-hydroxy-2-methylpyridin-3-yl)propanoic acid

>  <TYPE>  (330) 
Backbone

>  <CLASS>  (330) 
alpha

>  <ANALOG>  (330) 
Phe

>  <MOL_WT>  (330) 
196.20599999999996

>  <LOGP>  (330) 
0.0500199999999999

>  <TPSA>  (330) 
96.44000000000001

>  <POPULARITY>  (330) 
2.4

>  <PROTECTED>  (330) 
TRUE

>  <SMILES>  (330) 
N[C@@H](Cc1(ccc(O)nc1C))C(=O)O

>  <INCHIKEY>  (330) 
CMDYBSHHTRYQFQ-ZETCQYMHSA-N

$$$$
3Pal_2NH2_6Me
     RDKit          2D

 14 14  0  0  0  0  0  0  0  0999 V2000
   -1.7174    1.8436    0.0000 N   0  0  0  0  0  0  0  0  0  0  0  0
   -2.1036    0.3942    0.0000 C   0  0  0  0  0  0  0  0  0  0  0  0
   -1.0414   -0.6650    0.0000 C   0  0  0  0  0  0  0  0  0  0  0  0
    0.4069   -0.2747    0.0000 C   0  0  0  0  0  0  0  0  0  0  0  0
    0.7931    1.1747    0.0000 C   0  0  0  0  0  0  0  0  0  0  0  0
    2.2415    1.5649    0.0000 C   0  0  0  0  0  0  0  0  0  0  0  0
    3.3036    0.5057    0.0000 C   0  0  0  0  0  0  0  0  0  0  0  0
    4.7520    0.8960    0.0000 C   0  0  0  0  0  0  0  0  0  0  0  0
    2.9174   -0.9437    0.0000 N   0  0  0  0  0  0  0  0  0  0  0  0
    1.4691   -1.3339    0.0000 C   0  0  0  0  0  0  0  0  0  0  0  0
    1.0829   -2.7834    0.0000 N   0  0  0  0  0  0  0  0  0  0  0  0
   -3.5519    0.0039    0.0000 C   0  0  0  0  0  0  0  0  0  0  0  0
   -3.9381   -1.4455    0.0000 O   0  0  0  0  0  0  0  0  0  0  0  0
   -4.6140    1.0631    0.0000 O   0  0  0  0  0  0  0  0  0  0  0  0
  2  1  1  1
  2  3  1  0
  3  4  1  0
  4  5  1  0
  5  6  2  0
  6  7  1  0
  7  8  1  0
  7  9  2  0
  9 10  1  0
 10 11  1  0
  2 12  1  0
 12 13  2  0
 12 14  1  0
 10  4  2  0
M  END
>  <rName>  (331) 
3Pal_2NH2_6Me

>  <PQ_SYMBOL>  (331) 
3Pal_2NH2_6Me

>  <FULL_NAME>  (331) 
(S)-2-amino-3-(2-amino-6-methylpyridin-3-yl)propanoic acid

>  <IUPAC_CONDENSED>  (331) 
3Pal(2-NH2,6-Me)

>  <IUPAC>  (331) 
(2S)-2-amino-3-(2-amino-6-methylpyridin-3-yl)propanoic acid

>  <TYPE>  (331) 
Backbone

>  <CLASS>  (331) 
alpha

>  <ANALOG>  (331) 
Phe

>  <MOL_WT>  (331) 
195.22199999999998

>  <LOGP>  (331) 
-0.07338000000000022

>  <TPSA>  (331) 
102.23

>  <POPULARITY>  (331) 
2.8

>  <PROTECTED>  (331) 
TRUE

>  <SMILES>  (331) 
N[C@@H](Cc1(ccc(C)nc1N))C(=O)O

>  <INCHIKEY>  (331) 
SFNFZBURFTYTJX-ZETCQYMHSA-N

$$$$
3Pal_2OEt
     RDKit          2D

 15 15  0  0  0  0  0  0  0  0999 V2000
   -2.5806    1.5526    0.0000 N   0  0  0  0  0  0  0  0  0  0  0  0
   -2.3052    0.0781    0.0000 C   0  0  0  0  0  0  0  0  0  0  0  0
   -0.8905   -0.4207    0.0000 C   0  0  0  0  0  0  0  0  0  0  0  0
    0.2487    0.5551    0.0000 C   0  0  0  0  0  0  0  0  0  0  0  0
   -0.0267    2.0296    0.0000 C   0  0  0  0  0  0  0  0  0  0  0  0
    1.1126    3.0054    0.0000 C   0  0  0  0  0  0  0  0  0  0  0  0
    2.5272    2.5066    0.0000 C   0  0  0  0  0  0  0  0  0  0  0  0
    2.8026    1.0321    0.0000 N   0  0  0  0  0  0  0  0  0  0  0  0
    1.6634    0.0564    0.0000 C   0  0  0  0  0  0  0  0  0  0  0  0
    1.9388   -1.4181    0.0000 O   0  0  0  0  0  0  0  0  0  0  0  0
    3.3534   -1.9169    0.0000 C   0  0  0  0  0  0  0  0  0  0  0  0
    3.6288   -3.3914    0.0000 C   0  0  0  0  0  0  0  0  0  0  0  0
   -3.4444   -0.8977    0.0000 C   0  0  0  0  0  0  0  0  0  0  0  0
   -3.1690   -2.3722    0.0000 O   0  0  0  0  0  0  0  0  0  0  0  0
   -4.8591   -0.3989    0.0000 O   0  0  0  0  0  0  0  0  0  0  0  0
  2  1  1  1
  2  3  1  0
  3  4  1  0
  4  5  2  0
  5  6  1  0
  6  7  2  0
  7  8  1  0
  8  9  2  0
  9 10  1  0
 10 11  1  0
 11 12  1  0
  2 13  1  0
 13 14  2  0
 13 15  1  0
  9  4  1  0
M  END
>  <rName>  (332) 
3Pal_2OEt

>  <PQ_SYMBOL>  (332) 
3Pal_2OEt

>  <FULL_NAME>  (332) 
(S)-2-amino-3-(2-ethoxypyridin-3-yl)propanoic acid

>  <IUPAC_CONDENSED>  (332) 
3Pal(2-OEt)

>  <IUPAC>  (332) 
(2S)-2-amino-3-(2-ethoxypyridin-3-yl)propanoic acid

>  <TYPE>  (332) 
Backbone

>  <CLASS>  (332) 
alpha

>  <ANALOG>  (332) 
Phe

>  <MOL_WT>  (332) 
210.23299999999995

>  <LOGP>  (332) 
0.43470000000000003

>  <TPSA>  (332) 
85.44000000000001

>  <POPULARITY>  (332) 
3.0

>  <PROTECTED>  (332) 
TRUE

>  <SMILES>  (332) 
N[C@@H](Cc1(cccnc1OCC))C(=O)O

>  <INCHIKEY>  (332) 
RNUZXEHMUPMDOG-QMMMGPOBSA-N

$$$$
3Pal_2OPr
     RDKit          2D

 16 16  0  0  0  0  0  0  0  0999 V2000
   -3.2504    1.0225    0.0000 N   0  0  0  0  0  0  0  0  0  0  0  0
   -2.6183   -0.3379    0.0000 C   0  0  0  0  0  0  0  0  0  0  0  0
   -1.1242   -0.4706    0.0000 C   0  0  0  0  0  0  0  0  0  0  0  0
   -0.2621    0.7569    0.0000 C   0  0  0  0  0  0  0  0  0  0  0  0
   -0.8942    2.1172    0.0000 C   0  0  0  0  0  0  0  0  0  0  0  0
   -0.0321    3.3448    0.0000 C   0  0  0  0  0  0  0  0  0  0  0  0
    1.4620    3.2120    0.0000 C   0  0  0  0  0  0  0  0  0  0  0  0
    2.0940    1.8516    0.0000 N   0  0  0  0  0  0  0  0  0  0  0  0
    1.2320    0.6241    0.0000 C   0  0  0  0  0  0  0  0  0  0  0  0
    1.8640   -0.7362    0.0000 O   0  0  0  0  0  0  0  0  0  0  0  0
    3.3581   -0.8690    0.0000 C   0  0  0  0  0  0  0  0  0  0  0  0
    3.9902   -2.2294    0.0000 C   0  0  0  0  0  0  0  0  0  0  0  0
    5.4843   -2.3622    0.0000 C   0  0  0  0  0  0  0  0  0  0  0  0
   -3.4804   -1.5654    0.0000 C   0  0  0  0  0  0  0  0  0  0  0  0
   -2.8483   -2.9257    0.0000 O   0  0  0  0  0  0  0  0  0  0  0  0
   -4.9745   -1.4326    0.0000 O   0  0  0  0  0  0  0  0  0  0  0  0
  2  1  1  1
  2  3  1  0
  3  4  1  0
  4  5  2  0
  5  6  1  0
  6  7  2  0
  7  8  1  0
  8  9  2  0
  9 10  1  0
 10 11  1  0
 11 12  1  0
 12 13  1  0
  2 14  1  0
 14 15  2  0
 14 16  1  0
  9  4  1  0
M  END
>  <rName>  (333) 
3Pal_2OPr

>  <PQ_SYMBOL>  (333) 
3Pal_2OPr

>  <FULL_NAME>  (333) 
(S)-2-amino-3-(2-propoxypyridin-3-yl)propanoic acid

>  <IUPAC_CONDENSED>  (333) 
3Pal(2-OPr)

>  <IUPAC>  (333) 
(2S)-2-amino-3-(2-propoxypyridin-3-yl)propanoic acid

>  <TYPE>  (333) 
Backbone

>  <CLASS>  (333) 
alpha

>  <ANALOG>  (333) 
Phe

>  <MOL_WT>  (333) 
224.25999999999993

>  <LOGP>  (333) 
0.8248

>  <TPSA>  (333) 
85.44000000000001

>  <POPULARITY>  (333) 
2.9

>  <PROTECTED>  (333) 
TRUE

>  <SMILES>  (333) 
N[C@@H](Cc1(cccnc1OCCC))C(=O)O

>  <INCHIKEY>  (333) 
BUTDKPQQVPOQEL-VIFPVBQESA-N

$$$$
3Pal_4CO2H
     RDKit          2D

 15 15  0  0  0  0  0  0  0  0999 V2000
   -2.0511    1.9295    0.0000 N   0  0  0  0  0  0  0  0  0  0  0  0
   -2.0725    0.4296    0.0000 C   0  0  0  0  0  0  0  0  0  0  0  0
   -0.7843   -0.3388    0.0000 C   0  0  0  0  0  0  0  0  0  0  0  0
    0.5253    0.3925    0.0000 C   0  0  0  0  0  0  0  0  0  0  0  0
    0.5467    1.8924    0.0000 C   0  0  0  0  0  0  0  0  0  0  0  0
    1.8563    2.6238    0.0000 N   0  0  0  0  0  0  0  0  0  0  0  0
    3.1445    1.8553    0.0000 C   0  0  0  0  0  0  0  0  0  0  0  0
    3.1231    0.3555    0.0000 C   0  0  0  0  0  0  0  0  0  0  0  0
    1.8135   -0.3759    0.0000 C   0  0  0  0  0  0  0  0  0  0  0  0
    1.7921   -1.8758    0.0000 C   0  0  0  0  0  0  0  0  0  0  0  0
    0.4825   -2.6072    0.0000 O   0  0  0  0  0  0  0  0  0  0  0  0
    3.0803   -2.6442    0.0000 O   0  0  0  0  0  0  0  0  0  0  0  0
   -3.3821   -0.3018    0.0000 C   0  0  0  0  0  0  0  0  0  0  0  0
   -3.4036   -1.8016    0.0000 O   0  0  0  0  0  0  0  0  0  0  0  0
   -4.6704    0.4667    0.0000 O   0  0  0  0  0  0  0  0  0  0  0  0
  2  1  1  1
  2  3  1  0
  3  4  1  0
  4  5  1  0
  5  6  2  0
  6  7  1  0
  7  8  2  0
  8  9  1  0
  9 10  1  0
 10 11  2  0
 10 12  1  0
  2 13  1  0
 13 14  2  0
 13 15  1  0
  9  4  2  0
M  END
>  <rName>  (334) 
3Pal_4CO2H

>  <PQ_SYMBOL>  (334) 
3Pal_4CO2H

>  <FULL_NAME>  (334) 
(S)-3-(2-amino-2-carboxyethyl)isonicotinic acid

>  <IUPAC_CONDENSED>  (334) 
3Pal(4-CO2H)

>  <IUPAC>  (334) 
3-((2S)-2-amino-3-hydroxy-3-oxopropyl)pyridine-4-carboxylic acid

>  <TYPE>  (334) 
Backbone

>  <CLASS>  (334) 
alpha

>  <ANALOG>  (334) 
Phe

>  <MOL_WT>  (334) 
210.18899999999996

>  <LOGP>  (334) 
-0.2658000000000001

>  <TPSA>  (334) 
113.51

>  <POPULARITY>  (334) 
2.5

>  <PROTECTED>  (334) 
TRUE

>  <SMILES>  (334) 
N[C@@H](Cc1(cnccc1C(=O)O))C(=O)O

>  <INCHIKEY>  (334) 
DZARCKLHJFEXDG-ZETCQYMHSA-N

$$$$
3Pal_4Me_6Cl
     RDKit          2D

 14 14  0  0  0  0  0  0  0  0999 V2000
   -1.7174    1.8436    0.0000 N   0  0  0  0  0  0  0  0  0  0  0  0
   -2.1036    0.3942    0.0000 C   0  0  0  0  0  0  0  0  0  0  0  0
   -1.0414   -0.6650    0.0000 C   0  0  0  0  0  0  0  0  0  0  0  0
    0.4069   -0.2747    0.0000 C   0  0  0  0  0  0  0  0  0  0  0  0
    0.7931    1.1747    0.0000 C   0  0  0  0  0  0  0  0  0  0  0  0
    2.2415    1.5649    0.0000 N   0  0  0  0  0  0  0  0  0  0  0  0
    3.3036    0.5057    0.0000 C   0  0  0  0  0  0  0  0  0  0  0  0
    4.7520    0.8960    0.0000 Cl  0  0  0  0  0  0  0  0  0  0  0  0
    2.9174   -0.9437    0.0000 C   0  0  0  0  0  0  0  0  0  0  0  0
    1.4691   -1.3339    0.0000 C   0  0  0  0  0  0  0  0  0  0  0  0
    1.0829   -2.7834    0.0000 C   0  0  0  0  0  0  0  0  0  0  0  0
   -3.5519    0.0039    0.0000 C   0  0  0  0  0  0  0  0  0  0  0  0
   -3.9381   -1.4455    0.0000 O   0  0  0  0  0  0  0  0  0  0  0  0
   -4.6140    1.0631    0.0000 O   0  0  0  0  0  0  0  0  0  0  0  0
  2  1  1  1
  2  3  1  0
  3  4  1  0
  4  5  1  0
  5  6  2  0
  6  7  1  0
  7  8  1  0
  7  9  2  0
  9 10  1  0
 10 11  1  0
  2 12  1  0
 12 13  2  0
 12 14  1  0
 10  4  2  0
M  END
>  <rName>  (335) 
3Pal_4Me_6Cl

>  <PQ_SYMBOL>  (335) 
3Pal_4Me_6Cl

>  <FULL_NAME>  (335) 
(S)-2-amino-3-(6-chloro-4-methylpyridin-3-yl)propanoic acid

>  <IUPAC_CONDENSED>  (335) 
3Pal(4-Me,6-Cl)

>  <IUPAC>  (335) 
(2S)-2-amino-3-(6-chloro-4-methylpyridin-3-yl)propanoic acid

>  <TYPE>  (335) 
Backbone

>  <CLASS>  (335) 
alpha

>  <ANALOG>  (335) 
Phe

>  <MOL_WT>  (335) 
214.652

>  <LOGP>  (335) 
0.9978200000000002

>  <TPSA>  (335) 
76.21

>  <POPULARITY>  (335) 
2.5

>  <PROTECTED>  (335) 
TRUE

>  <SMILES>  (335) 
N[C@@H](Cc1(cnc(Cl)cc1C))C(=O)O

>  <INCHIKEY>  (335) 
KJEOBTTUTHGNBY-ZETCQYMHSA-N

$$$$
3Pal_4Me_6F
     RDKit          2D

 14 14  0  0  0  0  0  0  0  0999 V2000
   -1.7174    1.8436    0.0000 N   0  0  0  0  0  0  0  0  0  0  0  0
   -2.1036    0.3942    0.0000 C   0  0  0  0  0  0  0  0  0  0  0  0
   -1.0414   -0.6650    0.0000 C   0  0  0  0  0  0  0  0  0  0  0  0
    0.4069   -0.2747    0.0000 C   0  0  0  0  0  0  0  0  0  0  0  0
    0.7931    1.1747    0.0000 C   0  0  0  0  0  0  0  0  0  0  0  0
    2.2415    1.5649    0.0000 N   0  0  0  0  0  0  0  0  0  0  0  0
    3.3036    0.5057    0.0000 C   0  0  0  0  0  0  0  0  0  0  0  0
    4.7520    0.8960    0.0000 F   0  0  0  0  0  0  0  0  0  0  0  0
    2.9174   -0.9437    0.0000 C   0  0  0  0  0  0  0  0  0  0  0  0
    1.4691   -1.3339    0.0000 C   0  0  0  0  0  0  0  0  0  0  0  0
    1.0829   -2.7834    0.0000 C   0  0  0  0  0  0  0  0  0  0  0  0
   -3.5519    0.0039    0.0000 C   0  0  0  0  0  0  0  0  0  0  0  0
   -3.9381   -1.4455    0.0000 O   0  0  0  0  0  0  0  0  0  0  0  0
   -4.6140    1.0631    0.0000 O   0  0  0  0  0  0  0  0  0  0  0  0
  2  1  1  1
  2  3  1  0
  3  4  1  0
  4  5  1  0
  5  6  2  0
  6  7  1  0
  7  8  1  0
  7  9  2  0
  9 10  1  0
 10 11  1  0
  2 12  1  0
 12 13  2  0
 12 14  1  0
 10  4  2  0
M  END
>  <rName>  (336) 
3Pal_4Me_6F

>  <PQ_SYMBOL>  (336) 
3Pal_4Me_6F

>  <FULL_NAME>  (336) 
(S)-2-amino-3-(6-fluoro-4-methylpyridin-3-yl)propanoic acid

>  <IUPAC_CONDENSED>  (336) 
3Pal(4-Me,6-F)

>  <IUPAC>  (336) 
(2S)-2-amino-3-(6-fluoro-4-methylpyridin-3-yl)propanoic acid

>  <TYPE>  (336) 
Backbone

>  <CLASS>  (336) 
alpha

>  <ANALOG>  (336) 
Phe

>  <MOL_WT>  (336) 
198.19699999999997

>  <LOGP>  (336) 
0.4835199999999999

>  <TPSA>  (336) 
76.21

>  <POPULARITY>  (336) 
2.5

>  <PROTECTED>  (336) 
TRUE

>  <SMILES>  (336) 
N[C@@H](Cc1(cnc(F)cc1C))C(=O)O

>  <INCHIKEY>  (336) 
SVTDNBYIJVNHDP-ZETCQYMHSA-N

$$$$
3Pal_4NH2
     RDKit          2D

 13 13  0  0  0  0  0  0  0  0999 V2000
   -1.4864    1.8099    0.0000 N   0  0  0  0  0  0  0  0  0  0  0  0
   -1.7669    0.3364    0.0000 C   0  0  0  0  0  0  0  0  0  0  0  0
   -0.6311   -0.6433    0.0000 C   0  0  0  0  0  0  0  0  0  0  0  0
    0.7853   -0.1495    0.0000 C   0  0  0  0  0  0  0  0  0  0  0  0
    1.0658    1.3241    0.0000 C   0  0  0  0  0  0  0  0  0  0  0  0
    2.4822    1.8179    0.0000 N   0  0  0  0  0  0  0  0  0  0  0  0
    3.6181    0.8382    0.0000 C   0  0  0  0  0  0  0  0  0  0  0  0
    3.3376   -0.6353    0.0000 C   0  0  0  0  0  0  0  0  0  0  0  0
    1.9212   -1.1292    0.0000 C   0  0  0  0  0  0  0  0  0  0  0  0
    1.6407   -2.6027    0.0000 N   0  0  0  0  0  0  0  0  0  0  0  0
   -3.1833   -0.1575    0.0000 C   0  0  0  0  0  0  0  0  0  0  0  0
   -3.4638   -1.6310    0.0000 O   0  0  0  0  0  0  0  0  0  0  0  0
   -4.3192    0.8222    0.0000 O   0  0  0  0  0  0  0  0  0  0  0  0
  2  1  1  1
  2  3  1  0
  3  4  1  0
  4  5  1  0
  5  6  2  0
  6  7  1  0
  7  8  2  0
  8  9  1  0
  9 10  1  0
  2 11  1  0
 11 12  2  0
 11 13  1  0
  9  4  2  0
M  END
>  <rName>  (337) 
3Pal_4NH2

>  <PQ_SYMBOL>  (337) 
3Pal_4NH2

>  <FULL_NAME>  (337) 
(S)-2-amino-3-(4-aminopyridin-3-yl)propanoic acid

>  <IUPAC_CONDENSED>  (337) 
3Pal(4-NH2)

>  <IUPAC>  (337) 
(2S)-2-amino-3-(4-aminopyridin-3-yl)propanoic acid

>  <TYPE>  (337) 
Backbone

>  <CLASS>  (337) 
alpha

>  <ANALOG>  (337) 
Phe

>  <MOL_WT>  (337) 
181.19499999999996

>  <LOGP>  (337) 
-0.3818000000000002

>  <TPSA>  (337) 
102.23

>  <POPULARITY>  (337) 
3.4

>  <PROTECTED>  (337) 
TRUE

>  <SMILES>  (337) 
N[C@@H](Cc1(cnccc1N))C(=O)O

>  <INCHIKEY>  (337) 
MAKIXRNAHYESGF-ZETCQYMHSA-N

$$$$
3Pal_5CF3_6NH2
     RDKit          2D

 17 17  0  0  0  0  0  0  0  0999 V2000
   -3.0426    1.6364    0.0000 N   0  0  0  0  0  0  0  0  0  0  0  0
   -3.1302    0.1389    0.0000 C   0  0  0  0  0  0  0  0  0  0  0  0
   -1.8772   -0.6857    0.0000 C   0  0  0  0  0  0  0  0  0  0  0  0
   -0.5366   -0.0128    0.0000 C   0  0  0  0  0  0  0  0  0  0  0  0
   -0.4490    1.4846    0.0000 C   0  0  0  0  0  0  0  0  0  0  0  0
    0.8917    2.1575    0.0000 N   0  0  0  0  0  0  0  0  0  0  0  0
    2.1447    1.3329    0.0000 C   0  0  0  0  0  0  0  0  0  0  0  0
    3.4853    2.0058    0.0000 N   0  0  0  0  0  0  0  0  0  0  0  0
    2.0571   -0.1645    0.0000 C   0  0  0  0  0  0  0  0  0  0  0  0
    0.7165   -0.8374    0.0000 C   0  0  0  0  0  0  0  0  0  0  0  0
    3.3101   -0.9891    0.0000 C   0  0  0  0  0  0  0  0  0  0  0  0
    4.5631   -1.8137    0.0000 F   0  0  0  0  0  0  0  0  0  0  0  0
    2.4855   -2.2421    0.0000 F   0  0  0  0  0  0  0  0  0  0  0  0
    4.1347    0.2639    0.0000 F   0  0  0  0  0  0  0  0  0  0  0  0
   -4.4708   -0.5339    0.0000 C   0  0  0  0  0  0  0  0  0  0  0  0
   -4.5584   -2.0314    0.0000 O   0  0  0  0  0  0  0  0  0  0  0  0
   -5.7238    0.2906    0.0000 O   0  0  0  0  0  0  0  0  0  0  0  0
  2  1  1  1
  2  3  1  0
  3  4  1  0
  4  5  1  0
  5  6  2  0
  6  7  1  0
  7  8  1  0
  7  9  2  0
  9 10  1  0
  9 11  1  0
 11 12  1  0
 11 13  1  0
 11 14  1  0
  2 15  1  0
 15 16  2  0
 15 17  1  0
 10  4  2  0
M  END
>  <rName>  (338) 
3Pal_5CF3_6NH2

>  <PQ_SYMBOL>  (338) 
3Pal_5CF3_6NH2

>  <FULL_NAME>  (338) 
(S)-2-amino-3-(6-amino-5-(trifluoromethyl)pyridin-3-yl)propanoic acid

>  <IUPAC_CONDENSED>  (338) 
3Pal(5-CF3,6-NH2)

>  <IUPAC>  (338) 
(2S)-2-amino-3-(6-amino-5-(trifluoromethyl)pyridin-3-yl)propanoic acid

>  <TYPE>  (338) 
Backbone

>  <CLASS>  (338) 
alpha

>  <ANALOG>  (338) 
Phe

>  <MOL_WT>  (338) 
249.19199999999998

>  <LOGP>  (338) 
0.6369999999999998

>  <TPSA>  (338) 
102.23

>  <POPULARITY>  (338) 
2.2

>  <PROTECTED>  (338) 
TRUE

>  <SMILES>  (338) 
N[C@@H](Cc1(cnc(N)c(c1)C(F)(F)F))C(=O)O

>  <INCHIKEY>  (338) 
GNXRYQKCEPVNQC-LURJTMIESA-N

$$$$
3Pal_5CN_6OMe
     RDKit          2D

 16 16  0  0  0  0  0  0  0  0999 V2000
   -2.6466    1.6745    0.0000 N   0  0  0  0  0  0  0  0  0  0  0  0
   -2.9398    0.2035    0.0000 C   0  0  0  0  0  0  0  0  0  0  0  0
   -1.8124   -0.7859    0.0000 C   0  0  0  0  0  0  0  0  0  0  0  0
   -0.3918   -0.3043    0.0000 C   0  0  0  0  0  0  0  0  0  0  0  0
   -0.0986    1.1668    0.0000 C   0  0  0  0  0  0  0  0  0  0  0  0
    1.3219    1.6484    0.0000 N   0  0  0  0  0  0  0  0  0  0  0  0
    2.4493    0.6590    0.0000 C   0  0  0  0  0  0  0  0  0  0  0  0
    3.8699    1.1407    0.0000 O   0  0  0  0  0  0  0  0  0  0  0  0
    4.1631    2.6117    0.0000 C   0  0  0  0  0  0  0  0  0  0  0  0
    2.1562   -0.8121    0.0000 C   0  0  0  0  0  0  0  0  0  0  0  0
    3.2836   -1.8015    0.0000 C   0  0  0  0  0  0  0  0  0  0  0  0
    4.4110   -2.7909    0.0000 N   0  0  0  0  0  0  0  0  0  0  0  0
    0.7356   -1.2937    0.0000 C   0  0  0  0  0  0  0  0  0  0  0  0
   -4.3603   -0.2782    0.0000 C   0  0  0  0  0  0  0  0  0  0  0  0
   -4.6535   -1.7492    0.0000 O   0  0  0  0  0  0  0  0  0  0  0  0
   -5.4877    0.7112    0.0000 O   0  0  0  0  0  0  0  0  0  0  0  0
  2  1  1  1
  2  3  1  0
  3  4  1  0
  4  5  1  0
  5  6  2  0
  6  7  1  0
  7  8  1  0
  8  9  1  0
  7 10  2  0
 10 11  1  0
 11 12  3  0
 10 13  1  0
  2 14  1  0
 14 15  2  0
 14 16  1  0
 13  4  2  0
M  END
>  <rName>  (339) 
3Pal_5CN_6OMe

>  <PQ_SYMBOL>  (339) 
3Pal_5CN_6OMe

>  <FULL_NAME>  (339) 
(S)-2-amino-3-(5-cyano-6-methoxypyridin-3-yl)propanoic acid

>  <IUPAC_CONDENSED>  (339) 
3Pal(5-CN,6-OMe)

>  <IUPAC>  (339) 
(2S)-2-amino-3-(6-methoxy-5-(nitrilomethyl)pyridin-3-yl)propanoic acid

>  <TYPE>  (339) 
Backbone

>  <CLASS>  (339) 
alpha

>  <ANALOG>  (339) 
Phe

>  <MOL_WT>  (339) 
221.21599999999998

>  <LOGP>  (339) 
-0.08372000000000007

>  <TPSA>  (339) 
109.23

>  <POPULARITY>  (339) 
2.2

>  <PROTECTED>  (339) 
TRUE

>  <SMILES>  (339) 
N[C@@H](Cc1(cnc(OC)c(C#N)c1))C(=O)O

>  <INCHIKEY>  (339) 
VUBMAFIAVNEGMY-QMMMGPOBSA-N

$$$$
3Pal_5CO2H
     RDKit          2D

 15 15  0  0  0  0  0  0  0  0999 V2000
   -2.6461    1.6149    0.0000 N   0  0  0  0  0  0  0  0  0  0  0  0
   -2.6827    0.1154    0.0000 C   0  0  0  0  0  0  0  0  0  0  0  0
   -1.4023   -0.6660    0.0000 C   0  0  0  0  0  0  0  0  0  0  0  0
   -0.0854    0.0521    0.0000 C   0  0  0  0  0  0  0  0  0  0  0  0
   -0.0488    1.5516    0.0000 C   0  0  0  0  0  0  0  0  0  0  0  0
    1.2681    2.2698    0.0000 N   0  0  0  0  0  0  0  0  0  0  0  0
    2.5485    1.4884    0.0000 C   0  0  0  0  0  0  0  0  0  0  0  0
    2.5119   -0.0112    0.0000 C   0  0  0  0  0  0  0  0  0  0  0  0
    1.1950   -0.7293    0.0000 C   0  0  0  0  0  0  0  0  0  0  0  0
    3.7923   -0.7926    0.0000 C   0  0  0  0  0  0  0  0  0  0  0  0
    5.1093   -0.0745    0.0000 O   0  0  0  0  0  0  0  0  0  0  0  0
    3.7558   -2.2922    0.0000 O   0  0  0  0  0  0  0  0  0  0  0  0
   -3.9996   -0.6028    0.0000 C   0  0  0  0  0  0  0  0  0  0  0  0
   -4.0361   -2.1023    0.0000 O   0  0  0  0  0  0  0  0  0  0  0  0
   -5.2800    0.1787    0.0000 O   0  0  0  0  0  0  0  0  0  0  0  0
  2  1  1  1
  2  3  1  0
  3  4  1  0
  4  5  1  0
  5  6  2  0
  6  7  1  0
  7  8  2  0
  8  9  1  0
  8 10  1  0
 10 11  2  0
 10 12  1  0
  2 13  1  0
 13 14  2  0
 13 15  1  0
  9  4  2  0
M  END
>  <rName>  (340) 
3Pal_5CO2H

>  <PQ_SYMBOL>  (340) 
3Pal_5CO2H

>  <FULL_NAME>  (340) 
(S)-5-(2-amino-2-carboxyethyl)nicotinic acid

>  <IUPAC_CONDENSED>  (340) 
3Pal(5-CO2H)

>  <IUPAC>  (340) 
5-((2S)-2-amino-3-hydroxy-3-oxopropyl)pyridine-3-carboxylic acid

>  <TYPE>  (340) 
Backbone

>  <CLASS>  (340) 
alpha

>  <ANALOG>  (340) 
Phe

>  <MOL_WT>  (340) 
210.18899999999996

>  <LOGP>  (340) 
-0.26580000000000054

>  <TPSA>  (340) 
113.51

>  <POPULARITY>  (340) 
2.7

>  <PROTECTED>  (340) 
TRUE

>  <SMILES>  (340) 
N[C@@H](Cc1(cncc(c1)C(=O)O))C(=O)O

>  <INCHIKEY>  (340) 
DDHAKORAIDBOED-ZETCQYMHSA-N

$$$$
3Pal_5CO2H_6OMe
     RDKit          2D

 17 17  0  0  0  0  0  0  0  0999 V2000
   -2.8817    1.7117    0.0000 N   0  0  0  0  0  0  0  0  0  0  0  0
   -3.1394    0.2340    0.0000 C   0  0  0  0  0  0  0  0  0  0  0  0
   -1.9886   -0.7280    0.0000 C   0  0  0  0  0  0  0  0  0  0  0  0
   -0.5800   -0.2123    0.0000 C   0  0  0  0  0  0  0  0  0  0  0  0
   -0.3223    1.2654    0.0000 C   0  0  0  0  0  0  0  0  0  0  0  0
    1.0863    1.7810    0.0000 N   0  0  0  0  0  0  0  0  0  0  0  0
    2.2372    0.8190    0.0000 C   0  0  0  0  0  0  0  0  0  0  0  0
    3.6457    1.3347    0.0000 O   0  0  0  0  0  0  0  0  0  0  0  0
    3.9034    2.8123    0.0000 C   0  0  0  0  0  0  0  0  0  0  0  0
    1.9794   -0.6587    0.0000 C   0  0  0  0  0  0  0  0  0  0  0  0
    0.5709   -1.1744    0.0000 C   0  0  0  0  0  0  0  0  0  0  0  0
    3.1303   -1.6207    0.0000 C   0  0  0  0  0  0  0  0  0  0  0  0
    4.5389   -1.1051    0.0000 O   0  0  0  0  0  0  0  0  0  0  0  0
    2.8726   -3.0984    0.0000 O   0  0  0  0  0  0  0  0  0  0  0  0
   -4.5480   -0.2816    0.0000 C   0  0  0  0  0  0  0  0  0  0  0  0
   -4.8057   -1.7593    0.0000 O   0  0  0  0  0  0  0  0  0  0  0  0
   -5.6989    0.6804    0.0000 O   0  0  0  0  0  0  0  0  0  0  0  0
  2  1  1  1
  2  3  1  0
  3  4  1  0
  4  5  1  0
  5  6  2  0
  6  7  1  0
  7  8  1  0
  8  9  1  0
  7 10  2  0
 10 11  1  0
 10 12  1  0
 12 13  2  0
 12 14  1  0
  2 15  1  0
 15 16  2  0
 15 17  1  0
 11  4  2  0
M  END
>  <rName>  (341) 
3Pal_5CO2H_6OMe

>  <PQ_SYMBOL>  (341) 
3Pal_5CO2H_6OMe

>  <FULL_NAME>  (341) 
(S)-5-(2-amino-2-carboxyethyl)-2-methoxynicotinic acid

>  <IUPAC_CONDENSED>  (341) 
3Pal(5-CO2H,6-OMe)

>  <IUPAC>  (341) 
5-((2S)-2-amino-3-hydroxy-3-oxopropyl)-2-methoxypyridine-3-carboxylic acid

>  <TYPE>  (341) 
Backbone

>  <CLASS>  (341) 
alpha

>  <ANALOG>  (341) 
Phe

>  <MOL_WT>  (341) 
240.21499999999997

>  <LOGP>  (341) 
-0.25720000000000015

>  <TPSA>  (341) 
122.74000000000002

>  <POPULARITY>  (341) 
2.2

>  <PROTECTED>  (341) 
TRUE

>  <SMILES>  (341) 
N[C@@H](Cc1(cnc(OC)c(c1)C(=O)O))C(=O)O

>  <INCHIKEY>  (341) 
RDKPFECJKRYIMO-ZETCQYMHSA-N

$$$$
3Pal_5Me_6Cl
     RDKit          2D

 14 14  0  0  0  0  0  0  0  0999 V2000
   -2.0094    1.6916    0.0000 N   0  0  0  0  0  0  0  0  0  0  0  0
   -2.3243    0.2250    0.0000 C   0  0  0  0  0  0  0  0  0  0  0  0
   -1.2116   -0.7809    0.0000 C   0  0  0  0  0  0  0  0  0  0  0  0
    0.2159   -0.3203    0.0000 C   0  0  0  0  0  0  0  0  0  0  0  0
    0.5308    1.1463    0.0000 C   0  0  0  0  0  0  0  0  0  0  0  0
    1.9583    1.6069    0.0000 N   0  0  0  0  0  0  0  0  0  0  0  0
    3.0710    0.6009    0.0000 C   0  0  0  0  0  0  0  0  0  0  0  0
    4.4985    1.0615    0.0000 Cl  0  0  0  0  0  0  0  0  0  0  0  0
    2.7561   -0.8657    0.0000 C   0  0  0  0  0  0  0  0  0  0  0  0
    3.8688   -1.8716    0.0000 C   0  0  0  0  0  0  0  0  0  0  0  0
    1.3286   -1.3263    0.0000 C   0  0  0  0  0  0  0  0  0  0  0  0
   -3.7518   -0.2356    0.0000 C   0  0  0  0  0  0  0  0  0  0  0  0
   -4.0666   -1.7022    0.0000 O   0  0  0  0  0  0  0  0  0  0  0  0
   -4.8644    0.7704    0.0000 O   0  0  0  0  0  0  0  0  0  0  0  0
  2  1  1  1
  2  3  1  0
  3  4  1  0
  4  5  1  0
  5  6  2  0
  6  7  1  0
  7  8  1  0
  7  9  2  0
  9 10  1  0
  9 11  1  0
  2 12  1  0
 12 13  2  0
 12 14  1  0
 11  4  2  0
M  END
>  <rName>  (342) 
3Pal_5Me_6Cl

>  <PQ_SYMBOL>  (342) 
3Pal_5Me_6Cl

>  <FULL_NAME>  (342) 
(S)-2-amino-3-(6-chloro-5-methylpyridin-3-yl)propanoic acid

>  <IUPAC_CONDENSED>  (342) 
3Pal(5-Me,6-Cl)

>  <IUPAC>  (342) 
(2S)-2-amino-3-(6-chloro-5-methylpyridin-3-yl)propanoic acid

>  <TYPE>  (342) 
Backbone

>  <CLASS>  (342) 
alpha

>  <ANALOG>  (342) 
Phe

>  <MOL_WT>  (342) 
214.652

>  <LOGP>  (342) 
0.9978200000000002

>  <TPSA>  (342) 
76.21

>  <POPULARITY>  (342) 
2.6

>  <PROTECTED>  (342) 
TRUE

>  <SMILES>  (342) 
N[C@@H](Cc1(cnc(Cl)c(C)c1))C(=O)O

>  <INCHIKEY>  (342) 
XDZWZHNUKDYDIP-ZETCQYMHSA-N

$$$$
3Pal_5Me_6F
     RDKit          2D

 14 14  0  0  0  0  0  0  0  0999 V2000
   -2.0094    1.6916    0.0000 N   0  0  0  0  0  0  0  0  0  0  0  0
   -2.3243    0.2250    0.0000 C   0  0  0  0  0  0  0  0  0  0  0  0
   -1.2116   -0.7809    0.0000 C   0  0  0  0  0  0  0  0  0  0  0  0
    0.2159   -0.3203    0.0000 C   0  0  0  0  0  0  0  0  0  0  0  0
    0.5308    1.1463    0.0000 C   0  0  0  0  0  0  0  0  0  0  0  0
    1.9583    1.6069    0.0000 N   0  0  0  0  0  0  0  0  0  0  0  0
    3.0710    0.6009    0.0000 C   0  0  0  0  0  0  0  0  0  0  0  0
    4.4985    1.0615    0.0000 F   0  0  0  0  0  0  0  0  0  0  0  0
    2.7561   -0.8657    0.0000 C   0  0  0  0  0  0  0  0  0  0  0  0
    3.8688   -1.8716    0.0000 C   0  0  0  0  0  0  0  0  0  0  0  0
    1.3286   -1.3263    0.0000 C   0  0  0  0  0  0  0  0  0  0  0  0
   -3.7518   -0.2356    0.0000 C   0  0  0  0  0  0  0  0  0  0  0  0
   -4.0666   -1.7022    0.0000 O   0  0  0  0  0  0  0  0  0  0  0  0
   -4.8644    0.7704    0.0000 O   0  0  0  0  0  0  0  0  0  0  0  0
  2  1  1  1
  2  3  1  0
  3  4  1  0
  4  5  1  0
  5  6  2  0
  6  7  1  0
  7  8  1  0
  7  9  2  0
  9 10  1  0
  9 11  1  0
  2 12  1  0
 12 13  2  0
 12 14  1  0
 11  4  2  0
M  END
>  <rName>  (343) 
3Pal_5Me_6F

>  <PQ_SYMBOL>  (343) 
3Pal_5Me_6F

>  <FULL_NAME>  (343) 
(S)-2-amino-3-(6-fluoro-5-methylpyridin-3-yl)propanoic acid

>  <IUPAC_CONDENSED>  (343) 
3Pal(5-Me,6-F)

>  <IUPAC>  (343) 
(2S)-2-amino-3-(6-fluoro-5-methylpyridin-3-yl)propanoic acid

>  <TYPE>  (343) 
Backbone

>  <CLASS>  (343) 
alpha

>  <ANALOG>  (343) 
Phe

>  <MOL_WT>  (343) 
198.197

>  <LOGP>  (343) 
0.4835199999999999

>  <TPSA>  (343) 
76.21

>  <POPULARITY>  (343) 
2.5

>  <PROTECTED>  (343) 
TRUE

>  <SMILES>  (343) 
N[C@@H](Cc1(cnc(F)c(C)c1))C(=O)O

>  <INCHIKEY>  (343) 
RFZPUAIXKQDNIF-ZETCQYMHSA-N

$$$$
3Pal_5Me_6Me
     RDKit          2D

 14 14  0  0  0  0  0  0  0  0999 V2000
   -2.0094    1.6916    0.0000 N   0  0  0  0  0  0  0  0  0  0  0  0
   -2.3243    0.2250    0.0000 C   0  0  0  0  0  0  0  0  0  0  0  0
   -1.2116   -0.7809    0.0000 C   0  0  0  0  0  0  0  0  0  0  0  0
    0.2159   -0.3203    0.0000 C   0  0  0  0  0  0  0  0  0  0  0  0
    0.5308    1.1463    0.0000 C   0  0  0  0  0  0  0  0  0  0  0  0
    1.9583    1.6069    0.0000 N   0  0  0  0  0  0  0  0  0  0  0  0
    3.0710    0.6009    0.0000 C   0  0  0  0  0  0  0  0  0  0  0  0
    4.4985    1.0615    0.0000 C   0  0  0  0  0  0  0  0  0  0  0  0
    2.7561   -0.8657    0.0000 C   0  0  0  0  0  0  0  0  0  0  0  0
    3.8688   -1.8716    0.0000 C   0  0  0  0  0  0  0  0  0  0  0  0
    1.3286   -1.3263    0.0000 C   0  0  0  0  0  0  0  0  0  0  0  0
   -3.7518   -0.2356    0.0000 C   0  0  0  0  0  0  0  0  0  0  0  0
   -4.0666   -1.7022    0.0000 O   0  0  0  0  0  0  0  0  0  0  0  0
   -4.8644    0.7704    0.0000 O   0  0  0  0  0  0  0  0  0  0  0  0
  2  1  1  1
  2  3  1  0
  3  4  1  0
  4  5  1  0
  5  6  2  0
  6  7  1  0
  7  8  1  0
  7  9  2  0
  9 10  1  0
  9 11  1  0
  2 12  1  0
 12 13  2  0
 12 14  1  0
 11  4  2  0
M  END
>  <rName>  (344) 
3Pal_5Me_6Me

>  <PQ_SYMBOL>  (344) 
3Pal_5Me_6Me

>  <FULL_NAME>  (344) 
(2S)-2-amino-3-(5,6-dimethyl-3-pyridinyl)propanoic acid

>  <IUPAC_CONDENSED>  (344) 
3Pal(5-Me,6-Me)

>  <IUPAC>  (344) 
(2S)-2-amino-3-(5,6-dimethyl-3-pyridinyl)propanoic acid

>  <TYPE>  (344) 
Backbone

>  <CLASS>  (344) 
alpha

>  <ANALOG>  (344) 
Phe

>  <MOL_WT>  (344) 
194.23399999999998

>  <LOGP>  (344) 
0.6528400000000001

>  <TPSA>  (344) 
76.21

>  <POPULARITY>  (344) 
2.2

>  <PROTECTED>  (344) 
TRUE

>  <SMILES>  (344) 
N[C@@H](Cc1(cnc(C)c(C)c1))C(=O)O

>  <INCHIKEY>  (344) 
BELIHVBUJJJTLO-VIFPVBQESA-N

$$$$
3Pal_5Me_6NH2
     RDKit          2D

 14 14  0  0  0  0  0  0  0  0999 V2000
   -2.0094    1.6916    0.0000 N   0  0  0  0  0  0  0  0  0  0  0  0
   -2.3243    0.2250    0.0000 C   0  0  0  0  0  0  0  0  0  0  0  0
   -1.2116   -0.7809    0.0000 C   0  0  0  0  0  0  0  0  0  0  0  0
    0.2159   -0.3203    0.0000 C   0  0  0  0  0  0  0  0  0  0  0  0
    0.5308    1.1463    0.0000 C   0  0  0  0  0  0  0  0  0  0  0  0
    1.9583    1.6069    0.0000 N   0  0  0  0  0  0  0  0  0  0  0  0
    3.0710    0.6009    0.0000 C   0  0  0  0  0  0  0  0  0  0  0  0
    4.4985    1.0615    0.0000 N   0  0  0  0  0  0  0  0  0  0  0  0
    2.7561   -0.8657    0.0000 C   0  0  0  0  0  0  0  0  0  0  0  0
    3.8688   -1.8716    0.0000 C   0  0  0  0  0  0  0  0  0  0  0  0
    1.3286   -1.3263    0.0000 C   0  0  0  0  0  0  0  0  0  0  0  0
   -3.7518   -0.2356    0.0000 C   0  0  0  0  0  0  0  0  0  0  0  0
   -4.0666   -1.7022    0.0000 O   0  0  0  0  0  0  0  0  0  0  0  0
   -4.8644    0.7704    0.0000 O   0  0  0  0  0  0  0  0  0  0  0  0
  2  1  1  1
  2  3  1  0
  3  4  1  0
  4  5  1  0
  5  6  2  0
  6  7  1  0
  7  8  1  0
  7  9  2  0
  9 10  1  0
  9 11  1  0
  2 12  1  0
 12 13  2  0
 12 14  1  0
 11  4  2  0
M  END
>  <rName>  (345) 
3Pal_5Me_6NH2

>  <PQ_SYMBOL>  (345) 
3Pal_5Me_6NH2

>  <FULL_NAME>  (345) 
(S)-2-amino-3-(6-amino-5-methylpyridin-3-yl)propanoic acid

>  <IUPAC_CONDENSED>  (345) 
3Pal(5-Me,6-NH2)

>  <IUPAC>  (345) 
(2S)-2-amino-3-(6-amino-5-methylpyridin-3-yl)propanoic acid

>  <TYPE>  (345) 
Backbone

>  <CLASS>  (345) 
alpha

>  <ANALOG>  (345) 
Phe

>  <MOL_WT>  (345) 
195.222

>  <LOGP>  (345) 
-0.07338000000000028

>  <TPSA>  (345) 
102.23

>  <POPULARITY>  (345) 
2.9

>  <PROTECTED>  (345) 
TRUE

>  <SMILES>  (345) 
N[C@@H](Cc1(cnc(N)c(C)c1))C(=O)O

>  <INCHIKEY>  (345) 
QZEPXHAQCZUJSV-ZETCQYMHSA-N

$$$$
3Pal_6CF3
     RDKit          2D

 16 16  0  0  0  0  0  0  0  0999 V2000
   -2.5021    1.6866    0.0000 N   0  0  0  0  0  0  0  0  0  0  0  0
   -3.0051    0.2735    0.0000 C   0  0  0  0  0  0  0  0  0  0  0  0
   -2.0328   -0.8687    0.0000 C   0  0  0  0  0  0  0  0  0  0  0  0
   -0.5574   -0.5977    0.0000 C   0  0  0  0  0  0  0  0  0  0  0  0
   -0.0545    0.8155    0.0000 C   0  0  0  0  0  0  0  0  0  0  0  0
    1.4208    1.0865    0.0000 C   0  0  0  0  0  0  0  0  0  0  0  0
    2.3932   -0.0557    0.0000 C   0  0  0  0  0  0  0  0  0  0  0  0
    1.8902   -1.4688    0.0000 N   0  0  0  0  0  0  0  0  0  0  0  0
    0.4149   -1.7398    0.0000 C   0  0  0  0  0  0  0  0  0  0  0  0
    3.8685    0.2153    0.0000 C   0  0  0  0  0  0  0  0  0  0  0  0
    5.3438    0.4863    0.0000 F   0  0  0  0  0  0  0  0  0  0  0  0
    4.1395   -1.2600    0.0000 F   0  0  0  0  0  0  0  0  0  0  0  0
    3.5975    1.6906    0.0000 F   0  0  0  0  0  0  0  0  0  0  0  0
   -4.4804    0.0025    0.0000 C   0  0  0  0  0  0  0  0  0  0  0  0
   -4.9834   -1.4107    0.0000 O   0  0  0  0  0  0  0  0  0  0  0  0
   -5.4528    1.1446    0.0000 O   0  0  0  0  0  0  0  0  0  0  0  0
  2  1  1  1
  2  3  1  0
  3  4  1  0
  4  5  1  0
  5  6  2  0
  6  7  1  0
  7  8  2  0
  8  9  1  0
  7 10  1  0
 10 11  1  0
 10 12  1  0
 10 13  1  0
  2 14  1  0
 14 15  2  0
 14 16  1  0
  9  4  2  0
M  END
>  <rName>  (346) 
3Pal_6CF3

>  <PQ_SYMBOL>  (346) 
3Pal_6CF3

>  <FULL_NAME>  (346) 
(S)-2-Amino-3-(6-(trifluoromethyl)pyridin-3-yl)propanoic acid

>  <IUPAC_CONDENSED>  (346) 
3Pal(6-CF3)

>  <IUPAC>  (346) 
(2S)-2-amino-3-[6-(trifluoromethyl)-3-pyridinyl]propanoic acid

>  <TYPE>  (346) 
Backbone

>  <CLASS>  (346) 
alpha

>  <ANALOG>  (346) 
Phe

>  <MOL_WT>  (346) 
234.17699999999994

>  <LOGP>  (346) 
1.0548000000000002

>  <TPSA>  (346) 
76.21

>  <POPULARITY>  (346) 
2.2

>  <PROTECTED>  (346) 
TRUE

>  <SMILES>  (346) 
N[C@@H](Cc1(ccc(nc1)C(F)(F)F))C(=O)O

>  <INCHIKEY>  (346) 
WWXLHNPRZPZWHD-LURJTMIESA-N

$$$$
3Pal_6CO2H
     RDKit          2D

 15 15  0  0  0  0  0  0  0  0999 V2000
   -2.2547    1.6872    0.0000 N   0  0  0  0  0  0  0  0  0  0  0  0
   -2.7489    0.2709    0.0000 C   0  0  0  0  0  0  0  0  0  0  0  0
   -1.7696   -0.8652    0.0000 C   0  0  0  0  0  0  0  0  0  0  0  0
   -0.2959   -0.5852    0.0000 C   0  0  0  0  0  0  0  0  0  0  0  0
    0.1983    0.8311    0.0000 C   0  0  0  0  0  0  0  0  0  0  0  0
    1.6719    1.1111    0.0000 C   0  0  0  0  0  0  0  0  0  0  0  0
    2.6513   -0.0250    0.0000 C   0  0  0  0  0  0  0  0  0  0  0  0
    2.1570   -1.4413    0.0000 N   0  0  0  0  0  0  0  0  0  0  0  0
    0.6834   -1.7213    0.0000 C   0  0  0  0  0  0  0  0  0  0  0  0
    4.1249    0.2550    0.0000 C   0  0  0  0  0  0  0  0  0  0  0  0
    4.6192    1.6713    0.0000 O   0  0  0  0  0  0  0  0  0  0  0  0
    5.1043   -0.8811    0.0000 O   0  0  0  0  0  0  0  0  0  0  0  0
   -4.2225   -0.0091    0.0000 C   0  0  0  0  0  0  0  0  0  0  0  0
   -4.7168   -1.4254    0.0000 O   0  0  0  0  0  0  0  0  0  0  0  0
   -5.2019    1.1270    0.0000 O   0  0  0  0  0  0  0  0  0  0  0  0
  2  1  1  1
  2  3  1  0
  3  4  1  0
  4  5  1  0
  5  6  2  0
  6  7  1  0
  7  8  2  0
  8  9  1  0
  7 10  1  0
 10 11  2  0
 10 12  1  0
  2 13  1  0
 13 14  2  0
 13 15  1  0
  9  4  2  0
M  END
>  <rName>  (347) 
3Pal_6CO2H

>  <PQ_SYMBOL>  (347) 
3Pal_6CO2H

>  <FULL_NAME>  (347) 
(S)-5-(2-amino-2-carboxyethyl)picolinic acid

>  <IUPAC_CONDENSED>  (347) 
3Pal(6-CO2H)

>  <IUPAC>  (347) 
5-((2S)-2-amino-3-hydroxy-3-oxopropyl)pyridine-2-carboxylic acid

>  <TYPE>  (347) 
Backbone

>  <CLASS>  (347) 
alpha

>  <ANALOG>  (347) 
Phe

>  <MOL_WT>  (347) 
210.18899999999996

>  <LOGP>  (347) 
-0.2658000000000001

>  <TPSA>  (347) 
113.51

>  <POPULARITY>  (347) 
2.7

>  <PROTECTED>  (347) 
TRUE

>  <SMILES>  (347) 
N[C@@H](Cc1(ccc(nc1)C(=O)O))C(=O)O

>  <INCHIKEY>  (347) 
RAHWNXIQXPRNOJ-LURJTMIESA-N

$$$$
3Pal_6NH2
     RDKit          2D

 13 13  0  0  0  0  0  0  0  0999 V2000
   -1.5766    1.6851    0.0000 N   0  0  0  0  0  0  0  0  0  0  0  0
   -2.0128    0.2500    0.0000 C   0  0  0  0  0  0  0  0  0  0  0  0
   -0.9880   -0.8454    0.0000 C   0  0  0  0  0  0  0  0  0  0  0  0
    0.4730   -0.5055    0.0000 C   0  0  0  0  0  0  0  0  0  0  0  0
    0.9092    0.9296    0.0000 C   0  0  0  0  0  0  0  0  0  0  0  0
    2.3702    1.2695    0.0000 C   0  0  0  0  0  0  0  0  0  0  0  0
    3.3950    0.1741    0.0000 C   0  0  0  0  0  0  0  0  0  0  0  0
    4.8560    0.5140    0.0000 N   0  0  0  0  0  0  0  0  0  0  0  0
    2.9588   -1.2611    0.0000 N   0  0  0  0  0  0  0  0  0  0  0  0
    1.4978   -1.6009    0.0000 C   0  0  0  0  0  0  0  0  0  0  0  0
   -3.4738   -0.0899    0.0000 C   0  0  0  0  0  0  0  0  0  0  0  0
   -3.9100   -1.5250    0.0000 O   0  0  0  0  0  0  0  0  0  0  0  0
   -4.4986    1.0055    0.0000 O   0  0  0  0  0  0  0  0  0  0  0  0
  2  1  1  1
  2  3  1  0
  3  4  1  0
  4  5  1  0
  5  6  2  0
  6  7  1  0
  7  8  1  0
  7  9  2  0
  9 10  1  0
  2 11  1  0
 11 12  2  0
 11 13  1  0
 10  4  2  0
M  END
>  <rName>  (348) 
3Pal_6NH2

>  <PQ_SYMBOL>  (348) 
3Pal_6NH2

>  <FULL_NAME>  (348) 
(S)-2-amino-3-(6-aminopyridin-3-yl)propanoic acid

>  <IUPAC_CONDENSED>  (348) 
3Pal(6-NH2)

>  <IUPAC>  (348) 
(2S)-2-amino-3-(6-aminopyridin-3-yl)propanoic acid

>  <TYPE>  (348) 
Backbone

>  <CLASS>  (348) 
alpha

>  <ANALOG>  (348) 
Phe

>  <MOL_WT>  (348) 
181.195

>  <LOGP>  (348) 
-0.3818000000000002

>  <TPSA>  (348) 
102.23

>  <POPULARITY>  (348) 
5.5

>  <PROTECTED>  (348) 
FALSE

>  <SMILES>  (348) 
N[C@@H](Cc1(ccc(N)nc1))C(=O)O

>  <INCHIKEY>  (348) 
QYSLVOCACBAADU-LURJTMIESA-N

$$$$
3Pal_6Ph_2Me
     RDKit          2D

 19 20  0  0  0  0  0  0  0  0999 V2000
   -3.3749    1.6701    0.0000 N   0  0  0  0  0  0  0  0  0  0  0  0
   -3.9688    0.2927    0.0000 C   0  0  0  0  0  0  0  0  0  0  0  0
   -3.0729   -0.9104    0.0000 C   0  0  0  0  0  0  0  0  0  0  0  0
   -1.5831   -0.7360    0.0000 C   0  0  0  0  0  0  0  0  0  0  0  0
   -0.9892    0.6414    0.0000 C   0  0  0  0  0  0  0  0  0  0  0  0
    0.5007    0.8158    0.0000 C   0  0  0  0  0  0  0  0  0  0  0  0
    1.3966   -0.3872    0.0000 C   0  0  0  0  0  0  0  0  0  0  0  0
    0.8027   -1.7647    0.0000 N   0  0  0  0  0  0  0  0  0  0  0  0
   -0.6871   -1.9390    0.0000 C   0  0  0  0  0  0  0  0  0  0  0  0
    2.8864   -0.2129    0.0000 C   0  0  0  0  0  0  0  0  0  0  0  0
    3.7823   -1.4159    0.0000 C   0  0  0  0  0  0  0  0  0  0  0  0
    5.2722   -1.2415    0.0000 C   0  0  0  0  0  0  0  0  0  0  0  0
    5.8661    0.1359    0.0000 C   0  0  0  0  0  0  0  0  0  0  0  0
    4.9702    1.3389    0.0000 C   0  0  0  0  0  0  0  0  0  0  0  0
    3.4803    1.1646    0.0000 C   0  0  0  0  0  0  0  0  0  0  0  0
    2.5844    2.3676    0.0000 C   0  0  0  0  0  0  0  0  0  0  0  0
   -5.4587    0.1183    0.0000 C   0  0  0  0  0  0  0  0  0  0  0  0
   -6.0526   -1.2591    0.0000 O   0  0  0  0  0  0  0  0  0  0  0  0
   -6.3546    1.3214    0.0000 O   0  0  0  0  0  0  0  0  0  0  0  0
  2  1  1  1
  2  3  1  0
  3  4  1  0
  4  5  1  0
  5  6  2  0
  6  7  1  0
  7  8  2  0
  8  9  1  0
  7 10  1  0
 10 11  2  0
 11 12  1  0
 12 13  2  0
 13 14  1  0
 14 15  2  0
 15 16  1  0
  2 17  1  0
 17 18  2  0
 17 19  1  0
  9  4  2  0
 15 10  1  0
M  END
>  <rName>  (349) 
3Pal_6Ph_2Me

>  <PQ_SYMBOL>  (349) 
3Pal_6Ph_2Me

>  <FULL_NAME>  (349) 
(2S)-2-amino-3-[6-(2-methylphenyl)-3-pyridinyl]propanoic acid

>  <IUPAC_CONDENSED>  (349) 
3Pal(6-Ph(2-Me))

>  <IUPAC>  (349) 
(2S)-2-amino-3-[6-(2-methylphenyl)-3-pyridinyl]propanoic acid

>  <TYPE>  (349) 
Backbone

>  <CLASS>  (349) 
alpha

>  <ANALOG>  (349) 
Phe

>  <MOL_WT>  (349) 
256.30499999999995

>  <LOGP>  (349) 
2.0114199999999998

>  <TPSA>  (349) 
76.21

>  <POPULARITY>  (349) 
2.2

>  <PROTECTED>  (349) 
TRUE

>  <SMILES>  (349) 
N[C@@H](Cc1(ccc(nc1)c2(ccccc2C)))C(=O)O

>  <INCHIKEY>  (349) 
YLKZRXZMUTVXDB-ZDUSSCGKSA-N

$$$$
3Pal_6diMe
     RDKit          2D

 15 15  0  0  0  0  0  0  0  0999 V2000
   -2.2547    1.6872    0.0000 N   0  0  0  0  0  0  0  0  0  0  0  0
   -2.7489    0.2709    0.0000 C   0  0  0  0  0  0  0  0  0  0  0  0
   -1.7696   -0.8652    0.0000 C   0  0  0  0  0  0  0  0  0  0  0  0
   -0.2959   -0.5852    0.0000 C   0  0  0  0  0  0  0  0  0  0  0  0
    0.1983    0.8311    0.0000 C   0  0  0  0  0  0  0  0  0  0  0  0
    1.6719    1.1111    0.0000 C   0  0  0  0  0  0  0  0  0  0  0  0
    2.6513   -0.0250    0.0000 C   0  0  0  0  0  0  0  0  0  0  0  0
    2.1570   -1.4413    0.0000 N   0  0  0  0  0  0  0  0  0  0  0  0
    0.6834   -1.7213    0.0000 C   0  0  0  0  0  0  0  0  0  0  0  0
    4.1249    0.2550    0.0000 N   0  0  0  0  0  0  0  0  0  0  0  0
    5.1043   -0.8811    0.0000 C   0  0  0  0  0  0  0  0  0  0  0  0
    4.6192    1.6713    0.0000 C   0  0  0  0  0  0  0  0  0  0  0  0
   -4.2225   -0.0091    0.0000 C   0  0  0  0  0  0  0  0  0  0  0  0
   -4.7168   -1.4254    0.0000 O   0  0  0  0  0  0  0  0  0  0  0  0
   -5.2019    1.1270    0.0000 O   0  0  0  0  0  0  0  0  0  0  0  0
  2  1  1  1
  2  3  1  0
  3  4  1  0
  4  5  1  0
  5  6  2  0
  6  7  1  0
  7  8  2  0
  8  9  1  0
  7 10  1  0
 10 11  1  0
 10 12  1  0
  2 13  1  0
 13 14  2  0
 13 15  1  0
  9  4  2  0
M  END
>  <rName>  (350) 
3Pal_6diMe

>  <PQ_SYMBOL>  (350) 
3Pal_6diMe

>  <FULL_NAME>  (350) 
(2S)-2-amino-3-[6-(dimethylamino)pyridin-3-yl]propanoic acid

>  <IUPAC_CONDENSED>  (350) 
3Pal(6-diMe)

>  <IUPAC>  (350) 
(2S)-2-amino-3-(6-(dimethylamino)pyridin-3-yl)propanoic acid

>  <TYPE>  (350) 
Backbone

>  <CLASS>  (350) 
alpha

>  <ANALOG>  (350) 
Phe

>  <MOL_WT>  (350) 
209.24899999999997

>  <LOGP>  (350) 
0.10199999999999981

>  <TPSA>  (350) 
79.45

>  <POPULARITY>  (350) 
3.2

>  <PROTECTED>  (350) 
TRUE

>  <SMILES>  (350) 
N[C@@H](Cc1(ccc(nc1)N(C)C))C(=O)O

>  <INCHIKEY>  (350) 
UUXOOKOKUDSZKK-QMMMGPOBSA-N

$$$$
3Pal_6morpholino
     RDKit          2D

 18 19  0  0  0  0  0  0  0  0999 V2000
   -3.2769    1.7174    0.0000 N   0  0  0  0  0  0  0  0  0  0  0  0
   -3.8349    0.3251    0.0000 C   0  0  0  0  0  0  0  0  0  0  0  0
   -2.9082   -0.8544    0.0000 C   0  0  0  0  0  0  0  0  0  0  0  0
   -1.4234   -0.6415    0.0000 C   0  0  0  0  0  0  0  0  0  0  0  0
   -0.8653    0.7508    0.0000 C   0  0  0  0  0  0  0  0  0  0  0  0
    0.6195    0.9637    0.0000 C   0  0  0  0  0  0  0  0  0  0  0  0
    1.5463   -0.2158    0.0000 C   0  0  0  0  0  0  0  0  0  0  0  0
    0.9882   -1.6081    0.0000 N   0  0  0  0  0  0  0  0  0  0  0  0
   -0.4966   -1.8210    0.0000 C   0  0  0  0  0  0  0  0  0  0  0  0
    3.0311   -0.0029    0.0000 N   0  0  0  0  0  0  0  0  0  0  0  0
    3.9578   -1.1824    0.0000 C   0  0  0  0  0  0  0  0  0  0  0  0
    5.4427   -0.9695    0.0000 C   0  0  0  0  0  0  0  0  0  0  0  0
    6.0007    0.4228    0.0000 O   0  0  0  0  0  0  0  0  0  0  0  0
    5.0740    1.6023    0.0000 C   0  0  0  0  0  0  0  0  0  0  0  0
    3.5891    1.3894    0.0000 C   0  0  0  0  0  0  0  0  0  0  0  0
   -5.3198    0.1122    0.0000 C   0  0  0  0  0  0  0  0  0  0  0  0
   -5.8778   -1.2801    0.0000 O   0  0  0  0  0  0  0  0  0  0  0  0
   -6.2465    1.2917    0.0000 O   0  0  0  0  0  0  0  0  0  0  0  0
  2  1  1  1
  2  3  1  0
  3  4  1  0
  4  5  1  0
  5  6  2  0
  6  7  1  0
  7  8  2  0
  8  9  1  0
  7 10  1  0
 10 11  1  0
 11 12  1  0
 12 13  1  0
 13 14  1  0
 14 15  1  0
  2 16  1  0
 16 17  2  0
 16 18  1  0
  9  4  2  0
 15 10  1  0
M  END
>  <rName>  (351) 
3Pal_6morpholino

>  <PQ_SYMBOL>  (351) 
3Pal_6morpholino

>  <FULL_NAME>  (351) 
(S)-2-amino-3-(6-morpholinopyridin-3-yl)propanoic acid

>  <IUPAC_CONDENSED>  (351) 
3Pal(6-morpholino)

>  <IUPAC>  (351) 
(2S)-2-amino-3-(6-(morpholin-4-yl)pyridin-3-yl)propanoic acid

>  <TYPE>  (351) 
Backbone

>  <CLASS>  (351) 
alpha

>  <ANALOG>  (351) 
Phe

>  <MOL_WT>  (351) 
251.28599999999992

>  <LOGP>  (351) 
-0.1274

>  <TPSA>  (351) 
88.67999999999999

>  <POPULARITY>  (351) 
2.6

>  <PROTECTED>  (351) 
TRUE

>  <SMILES>  (351) 
N[C@@H](Cc1(ccc(nc1)N2(CCOCC2)))C(=O)O

>  <INCHIKEY>  (351) 
IZNDNDRZFIOQTQ-JTQLQIEISA-N

$$$$
3Pal_Me_6carbonyl
     RDKit          2D

 14 14  0  0  0  0  0  0  0  0999 V2000
   -2.0094    1.6916    0.0000 N   0  0  0  0  0  0  0  0  0  0  0  0
   -2.3243    0.2250    0.0000 C   0  0  0  0  0  0  0  0  0  0  0  0
   -1.2116   -0.7809    0.0000 C   0  0  0  0  0  0  0  0  0  0  0  0
    0.2159   -0.3203    0.0000 C   0  0  0  0  0  0  0  0  0  0  0  0
    0.5308    1.1463    0.0000 C   0  0  0  0  0  0  0  0  0  0  0  0
    1.9583    1.6069    0.0000 C   0  0  0  0  0  0  0  0  0  0  0  0
    3.0710    0.6009    0.0000 C   0  0  0  0  0  0  0  0  0  0  0  0
    4.4985    1.0615    0.0000 O   0  0  0  0  0  0  0  0  0  0  0  0
    2.7561   -0.8657    0.0000 N   0  0  0  0  0  0  0  0  0  0  0  0
    3.8688   -1.8716    0.0000 C   0  0  0  0  0  0  0  0  0  0  0  0
    1.3286   -1.3263    0.0000 C   0  0  0  0  0  0  0  0  0  0  0  0
   -3.7518   -0.2356    0.0000 C   0  0  0  0  0  0  0  0  0  0  0  0
   -4.0666   -1.7022    0.0000 O   0  0  0  0  0  0  0  0  0  0  0  0
   -4.8644    0.7704    0.0000 O   0  0  0  0  0  0  0  0  0  0  0  0
  2  1  1  1
  2  3  1  0
  3  4  1  0
  4  5  1  0
  5  6  2  0
  6  7  1  0
  7  8  2  0
  7  9  1  0
  9 10  1  0
  9 11  1  0
  2 12  1  0
 12 13  2  0
 12 14  1  0
 11  4  2  0
M  END
>  <rName>  (352) 
3Pal_Me_6carbonyl

>  <PQ_SYMBOL>  (352) 
3Pal_Me_6carbonyl

>  <FULL_NAME>  (352) 
(2S)-2-amino-3-(1-methyl-6-oxo-3-pyridinyl)propanoic acid

>  <IUPAC_CONDENSED>  (352) 
3Pal(Me,6-carbonyl)

>  <IUPAC>  (352) 
(2S)-2-amino-3-(1-methyl-6-oxo-3-pyridinyl)propanoic acid

>  <TYPE>  (352) 
Backbone

>  <CLASS>  (352) 
alpha

>  <ANALOG>  (352) 
Phe

>  <MOL_WT>  (352) 
196.206

>  <LOGP>  (352) 
-0.6603000000000001

>  <TPSA>  (352) 
85.32000000000001

>  <POPULARITY>  (352) 
2.2

>  <PROTECTED>  (352) 
TRUE

>  <SMILES>  (352) 
N[C@@H](Cc1(ccc(=O)n(C)c1))C(=O)O

>  <INCHIKEY>  (352) 
INSPZXPPKBFQGL-ZETCQYMHSA-N

$$$$
3R-amino-cyclohexane-1R-CO2H
     RDKit          2D

 10 10  0  0  0  0  0  0  0  0999 V2000
    2.9197   -1.6440    0.0000 N   0  0  0  0  0  0  0  0  0  0  0  0
    1.8615   -0.5809    0.0000 C   0  0  0  0  0  0  0  0  0  0  0  0
    0.4117   -0.9659    0.0000 C   0  0  0  0  0  0  0  0  0  0  0  0
   -0.6466    0.0971    0.0000 C   0  0  0  0  0  0  0  0  0  0  0  0
   -0.2551    1.5451    0.0000 C   0  0  0  0  0  0  0  0  0  0  0  0
    1.1946    1.9301    0.0000 C   0  0  0  0  0  0  0  0  0  0  0  0
    2.2529    0.8671    0.0000 C   0  0  0  0  0  0  0  0  0  0  0  0
   -2.0963   -0.2879    0.0000 C   0  0  0  0  0  0  0  0  0  0  0  0
   -2.4878   -1.7359    0.0000 O   0  0  0  0  0  0  0  0  0  0  0  0
   -3.1546    0.7752    0.0000 O   0  0  0  0  0  0  0  0  0  0  0  0
  2  1  1  1
  2  3  1  0
  3  4  1  0
  4  5  1  0
  5  6  1  0
  6  7  1  0
  4  8  1  6
  8  9  2  0
  8 10  1  0
  7  2  1  0
M  END
>  <rName>  (353) 
3R-amino-cyclohexane-1R-CO2H

>  <PQ_SYMBOL>  (353) 
3R-amino-cyclohexane-1R-CO2H

>  <FULL_NAME>  (353) 
rac-(1R,3R)-3-aminocyclohexane-1-carboxylic acid

>  <IUPAC_CONDENSED>  (353) 
3R-amino-cyclohexane-1R-CO2H

>  <IUPAC>  (353) 
(1R,3R)-3-aminocyclohexanecarboxylic acid

>  <TYPE>  (353) 
Backbone

>  <CLASS>  (353) 
gamma

>  <ANALOG>  (353) 
Val

>  <MOL_WT>  (353) 
143.186

>  <LOGP>  (353) 
0.5884999999999998

>  <TPSA>  (353) 
63.32000000000001

>  <POPULARITY>  (353) 
9.2

>  <PROTECTED>  (353) 
TRUE

>  <SMILES>  (353) 
N[C@H]1C[C@@H](CCC1)C(=O)O

>  <INCHIKEY>  (353) 
CKTUXQBZPWBFDX-PHDIDXHHSA-N

$$$$
3R-amino-cyclohexane-1S-CO2H
     RDKit          2D

 10 10  0  0  0  0  0  0  0  0999 V2000
    2.9197   -1.6440    0.0000 N   0  0  0  0  0  0  0  0  0  0  0  0
    1.8615   -0.5809    0.0000 C   0  0  0  0  0  0  0  0  0  0  0  0
    0.4117   -0.9659    0.0000 C   0  0  0  0  0  0  0  0  0  0  0  0
   -0.6466    0.0971    0.0000 C   0  0  0  0  0  0  0  0  0  0  0  0
   -0.2551    1.5451    0.0000 C   0  0  0  0  0  0  0  0  0  0  0  0
    1.1946    1.9301    0.0000 C   0  0  0  0  0  0  0  0  0  0  0  0
    2.2529    0.8671    0.0000 C   0  0  0  0  0  0  0  0  0  0  0  0
   -2.0963   -0.2879    0.0000 C   0  0  0  0  0  0  0  0  0  0  0  0
   -2.4878   -1.7359    0.0000 O   0  0  0  0  0  0  0  0  0  0  0  0
   -3.1546    0.7752    0.0000 O   0  0  0  0  0  0  0  0  0  0  0  0
  2  1  1  1
  2  3  1  0
  3  4  1  0
  4  5  1  0
  5  6  1  0
  6  7  1  0
  4  8  1  1
  8  9  2  0
  8 10  1  0
  7  2  1  0
M  END
>  <rName>  (354) 
3R-amino-cyclohexane-1S-CO2H

>  <PQ_SYMBOL>  (354) 
3R-amino-cyclohexane-1S-CO2H

>  <FULL_NAME>  (354) 
(1S,3R)-3-aminocyclohexane-1-carboxylic acid

>  <IUPAC_CONDENSED>  (354) 
3R-amino-cyclohexane-1S-CO2H

>  <IUPAC>  (354) 
(1S,3R)-3-aminocyclohexanecarboxylic acid

>  <TYPE>  (354) 
Backbone

>  <CLASS>  (354) 
gamma

>  <ANALOG>  (354) 
Val

>  <MOL_WT>  (354) 
143.186

>  <LOGP>  (354) 
0.5884999999999998

>  <TPSA>  (354) 
63.32000000000001

>  <POPULARITY>  (354) 
10.3

>  <PROTECTED>  (354) 
TRUE

>  <SMILES>  (354) 
N[C@H]1C[C@H](CCC1)C(=O)O

>  <INCHIKEY>  (354) 
CKTUXQBZPWBFDX-NTSWFWBYSA-N

$$$$
3R-amino-cyclopentane-1R-CO2H
     RDKit          2D

  9  9  0  0  0  0  0  0  0  0999 V2000
   -3.3052   -0.8467    0.0000 N   0  0  0  0  0  0  0  0  0  0  0  0
   -1.9481   -0.2077    0.0000 C   0  0  0  0  0  0  0  0  0  0  0  0
   -0.6334   -0.9301    0.0000 C   0  0  0  0  0  0  0  0  0  0  0  0
    0.4598    0.0969    0.0000 C   0  0  0  0  0  0  0  0  0  0  0  0
   -0.1792    1.4541    0.0000 C   0  0  0  0  0  0  0  0  0  0  0  0
   -1.6673    1.2657    0.0000 C   0  0  0  0  0  0  0  0  0  0  0  0
    1.9333   -0.1838    0.0000 C   0  0  0  0  0  0  0  0  0  0  0  0
    2.9132    0.9519    0.0000 O   0  0  0  0  0  0  0  0  0  0  0  0
    2.4269   -1.6003    0.0000 O   0  0  0  0  0  0  0  0  0  0  0  0
  2  1  1  6
  2  3  1  0
  3  4  1  0
  4  5  1  0
  5  6  1  0
  4  7  1  1
  7  8  2  0
  7  9  1  0
  6  2  1  0
M  END
>  <rName>  (355) 
3R-amino-cyclopentane-1R-CO2H

>  <PQ_SYMBOL>  (355) 
3R-amino-cyclopentane-1R-CO2H

>  <FULL_NAME>  (355) 
(1R,3R)-3-Aminocyclopentanecarboxylic acid

>  <IUPAC_CONDENSED>  (355) 
3R-amino-cyclopentane-1R-CO2H

>  <IUPAC>  (355) 
(1R,3R)-3-aminocyclopentanecarboxylic acid

>  <TYPE>  (355) 
Backbone

>  <CLASS>  (355) 
gamma

>  <ANALOG>  (355) 
Ala

>  <MOL_WT>  (355) 
129.15900000000002

>  <LOGP>  (355) 
0.19839999999999985

>  <TPSA>  (355) 
63.32000000000001

>  <POPULARITY>  (355) 
7.9

>  <PROTECTED>  (355) 
TRUE

>  <SMILES>  (355) 
N[C@H]1C[C@@H](CC1)C(=O)O

>  <INCHIKEY>  (355) 
MLLSSTJTARJLHK-RFZPGFLSSA-N

$$$$
3R-amino-cyclopentane-1S-CO2H
     RDKit          2D

  9  9  0  0  0  0  0  0  0  0999 V2000
   -3.3052   -0.8467    0.0000 N   0  0  0  0  0  0  0  0  0  0  0  0
   -1.9481   -0.2077    0.0000 C   0  0  0  0  0  0  0  0  0  0  0  0
   -0.6334   -0.9301    0.0000 C   0  0  0  0  0  0  0  0  0  0  0  0
    0.4598    0.0969    0.0000 C   0  0  0  0  0  0  0  0  0  0  0  0
   -0.1792    1.4541    0.0000 C   0  0  0  0  0  0  0  0  0  0  0  0
   -1.6673    1.2657    0.0000 C   0  0  0  0  0  0  0  0  0  0  0  0
    1.9333   -0.1838    0.0000 C   0  0  0  0  0  0  0  0  0  0  0  0
    2.9132    0.9519    0.0000 O   0  0  0  0  0  0  0  0  0  0  0  0
    2.4269   -1.6003    0.0000 O   0  0  0  0  0  0  0  0  0  0  0  0
  2  1  1  6
  2  3  1  0
  3  4  1  0
  4  5  1  0
  5  6  1  0
  4  7  1  6
  7  8  2  0
  7  9  1  0
  6  2  1  0
M  END
>  <rName>  (356) 
3R-amino-cyclopentane-1S-CO2H

>  <PQ_SYMBOL>  (356) 
3R-amino-cyclopentane-1S-CO2H

>  <FULL_NAME>  (356) 
(1S,3R)-3-aminocyclopentane-1-carboxylic acid

>  <IUPAC_CONDENSED>  (356) 
3R-amino-cyclopentane-1S-CO2H

>  <IUPAC>  (356) 
(1S,3R)-3-aminocyclopentanecarboxylic acid

>  <TYPE>  (356) 
Backbone

>  <CLASS>  (356) 
gamma

>  <ANALOG>  (356) 
Ala

>  <MOL_WT>  (356) 
129.15900000000002

>  <LOGP>  (356) 
0.19839999999999985

>  <TPSA>  (356) 
63.32000000000001

>  <POPULARITY>  (356) 
11.4

>  <PROTECTED>  (356) 
TRUE

>  <SMILES>  (356) 
N[C@H]1C[C@H](CC1)C(=O)O

>  <INCHIKEY>  (356) 
MLLSSTJTARJLHK-CRCLSJGQSA-N

$$$$
3S-amino-cyclohexane-1R-CO2H
     RDKit          2D

 10 10  0  0  0  0  0  0  0  0999 V2000
    2.9197   -1.6440    0.0000 N   0  0  0  0  0  0  0  0  0  0  0  0
    1.8615   -0.5809    0.0000 C   0  0  0  0  0  0  0  0  0  0  0  0
    0.4117   -0.9659    0.0000 C   0  0  0  0  0  0  0  0  0  0  0  0
   -0.6466    0.0971    0.0000 C   0  0  0  0  0  0  0  0  0  0  0  0
   -0.2551    1.5451    0.0000 C   0  0  0  0  0  0  0  0  0  0  0  0
    1.1946    1.9301    0.0000 C   0  0  0  0  0  0  0  0  0  0  0  0
    2.2529    0.8671    0.0000 C   0  0  0  0  0  0  0  0  0  0  0  0
   -2.0963   -0.2879    0.0000 C   0  0  0  0  0  0  0  0  0  0  0  0
   -2.4878   -1.7359    0.0000 O   0  0  0  0  0  0  0  0  0  0  0  0
   -3.1546    0.7752    0.0000 O   0  0  0  0  0  0  0  0  0  0  0  0
  2  1  1  6
  2  3  1  0
  3  4  1  0
  4  5  1  0
  5  6  1  0
  6  7  1  0
  4  8  1  6
  8  9  2  0
  8 10  1  0
  7  2  1  0
M  END
>  <rName>  (357) 
3S-amino-cyclohexane-1R-CO2H

>  <PQ_SYMBOL>  (357) 
3S-amino-cyclohexane-1R-CO2H

>  <FULL_NAME>  (357) 
(1R,3S)-3-aminocyclohexane-1-carboxylic acid

>  <IUPAC_CONDENSED>  (357) 
3S-amino-cyclohexane-1R-CO2H

>  <IUPAC>  (357) 
(1R,3S)-3-aminocyclohexanecarboxylic acid

>  <TYPE>  (357) 
Backbone

>  <CLASS>  (357) 
gamma

>  <ANALOG>  (357) 
Val

>  <MOL_WT>  (357) 
143.186

>  <LOGP>  (357) 
0.5884999999999998

>  <TPSA>  (357) 
63.32000000000001

>  <POPULARITY>  (357) 
9.9

>  <PROTECTED>  (357) 
TRUE

>  <SMILES>  (357) 
N[C@@H]1C[C@@H](CCC1)C(=O)O

>  <INCHIKEY>  (357) 
CKTUXQBZPWBFDX-RITPCOANSA-N

$$$$
3S-amino-cyclohexane-1S-CO2H
     RDKit          2D

 10 10  0  0  0  0  0  0  0  0999 V2000
    2.9197   -1.6440    0.0000 N   0  0  0  0  0  0  0  0  0  0  0  0
    1.8615   -0.5809    0.0000 C   0  0  0  0  0  0  0  0  0  0  0  0
    0.4117   -0.9659    0.0000 C   0  0  0  0  0  0  0  0  0  0  0  0
   -0.6466    0.0971    0.0000 C   0  0  0  0  0  0  0  0  0  0  0  0
   -0.2551    1.5451    0.0000 C   0  0  0  0  0  0  0  0  0  0  0  0
    1.1946    1.9301    0.0000 C   0  0  0  0  0  0  0  0  0  0  0  0
    2.2529    0.8671    0.0000 C   0  0  0  0  0  0  0  0  0  0  0  0
   -2.0963   -0.2879    0.0000 C   0  0  0  0  0  0  0  0  0  0  0  0
   -2.4878   -1.7359    0.0000 O   0  0  0  0  0  0  0  0  0  0  0  0
   -3.1546    0.7752    0.0000 O   0  0  0  0  0  0  0  0  0  0  0  0
  2  1  1  6
  2  3  1  0
  3  4  1  0
  4  5  1  0
  5  6  1  0
  6  7  1  0
  4  8  1  1
  8  9  2  0
  8 10  1  0
  7  2  1  0
M  END
>  <rName>  (358) 
3S-amino-cyclohexane-1S-CO2H

>  <PQ_SYMBOL>  (358) 
3S-amino-cyclohexane-1S-CO2H

>  <FULL_NAME>  (358) 
(1S,3S)-3-Aminocyclohexanecarboxylic acid

>  <IUPAC_CONDENSED>  (358) 
3S-amino-cyclohexane-1S-CO2H

>  <IUPAC>  (358) 
trans-(1S,3S)-3-aminocyclohexane-1-carboxylic acid

>  <TYPE>  (358) 
Backbone

>  <CLASS>  (358) 
gamma

>  <ANALOG>  (358) 
Val

>  <MOL_WT>  (358) 
143.186

>  <LOGP>  (358) 
0.5884999999999998

>  <TPSA>  (358) 
63.32000000000001

>  <POPULARITY>  (358) 
2.2

>  <PROTECTED>  (358) 
TRUE

>  <SMILES>  (358) 
N[C@@H]1C[C@H](CCC1)C(=O)O

>  <INCHIKEY>  (358) 
CKTUXQBZPWBFDX-WDSKDSINSA-N

$$$$
3S-amino-cyclopentane-1R-CO2H
     RDKit          2D

  9  9  0  0  0  0  0  0  0  0999 V2000
   -3.3052   -0.8467    0.0000 N   0  0  0  0  0  0  0  0  0  0  0  0
   -1.9481   -0.2077    0.0000 C   0  0  0  0  0  0  0  0  0  0  0  0
   -0.6334   -0.9301    0.0000 C   0  0  0  0  0  0  0  0  0  0  0  0
    0.4598    0.0969    0.0000 C   0  0  0  0  0  0  0  0  0  0  0  0
   -0.1792    1.4541    0.0000 C   0  0  0  0  0  0  0  0  0  0  0  0
   -1.6673    1.2657    0.0000 C   0  0  0  0  0  0  0  0  0  0  0  0
    1.9333   -0.1838    0.0000 C   0  0  0  0  0  0  0  0  0  0  0  0
    2.9132    0.9519    0.0000 O   0  0  0  0  0  0  0  0  0  0  0  0
    2.4269   -1.6003    0.0000 O   0  0  0  0  0  0  0  0  0  0  0  0
  2  1  1  1
  2  3  1  0
  3  4  1  0
  4  5  1  0
  5  6  1  0
  4  7  1  1
  7  8  2  0
  7  9  1  0
  6  2  1  0
M  END
>  <rName>  (359) 
3S-amino-cyclopentane-1R-CO2H

>  <PQ_SYMBOL>  (359) 
3S-amino-cyclopentane-1R-CO2H

>  <FULL_NAME>  (359) 
(1R,3S)-3-aminocyclopentane-1-carboxylic acid

>  <IUPAC_CONDENSED>  (359) 
3S-amino-cyclopentane-1R-CO2H

>  <IUPAC>  (359) 
(1R,3S)-3-aminocyclopentanecarboxylic acid

>  <TYPE>  (359) 
Backbone

>  <CLASS>  (359) 
gamma

>  <ANALOG>  (359) 
Ala

>  <MOL_WT>  (359) 
129.15900000000002

>  <LOGP>  (359) 
0.19839999999999985

>  <TPSA>  (359) 
63.32000000000001

>  <POPULARITY>  (359) 
11.2

>  <PROTECTED>  (359) 
TRUE

>  <SMILES>  (359) 
N[C@@H]1C[C@@H](CC1)C(=O)O

>  <INCHIKEY>  (359) 
MLLSSTJTARJLHK-UHNVWZDZSA-N

$$$$
3S-amino-cyclopentane-1R-CO2H_4OH_4R
     RDKit          2D

 10 10  0  0  0  0  0  0  0  0999 V2000
   -2.7794   -1.6317    0.0000 N   0  0  0  0  0  0  0  0  0  0  0  0
   -1.5659   -0.7500    0.0000 C   0  0  0  0  0  0  0  0  0  0  0  0
   -0.1393   -1.2135    0.0000 C   0  0  0  0  0  0  0  0  0  0  0  0
    0.7423    0.0000    0.0000 C   0  0  0  0  0  0  0  0  0  0  0  0
   -0.1393    1.2135    0.0000 C   0  0  0  0  0  0  0  0  0  0  0  0
   -1.5659    0.7500    0.0000 C   0  0  0  0  0  0  0  0  0  0  0  0
   -2.7794    1.6317    0.0000 O   0  0  0  0  0  0  0  0  0  0  0  0
    2.2423    0.0000    0.0000 C   0  0  0  0  0  0  0  0  0  0  0  0
    2.9923    1.2990    0.0000 O   0  0  0  0  0  0  0  0  0  0  0  0
    2.9923   -1.2990    0.0000 O   0  0  0  0  0  0  0  0  0  0  0  0
  2  1  1  6
  2  3  1  0
  3  4  1  0
  4  5  1  0
  5  6  1  0
  6  7  1  6
  4  8  1  6
  8  9  2  0
  8 10  1  0
  6  2  1  0
M  END
>  <rName>  (360) 
3S-amino-cyclopentane-1R-CO2H_4OH_4R

>  <PQ_SYMBOL>  (360) 
3S-amino-cyclopentane-1R-CO2H_4OH_4R

>  <FULL_NAME>  (360) 
(1R,3S,4R)-3-amino-4-hydroxycyclopentane-1-carboxylic acid

>  <IUPAC_CONDENSED>  (360) 
3S-amino-cyclopentane-1R-CO2H(4-OH,4R)

>  <IUPAC>  (360) 
(1R,3S,4R)-3-amino-4-hydroxycyclopentanecarboxylic acid

>  <TYPE>  (360) 
Backbone

>  <CLASS>  (360) 
gamma

>  <ANALOG>  (360) 
Thr

>  <MOL_WT>  (360) 
145.158

>  <LOGP>  (360) 
-0.8308000000000002

>  <TPSA>  (360) 
83.55

>  <POPULARITY>  (360) 
3.5

>  <PROTECTED>  (360) 
TRUE

>  <SMILES>  (360) 
N[C@H]1C[C@H](C[C@H]1O)C(=O)O

>  <INCHIKEY>  (360) 
BJOBDIOFXSLEHP-MROZADKFSA-N

$$$$
3S-amino-cyclopentane-1S-CO2H
     RDKit          2D

  9  9  0  0  0  0  0  0  0  0999 V2000
   -3.3052   -0.8467    0.0000 N   0  0  0  0  0  0  0  0  0  0  0  0
   -1.9481   -0.2077    0.0000 C   0  0  0  0  0  0  0  0  0  0  0  0
   -0.6334   -0.9301    0.0000 C   0  0  0  0  0  0  0  0  0  0  0  0
    0.4598    0.0969    0.0000 C   0  0  0  0  0  0  0  0  0  0  0  0
   -0.1792    1.4541    0.0000 C   0  0  0  0  0  0  0  0  0  0  0  0
   -1.6673    1.2657    0.0000 C   0  0  0  0  0  0  0  0  0  0  0  0
    1.9333   -0.1838    0.0000 C   0  0  0  0  0  0  0  0  0  0  0  0
    2.9132    0.9519    0.0000 O   0  0  0  0  0  0  0  0  0  0  0  0
    2.4269   -1.6003    0.0000 O   0  0  0  0  0  0  0  0  0  0  0  0
  2  1  1  1
  2  3  1  0
  3  4  1  0
  4  5  1  0
  5  6  1  0
  4  7  1  6
  7  8  2  0
  7  9  1  0
  6  2  1  0
M  END
>  <rName>  (361) 
3S-amino-cyclopentane-1S-CO2H

>  <PQ_SYMBOL>  (361) 
3S-amino-cyclopentane-1S-CO2H

>  <FULL_NAME>  (361) 
(1S,3S)-3-Aminocyclopentanecarboxylic acid

>  <IUPAC_CONDENSED>  (361) 
3S-amino-cyclopentane-1S-CO2H

>  <IUPAC>  (361) 
trans-(1S,3S)-3-aminocyclopentane-1-carboxylic acid

>  <TYPE>  (361) 
Backbone

>  <CLASS>  (361) 
gamma

>  <ANALOG>  (361) 
Ala

>  <MOL_WT>  (361) 
129.15900000000002

>  <LOGP>  (361) 
0.19839999999999985

>  <TPSA>  (361) 
63.32000000000001

>  <POPULARITY>  (361) 
2.2

>  <PROTECTED>  (361) 
TRUE

>  <SMILES>  (361) 
N[C@@H]1C[C@H](CC1)C(=O)O

>  <INCHIKEY>  (361) 
MLLSSTJTARJLHK-WHFBIAKZSA-N

$$$$
3S-aminoindan-1R-CO2H
     RDKit          2D

 13 14  0  0  0  0  0  0  0  0999 V2000
    1.1687    3.2820    0.0000 N   0  0  0  0  0  0  0  0  0  0  0  0
    0.4957    1.9414    0.0000 C   0  0  0  0  0  0  0  0  0  0  0  0
   -0.9844    1.6979    0.0000 C   0  0  0  0  0  0  0  0  0  0  0  0
   -1.2101    0.2149    0.0000 C   0  0  0  0  0  0  0  0  0  0  0  0
    0.1305   -0.4580    0.0000 C   0  0  0  0  0  0  0  0  0  0  0  0
    0.5274   -1.9045    0.0000 C   0  0  0  0  0  0  0  0  0  0  0  0
    1.9786   -2.2840    0.0000 C   0  0  0  0  0  0  0  0  0  0  0  0
    3.0329   -1.2170    0.0000 C   0  0  0  0  0  0  0  0  0  0  0  0
    2.6359    0.2295    0.0000 C   0  0  0  0  0  0  0  0  0  0  0  0
    1.1847    0.6090    0.0000 C   0  0  0  0  0  0  0  0  0  0  0  0
   -2.5425   -0.4741    0.0000 C   0  0  0  0  0  0  0  0  0  0  0  0
   -2.6120   -1.9725    0.0000 O   0  0  0  0  0  0  0  0  0  0  0  0
   -3.8054    0.3353    0.0000 O   0  0  0  0  0  0  0  0  0  0  0  0
  2  1  1  6
  2  3  1  0
  3  4  1  0
  4  5  1  0
  5  6  2  0
  6  7  1  0
  7  8  2  0
  8  9  1  0
  9 10  2  0
  4 11  1  6
 11 12  2  0
 11 13  1  0
 10  2  1  0
 10  5  1  0
M  END
>  <rName>  (362) 
3S-aminoindan-1R-CO2H

>  <PQ_SYMBOL>  (362) 
3S-aminoindan-1R-CO2H

>  <FULL_NAME>  (362) 
(1R,3S)-3-amino-2,3-dihydro-1H-indene-1-carboxylic acid

>  <IUPAC_CONDENSED>  (362) 
3S-aminoindan-1R-CO2H

>  <IUPAC>  (362) 
(1R,3S)-3-aminoindane-1-carboxylic acid

>  <TYPE>  (362) 
Backbone

>  <CLASS>  (362) 
gamma

>  <ANALOG>  (362) 
X

>  <MOL_WT>  (362) 
177.20299999999997

>  <LOGP>  (362) 
1.2583

>  <TPSA>  (362) 
63.32000000000001

>  <POPULARITY>  (362) 
4.9

>  <PROTECTED>  (362) 
TRUE

>  <SMILES>  (362) 
N[C@H]1C[C@H](c2(ccccc12))C(=O)O

>  <INCHIKEY>  (362) 
BZZOSWZYMHVVBT-BDAKNGLRSA-N

$$$$
3S4S-amino-4-Me-dihydropyran-2-one
     RDKit          2D

  9  9  0  0  0  0  0  0  0  0999 V2000
    0.0000   -2.3333    0.0000 N   0  0  0  0  0  0  0  0  0  0  0  0
    0.0000   -0.8333    0.0000 C   0  0  0  0  0  0  0  0  0  0  0  0
   -1.2990   -0.0833    0.0000 C   0  0  0  0  0  0  0  0  0  0  0  0
   -2.5981   -0.8333    0.0000 O   0  0  0  0  0  0  0  0  0  0  0  0
   -1.2990    1.4167    0.0000 O   0  0  0  0  0  0  0  0  0  0  0  0
   -0.0000    2.1667    0.0000 C   0  0  0  0  0  0  0  0  0  0  0  0
    1.2990    1.4167    0.0000 C   0  0  0  0  0  0  0  0  0  0  0  0
    1.2990   -0.0833    0.0000 C   0  0  0  0  0  0  0  0  0  0  0  0
    2.5981   -0.8333    0.0000 C   0  0  0  0  0  0  0  0  0  0  0  0
  2  1  1  6
  2  3  1  0
  3  4  2  0
  3  5  1  0
  5  6  1  0
  6  7  2  0
  7  8  1  0
  8  9  1  6
  8  2  1  0
M  END
>  <rName>  (363) 
3S4S-amino-4-Me-dihydropyran-2-one

>  <PQ_SYMBOL>  (363) 
3S4S-amino-4-Me-dihydropyran-2-one

>  <FULL_NAME>  (363) 
(3S,4S)-3-amino-4-methyl-3,4-dihydro-2H-pyran-2-one

>  <IUPAC_CONDENSED>  (363) 
3S,4S-amino-4-Me-dihydropyran-2-one

>  <IUPAC>  (363) 
(3S,4S)-3-amino-4-methyl-1-oxacyclohex-5-en-2-one

>  <TYPE>  (363) 
C-term cap

>  <CLASS>  (363) 
c_cap

>  <ANALOG>  (363) 
X

>  <MOL_WT>  (363) 
127.14299999999997

>  <LOGP>  (363) 
0.020299999999999985

>  <TPSA>  (363) 
52.32000000000001

>  <POPULARITY>  (363) 
0.7

>  <PROTECTED>  (363) 
FALSE

>  <SMILES>  (363) 
N[C@@H]1C(=O)OC=C[C@@H]1C

>  <INCHIKEY>  (363) 
SBDJAXOULWQEQY-WHFBIAKZSA-N

$$$$
3Thi
     RDKit          2D

 11 11  0  0  0  0  0  0  0  0999 V2000
   -0.9461    1.6947    0.0000 N   0  0  0  0  0  0  0  0  0  0  0  0
   -1.3100    0.2395    0.0000 C   0  0  0  0  0  0  0  0  0  0  0  0
   -0.2317   -0.8032    0.0000 C   0  0  0  0  0  0  0  0  0  0  0  0
    1.2105   -0.3908    0.0000 C   0  0  0  0  0  0  0  0  0  0  0  0
    2.3919   -1.3151    0.0000 C   0  0  0  0  0  0  0  0  0  0  0  0
    3.6360   -0.4772    0.0000 C   0  0  0  0  0  0  0  0  0  0  0  0
    3.2236    0.9650    0.0000 S   0  0  0  0  0  0  0  0  0  0  0  0
    1.7245    1.0184    0.0000 C   0  0  0  0  0  0  0  0  0  0  0  0
   -2.7522   -0.1729    0.0000 C   0  0  0  0  0  0  0  0  0  0  0  0
   -3.1161   -1.6281    0.0000 O   0  0  0  0  0  0  0  0  0  0  0  0
   -3.8304    0.8698    0.0000 O   0  0  0  0  0  0  0  0  0  0  0  0
  2  1  1  1
  2  3  1  0
  3  4  1  0
  4  5  1  0
  5  6  2  0
  6  7  1  0
  7  8  1  0
  2  9  1  0
  9 10  2  0
  9 11  1  0
  8  4  2  0
M  END
>  <rName>  (364) 
3Thi

>  <PQ_SYMBOL>  (364) 
3Thi

>  <FULL_NAME>  (364) 
3-(3-thienyl)-L-Alanine

>  <IUPAC_CONDENSED>  (364) 
3Thi

>  <IUPAC>  (364) 
(2S)-2-amino-3-(thiophen-3-yl)propanoic acid

>  <TYPE>  (364) 
Backbone

>  <CLASS>  (364) 
alpha

>  <ANALOG>  (364) 
Phe

>  <MOL_WT>  (364) 
171.22099999999998

>  <LOGP>  (364) 
0.7025000000000001

>  <TPSA>  (364) 
63.32000000000001

>  <POPULARITY>  (364) 
18.2

>  <PROTECTED>  (364) 
TRUE

>  <SMILES>  (364) 
N[C@@H](Cc1(ccsc1))C(=O)O

>  <INCHIKEY>  (364) 
VOIZSAUUYAGTMS-LURJTMIESA-N

$$$$
3Thi_2CO2H
     RDKit          2D

 14 14  0  0  0  0  0  0  0  0999 V2000
    2.1437    1.8086    0.0000 N   0  0  0  0  0  0  0  0  0  0  0  0
    2.0173    0.3140    0.0000 C   0  0  0  0  0  0  0  0  0  0  0  0
    0.6597   -0.3239    0.0000 C   0  0  0  0  0  0  0  0  0  0  0  0
   -0.5716    0.5329    0.0000 C   0  0  0  0  0  0  0  0  0  0  0  0
   -0.6021    2.0325    0.0000 C   0  0  0  0  0  0  0  0  0  0  0  0
   -2.0378    2.4669    0.0000 C   0  0  0  0  0  0  0  0  0  0  0  0
   -2.8946    1.2357    0.0000 S   0  0  0  0  0  0  0  0  0  0  0  0
   -1.9884    0.0404    0.0000 C   0  0  0  0  0  0  0  0  0  0  0  0
   -2.4228   -1.3954    0.0000 C   0  0  0  0  0  0  0  0  0  0  0  0
   -3.8834   -1.7370    0.0000 O   0  0  0  0  0  0  0  0  0  0  0  0
   -1.3966   -2.4894    0.0000 O   0  0  0  0  0  0  0  0  0  0  0  0
    3.2485   -0.5428    0.0000 C   0  0  0  0  0  0  0  0  0  0  0  0
    3.1221   -2.0375    0.0000 O   0  0  0  0  0  0  0  0  0  0  0  0
    4.6061    0.0951    0.0000 O   0  0  0  0  0  0  0  0  0  0  0  0
  2  1  1  6
  2  3  1  0
  3  4  1  0
  4  5  1  0
  5  6  2  0
  6  7  1  0
  7  8  1  0
  8  9  1  0
  9 10  2  0
  9 11  1  0
  2 12  1  0
 12 13  2  0
 12 14  1  0
  8  4  2  0
M  END
>  <rName>  (365) 
3Thi_2CO2H

>  <PQ_SYMBOL>  (365) 
3Thi_2CO2H

>  <FULL_NAME>  (365) 
(S)-3-(2-amino-2-carboxyethyl)thiophene-2-carboxylic acid

>  <IUPAC_CONDENSED>  (365) 
3Thi(2-CO2H)

>  <IUPAC>  (365) 
3-((2S)-2-amino-3-hydroxy-3-oxopropyl)thiophene-2-carboxylic acid

>  <TYPE>  (365) 
Backbone

>  <CLASS>  (365) 
alpha

>  <ANALOG>  (365) 
Phe

>  <MOL_WT>  (365) 
215.22999999999996

>  <LOGP>  (365) 
0.40070000000000017

>  <TPSA>  (365) 
100.62000000000002

>  <POPULARITY>  (365) 
2.5

>  <PROTECTED>  (365) 
TRUE

>  <SMILES>  (365) 
N[C@@H](Cc1(ccsc1C(=O)O))C(=O)O

>  <INCHIKEY>  (365) 
SWSIMWAQWSITJW-YFKPBYRVSA-N

$$$$
3Thi_2Me_5Me
     RDKit          2D

 13 13  0  0  0  0  0  0  0  0999 V2000
   -1.4768    1.5283    0.0000 N   0  0  0  0  0  0  0  0  0  0  0  0
   -1.7710    0.0575    0.0000 C   0  0  0  0  0  0  0  0  0  0  0  0
   -0.6443   -0.9328    0.0000 C   0  0  0  0  0  0  0  0  0  0  0  0
    0.7766   -0.4521    0.0000 C   0  0  0  0  0  0  0  0  0  0  0  0
    2.0006   -1.3192    0.0000 C   0  0  0  0  0  0  0  0  0  0  0  0
    3.2035   -0.4230    0.0000 C   0  0  0  0  0  0  0  0  0  0  0  0
    4.6355   -0.8694    0.0000 C   0  0  0  0  0  0  0  0  0  0  0  0
    2.7229    0.9979    0.0000 S   0  0  0  0  0  0  0  0  0  0  0  0
    1.2230    0.9799    0.0000 C   0  0  0  0  0  0  0  0  0  0  0  0
    0.3268    2.1828    0.0000 C   0  0  0  0  0  0  0  0  0  0  0  0
   -3.1919   -0.4231    0.0000 C   0  0  0  0  0  0  0  0  0  0  0  0
   -3.4862   -1.8940    0.0000 O   0  0  0  0  0  0  0  0  0  0  0  0
   -4.3186    0.5671    0.0000 O   0  0  0  0  0  0  0  0  0  0  0  0
  2  1  1  1
  2  3  1  0
  3  4  1  0
  4  5  1  0
  5  6  2  0
  6  7  1  0
  6  8  1  0
  8  9  1  0
  9 10  1  0
  2 11  1  0
 11 12  2  0
 11 13  1  0
  9  4  2  0
M  END
>  <rName>  (366) 
3Thi_2Me_5Me

>  <PQ_SYMBOL>  (366) 
3Thi_2Me_5Me

>  <FULL_NAME>  (366) 
(S)-2-amino-3-(2,5-dimethylthiophen-3-yl)propanoic acid

>  <IUPAC_CONDENSED>  (366) 
3Thi(2-Me,5-Me)

>  <IUPAC>  (366) 
(2S)-2-amino-3-(2,5-dimethylthiophen-3-yl)propanoic acid

>  <TYPE>  (366) 
Backbone

>  <CLASS>  (366) 
alpha

>  <ANALOG>  (366) 
Phe

>  <MOL_WT>  (366) 
199.27499999999998

>  <LOGP>  (366) 
1.3193400000000002

>  <TPSA>  (366) 
63.32000000000001

>  <POPULARITY>  (366) 
3.0

>  <PROTECTED>  (366) 
TRUE

>  <SMILES>  (366) 
N[C@@H](Cc1(cc(C)sc1C))C(=O)O

>  <INCHIKEY>  (366) 
GUBJAMNHRNIPSO-QMMMGPOBSA-N

$$$$
4-CH2OH-Bz-bAla
     RDKit          2D

 16 16  0  0  0  0  0  0  0  0999 V2000
   -6.4868    0.0545    0.0000 O   0  0  0  0  0  0  0  0  0  0  0  0
   -5.3898   -0.9685    0.0000 C   0  0  0  0  0  0  0  0  0  0  0  0
   -3.9554   -0.5300    0.0000 C   0  0  0  0  0  0  0  0  0  0  0  0
   -3.6179    0.9316    0.0000 C   0  0  0  0  0  0  0  0  0  0  0  0
   -2.1834    1.3701    0.0000 C   0  0  0  0  0  0  0  0  0  0  0  0
   -1.0864    0.3471    0.0000 C   0  0  0  0  0  0  0  0  0  0  0  0
   -1.4239   -1.1145    0.0000 C   0  0  0  0  0  0  0  0  0  0  0  0
   -2.8584   -1.5530    0.0000 C   0  0  0  0  0  0  0  0  0  0  0  0
    0.3480    0.7856    0.0000 C   0  0  0  0  0  0  0  0  0  0  0  0
    0.6855    2.2471    0.0000 O   0  0  0  0  0  0  0  0  0  0  0  0
    1.4450   -0.2374    0.0000 N   0  0  0  0  0  0  0  0  0  0  0  0
    2.8795    0.2011    0.0000 C   0  0  0  0  0  0  0  0  0  0  0  0
    3.9765   -0.8220    0.0000 C   0  0  0  0  0  0  0  0  0  0  0  0
    5.4110   -0.3834    0.0000 C   0  0  0  0  0  0  0  0  0  0  0  0
    5.7485    1.0781    0.0000 O   0  0  0  0  0  0  0  0  0  0  0  0
    6.5080   -1.4065    0.0000 O   0  0  0  0  0  0  0  0  0  0  0  0
  1  2  1  0
  2  3  1  0
  3  4  1  0
  4  5  2  0
  5  6  1  0
  6  7  2  0
  7  8  1  0
  6  9  1  0
  9 10  2  0
  9 11  1  0
 11 12  1  0
 12 13  1  0
 13 14  1  0
 14 15  2  0
 14 16  1  0
  8  3  2  0
M  END
>  <rName>  (367) 
4-CH2OH-Bz-bAla

>  <PQ_SYMBOL>  (367) 
4-CH2OH-Bz-bAla

>  <FULL_NAME>  (367) 
N-[4-(hydroxymethyl)benzoyl]-beta-alanine

>  <IUPAC_CONDENSED>  (367) 
4-CH2OH-Bz-bAla

>  <IUPAC>  (367) 
3-(4-(hydroxymethyl)phenylcarbonylamino)propanoic acid

>  <TYPE>  (367) 
N-term cap

>  <CLASS>  (367) 
n_cap

>  <ANALOG>  (367) 
X

>  <MOL_WT>  (367) 
223.22799999999995

>  <LOGP>  (367) 
0.38339999999999996

>  <TPSA>  (367) 
86.63000000000001

>  <POPULARITY>  (367) 
8.6

>  <PROTECTED>  (367) 
FALSE

>  <SMILES>  (367) 
OCc1ccc(cc1)C(=O)NCCC(=O)O

>  <INCHIKEY>  (367) 
CXBCVBTXSPPVAG-UHFFFAOYSA-N

$$$$
4-amino-2-oxabicyclo211hexane-3-CO2H_1Me
     RDKit          2D

 11 12  0  0  0  0  0  0  0  0999 V2000
    1.2220    1.0555    0.0000 N   0  0  0  0  0  0  0  0  0  0  0  0
   -0.2678    1.4460    0.0000 C   0  0  0  0  0  0  0  0  0  0  0  0
    0.2919    0.0112    0.0000 C   0  0  0  0  0  0  0  0  0  0  0  0
   -0.8996   -0.9644    0.0000 O   0  0  0  0  0  0  0  0  0  0  0  0
   -2.1957   -0.1326    0.0000 C   0  0  0  0  0  0  0  0  0  0  0  0
   -2.1068   -1.6701    0.0000 C   0  0  0  0  0  0  0  0  0  0  0  0
   -1.8052    1.3571    0.0000 C   0  0  0  0  0  0  0  0  0  0  0  0
   -1.0344    0.4157    0.0000 C   0  0  0  0  0  0  0  0  0  0  0  0
    1.7816   -0.3793    0.0000 C   0  0  0  0  0  0  0  0  0  0  0  0
    2.8365    0.6871    0.0000 O   0  0  0  0  0  0  0  0  0  0  0  0
    2.1776   -1.8261    0.0000 O   0  0  0  0  0  0  0  0  0  0  0  0
  1  2  1  0
  2  3  1  0
  3  4  1  0
  4  5  1  0
  5  6  1  0
  5  7  1  0
  5  8  1  0
  3  9  1  0
  9 10  2  0
  9 11  1  0
  7  2  1  0
  8  2  1  0
M  END
>  <rName>  (368) 
4-amino-2-oxabicyclo211hexane-3-CO2H_1Me

>  <PQ_SYMBOL>  (368) 
4-amino-2-oxabicyclo211hexane-3-CO2H_1Me

>  <FULL_NAME>  (368) 
4-Amino-1-methyl-2-oxabicyclo[2.1.1]hexane-3-carboxylic acid

>  <IUPAC_CONDENSED>  (368) 
4-amino-2-oxabicyclo[2.1.1]hexane-3-CO2H(1-Me)

>  <IUPAC>  (368) 
4-amino-1-methyl-2-oxabicyclo[2.1.1]hexane-3-carboxylic acid

>  <TYPE>  (368) 
Backbone

>  <CLASS>  (368) 
beta

>  <ANALOG>  (368) 
Ser

>  <MOL_WT>  (368) 
157.169

>  <LOGP>  (368) 
-0.2802000000000007

>  <TPSA>  (368) 
72.55

>  <POPULARITY>  (368) 
2.8

>  <PROTECTED>  (368) 
TRUE

>  <SMILES>  (368) 
NC12C(OC(C)(C1)C2)C(=O)O

>  <INCHIKEY>  (368) 
BLPAGQRXGFHSDI-UHFFFAOYSA-N

$$$$
4-amino-bicyclo211hexane-1-CO2H
     RDKit          2D

 10 11  0  0  0  0  0  0  0  0999 V2000
   -2.5433   -0.9014    0.0000 N   0  0  0  0  0  0  0  0  0  0  0  0
   -1.8960    0.4961    0.0000 C   0  0  0  0  0  0  0  0  0  0  0  0
   -0.8486    1.6251    0.0000 C   0  0  0  0  0  0  0  0  0  0  0  0
    0.5488    0.9779    0.0000 C   0  0  0  0  0  0  0  0  0  0  0  0
    0.3651   -0.5512    0.0000 C   0  0  0  0  0  0  0  0  0  0  0  0
   -1.1459   -0.8490    0.0000 C   0  0  0  0  0  0  0  0  0  0  0  0
   -0.6134    0.4313    0.0000 C   0  0  0  0  0  0  0  0  0  0  0  0
    1.6779   -0.0696    0.0000 C   0  0  0  0  0  0  0  0  0  0  0  0
    1.3442   -1.5320    0.0000 O   0  0  0  0  0  0  0  0  0  0  0  0
    3.1112    0.3727    0.0000 O   0  0  0  0  0  0  0  0  0  0  0  0
  1  2  1  0
  2  3  1  0
  3  4  1  0
  4  5  1  0
  5  6  1  0
  4  7  1  0
  4  8  1  0
  8  9  2  0
  8 10  1  0
  6  2  1  0
  7  2  1  0
M  END
>  <rName>  (369) 
4-amino-bicyclo211hexane-1-CO2H

>  <PQ_SYMBOL>  (369) 
4-amino-bicyclo211hexane-1-CO2H

>  <FULL_NAME>  (369) 
4-Aminobicyclo[2.1.1]hexane-1-carboxylic acid

>  <IUPAC_CONDENSED>  (369) 
4-amino-bicyclo[2.1.1]hexane-1-CO2H

>  <IUPAC>  (369) 
4-aminobicyclo[2.1.1]hexane-1-carboxylic acid

>  <TYPE>  (369) 
Backbone

>  <CLASS>  (369) 
gamma

>  <ANALOG>  (369) 
Val

>  <MOL_WT>  (369) 
141.17000000000002

>  <LOGP>  (369) 
0.34249999999999975

>  <TPSA>  (369) 
63.32000000000001

>  <POPULARITY>  (369) 
3.4

>  <PROTECTED>  (369) 
TRUE

>  <SMILES>  (369) 
NC12CC(CC1)(C2)C(=O)O

>  <INCHIKEY>  (369) 
FSVJDTHJJYLEEQ-UHFFFAOYSA-N

$$$$
4-amino-bicyclo221heptane-1-CO2H
     RDKit          2D

 11 12  0  0  0  0  0  0  0  0999 V2000
   -1.0078   -0.3395    0.0000 N   0  0  0  0  0  0  0  0  0  0  0  0
   -2.0099    0.6666    0.0000 C   0  0  0  0  0  0  0  0  0  0  0  0
   -0.5358    0.3610    0.0000 C   0  0  0  0  0  0  0  0  0  0  0  0
    0.4217   -0.8007    0.0000 C   0  0  0  0  0  0  0  0  0  0  0  0
    0.4492    0.6190    0.0000 C   0  0  0  0  0  0  0  0  0  0  0  0
   -0.7666    1.3527    0.0000 C   0  0  0  0  0  0  0  0  0  0  0  0
   -0.8216   -1.4868    0.0000 C   0  0  0  0  0  0  0  0  0  0  0  0
   -2.0374   -0.7532    0.0000 C   0  0  0  0  0  0  0  0  0  0  0  0
    1.6650   -0.1146    0.0000 C   0  0  0  0  0  0  0  0  0  0  0  0
    1.6940    1.3851    0.0000 O   0  0  0  0  0  0  0  0  0  0  0  0
    2.9492   -0.8896    0.0000 O   0  0  0  0  0  0  0  0  0  0  0  0
  1  2  1  0
  2  3  1  0
  3  4  1  0
  4  5  1  0
  5  6  1  0
  4  7  1  0
  7  8  1  0
  4  9  1  0
  9 10  2  0
  9 11  1  0
  6  2  1  0
  8  2  1  0
M  END
>  <rName>  (370) 
4-amino-bicyclo221heptane-1-CO2H

>  <PQ_SYMBOL>  (370) 
4-amino-bicyclo221heptane-1-CO2H

>  <FULL_NAME>  (370) 
4-Aminobicyclo[2.2.1]heptane-1-carboxylic acid

>  <IUPAC_CONDENSED>  (370) 
4-amino-bicyclo[2.2.1]heptane-1-CO2H

>  <IUPAC>  (370) 
4-aminobicyclo[2.2.1]heptane-1-carboxylic acid

>  <TYPE>  (370) 
Backbone

>  <CLASS>  (370) 
gamma

>  <ANALOG>  (370) 
Leu

>  <MOL_WT>  (370) 
155.197

>  <LOGP>  (370) 
0.7325999999999997

>  <TPSA>  (370) 
63.32000000000001

>  <POPULARITY>  (370) 
4.4

>  <PROTECTED>  (370) 
TRUE

>  <SMILES>  (370) 
NC12CC(CC1)(CC2)C(=O)O

>  <INCHIKEY>  (370) 
MDYXIODNSNZLHX-UHFFFAOYSA-N

$$$$
4-amino-bicyclo222octane-1-CO2H
     RDKit          2D

 12 13  0  0  0  0  0  0  0  0999 V2000
   -1.4497   -0.2677    0.0000 N   0  0  0  0  0  0  0  0  0  0  0  0
   -2.0904    0.8544    0.0000 C   0  0  0  0  0  0  0  0  0  0  0  0
   -0.8943    0.6335    0.0000 C   0  0  0  0  0  0  0  0  0  0  0  0
   -0.6864   -0.7261    0.0000 C   0  0  0  0  0  0  0  0  0  0  0  0
    0.6266   -0.8551    0.0000 C   0  0  0  0  0  0  0  0  0  0  0  0
    0.6843    0.7390    0.0000 C   0  0  0  0  0  0  0  0  0  0  0  0
   -0.6784    1.5964    0.0000 C   0  0  0  0  0  0  0  0  0  0  0  0
   -0.7908   -1.6056    0.0000 C   0  0  0  0  0  0  0  0  0  0  0  0
   -2.1535   -0.7482    0.0000 C   0  0  0  0  0  0  0  0  0  0  0  0
    2.0358   -0.1078    0.0000 C   0  0  0  0  0  0  0  0  0  0  0  0
    2.0898    1.3912    0.0000 O   0  0  0  0  0  0  0  0  0  0  0  0
    3.3070   -0.9041    0.0000 O   0  0  0  0  0  0  0  0  0  0  0  0
  1  2  1  0
  2  3  1  0
  3  4  1  0
  4  5  1  0
  5  6  1  0
  6  7  1  0
  5  8  1  0
  8  9  1  0
  5 10  1  0
 10 11  2  0
 10 12  1  0
  7  2  1  0
  9  2  1  0
M  END
>  <rName>  (371) 
4-amino-bicyclo222octane-1-CO2H

>  <PQ_SYMBOL>  (371) 
4-amino-bicyclo222octane-1-CO2H

>  <FULL_NAME>  (371) 
4-Aminobicyclo(2,2,2)octane-1-carboxylic acid

>  <IUPAC_CONDENSED>  (371) 
4-amino-bicyclo[2.2.2]octane-1-CO2H

>  <IUPAC>  (371) 
4-aminobicyclo[2.2.2]octane-1-carboxylic acid

>  <TYPE>  (371) 
Backbone

>  <CLASS>  (371) 
delta

>  <ANALOG>  (371) 
Leu

>  <MOL_WT>  (371) 
169.22400000000002

>  <LOGP>  (371) 
1.1227

>  <TPSA>  (371) 
63.32000000000001

>  <POPULARITY>  (371) 
8.8

>  <PROTECTED>  (371) 
TRUE

>  <SMILES>  (371) 
NC12CCC(CC1)(CC2)C(=O)O

>  <INCHIKEY>  (371) 
ITNWSEKOBRDGLY-UHFFFAOYSA-N

$$$$
4-amino-bicyclo310hexane-1-CO2H_1R_4S_5R
     RDKit          2D

 10 11  0  0  0  0  0  0  0  0999 V2000
   -3.4921   -0.3915    0.0000 N   0  0  0  0  0  0  0  0  0  0  0  0
   -2.0414   -0.0100    0.0000 C   0  0  0  0  0  0  0  0  0  0  0  0
   -0.8801   -0.9594    0.0000 C   0  0  0  0  0  0  0  0  0  0  0  0
    0.3817   -0.1484    0.0000 C   0  0  0  0  0  0  0  0  0  0  0  0
    0.0003    1.3023    0.0000 C   0  0  0  0  0  0  0  0  0  0  0  0
   -1.4973    1.3878    0.0000 C   0  0  0  0  0  0  0  0  0  0  0  0
    0.4532   -1.6467    0.0000 C   0  0  0  0  0  0  0  0  0  0  0  0
    1.8643    0.0794    0.0000 C   0  0  0  0  0  0  0  0  0  0  0  0
    2.4084    1.4772    0.0000 O   0  0  0  0  0  0  0  0  0  0  0  0
    2.8029   -1.0907    0.0000 O   0  0  0  0  0  0  0  0  0  0  0  0
  2  1  1  1
  2  3  1  0
  3  4  1  0
  4  5  1  0
  5  6  1  0
  4  7  1  0
  4  8  1  6
  8  9  2  0
  8 10  1  0
  6  2  1  0
  3  7  1  1
M  END
>  <rName>  (372) 
4-amino-bicyclo310hexane-1-CO2H_1R_4S_5R

>  <PQ_SYMBOL>  (372) 
4-amino-bicyclo310hexane-1-CO2H_1R_4S_5R

>  <FULL_NAME>  (372) 
N[C@H]1CC[C@@]2(C(=O)O)C[C@@H]12

>  <IUPAC_CONDENSED>  (372) 
4-amino-bicyclo[3.1.0]hexane-1-CO2H(1R,4S,5R)

>  <IUPAC>  (372) 
(1R,4S,5R)-4-aminobicyclo[3.1.0]hexane-1-carboxylic acid

>  <TYPE>  (372) 
Backbone

>  <CLASS>  (372) 
gamma

>  <ANALOG>  (372) 
Ala

>  <MOL_WT>  (372) 
141.17000000000002

>  <LOGP>  (372) 
0.19839999999999985

>  <TPSA>  (372) 
63.32000000000001

>  <POPULARITY>  (372) 
4.1

>  <PROTECTED>  (372) 
TRUE

>  <SMILES>  (372) 
N[C@@H]1[C@H]2[C@@](CC1)(C2)C(=O)O

>  <INCHIKEY>  (372) 
LPKHURXIHOULID-KZLJYQGOSA-N

$$$$
4-amino-bicyclo310hexane-1-CO2H_1S_4S_5S
     RDKit          2D

 10 11  0  0  0  0  0  0  0  0999 V2000
   -3.4921   -0.3915    0.0000 N   0  0  0  0  0  0  0  0  0  0  0  0
   -2.0414   -0.0100    0.0000 C   0  0  0  0  0  0  0  0  0  0  0  0
   -0.8801   -0.9594    0.0000 C   0  0  0  0  0  0  0  0  0  0  0  0
    0.3817   -0.1484    0.0000 C   0  0  0  0  0  0  0  0  0  0  0  0
    0.0003    1.3023    0.0000 C   0  0  0  0  0  0  0  0  0  0  0  0
   -1.4973    1.3878    0.0000 C   0  0  0  0  0  0  0  0  0  0  0  0
    0.4532   -1.6467    0.0000 C   0  0  0  0  0  0  0  0  0  0  0  0
    1.8643    0.0794    0.0000 C   0  0  0  0  0  0  0  0  0  0  0  0
    2.4084    1.4772    0.0000 O   0  0  0  0  0  0  0  0  0  0  0  0
    2.8029   -1.0907    0.0000 O   0  0  0  0  0  0  0  0  0  0  0  0
  2  1  1  1
  2  3  1  0
  3  4  1  0
  4  5  1  0
  5  6  1  0
  4  7  1  0
  4  8  1  1
  8  9  2  0
  8 10  1  0
  6  2  1  0
  3  7  1  6
M  END
>  <rName>  (373) 
4-amino-bicyclo310hexane-1-CO2H_1S_4S_5S

>  <PQ_SYMBOL>  (373) 
4-amino-bicyclo310hexane-1-CO2H_1S_4S_5S

>  <FULL_NAME>  (373) 
N[C@H]1CC[C@]2(C(=O)O)C[C@H]12

>  <IUPAC_CONDENSED>  (373) 
4-amino-bicyclo[3.1.0]hexane-1-CO2H(1S,4S,5S)

>  <IUPAC>  (373) 
(1S,4S,5S)-4-aminobicyclo[3.1.0]hexane-1-carboxylic acid

>  <TYPE>  (373) 
Backbone

>  <CLASS>  (373) 
gamma

>  <ANALOG>  (373) 
Ala

>  <MOL_WT>  (373) 
141.17000000000002

>  <LOGP>  (373) 
0.19839999999999985

>  <TPSA>  (373) 
63.32000000000001

>  <POPULARITY>  (373) 
6.5

>  <PROTECTED>  (373) 
TRUE

>  <SMILES>  (373) 
N[C@@H]1[C@@H]2[C@](CC1)(C2)C(=O)O

>  <INCHIKEY>  (373) 
LPKHURXIHOULID-ZDLURKLDSA-N

$$$$
4-amino-bicyclo310hexane-2-CO2H_1R_2R_4S_5S
     RDKit          2D

 10 11  0  0  0  0  0  0  0  0999 V2000
   -3.0481    1.4705    0.0000 N   0  0  0  0  0  0  0  0  0  0  0  0
   -1.7732    0.6802    0.0000 C   0  0  0  0  0  0  0  0  0  0  0  0
   -0.3844    1.2472    0.0000 C   0  0  0  0  0  0  0  0  0  0  0  0
    0.5839    0.1017    0.0000 C   0  0  0  0  0  0  0  0  0  0  0  0
   -0.2063   -1.1733    0.0000 C   0  0  0  0  0  0  0  0  0  0  0  0
   -1.2444   -2.2561    0.0000 C   0  0  0  0  0  0  0  0  0  0  0  0
   -1.6631   -0.8157    0.0000 C   0  0  0  0  0  0  0  0  0  0  0  0
    2.0799    0.2118    0.0000 C   0  0  0  0  0  0  0  0  0  0  0  0
    2.7325    1.5624    0.0000 O   0  0  0  0  0  0  0  0  0  0  0  0
    2.9232   -1.0287    0.0000 O   0  0  0  0  0  0  0  0  0  0  0  0
  2  1  1  1
  2  3  1  0
  3  4  1  0
  4  5  1  0
  5  6  1  6
  7  6  1  6
  4  8  1  1
  8  9  2  0
  8 10  1  0
  7  2  1  0
  7  5  1  0
M  END
>  <rName>  (374) 
4-amino-bicyclo310hexane-2-CO2H_1R_2R_4S_5S

>  <PQ_SYMBOL>  (374) 
4-amino-bicyclo310hexane-2-CO2H_1R_2R_4S_5S

>  <FULL_NAME>  (374) 
(1R,2R,4S,5S)-4-Aminobicyclo[3.1.0]hexane-2-carboxylic acid

>  <IUPAC_CONDENSED>  (374) 
4-amino-bicyclo[3.1.0]hexane-2-CO2H(1R,2R,4S,5S)

>  <IUPAC>  (374) 
(1R,2R,4S,5S)-4-aminobicyclo[3.1.0]hexane-2-carboxylic acid

>  <TYPE>  (374) 
Backbone

>  <CLASS>  (374) 
gamma

>  <ANALOG>  (374) 
X

>  <MOL_WT>  (374) 
141.17

>  <LOGP>  (374) 
0.05429999999999996

>  <TPSA>  (374) 
63.32000000000001

>  <POPULARITY>  (374) 
4.9

>  <PROTECTED>  (374) 
TRUE

>  <SMILES>  (374) 
N[C@H]1C[C@H]([C@@H]2(C[C@H]12))C(=O)O

>  <INCHIKEY>  (374) 
YHRBJUYWYRBRMU-MOJAZDJTSA-N

$$$$
4-amino-bicyclo320heptane-1-CO2H_1R_4S_5S
     RDKit          2D

 11 12  0  0  0  0  0  0  0  0999 V2000
    3.5302   -0.0390    0.0000 N   0  0  0  0  0  0  0  0  0  0  0  0
    2.0517    0.2141    0.0000 C   0  0  0  0  0  0  0  0  0  0  0  0
    0.9779   -0.8333    0.0000 C   0  0  0  0  0  0  0  0  0  0  0  0
   -0.3500   -0.1358    0.0000 C   0  0  0  0  0  0  0  0  0  0  0  0
   -1.0476   -1.4637    0.0000 C   0  0  0  0  0  0  0  0  0  0  0  0
    0.2804   -2.1613    0.0000 C   0  0  0  0  0  0  0  0  0  0  0  0
   -0.0970    1.3427    0.0000 C   0  0  0  0  0  0  0  0  0  0  0  0
    1.3874    1.5589    0.0000 C   0  0  0  0  0  0  0  0  0  0  0  0
   -1.7707    0.3454    0.0000 C   0  0  0  0  0  0  0  0  0  0  0  0
   -2.8978   -0.6444    0.0000 O   0  0  0  0  0  0  0  0  0  0  0  0
   -2.0644    1.8164    0.0000 O   0  0  0  0  0  0  0  0  0  0  0  0
  2  1  1  6
  2  3  1  0
  3  4  1  0
  4  5  1  0
  5  6  1  0
  4  7  1  0
  7  8  1  0
  4  9  1  6
  9 10  2  0
  9 11  1  0
  3  6  1  1
  8  2  1  0
M  END
>  <rName>  (375) 
4-amino-bicyclo320heptane-1-CO2H_1R_4S_5S

>  <PQ_SYMBOL>  (375) 
4-amino-bicyclo320heptane-1-CO2H_1R_4S_5S

>  <FULL_NAME>  (375) 
N[C@H]1CC[C@]2(C(=O)O)CC[C@H]12

>  <IUPAC_CONDENSED>  (375) 
4-amino-bicyclo[3.2.0]heptane-1-CO2H(1R,4S,5S)

>  <IUPAC>  (375) 
(1R,4S,5S)-4-aminobicyclo[3.2.0]heptane-1-carboxylic acid

>  <TYPE>  (375) 
Backbone

>  <CLASS>  (375) 
gamma

>  <ANALOG>  (375) 
Ala

>  <MOL_WT>  (375) 
155.197

>  <LOGP>  (375) 
0.5884999999999998

>  <TPSA>  (375) 
63.32000000000001

>  <POPULARITY>  (375) 
2.8

>  <PROTECTED>  (375) 
TRUE

>  <SMILES>  (375) 
N[C@@H]2[C@@H]1[C@@](CC1)(CC2)C(=O)O

>  <INCHIKEY>  (375) 
ODPMOACITLKZBQ-GKROBHDKSA-N

$$$$
4-amino-cHex-1-CH2CO2H
     RDKit          2D

 11 11  0  0  0  0  0  0  0  0999 V2000
   -4.0738   -0.6025    0.0000 N   0  0  0  0  0  0  0  0  0  0  0  0
   -2.6249   -0.2143    0.0000 C   0  0  0  0  0  0  0  0  0  0  0  0
   -2.2367    1.2346    0.0000 C   0  0  0  0  0  0  0  0  0  0  0  0
   -0.7878    1.6228    0.0000 C   0  0  0  0  0  0  0  0  0  0  0  0
    0.2729    0.5622    0.0000 C   0  0  0  0  0  0  0  0  0  0  0  0
   -0.1153   -0.8867    0.0000 C   0  0  0  0  0  0  0  0  0  0  0  0
   -1.5642   -1.2750    0.0000 C   0  0  0  0  0  0  0  0  0  0  0  0
    1.7218    0.9504    0.0000 C   0  0  0  0  0  0  0  0  0  0  0  0
    2.7824   -0.1103    0.0000 C   0  0  0  0  0  0  0  0  0  0  0  0
    2.3942   -1.5592    0.0000 O   0  0  0  0  0  0  0  0  0  0  0  0
    4.2313    0.2780    0.0000 O   0  0  0  0  0  0  0  0  0  0  0  0
  1  2  1  0
  2  3  1  0
  3  4  1  0
  4  5  1  0
  5  6  1  0
  6  7  1  0
  5  8  1  0
  8  9  1  0
  9 10  2  0
  9 11  1  0
  7  2  1  0
M  END
>  <rName>  (376) 
4-amino-cHex-1-CH2CO2H

>  <PQ_SYMBOL>  (376) 
4-amino-cHex-1-CH2CO2H

>  <FULL_NAME>  (376) 
2-(4-aminocyclohexyl)acetic Acid

>  <IUPAC_CONDENSED>  (376) 
4-amino-cHex-1-CH2CO2H

>  <IUPAC>  (376) 
2-(4-aminocyclohexyl)acetic acid

>  <TYPE>  (376) 
Backbone

>  <CLASS>  (376) 
epsilon

>  <ANALOG>  (376) 
Ala

>  <MOL_WT>  (376) 
157.213

>  <LOGP>  (376) 
0.9785999999999997

>  <TPSA>  (376) 
63.32000000000001

>  <POPULARITY>  (376) 
12.3

>  <PROTECTED>  (376) 
TRUE

>  <SMILES>  (376) 
NC1CCC(CC1)CC(=O)O

>  <INCHIKEY>  (376) 
XVDSFSRMHSDHGJ-UHFFFAOYSA-N

$$$$
4-amino-cHex-1-CH2CO2H_1r_4r
     RDKit          2D

 11 11  0  0  0  0  0  0  0  0999 V2000
   -4.0738   -0.6025    0.0000 N   0  0  0  0  0  0  0  0  0  0  0  0
   -2.6249   -0.2143    0.0000 C   0  0  0  0  0  0  0  0  0  0  0  0
   -2.2367    1.2346    0.0000 C   0  0  0  0  0  0  0  0  0  0  0  0
   -0.7878    1.6228    0.0000 C   0  0  0  0  0  0  0  0  0  0  0  0
    0.2729    0.5622    0.0000 C   0  0  0  0  0  0  0  0  0  0  0  0
   -0.1153   -0.8867    0.0000 C   0  0  0  0  0  0  0  0  0  0  0  0
   -1.5642   -1.2750    0.0000 C   0  0  0  0  0  0  0  0  0  0  0  0
    1.7218    0.9504    0.0000 C   0  0  0  0  0  0  0  0  0  0  0  0
    2.7824   -0.1103    0.0000 C   0  0  0  0  0  0  0  0  0  0  0  0
    2.3942   -1.5592    0.0000 O   0  0  0  0  0  0  0  0  0  0  0  0
    4.2313    0.2780    0.0000 O   0  0  0  0  0  0  0  0  0  0  0  0
  2  1  1  1
  2  3  1  0
  3  4  1  0
  4  5  1  0
  5  6  1  0
  6  7  1  0
  5  8  1  6
  8  9  1  0
  9 10  2  0
  9 11  1  0
  7  2  1  0
M  END
>  <rName>  (377) 
4-amino-cHex-1-CH2CO2H_1r_4r

>  <PQ_SYMBOL>  (377) 
4-amino-cHex-1-CH2CO2H_1r_4r

>  <FULL_NAME>  (377) 
2-(4-aminocyclohexyl)acetic Acid

>  <IUPAC_CONDENSED>  (377) 
4-amino-cHex-1-CH2CO2H(1r,4r)

>  <IUPAC>  (377) 
2-(4-aminocyclohexyl)acetic acid

>  <TYPE>  (377) 
Backbone

>  <CLASS>  (377) 
epsilon

>  <ANALOG>  (377) 
Ala

>  <MOL_WT>  (377) 
157.213

>  <LOGP>  (377) 
0.9785999999999997

>  <TPSA>  (377) 
63.32000000000001

>  <POPULARITY>  (377) 
9.0

>  <PROTECTED>  (377) 
TRUE

>  <SMILES>  (377) 
N[C@H]1CC[C@@H](CC1)CC(=O)O

>  <INCHIKEY>  (377) 
XVDSFSRMHSDHGJ-LJGSYFOKSA-N

$$$$
4-amino-cHex-1-CH2CO2H_1s_4s
     RDKit          2D

 11 11  0  0  0  0  0  0  0  0999 V2000
   -4.0738   -0.6025    0.0000 N   0  0  0  0  0  0  0  0  0  0  0  0
   -2.6249   -0.2143    0.0000 C   0  0  0  0  0  0  0  0  0  0  0  0
   -2.2367    1.2346    0.0000 C   0  0  0  0  0  0  0  0  0  0  0  0
   -0.7878    1.6228    0.0000 C   0  0  0  0  0  0  0  0  0  0  0  0
    0.2729    0.5622    0.0000 C   0  0  0  0  0  0  0  0  0  0  0  0
   -0.1153   -0.8867    0.0000 C   0  0  0  0  0  0  0  0  0  0  0  0
   -1.5642   -1.2750    0.0000 C   0  0  0  0  0  0  0  0  0  0  0  0
    1.7218    0.9504    0.0000 C   0  0  0  0  0  0  0  0  0  0  0  0
    2.7824   -0.1103    0.0000 C   0  0  0  0  0  0  0  0  0  0  0  0
    2.3942   -1.5592    0.0000 O   0  0  0  0  0  0  0  0  0  0  0  0
    4.2313    0.2780    0.0000 O   0  0  0  0  0  0  0  0  0  0  0  0
  2  1  1  1
  2  3  1  0
  3  4  1  0
  4  5  1  0
  5  6  1  0
  6  7  1  0
  5  8  1  1
  8  9  1  0
  9 10  2  0
  9 11  1  0
  7  2  1  0
M  END
>  <rName>  (378) 
4-amino-cHex-1-CH2CO2H_1s_4s

>  <PQ_SYMBOL>  (378) 
4-amino-cHex-1-CH2CO2H_1s_4s

>  <FULL_NAME>  (378) 
(cis-4-Aminocyclohexyl)acetic acid

>  <IUPAC_CONDENSED>  (378) 
4-amino-cHex-1-CH2CO2H(1s,4s)

>  <IUPAC>  (378) 
2-[(1S,4R)-4-aminocyclohexyl]acetic acid

>  <TYPE>  (378) 
Backbone

>  <CLASS>  (378) 
epsilon

>  <ANALOG>  (378) 
Ala

>  <MOL_WT>  (378) 
157.213

>  <LOGP>  (378) 
0.9785999999999997

>  <TPSA>  (378) 
63.32000000000001

>  <POPULARITY>  (378) 
8.9

>  <PROTECTED>  (378) 
TRUE

>  <SMILES>  (378) 
N[C@H]1CC[C@H](CC1)CC(=O)O

>  <INCHIKEY>  (378) 
XVDSFSRMHSDHGJ-KNVOCYPGSA-N

$$$$
4-amino-cHex-1-CO2H
     RDKit          2D

 10 10  0  0  0  0  0  0  0  0999 V2000
    3.7500    0.0000    0.0000 N   0  0  0  0  0  0  0  0  0  0  0  0
    2.2500   -0.0000    0.0000 C   0  0  0  0  0  0  0  0  0  0  0  0
    1.5000   -1.2990    0.0000 C   0  0  0  0  0  0  0  0  0  0  0  0
   -0.0000   -1.2990    0.0000 C   0  0  0  0  0  0  0  0  0  0  0  0
   -0.7500    0.0000    0.0000 C   0  0  0  0  0  0  0  0  0  0  0  0
    0.0000    1.2990    0.0000 C   0  0  0  0  0  0  0  0  0  0  0  0
    1.5000    1.2990    0.0000 C   0  0  0  0  0  0  0  0  0  0  0  0
   -2.2500    0.0000    0.0000 C   0  0  0  0  0  0  0  0  0  0  0  0
   -3.0000   -1.2990    0.0000 O   0  0  0  0  0  0  0  0  0  0  0  0
   -3.0000    1.2990    0.0000 O   0  0  0  0  0  0  0  0  0  0  0  0
  1  2  1  0
  2  3  1  0
  3  4  1  0
  4  5  1  0
  5  6  1  0
  6  7  1  0
  5  8  1  0
  8  9  2  0
  8 10  1  0
  7  2  1  0
M  END
>  <rName>  (379) 
4-amino-cHex-1-CO2H

>  <PQ_SYMBOL>  (379) 
4-amino-cHex-1-CO2H

>  <FULL_NAME>  (379) 
4-aminocyclohexane-1-carboxylic acid

>  <IUPAC_CONDENSED>  (379) 
4-amino-cHex-1-CO2H

>  <IUPAC>  (379) 
4-aminocyclohexanecarboxylic acid

>  <TYPE>  (379) 
Backbone

>  <CLASS>  (379) 
delta

>  <ANALOG>  (379) 
Ala

>  <MOL_WT>  (379) 
143.186

>  <LOGP>  (379) 
0.5884999999999998

>  <TPSA>  (379) 
63.32000000000001

>  <POPULARITY>  (379) 
15.7

>  <PROTECTED>  (379) 
TRUE

>  <SMILES>  (379) 
NC1CCC(CC1)C(=O)O

>  <INCHIKEY>  (379) 
DRNGLYHKYPNTEA-UHFFFAOYSA-N

$$$$
4-amino-cHex-1-CO2H_1r_4r
     RDKit          2D

 10 10  0  0  0  0  0  0  0  0999 V2000
    3.7500    0.0000    0.0000 N   0  0  0  0  0  0  0  0  0  0  0  0
    2.2500   -0.0000    0.0000 C   0  0  0  0  0  0  0  0  0  0  0  0
    1.5000   -1.2990    0.0000 C   0  0  0  0  0  0  0  0  0  0  0  0
   -0.0000   -1.2990    0.0000 C   0  0  0  0  0  0  0  0  0  0  0  0
   -0.7500    0.0000    0.0000 C   0  0  0  0  0  0  0  0  0  0  0  0
    0.0000    1.2990    0.0000 C   0  0  0  0  0  0  0  0  0  0  0  0
    1.5000    1.2990    0.0000 C   0  0  0  0  0  0  0  0  0  0  0  0
   -2.2500    0.0000    0.0000 C   0  0  0  0  0  0  0  0  0  0  0  0
   -3.0000   -1.2990    0.0000 O   0  0  0  0  0  0  0  0  0  0  0  0
   -3.0000    1.2990    0.0000 O   0  0  0  0  0  0  0  0  0  0  0  0
  2  1  1  1
  2  3  1  0
  3  4  1  0
  4  5  1  0
  5  6  1  0
  6  7  1  0
  5  8  1  6
  8  9  2  0
  8 10  1  0
  7  2  1  0
M  END
>  <rName>  (380) 
4-amino-cHex-1-CO2H_1r_4r

>  <PQ_SYMBOL>  (380) 
4-amino-cHex-1-CO2H_1r_4r

>  <FULL_NAME>  (380) 
(1r,4r)-4-aminocyclohexane-1-carboxylic acid

>  <IUPAC_CONDENSED>  (380) 
4-amino-cHex-1-CO2H(1r,4r)

>  <IUPAC>  (380) 
4-aminocyclohexane-1-carboxylic acid

>  <TYPE>  (380) 
Backbone

>  <CLASS>  (380) 
delta

>  <ANALOG>  (380) 
Ala

>  <MOL_WT>  (380) 
143.186

>  <LOGP>  (380) 
0.5884999999999998

>  <TPSA>  (380) 
63.32000000000001

>  <POPULARITY>  (380) 
14.4

>  <PROTECTED>  (380) 
TRUE

>  <SMILES>  (380) 
N[C@H]1CC[C@@H](CC1)C(=O)O

>  <INCHIKEY>  (380) 
DRNGLYHKYPNTEA-IZLXSQMJSA-N

$$$$
4-amino-cHex-1-CO2H_1s_4s
     RDKit          2D

 10 10  0  0  0  0  0  0  0  0999 V2000
    3.7500    0.0000    0.0000 N   0  0  0  0  0  0  0  0  0  0  0  0
    2.2500   -0.0000    0.0000 C   0  0  0  0  0  0  0  0  0  0  0  0
    1.5000   -1.2990    0.0000 C   0  0  0  0  0  0  0  0  0  0  0  0
   -0.0000   -1.2990    0.0000 C   0  0  0  0  0  0  0  0  0  0  0  0
   -0.7500    0.0000    0.0000 C   0  0  0  0  0  0  0  0  0  0  0  0
    0.0000    1.2990    0.0000 C   0  0  0  0  0  0  0  0  0  0  0  0
    1.5000    1.2990    0.0000 C   0  0  0  0  0  0  0  0  0  0  0  0
   -2.2500    0.0000    0.0000 C   0  0  0  0  0  0  0  0  0  0  0  0
   -3.0000   -1.2990    0.0000 O   0  0  0  0  0  0  0  0  0  0  0  0
   -3.0000    1.2990    0.0000 O   0  0  0  0  0  0  0  0  0  0  0  0
  2  1  1  1
  2  3  1  0
  3  4  1  0
  4  5  1  0
  5  6  1  0
  6  7  1  0
  5  8  1  1
  8  9  2  0
  8 10  1  0
  7  2  1  0
M  END
>  <rName>  (381) 
4-amino-cHex-1-CO2H_1s_4s

>  <PQ_SYMBOL>  (381) 
4-amino-cHex-1-CO2H_1s_4s

>  <FULL_NAME>  (381) 
(1s,4s)-4-aminocyclohexane-1-carboxylic acid

>  <IUPAC_CONDENSED>  (381) 
4-amino-cHex-1-CO2H(1s,4s)

>  <IUPAC>  (381) 
4-aminocyclohexane-1-carboxylic acid

>  <TYPE>  (381) 
Backbone

>  <CLASS>  (381) 
delta

>  <ANALOG>  (381) 
Ala

>  <MOL_WT>  (381) 
143.186

>  <LOGP>  (381) 
0.5884999999999998

>  <TPSA>  (381) 
63.32000000000001

>  <POPULARITY>  (381) 
11.5

>  <PROTECTED>  (381) 
TRUE

>  <SMILES>  (381) 
N[C@H]1CC[C@H](CC1)C(=O)O

>  <INCHIKEY>  (381) 
DRNGLYHKYPNTEA-OLQVQODUSA-N

$$$$
4-amino-cyclohex-1-ene-1-CO2H
     RDKit          2D

 10 10  0  0  0  0  0  0  0  0999 V2000
    3.7500    0.0000    0.0000 N   0  0  0  0  0  0  0  0  0  0  0  0
    2.2500   -0.0000    0.0000 C   0  0  0  0  0  0  0  0  0  0  0  0
    1.5000   -1.2990    0.0000 C   0  0  0  0  0  0  0  0  0  0  0  0
   -0.0000   -1.2990    0.0000 C   0  0  0  0  0  0  0  0  0  0  0  0
   -0.7500    0.0000    0.0000 C   0  0  0  0  0  0  0  0  0  0  0  0
    0.0000    1.2990    0.0000 C   0  0  0  0  0  0  0  0  0  0  0  0
    1.5000    1.2990    0.0000 C   0  0  0  0  0  0  0  0  0  0  0  0
   -2.2500    0.0000    0.0000 C   0  0  0  0  0  0  0  0  0  0  0  0
   -3.0000   -1.2990    0.0000 O   0  0  0  0  0  0  0  0  0  0  0  0
   -3.0000    1.2990    0.0000 O   0  0  0  0  0  0  0  0  0  0  0  0
  1  2  1  0
  2  3  1  0
  3  4  1  0
  4  5  2  0
  5  6  1  0
  6  7  1  0
  5  8  1  0
  8  9  2  0
  8 10  1  0
  7  2  1  0
M  END
>  <rName>  (382) 
4-amino-cyclohex-1-ene-1-CO2H

>  <PQ_SYMBOL>  (382) 
4-amino-cyclohex-1-ene-1-CO2H

>  <FULL_NAME>  (382) 
4-Aminocyclohex-1-ene-1-carboxylic acid

>  <IUPAC_CONDENSED>  (382) 
4-amino-cyclohex-1-ene-1-CO2H

>  <IUPAC>  (382) 
4-aminocyclohex-1-ene-1-carboxylic acid

>  <TYPE>  (382) 
Backbone

>  <CLASS>  (382) 
delta

>  <ANALOG>  (382) 
Ala

>  <MOL_WT>  (382) 
141.17000000000002

>  <LOGP>  (382) 
0.5085999999999999

>  <TPSA>  (382) 
63.32000000000001

>  <POPULARITY>  (382) 
9.6

>  <PROTECTED>  (382) 
TRUE

>  <SMILES>  (382) 
NC1CC=C(CC1)C(=O)O

>  <INCHIKEY>  (382) 
KZUBJABFPQJQGO-UHFFFAOYSA-N

$$$$
4-amino-cyclopent-1-ene-1-CO2H
     RDKit          2D

  9  9  0  0  0  0  0  0  0  0999 V2000
   -3.3052   -0.8467    0.0000 N   0  0  0  0  0  0  0  0  0  0  0  0
   -1.9481   -0.2077    0.0000 C   0  0  0  0  0  0  0  0  0  0  0  0
   -0.6334   -0.9301    0.0000 C   0  0  0  0  0  0  0  0  0  0  0  0
    0.4598    0.0969    0.0000 C   0  0  0  0  0  0  0  0  0  0  0  0
   -0.1792    1.4541    0.0000 C   0  0  0  0  0  0  0  0  0  0  0  0
   -1.6673    1.2657    0.0000 C   0  0  0  0  0  0  0  0  0  0  0  0
    1.9333   -0.1838    0.0000 C   0  0  0  0  0  0  0  0  0  0  0  0
    2.9132    0.9519    0.0000 O   0  0  0  0  0  0  0  0  0  0  0  0
    2.4269   -1.6003    0.0000 O   0  0  0  0  0  0  0  0  0  0  0  0
  1  2  1  0
  2  3  1  0
  3  4  1  0
  4  5  2  0
  5  6  1  0
  4  7  1  0
  7  8  2  0
  7  9  1  0
  6  2  1  0
M  END
>  <rName>  (383) 
4-amino-cyclopent-1-ene-1-CO2H

>  <PQ_SYMBOL>  (383) 
4-amino-cyclopent-1-ene-1-CO2H

>  <FULL_NAME>  (383) 
4-Aminocyclopent-1-enecarboxylic acid

>  <IUPAC_CONDENSED>  (383) 
4-amino-cyclopent-1-ene-1-CO2H

>  <IUPAC>  (383) 
4-aminocyclopent-1-ene-1-carboxylic acid

>  <TYPE>  (383) 
Backbone

>  <CLASS>  (383) 
gamma

>  <ANALOG>  (383) 
Ala

>  <MOL_WT>  (383) 
127.14299999999997

>  <LOGP>  (383) 
0.1185

>  <TPSA>  (383) 
63.32000000000001

>  <POPULARITY>  (383) 
5.0

>  <PROTECTED>  (383) 
TRUE

>  <SMILES>  (383) 
NC1CC(=CC1)C(=O)O

>  <INCHIKEY>  (383) 
CVVDYLXTNDBWJC-UHFFFAOYSA-N

$$$$
4-amino-cyclopent-2-ene-1-CO2H
     RDKit          2D

  9  9  0  0  0  0  0  0  0  0999 V2000
   -3.3052   -0.8467    0.0000 N   0  0  0  0  0  0  0  0  0  0  0  0
   -1.9481   -0.2077    0.0000 C   0  0  0  0  0  0  0  0  0  0  0  0
   -0.6334   -0.9301    0.0000 C   0  0  0  0  0  0  0  0  0  0  0  0
    0.4598    0.0969    0.0000 C   0  0  0  0  0  0  0  0  0  0  0  0
   -0.1792    1.4541    0.0000 C   0  0  0  0  0  0  0  0  0  0  0  0
   -1.6673    1.2657    0.0000 C   0  0  0  0  0  0  0  0  0  0  0  0
    1.9333   -0.1838    0.0000 C   0  0  0  0  0  0  0  0  0  0  0  0
    2.9132    0.9519    0.0000 O   0  0  0  0  0  0  0  0  0  0  0  0
    2.4269   -1.6003    0.0000 O   0  0  0  0  0  0  0  0  0  0  0  0
  1  2  1  0
  2  3  1  0
  3  4  1  0
  4  5  1  0
  5  6  2  0
  4  7  1  0
  7  8  2  0
  7  9  1  0
  6  2  1  0
M  END
>  <rName>  (384) 
4-amino-cyclopent-2-ene-1-CO2H

>  <PQ_SYMBOL>  (384) 
4-amino-cyclopent-2-ene-1-CO2H

>  <FULL_NAME>  (384) 
4-Amino-2-cyclopentene-1-carboxylic acid

>  <IUPAC_CONDENSED>  (384) 
4-amino-cyclopent-2-ene-1-CO2H

>  <IUPAC>  (384) 
4-aminocyclopent-2-ene-1-carboxylic acid

>  <TYPE>  (384) 
Backbone

>  <CLASS>  (384) 
gamma

>  <ANALOG>  (384) 
Ala

>  <MOL_WT>  (384) 
127.14299999999997

>  <LOGP>  (384) 
-0.025600000000000345

>  <TPSA>  (384) 
63.32000000000001

>  <POPULARITY>  (384) 
5.2

>  <PROTECTED>  (384) 
TRUE

>  <SMILES>  (384) 
NC1CC(C=C1)C(=O)O

>  <INCHIKEY>  (384) 
VTCHZFWYUPZZKL-UHFFFAOYSA-N

$$$$
4-amino-oxane-2-CO2H_2S_4S
     RDKit          2D

 10 10  0  0  0  0  0  0  0  0999 V2000
    2.9197   -1.6440    0.0000 N   0  0  0  0  0  0  0  0  0  0  0  0
    1.8615   -0.5809    0.0000 C   0  0  0  0  0  0  0  0  0  0  0  0
    0.4117   -0.9659    0.0000 C   0  0  0  0  0  0  0  0  0  0  0  0
   -0.6466    0.0971    0.0000 C   0  0  0  0  0  0  0  0  0  0  0  0
   -0.2551    1.5451    0.0000 O   0  0  0  0  0  0  0  0  0  0  0  0
    1.1946    1.9301    0.0000 C   0  0  0  0  0  0  0  0  0  0  0  0
    2.2529    0.8671    0.0000 C   0  0  0  0  0  0  0  0  0  0  0  0
   -2.0963   -0.2879    0.0000 C   0  0  0  0  0  0  0  0  0  0  0  0
   -2.4878   -1.7359    0.0000 O   0  0  0  0  0  0  0  0  0  0  0  0
   -3.1546    0.7752    0.0000 O   0  0  0  0  0  0  0  0  0  0  0  0
  2  1  1  6
  2  3  1  0
  3  4  1  0
  4  5  1  0
  5  6  1  0
  6  7  1  0
  4  8  1  1
  8  9  2  0
  8 10  1  0
  7  2  1  0
M  END
>  <rName>  (385) 
4-amino-oxane-2-CO2H_2S_4S

>  <PQ_SYMBOL>  (385) 
4-amino-oxane-2-CO2H_2S_4S

>  <FULL_NAME>  (385) 
N[C@H]1CCO[C@H](C(=O)O)C1

>  <IUPAC_CONDENSED>  (385) 
4-amino-oxane-2-CO2H(2S,4S)

>  <IUPAC>  (385) 
(2S,4S)-4-aminooxane-2-carboxylic acid

>  <TYPE>  (385) 
Backbone

>  <CLASS>  (385) 
gamma

>  <ANALOG>  (385) 
Ser

>  <MOL_WT>  (385) 
145.15800000000002

>  <LOGP>  (385) 
-0.42270000000000035

>  <TPSA>  (385) 
72.55

>  <POPULARITY>  (385) 
3.4

>  <PROTECTED>  (385) 
TRUE

>  <SMILES>  (385) 
N[C@@H]1C[C@H](OCC1)C(=O)O

>  <INCHIKEY>  (385) 
MCTHDVKLSBCBKO-WHFBIAKZSA-N

$$$$
4-amino-oxane-3-CO2H_3R_4R
     RDKit          2D

 10 10  0  0  0  0  0  0  0  0999 V2000
   -0.4166   -2.3203    0.0000 N   0  0  0  0  0  0  0  0  0  0  0  0
    0.3975   -1.0604    0.0000 C   0  0  0  0  0  0  0  0  0  0  0  0
   -0.2866    0.2745    0.0000 C   0  0  0  0  0  0  0  0  0  0  0  0
    0.5274    1.5344    0.0000 C   0  0  0  0  0  0  0  0  0  0  0  0
    2.0255    1.4594    0.0000 O   0  0  0  0  0  0  0  0  0  0  0  0
    2.7096    0.1244    0.0000 C   0  0  0  0  0  0  0  0  0  0  0  0
    1.8956   -1.1355    0.0000 C   0  0  0  0  0  0  0  0  0  0  0  0
   -1.7848    0.3495    0.0000 C   0  0  0  0  0  0  0  0  0  0  0  0
   -2.5988   -0.9104    0.0000 O   0  0  0  0  0  0  0  0  0  0  0  0
   -2.4688    1.6844    0.0000 O   0  0  0  0  0  0  0  0  0  0  0  0
  2  1  1  1
  2  3  1  0
  3  4  1  0
  4  5  1  0
  5  6  1  0
  6  7  1  0
  3  8  1  1
  8  9  2  0
  8 10  1  0
  7  2  1  0
M  END
>  <rName>  (386) 
4-amino-oxane-3-CO2H_3R_4R

>  <PQ_SYMBOL>  (386) 
4-amino-oxane-3-CO2H_3R_4R

>  <FULL_NAME>  (386) 
(3R,4R)-4-aminooxane-3-carboxylic acid

>  <IUPAC_CONDENSED>  (386) 
4-amino-oxane-3-CO2H(3R,4R)

>  <IUPAC>  (386) 
(3R,4R)-4-aminooxane-3-carboxylic acid

>  <TYPE>  (386) 
Backbone

>  <CLASS>  (386) 
beta

>  <ANALOG>  (386) 
Ser

>  <MOL_WT>  (386) 
145.15800000000002

>  <LOGP>  (386) 
-0.5652000000000004

>  <TPSA>  (386) 
72.55

>  <POPULARITY>  (386) 
5.6

>  <PROTECTED>  (386) 
TRUE

>  <SMILES>  (386) 
N[C@H]1[C@H](COCC1)C(=O)O

>  <INCHIKEY>  (386) 
YSQUSEAQPGJNPB-CRCLSJGQSA-N

$$$$
4-amino-oxolane-3-CO2H_3R_4S
     RDKit          2D

  9  9  0  0  0  0  0  0  0  0999 V2000
   -0.5115   -2.3139    0.0000 N   0  0  0  0  0  0  0  0  0  0  0  0
   -0.8624   -0.8555    0.0000 C   0  0  0  0  0  0  0  0  0  0  0  0
    0.1113    0.2855    0.0000 C   0  0  0  0  0  0  0  0  0  0  0  0
   -0.6730    1.5641    0.0000 C   0  0  0  0  0  0  0  0  0  0  0  0
   -2.1314    1.2133    0.0000 O   0  0  0  0  0  0  0  0  0  0  0  0
   -2.2485   -0.2821    0.0000 C   0  0  0  0  0  0  0  0  0  0  0  0
    1.6067    0.1685    0.0000 C   0  0  0  0  0  0  0  0  0  0  0  0
    2.4558    1.4051    0.0000 O   0  0  0  0  0  0  0  0  0  0  0  0
    2.2531   -1.1851    0.0000 O   0  0  0  0  0  0  0  0  0  0  0  0
  2  1  1  6
  2  3  1  0
  3  4  1  0
  4  5  1  0
  5  6  1  0
  3  7  1  6
  7  8  2  0
  7  9  1  0
  6  2  1  0
M  END
>  <rName>  (387) 
4-amino-oxolane-3-CO2H_3R_4S

>  <PQ_SYMBOL>  (387) 
4-amino-oxolane-3-CO2H_3R_4S

>  <FULL_NAME>  (387) 
(3R,4S)-4-Aminotetrahydrofuran-3-carboxylic acid

>  <IUPAC_CONDENSED>  (387) 
4-amino-oxolane-3-CO2H(3R,4S)

>  <IUPAC>  (387) 
(3R,4S)-4-aminooxolane-3-carboxylic acid

>  <TYPE>  (387) 
Backbone

>  <CLASS>  (387) 
beta

>  <ANALOG>  (387) 
Ser

>  <MOL_WT>  (387) 
131.131

>  <LOGP>  (387) 
-0.9552999999999998

>  <TPSA>  (387) 
72.55

>  <POPULARITY>  (387) 
5.2

>  <PROTECTED>  (387) 
TRUE

>  <SMILES>  (387) 
N[C@H]1[C@H](COC1)C(=O)O

>  <INCHIKEY>  (387) 
ACCUSSMGNVVSBC-IUYQGCFVSA-N

$$$$
4-amino-thiane-11-dioxide-2-CO2H
     RDKit          2D

 12 12  0  0  0  0  0  0  0  0999 V2000
    3.4062   -1.4634    0.0000 N   0  0  0  0  0  0  0  0  0  0  0  0
    2.1782   -0.6021    0.0000 C   0  0  0  0  0  0  0  0  0  0  0  0
    0.8182   -1.2350    0.0000 C   0  0  0  0  0  0  0  0  0  0  0  0
   -0.4099   -0.3737    0.0000 C   0  0  0  0  0  0  0  0  0  0  0  0
   -0.2780    1.1205    0.0000 S   0  0  0  0  0  0  0  0  0  0  0  0
   -1.7724    0.9909    0.0000 O   0  0  0  0  0  0  0  0  0  0  0  0
   -0.6651    2.5697    0.0000 O   0  0  0  0  0  0  0  0  0  0  0  0
    1.0820    1.7534    0.0000 C   0  0  0  0  0  0  0  0  0  0  0  0
    2.3100    0.8921    0.0000 C   0  0  0  0  0  0  0  0  0  0  0  0
   -1.7698   -1.0065    0.0000 C   0  0  0  0  0  0  0  0  0  0  0  0
   -1.9017   -2.5007    0.0000 O   0  0  0  0  0  0  0  0  0  0  0  0
   -2.9979   -0.1452    0.0000 O   0  0  0  0  0  0  0  0  0  0  0  0
  1  2  1  0
  2  3  1  0
  3  4  1  0
  4  5  1  0
  5  6  2  0
  5  7  2  0
  5  8  1  0
  8  9  1  0
  4 10  1  0
 10 11  2  0
 10 12  1  0
  9  2  1  0
M  END
>  <rName>  (388) 
4-amino-thiane-11-dioxide-2-CO2H

>  <PQ_SYMBOL>  (388) 
4-amino-thiane-11-dioxide-2-CO2H

>  <FULL_NAME>  (388) 
4-Amino-1,1-dioxo-1lambda6-thiane-2-carboxylic acid

>  <IUPAC_CONDENSED>  (388) 
4-amino-thiane-1,1-dioxide-2-CO2H

>  <IUPAC>  (388) 
4-amino-1,1-dioxo-1lambda^6-thiacyclohexane-2-carboxylic acid

>  <TYPE>  (388) 
Backbone

>  <CLASS>  (388) 
gamma

>  <ANALOG>  (388) 
X

>  <MOL_WT>  (388) 
193.22399999999996

>  <LOGP>  (388) 
-1.0245000000000002

>  <TPSA>  (388) 
97.46000000000001

>  <POPULARITY>  (388) 
2.7

>  <PROTECTED>  (388) 
TRUE

>  <SMILES>  (388) 
NC1CC(S(=O)(=O)CC1)C(=O)O

>  <INCHIKEY>  (388) 
WPZVIQKTBVRXTE-UHFFFAOYSA-N

$$$$
4-amino-thiolane-11-dioxide-2-CO2H
     RDKit          2D

 11 11  0  0  0  0  0  0  0  0999 V2000
   -3.4074   -1.1869    0.0000 N   0  0  0  0  0  0  0  0  0  0  0  0
   -2.0317   -0.5890    0.0000 C   0  0  0  0  0  0  0  0  0  0  0  0
   -0.7394   -1.3505    0.0000 C   0  0  0  0  0  0  0  0  0  0  0  0
    0.3842   -0.3568    0.0000 C   0  0  0  0  0  0  0  0  0  0  0  0
   -0.2137    1.0189    0.0000 S   0  0  0  0  0  0  0  0  0  0  0  0
   -0.5125    2.4889    0.0000 O   0  0  0  0  0  0  0  0  0  0  0  0
    1.2170    1.4698    0.0000 O   0  0  0  0  0  0  0  0  0  0  0  0
   -1.7068    0.8754    0.0000 C   0  0  0  0  0  0  0  0  0  0  0  0
    1.8486   -0.6817    0.0000 C   0  0  0  0  0  0  0  0  0  0  0  0
    2.8622    0.4241    0.0000 O   0  0  0  0  0  0  0  0  0  0  0  0
    2.2994   -2.1123    0.0000 O   0  0  0  0  0  0  0  0  0  0  0  0
  1  2  1  0
  2  3  1  0
  3  4  1  0
  4  5  1  0
  5  6  2  0
  5  7  2  0
  5  8  1  0
  4  9  1  0
  9 10  2  0
  9 11  1  0
  8  2  1  0
M  END
>  <rName>  (389) 
4-amino-thiolane-11-dioxide-2-CO2H

>  <PQ_SYMBOL>  (389) 
4-amino-thiolane-11-dioxide-2-CO2H

>  <FULL_NAME>  (389) 
4-Amino-1,1-dioxo-1lambda6-thiolane-2-carboxylic acid

>  <IUPAC_CONDENSED>  (389) 
4-amino-thiolane-1,1-dioxide-2-CO2H

>  <IUPAC>  (389) 
4-amino-1,1-dioxothiolane-2-carboxylic acid

>  <TYPE>  (389) 
Backbone

>  <CLASS>  (389) 
gamma

>  <ANALOG>  (389) 
X

>  <MOL_WT>  (389) 
179.19699999999997

>  <LOGP>  (389) 
-1.4145999999999999

>  <TPSA>  (389) 
97.46000000000001

>  <POPULARITY>  (389) 
3.7

>  <PROTECTED>  (389) 
TRUE

>  <SMILES>  (389) 
NC1CC(S(=O)(=O)C1)C(=O)O

>  <INCHIKEY>  (389) 
XXXGOEMFPBKAPK-UHFFFAOYSA-N

$$$$
4-amino-thiolane-11-dioxide-3-CO2H_3R_4S
     RDKit          2D

 11 11  0  0  0  0  0  0  0  0999 V2000
    0.9677   -2.4844    0.0000 N   0  0  0  0  0  0  0  0  0  0  0  0
    0.1255   -1.2432    0.0000 C   0  0  0  0  0  0  0  0  0  0  0  0
    0.6346    0.1678    0.0000 C   0  0  0  0  0  0  0  0  0  0  0  0
   -0.5500    1.0880    0.0000 C   0  0  0  0  0  0  0  0  0  0  0  0
   -1.7912    0.2457    0.0000 S   0  0  0  0  0  0  0  0  0  0  0  0
   -3.1804   -0.3201    0.0000 O   0  0  0  0  0  0  0  0  0  0  0  0
   -2.4991    1.5682    0.0000 O   0  0  0  0  0  0  0  0  0  0  0  0
   -1.3737   -1.1950    0.0000 C   0  0  0  0  0  0  0  0  0  0  0  0
    2.0753    0.5852    0.0000 C   0  0  0  0  0  0  0  0  0  0  0  0
    2.4342    2.0417    0.0000 O   0  0  0  0  0  0  0  0  0  0  0  0
    3.1572   -0.4538    0.0000 O   0  0  0  0  0  0  0  0  0  0  0  0
  2  1  1  6
  2  3  1  0
  3  4  1  0
  4  5  1  0
  5  6  2  0
  5  7  2  0
  5  8  1  0
  3  9  1  1
  9 10  2  0
  9 11  1  0
  8  2  1  0
M  END
>  <rName>  (390) 
4-amino-thiolane-11-dioxide-3-CO2H_3R_4S

>  <PQ_SYMBOL>  (390) 
4-amino-thiolane-11-dioxide-3-CO2H_3R_4S

>  <FULL_NAME>  (390) 
rac-(3R,4S)-4-amino-1,1-dioxo-1lambda6-thiolane-3-carboxylic acid

>  <IUPAC_CONDENSED>  (390) 
4-amino-thiolane-1,1-dioxide-3-CO2H(3R,4S)

>  <IUPAC>  (390) 
(3R,4S)-4-amino-1,1-dioxothiolane-3-carboxylic acid

>  <TYPE>  (390) 
Backbone

>  <CLASS>  (390) 
beta

>  <ANALOG>  (390) 
X

>  <MOL_WT>  (390) 
179.19699999999997

>  <LOGP>  (390) 
-1.5570999999999997

>  <TPSA>  (390) 
97.46000000000001

>  <POPULARITY>  (390) 
3.0

>  <PROTECTED>  (390) 
TRUE

>  <SMILES>  (390) 
N[C@H]1[C@@H](CS(=O)(=O)C1)C(=O)O

>  <INCHIKEY>  (390) 
RWVHIVRXZFWJRZ-QWWZWVQMSA-N

$$$$
4-aminomethyl-2-oxabicyclo211hexane-1-CO2H
     RDKit          2D

 11 12  0  0  0  0  0  0  0  0999 V2000
   -3.7536   -0.5172    0.0000 N   0  0  0  0  0  0  0  0  0  0  0  0
   -2.2541   -0.5538    0.0000 C   0  0  0  0  0  0  0  0  0  0  0  0
   -1.4517    0.7607    0.0000 C   0  0  0  0  0  0  0  0  0  0  0  0
   -0.2824    1.7630    0.0000 C   0  0  0  0  0  0  0  0  0  0  0  0
    1.0321    0.9606    0.0000 C   0  0  0  0  0  0  0  0  0  0  0  0
    0.6752   -0.5375    0.0000 O   0  0  0  0  0  0  0  0  0  0  0  0
   -0.8598   -0.6611    0.0000 C   0  0  0  0  0  0  0  0  0  0  0  0
   -0.1848    0.5502    0.0000 C   0  0  0  0  0  0  0  0  0  0  0  0
    2.0343   -0.2087    0.0000 C   0  0  0  0  0  0  0  0  0  0  0  0
    1.5361   -1.6235    0.0000 O   0  0  0  0  0  0  0  0  0  0  0  0
    3.5087    0.0673    0.0000 O   0  0  0  0  0  0  0  0  0  0  0  0
  1  2  1  0
  2  3  1  0
  3  4  1  0
  4  5  1  0
  5  6  1  0
  6  7  1  0
  5  8  1  0
  5  9  1  0
  9 10  2  0
  9 11  1  0
  7  3  1  0
  8  3  1  0
M  END
>  <rName>  (391) 
4-aminomethyl-2-oxabicyclo211hexane-1-CO2H

>  <PQ_SYMBOL>  (391) 
4-aminomethyl-2-oxabicyclo211hexane-1-CO2H

>  <FULL_NAME>  (391) 
4-(Aminomethyl)-2-oxabicyclo(2.1.1)hexane-1-carboxylic acid

>  <IUPAC_CONDENSED>  (391) 
4-aminomethyl-2-oxabicyclo[2.1.1]hexane-1-CO2H

>  <IUPAC>  (391) 
4-(aminomethyl)-2-oxabicyclo[2.1.1]hexane-1-carboxylic acid

>  <TYPE>  (391) 
Backbone

>  <CLASS>  (391) 
delta

>  <ANALOG>  (391) 
Ser

>  <MOL_WT>  (391) 
157.16899999999998

>  <LOGP>  (391) 
-0.4211000000000001

>  <TPSA>  (391) 
72.55

>  <POPULARITY>  (391) 
2.7

>  <PROTECTED>  (391) 
TRUE

>  <SMILES>  (391) 
NCC12CC(OC1)(C2)C(=O)O

>  <INCHIKEY>  (391) 
JEVCNMDVXDWYGO-UHFFFAOYSA-N

$$$$
4-aminomethyl-bicyclo222octane-1-CO2H
     RDKit          2D

 13 14  0  0  0  0  0  0  0  0999 V2000
   -0.1233   -1.2669    0.0000 N   0  0  0  0  0  0  0  0  0  0  0  0
   -0.7901    0.0767    0.0000 C   0  0  0  0  0  0  0  0  0  0  0  0
   -2.1485    0.9129    0.0000 C   0  0  0  0  0  0  0  0  0  0  0  0
   -0.9499    0.7056    0.0000 C   0  0  0  0  0  0  0  0  0  0  0  0
   -0.7266   -0.6515    0.0000 C   0  0  0  0  0  0  0  0  0  0  0  0
    0.5878   -0.7655    0.0000 C   0  0  0  0  0  0  0  0  0  0  0  0
    0.6274    0.8291    0.0000 C   0  0  0  0  0  0  0  0  0  0  0  0
   -0.7450    1.6709    0.0000 C   0  0  0  0  0  0  0  0  0  0  0  0
   -0.8209   -1.5321    0.0000 C   0  0  0  0  0  0  0  0  0  0  0  0
   -2.1933   -0.6903    0.0000 C   0  0  0  0  0  0  0  0  0  0  0  0
    1.9884   -0.0022    0.0000 C   0  0  0  0  0  0  0  0  0  0  0  0
    2.0254    1.4973    0.0000 O   0  0  0  0  0  0  0  0  0  0  0  0
    3.2686   -0.7840    0.0000 O   0  0  0  0  0  0  0  0  0  0  0  0
  1  2  1  0
  2  3  1  0
  3  4  1  0
  4  5  1  0
  5  6  1  0
  6  7  1  0
  7  8  1  0
  6  9  1  0
  9 10  1  0
  6 11  1  0
 11 12  2  0
 11 13  1  0
  8  3  1  0
 10  3  1  0
M  END
>  <rName>  (392) 
4-aminomethyl-bicyclo222octane-1-CO2H

>  <PQ_SYMBOL>  (392) 
4-aminomethyl-bicyclo222octane-1-CO2H

>  <FULL_NAME>  (392) 
4-(Aminomethyl)bicyclo(2.2.2)octane-1-carboxylic acid

>  <IUPAC_CONDENSED>  (392) 
4-aminomethyl-bicyclo[2.2.2]octane-1-CO2H

>  <IUPAC>  (392) 
4-(aminomethyl)bicyclo[2.2.2]octane-1-carboxylic acid

>  <TYPE>  (392) 
Backbone

>  <CLASS>  (392) 
epsilon

>  <ANALOG>  (392) 
Leu

>  <MOL_WT>  (392) 
183.25099999999998

>  <LOGP>  (392) 
1.3703000000000003

>  <TPSA>  (392) 
63.32000000000001

>  <POPULARITY>  (392) 
6.2

>  <PROTECTED>  (392) 
TRUE

>  <SMILES>  (392) 
NCC12CCC(CC1)(CC2)C(=O)O

>  <INCHIKEY>  (392) 
PKWPJBDFDHJNER-UHFFFAOYSA-N

$$$$
4-aminomethyl-cHex-1-CO2H
     RDKit          2D

 11 11  0  0  0  0  0  0  0  0999 V2000
   -4.1862    0.7785    0.0000 N   0  0  0  0  0  0  0  0  0  0  0  0
   -3.3137   -0.4417    0.0000 C   0  0  0  0  0  0  0  0  0  0  0  0
   -1.8208   -0.2961    0.0000 C   0  0  0  0  0  0  0  0  0  0  0  0
   -1.2003    1.0695    0.0000 C   0  0  0  0  0  0  0  0  0  0  0  0
    0.2926    1.2151    0.0000 C   0  0  0  0  0  0  0  0  0  0  0  0
    1.1651   -0.0051    0.0000 C   0  0  0  0  0  0  0  0  0  0  0  0
    0.5446   -1.3708    0.0000 C   0  0  0  0  0  0  0  0  0  0  0  0
   -0.9483   -1.5163    0.0000 C   0  0  0  0  0  0  0  0  0  0  0  0
    2.6580    0.1404    0.0000 C   0  0  0  0  0  0  0  0  0  0  0  0
    3.2784    1.5061    0.0000 O   0  0  0  0  0  0  0  0  0  0  0  0
    3.5305   -1.0797    0.0000 O   0  0  0  0  0  0  0  0  0  0  0  0
  1  2  1  0
  2  3  1  0
  3  4  1  0
  4  5  1  0
  5  6  1  0
  6  7  1  0
  7  8  1  0
  6  9  1  0
  9 10  2  0
  9 11  1  0
  8  3  1  0
M  END
>  <rName>  (393) 
4-aminomethyl-cHex-1-CO2H

>  <PQ_SYMBOL>  (393) 
4-aminomethyl-cHex-1-CO2H

>  <FULL_NAME>  (393) 
Tranexamic acid

>  <IUPAC_CONDENSED>  (393) 
4-aminomethyl-cHex-1-CO2H

>  <IUPAC>  (393) 
4-(aminomethyl)cyclohexanecarboxylic acid

>  <TYPE>  (393) 
Backbone

>  <CLASS>  (393) 
epsilon

>  <ANALOG>  (393) 
Ala

>  <MOL_WT>  (393) 
157.213

>  <LOGP>  (393) 
0.8361000000000001

>  <TPSA>  (393) 
63.32000000000001

>  <POPULARITY>  (393) 
14.0

>  <PROTECTED>  (393) 
TRUE

>  <SMILES>  (393) 
NCC1CCC(CC1)C(=O)O

>  <INCHIKEY>  (393) 
GYDJEQRTZSCIOI-UHFFFAOYSA-N

$$$$
4-aminomethyl-cHex-1-CO2H_1r_4r
     RDKit          2D

 11 11  0  0  0  0  0  0  0  0999 V2000
   -4.1862    0.7785    0.0000 N   0  0  0  0  0  0  0  0  0  0  0  0
   -3.3137   -0.4417    0.0000 C   0  0  0  0  0  0  0  0  0  0  0  0
   -1.8208   -0.2961    0.0000 C   0  0  0  0  0  0  0  0  0  0  0  0
   -1.2003    1.0695    0.0000 C   0  0  0  0  0  0  0  0  0  0  0  0
    0.2926    1.2151    0.0000 C   0  0  0  0  0  0  0  0  0  0  0  0
    1.1651   -0.0051    0.0000 C   0  0  0  0  0  0  0  0  0  0  0  0
    0.5446   -1.3708    0.0000 C   0  0  0  0  0  0  0  0  0  0  0  0
   -0.9483   -1.5163    0.0000 C   0  0  0  0  0  0  0  0  0  0  0  0
    2.6580    0.1404    0.0000 C   0  0  0  0  0  0  0  0  0  0  0  0
    3.2784    1.5061    0.0000 O   0  0  0  0  0  0  0  0  0  0  0  0
    3.5305   -1.0797    0.0000 O   0  0  0  0  0  0  0  0  0  0  0  0
  1  2  1  0
  3  2  1  1
  3  4  1  0
  4  5  1  0
  5  6  1  0
  6  7  1  0
  7  8  1  0
  6  9  1  6
  9 10  2  0
  9 11  1  0
  8  3  1  0
M  END
>  <rName>  (394) 
4-aminomethyl-cHex-1-CO2H_1r_4r

>  <PQ_SYMBOL>  (394) 
4-aminomethyl-cHex-1-CO2H_1r_4r

>  <FULL_NAME>  (394) 
4-(Aminomethyl)cyclohexanecarboxylic acid

>  <IUPAC_CONDENSED>  (394) 
4-aminomethyl-cHex-1-CO2H(1r,4r)

>  <IUPAC>  (394) 
4-(aminomethyl)cyclohexane-1-carboxylic acid

>  <TYPE>  (394) 
Backbone

>  <CLASS>  (394) 
epsilon

>  <ANALOG>  (394) 
Ala

>  <MOL_WT>  (394) 
157.213

>  <LOGP>  (394) 
0.8361000000000001

>  <TPSA>  (394) 
63.32000000000001

>  <POPULARITY>  (394) 
12.8

>  <PROTECTED>  (394) 
TRUE

>  <SMILES>  (394) 
NC[C@H]1CC[C@@H](CC1)C(=O)O

>  <INCHIKEY>  (394) 
GYDJEQRTZSCIOI-LJGSYFOKSA-N

$$$$
4-aminomethyl-cHex-1-CO2H_1s_4s
     RDKit          2D

 11 11  0  0  0  0  0  0  0  0999 V2000
   -4.1862    0.7785    0.0000 N   0  0  0  0  0  0  0  0  0  0  0  0
   -3.3137   -0.4417    0.0000 C   0  0  0  0  0  0  0  0  0  0  0  0
   -1.8208   -0.2961    0.0000 C   0  0  0  0  0  0  0  0  0  0  0  0
   -1.2003    1.0695    0.0000 C   0  0  0  0  0  0  0  0  0  0  0  0
    0.2926    1.2151    0.0000 C   0  0  0  0  0  0  0  0  0  0  0  0
    1.1651   -0.0051    0.0000 C   0  0  0  0  0  0  0  0  0  0  0  0
    0.5446   -1.3708    0.0000 C   0  0  0  0  0  0  0  0  0  0  0  0
   -0.9483   -1.5163    0.0000 C   0  0  0  0  0  0  0  0  0  0  0  0
    2.6580    0.1404    0.0000 C   0  0  0  0  0  0  0  0  0  0  0  0
    3.2784    1.5061    0.0000 O   0  0  0  0  0  0  0  0  0  0  0  0
    3.5305   -1.0797    0.0000 O   0  0  0  0  0  0  0  0  0  0  0  0
  1  2  1  0
  3  2  1  1
  3  4  1  0
  4  5  1  0
  5  6  1  0
  6  7  1  0
  7  8  1  0
  6  9  1  1
  9 10  2  0
  9 11  1  0
  8  3  1  0
M  END
>  <rName>  (395) 
4-aminomethyl-cHex-1-CO2H_1s_4s

>  <PQ_SYMBOL>  (395) 
4-aminomethyl-cHex-1-CO2H_1s_4s

>  <FULL_NAME>  (395) 
4-(Aminomethyl)cyclohexanecarboxylic acid

>  <IUPAC_CONDENSED>  (395) 
4-aminomethyl-cHex-1-CO2H(1s,4s)

>  <IUPAC>  (395) 
4-(aminomethyl)cyclohexane-1-carboxylic acid

>  <TYPE>  (395) 
Backbone

>  <CLASS>  (395) 
epsilon

>  <ANALOG>  (395) 
Ala

>  <MOL_WT>  (395) 
157.213

>  <LOGP>  (395) 
0.8361000000000001

>  <TPSA>  (395) 
63.32000000000001

>  <POPULARITY>  (395) 
6.9

>  <PROTECTED>  (395) 
TRUE

>  <SMILES>  (395) 
NC[C@H]1CC[C@H](CC1)C(=O)O

>  <INCHIKEY>  (395) 
GYDJEQRTZSCIOI-KNVOCYPGSA-N

$$$$
4-aminomethyl-cyclohexane-1-CO2H_1Me
     RDKit          2D

 12 12  0  0  0  0  0  0  0  0999 V2000
   -4.3834    0.4403    0.0000 N   0  0  0  0  0  0  0  0  0  0  0  0
   -3.3560   -0.6526    0.0000 C   0  0  0  0  0  0  0  0  0  0  0  0
   -1.8958   -0.3093    0.0000 C   0  0  0  0  0  0  0  0  0  0  0  0
   -1.4630    1.1269    0.0000 C   0  0  0  0  0  0  0  0  0  0  0  0
   -0.0028    1.4702    0.0000 C   0  0  0  0  0  0  0  0  0  0  0  0
    1.0246    0.3773    0.0000 C   0  0  0  0  0  0  0  0  0  0  0  0
    1.9224    1.5789    0.0000 C   0  0  0  0  0  0  0  0  0  0  0  0
    0.5918   -1.0589    0.0000 C   0  0  0  0  0  0  0  0  0  0  0  0
   -0.8684   -1.4022    0.0000 C   0  0  0  0  0  0  0  0  0  0  0  0
    2.3638   -0.2983    0.0000 C   0  0  0  0  0  0  0  0  0  0  0  0
    3.6185    0.5237    0.0000 O   0  0  0  0  0  0  0  0  0  0  0  0
    2.4483   -1.7959    0.0000 O   0  0  0  0  0  0  0  0  0  0  0  0
  1  2  1  0
  2  3  1  0
  3  4  1  0
  4  5  1  0
  5  6  1  0
  6  7  1  0
  6  8  1  0
  8  9  1  0
  6 10  1  0
 10 11  2  0
 10 12  1  0
  9  3  1  0
M  END
>  <rName>  (396) 
4-aminomethyl-cyclohexane-1-CO2H_1Me

>  <PQ_SYMBOL>  (396) 
4-aminomethyl-cyclohexane-1-CO2H_1Me

>  <FULL_NAME>  (396) 
4-(Aminomethyl)-1-methylcyclohexane-1-carboxylic acid

>  <IUPAC_CONDENSED>  (396) 
4-aminomethyl-cyclohexane-1-CO2H(1-Me)

>  <IUPAC>  (396) 
4-(aminomethyl)-1-methylcyclohexanecarboxylic acid

>  <TYPE>  (396) 
Backbone

>  <CLASS>  (396) 
epsilon

>  <ANALOG>  (396) 
Ala

>  <MOL_WT>  (396) 
171.24

>  <LOGP>  (396) 
1.2262

>  <TPSA>  (396) 
63.32000000000001

>  <POPULARITY>  (396) 
6.6

>  <PROTECTED>  (396) 
TRUE

>  <SMILES>  (396) 
NCC1CCC(C)(CC1)C(=O)O

>  <INCHIKEY>  (396) 
HSPNFMWHBVESAY-UHFFFAOYSA-N

$$$$
4-aza-Ac6c
     RDKit          2D

 10 10  0  0  0  0  0  0  0  0999 V2000
    1.1103   -1.5851    0.0000 N   0  0  0  0  0  0  0  0  0  0  0  0
    0.2419   -0.3621    0.0000 C   0  0  0  0  0  0  0  0  0  0  0  0
   -0.8118   -1.4296    0.0000 C   0  0  0  0  0  0  0  0  0  0  0  0
   -2.2632   -1.0509    0.0000 C   0  0  0  0  0  0  0  0  0  0  0  0
   -2.6609    0.3955    0.0000 N   0  0  0  0  0  0  0  0  0  0  0  0
   -1.6072    1.4630    0.0000 C   0  0  0  0  0  0  0  0  0  0  0  0
   -0.1558    1.0843    0.0000 C   0  0  0  0  0  0  0  0  0  0  0  0
    1.5972    0.2807    0.0000 C   0  0  0  0  0  0  0  0  0  0  0  0
    1.7181    1.7758    0.0000 O   0  0  0  0  0  0  0  0  0  0  0  0
    2.8315   -0.5716    0.0000 O   0  0  0  0  0  0  0  0  0  0  0  0
  1  2  1  0
  2  3  1  0
  3  4  1  0
  4  5  1  0
  5  6  1  0
  6  7  1  0
  2  8  1  0
  8  9  2  0
  8 10  1  0
  7  2  1  0
M  END
>  <rName>  (397) 
4-aza-Ac6c

>  <PQ_SYMBOL>  (397) 
4-aza-Ac6c

>  <FULL_NAME>  (397) 
4-PipAmCx, 4-Amino-4-piperidinecarboxylic acid

>  <IUPAC_CONDENSED>  (397) 
4-aza-Ac6c

>  <IUPAC>  (397) 
4-aminopiperidine-4-carboxylic acid

>  <TYPE>  (397) 
Backbone

>  <CLASS>  (397) 
alpha

>  <ANALOG>  (397) 
X

>  <MOL_WT>  (397) 
144.174

>  <LOGP>  (397) 
-0.8481000000000001

>  <TPSA>  (397) 
75.35

>  <POPULARITY>  (397) 
27.0

>  <PROTECTED>  (397) 
TRUE

>  <SMILES>  (397) 
NC1(CCNCC1)C(=O)O

>  <INCHIKEY>  (397) 
KHABBYNLBYZCKP-UHFFFAOYSA-N

$$$$
4-aza-Ac6c_Bn
     RDKit          2D

 17 18  0  0  0  0  0  0  0  0999 V2000
   -4.1724    0.8114    0.0000 N   0  0  0  0  0  0  0  0  0  0  0  0
   -2.7831    0.2458    0.0000 C   0  0  0  0  0  0  0  0  0  0  0  0
   -2.4674    1.7122    0.0000 C   0  0  0  0  0  0  0  0  0  0  0  0
   -1.0396    2.1720    0.0000 C   0  0  0  0  0  0  0  0  0  0  0  0
    0.0724    1.1654    0.0000 N   0  0  0  0  0  0  0  0  0  0  0  0
   -0.2433   -0.3010    0.0000 C   0  0  0  0  0  0  0  0  0  0  0  0
   -1.6710   -0.7608    0.0000 C   0  0  0  0  0  0  0  0  0  0  0  0
    1.5002    1.6252    0.0000 C   0  0  0  0  0  0  0  0  0  0  0  0
    2.6123    0.6186    0.0000 C   0  0  0  0  0  0  0  0  0  0  0  0
    2.2966   -0.8478    0.0000 C   0  0  0  0  0  0  0  0  0  0  0  0
    3.4087   -1.8544    0.0000 C   0  0  0  0  0  0  0  0  0  0  0  0
    4.8365   -1.3946    0.0000 C   0  0  0  0  0  0  0  0  0  0  0  0
    5.1522    0.0718    0.0000 C   0  0  0  0  0  0  0  0  0  0  0  0
    4.0401    1.0784    0.0000 C   0  0  0  0  0  0  0  0  0  0  0  0
   -3.5813   -1.0242    0.0000 C   0  0  0  0  0  0  0  0  0  0  0  0
   -2.8806   -2.3504    0.0000 O   0  0  0  0  0  0  0  0  0  0  0  0
   -5.0803   -0.9679    0.0000 O   0  0  0  0  0  0  0  0  0  0  0  0
  1  2  1  0
  2  3  1  0
  3  4  1  0
  4  5  1  0
  5  6  1  0
  6  7  1  0
  5  8  1  0
  8  9  1  0
  9 10  2  0
 10 11  1  0
 11 12  2  0
 12 13  1  0
 13 14  2  0
  2 15  1  0
 15 16  2  0
 15 17  1  0
  7  2  1  0
 14  9  1  0
M  END
>  <rName>  (398) 
4-aza-Ac6c_Bn

>  <PQ_SYMBOL>  (398) 
4-aza-Ac6c_Bn

>  <FULL_NAME>  (398) 
4-Amino-1-benzylpiperidine-4-carboxylic Acid

>  <IUPAC_CONDENSED>  (398) 
4-aza-Ac6c(Bn)

>  <IUPAC>  (398) 
4-amino-1-benzylpiperidine-4-carboxylic acid

>  <TYPE>  (398) 
Backbone

>  <CLASS>  (398) 
alpha

>  <ANALOG>  (398) 
X

>  <MOL_WT>  (398) 
234.29900000000004

>  <LOGP>  (398) 
1.0644999999999996

>  <TPSA>  (398) 
66.56

>  <POPULARITY>  (398) 
10.2

>  <PROTECTED>  (398) 
TRUE

>  <SMILES>  (398) 
NC1(CCN(CC1)Cc2(ccccc2))C(=O)O

>  <INCHIKEY>  (398) 
UAPJXCZSNCQLMR-UHFFFAOYSA-N

$$$$
4-aza-Ac6c_Bn_24diF
     RDKit          2D

 19 20  0  0  0  0  0  0  0  0999 V2000
   -4.7284    0.7192    0.0000 N   0  0  0  0  0  0  0  0  0  0  0  0
   -3.3292    0.1786    0.0000 C   0  0  0  0  0  0  0  0  0  0  0  0
   -3.0399    1.6504    0.0000 C   0  0  0  0  0  0  0  0  0  0  0  0
   -1.6205    2.1358    0.0000 C   0  0  0  0  0  0  0  0  0  0  0  0
   -0.4906    1.1493    0.0000 N   0  0  0  0  0  0  0  0  0  0  0  0
   -0.7799   -0.3226    0.0000 C   0  0  0  0  0  0  0  0  0  0  0  0
   -2.1993   -0.8079    0.0000 C   0  0  0  0  0  0  0  0  0  0  0  0
    0.9287    1.6346    0.0000 C   0  0  0  0  0  0  0  0  0  0  0  0
    2.0587    0.6481    0.0000 C   0  0  0  0  0  0  0  0  0  0  0  0
    1.7693   -0.8238    0.0000 C   0  0  0  0  0  0  0  0  0  0  0  0
    2.8993   -1.8103    0.0000 C   0  0  0  0  0  0  0  0  0  0  0  0
    4.3186   -1.3249    0.0000 C   0  0  0  0  0  0  0  0  0  0  0  0
    5.4486   -2.3114    0.0000 F   0  0  0  0  0  0  0  0  0  0  0  0
    4.6080    0.1469    0.0000 C   0  0  0  0  0  0  0  0  0  0  0  0
    3.4780    1.1334    0.0000 C   0  0  0  0  0  0  0  0  0  0  0  0
    3.7674    2.6052    0.0000 F   0  0  0  0  0  0  0  0  0  0  0  0
   -4.1045   -1.1055    0.0000 C   0  0  0  0  0  0  0  0  0  0  0  0
   -3.3801   -2.4190    0.0000 O   0  0  0  0  0  0  0  0  0  0  0  0
   -5.6042   -1.0761    0.0000 O   0  0  0  0  0  0  0  0  0  0  0  0
  1  2  1  0
  2  3  1  0
  3  4  1  0
  4  5  1  0
  5  6  1  0
  6  7  1  0
  5  8  1  0
  8  9  1  0
  9 10  1  0
 10 11  2  0
 11 12  1  0
 12 13  1  0
 12 14  2  0
 14 15  1  0
 15 16  1  0
  2 17  1  0
 17 18  2  0
 17 19  1  0
  7  2  1  0
 15  9  2  0
M  END
>  <rName>  (399) 
4-aza-Ac6c_Bn_24diF

>  <PQ_SYMBOL>  (399) 
4-aza-Ac6c_Bn_24diF

>  <FULL_NAME>  (399) 
4-aza-Ac6c(Bn(2,4-diF))

>  <IUPAC_CONDENSED>  (399) 
4-aza-Ac6c(Bn(2,4-diF))

>  <IUPAC>  (399) 
4-amino-1-((2,4-difluorophenyl)methyl)piperidine-4-carboxylic acid

>  <TYPE>  (399) 
Backbone

>  <CLASS>  (399) 
alpha

>  <ANALOG>  (399) 
X

>  <MOL_WT>  (399) 
270.279

>  <LOGP>  (399) 
1.3427

>  <TPSA>  (399) 
66.56

>  <POPULARITY>  (399) 
2.2

>  <PROTECTED>  (399) 
TRUE

>  <SMILES>  (399) 
NC1(CCN(CC1)Cc2(ccc(F)cc2F))C(=O)O

>  <INCHIKEY>  (399) 
BJRYSQWHERVVGW-UHFFFAOYSA-N

$$$$
4-aza-Ac6c_Bn_25diF
     RDKit          2D

 19 20  0  0  0  0  0  0  0  0999 V2000
   -4.5582    0.8853    0.0000 N   0  0  0  0  0  0  0  0  0  0  0  0
   -3.1730    0.3097    0.0000 C   0  0  0  0  0  0  0  0  0  0  0  0
   -2.8467    1.7737    0.0000 C   0  0  0  0  0  0  0  0  0  0  0  0
   -1.4156    2.2232    0.0000 C   0  0  0  0  0  0  0  0  0  0  0  0
   -0.3109    1.2086    0.0000 N   0  0  0  0  0  0  0  0  0  0  0  0
   -0.6372   -0.2555    0.0000 C   0  0  0  0  0  0  0  0  0  0  0  0
   -2.0683   -0.7050    0.0000 C   0  0  0  0  0  0  0  0  0  0  0  0
    1.1202    1.6580    0.0000 C   0  0  0  0  0  0  0  0  0  0  0  0
    2.2250    0.6434    0.0000 C   0  0  0  0  0  0  0  0  0  0  0  0
    1.8987   -0.8207    0.0000 C   0  0  0  0  0  0  0  0  0  0  0  0
    3.0035   -1.8354    0.0000 C   0  0  0  0  0  0  0  0  0  0  0  0
    2.6771   -3.2994    0.0000 F   0  0  0  0  0  0  0  0  0  0  0  0
    4.4345   -1.3859    0.0000 C   0  0  0  0  0  0  0  0  0  0  0  0
    4.7609    0.0782    0.0000 C   0  0  0  0  0  0  0  0  0  0  0  0
    3.6561    1.0928    0.0000 C   0  0  0  0  0  0  0  0  0  0  0  0
    3.9824    2.5569    0.0000 F   0  0  0  0  0  0  0  0  0  0  0  0
   -3.9804   -0.9545    0.0000 C   0  0  0  0  0  0  0  0  0  0  0  0
   -3.2893   -2.2858    0.0000 O   0  0  0  0  0  0  0  0  0  0  0  0
   -5.4789   -0.8874    0.0000 O   0  0  0  0  0  0  0  0  0  0  0  0
  1  2  1  0
  2  3  1  0
  3  4  1  0
  4  5  1  0
  5  6  1  0
  6  7  1  0
  5  8  1  0
  8  9  1  0
  9 10  1  0
 10 11  2  0
 11 12  1  0
 11 13  1  0
 13 14  2  0
 14 15  1  0
 15 16  1  0
  2 17  1  0
 17 18  2  0
 17 19  1  0
  7  2  1  0
 15  9  2  0
M  END
>  <rName>  (400) 
4-aza-Ac6c_Bn_25diF

>  <PQ_SYMBOL>  (400) 
4-aza-Ac6c_Bn_25diF

>  <FULL_NAME>  (400) 
4-aza-Ac6c(Bn(2,5-diF))

>  <IUPAC_CONDENSED>  (400) 
4-aza-Ac6c(Bn(2,5-diF))

>  <IUPAC>  (400) 
4-amino-1-((2,5-difluorophenyl)methyl)piperidine-4-carboxylic acid

>  <TYPE>  (400) 
Backbone

>  <CLASS>  (400) 
alpha

>  <ANALOG>  (400) 
X

>  <MOL_WT>  (400) 
270.279

>  <LOGP>  (400) 
1.3427

>  <TPSA>  (400) 
66.56

>  <POPULARITY>  (400) 
2.2

>  <PROTECTED>  (400) 
TRUE

>  <SMILES>  (400) 
NC1(CCN(CC1)Cc2(cc(F)ccc2F))C(=O)O

>  <INCHIKEY>  (400) 
PIXFQTMNKYGAES-UHFFFAOYSA-N

$$$$
4-aza-Ac6c_Bn_2Cl
     RDKit          2D

 18 19  0  0  0  0  0  0  0  0999 V2000
   -4.3607    0.9592    0.0000 N   0  0  0  0  0  0  0  0  0  0  0  0
   -3.0117    0.3034    0.0000 C   0  0  0  0  0  0  0  0  0  0  0  0
   -2.6001    1.7459    0.0000 C   0  0  0  0  0  0  0  0  0  0  0  0
   -1.1451    2.1106    0.0000 C   0  0  0  0  0  0  0  0  0  0  0  0
   -0.1017    1.0330    0.0000 N   0  0  0  0  0  0  0  0  0  0  0  0
   -0.5133   -0.4094    0.0000 C   0  0  0  0  0  0  0  0  0  0  0  0
   -1.9683   -0.7742    0.0000 C   0  0  0  0  0  0  0  0  0  0  0  0
    1.3532    1.3978    0.0000 C   0  0  0  0  0  0  0  0  0  0  0  0
    2.3966    0.3201    0.0000 C   0  0  0  0  0  0  0  0  0  0  0  0
    1.9850   -1.1223    0.0000 C   0  0  0  0  0  0  0  0  0  0  0  0
    3.0284   -2.2000    0.0000 C   0  0  0  0  0  0  0  0  0  0  0  0
    4.4834   -1.8352    0.0000 C   0  0  0  0  0  0  0  0  0  0  0  0
    4.8950   -0.3928    0.0000 C   0  0  0  0  0  0  0  0  0  0  0  0
    3.8516    0.6849    0.0000 C   0  0  0  0  0  0  0  0  0  0  0  0
    4.2632    2.1273    0.0000 Cl  0  0  0  0  0  0  0  0  0  0  0  0
   -3.8918   -0.9112    0.0000 C   0  0  0  0  0  0  0  0  0  0  0  0
   -3.2799   -2.2808    0.0000 O   0  0  0  0  0  0  0  0  0  0  0  0
   -5.3838   -0.7564    0.0000 O   0  0  0  0  0  0  0  0  0  0  0  0
  1  2  1  0
  2  3  1  0
  3  4  1  0
  4  5  1  0
  5  6  1  0
  6  7  1  0
  5  8  1  0
  8  9  1  0
  9 10  2  0
 10 11  1  0
 11 12  2  0
 12 13  1  0
 13 14  2  0
 14 15  1  0
  2 16  1  0
 16 17  2  0
 16 18  1  0
  7  2  1  0
 14  9  1  0
M  END
>  <rName>  (401) 
4-aza-Ac6c_Bn_2Cl

>  <PQ_SYMBOL>  (401) 
4-aza-Ac6c_Bn_2Cl

>  <FULL_NAME>  (401) 
4-Amino-1-[(2-chlorophenyl)methyl]piperidine-4-carboxylic acid

>  <IUPAC_CONDENSED>  (401) 
4-aza-Ac6c(Bn(2-Cl))

>  <IUPAC>  (401) 
4-amino-1-[(2-chlorophenyl)methyl]piperidine-4-carboxylic acid

>  <TYPE>  (401) 
Backbone

>  <CLASS>  (401) 
alpha

>  <ANALOG>  (401) 
X

>  <MOL_WT>  (401) 
268.744

>  <LOGP>  (401) 
1.7178999999999998

>  <TPSA>  (401) 
66.56

>  <POPULARITY>  (401) 
2.2

>  <PROTECTED>  (401) 
TRUE

>  <SMILES>  (401) 
NC1(CCN(CC1)Cc2(ccccc2Cl))C(=O)O

>  <INCHIKEY>  (401) 
HTBUPWLDDXIELV-UHFFFAOYSA-N

$$$$
4-aza-Ac6c_Bn_2F
     RDKit          2D

 18 19  0  0  0  0  0  0  0  0999 V2000
   -4.3607    0.9592    0.0000 N   0  0  0  0  0  0  0  0  0  0  0  0
   -3.0117    0.3034    0.0000 C   0  0  0  0  0  0  0  0  0  0  0  0
   -2.6001    1.7459    0.0000 C   0  0  0  0  0  0  0  0  0  0  0  0
   -1.1451    2.1106    0.0000 C   0  0  0  0  0  0  0  0  0  0  0  0
   -0.1017    1.0330    0.0000 N   0  0  0  0  0  0  0  0  0  0  0  0
   -0.5133   -0.4094    0.0000 C   0  0  0  0  0  0  0  0  0  0  0  0
   -1.9683   -0.7742    0.0000 C   0  0  0  0  0  0  0  0  0  0  0  0
    1.3532    1.3978    0.0000 C   0  0  0  0  0  0  0  0  0  0  0  0
    2.3966    0.3201    0.0000 C   0  0  0  0  0  0  0  0  0  0  0  0
    1.9850   -1.1223    0.0000 C   0  0  0  0  0  0  0  0  0  0  0  0
    3.0284   -2.2000    0.0000 C   0  0  0  0  0  0  0  0  0  0  0  0
    4.4834   -1.8352    0.0000 C   0  0  0  0  0  0  0  0  0  0  0  0
    4.8950   -0.3928    0.0000 C   0  0  0  0  0  0  0  0  0  0  0  0
    3.8516    0.6849    0.0000 C   0  0  0  0  0  0  0  0  0  0  0  0
    4.2632    2.1273    0.0000 F   0  0  0  0  0  0  0  0  0  0  0  0
   -3.8918   -0.9112    0.0000 C   0  0  0  0  0  0  0  0  0  0  0  0
   -3.2799   -2.2808    0.0000 O   0  0  0  0  0  0  0  0  0  0  0  0
   -5.3838   -0.7564    0.0000 O   0  0  0  0  0  0  0  0  0  0  0  0
  1  2  1  0
  2  3  1  0
  3  4  1  0
  4  5  1  0
  5  6  1  0
  6  7  1  0
  5  8  1  0
  8  9  1  0
  9 10  2  0
 10 11  1  0
 11 12  2  0
 12 13  1  0
 13 14  2  0
 14 15  1  0
  2 16  1  0
 16 17  2  0
 16 18  1  0
  7  2  1  0
 14  9  1  0
M  END
>  <rName>  (402) 
4-aza-Ac6c_Bn_2F

>  <PQ_SYMBOL>  (402) 
4-aza-Ac6c_Bn_2F

>  <FULL_NAME>  (402) 
4-Amino-1-[(2-fluorophenyl)methyl]piperidine-4-carboxylic acid

>  <IUPAC_CONDENSED>  (402) 
4-aza-Ac6c(Bn(2-F))

>  <IUPAC>  (402) 
4-amino-1-[(2-fluorophenyl)methyl]piperidine-4-carboxylic acid

>  <TYPE>  (402) 
Backbone

>  <CLASS>  (402) 
alpha

>  <ANALOG>  (402) 
X

>  <MOL_WT>  (402) 
252.28900000000002

>  <LOGP>  (402) 
1.2035999999999998

>  <TPSA>  (402) 
66.56

>  <POPULARITY>  (402) 
2.2

>  <PROTECTED>  (402) 
TRUE

>  <SMILES>  (402) 
NC1(CCN(CC1)Cc2(ccccc2F))C(=O)O

>  <INCHIKEY>  (402) 
JTFQKAJCFPNHHT-UHFFFAOYSA-N

$$$$
4-aza-Ac6c_Bn_2Me
     RDKit          2D

 18 19  0  0  0  0  0  0  0  0999 V2000
   -4.3607    0.9592    0.0000 N   0  0  0  0  0  0  0  0  0  0  0  0
   -3.0117    0.3034    0.0000 C   0  0  0  0  0  0  0  0  0  0  0  0
   -2.6001    1.7459    0.0000 C   0  0  0  0  0  0  0  0  0  0  0  0
   -1.1451    2.1106    0.0000 C   0  0  0  0  0  0  0  0  0  0  0  0
   -0.1017    1.0330    0.0000 N   0  0  0  0  0  0  0  0  0  0  0  0
   -0.5133   -0.4094    0.0000 C   0  0  0  0  0  0  0  0  0  0  0  0
   -1.9683   -0.7742    0.0000 C   0  0  0  0  0  0  0  0  0  0  0  0
    1.3532    1.3978    0.0000 C   0  0  0  0  0  0  0  0  0  0  0  0
    2.3966    0.3201    0.0000 C   0  0  0  0  0  0  0  0  0  0  0  0
    1.9850   -1.1223    0.0000 C   0  0  0  0  0  0  0  0  0  0  0  0
    3.0284   -2.2000    0.0000 C   0  0  0  0  0  0  0  0  0  0  0  0
    4.4834   -1.8352    0.0000 C   0  0  0  0  0  0  0  0  0  0  0  0
    4.8950   -0.3928    0.0000 C   0  0  0  0  0  0  0  0  0  0  0  0
    3.8516    0.6849    0.0000 C   0  0  0  0  0  0  0  0  0  0  0  0
    4.2632    2.1273    0.0000 C   0  0  0  0  0  0  0  0  0  0  0  0
   -3.8918   -0.9112    0.0000 C   0  0  0  0  0  0  0  0  0  0  0  0
   -3.2799   -2.2808    0.0000 O   0  0  0  0  0  0  0  0  0  0  0  0
   -5.3838   -0.7564    0.0000 O   0  0  0  0  0  0  0  0  0  0  0  0
  1  2  1  0
  2  3  1  0
  3  4  1  0
  4  5  1  0
  5  6  1  0
  6  7  1  0
  5  8  1  0
  8  9  1  0
  9 10  2  0
 10 11  1  0
 11 12  2  0
 12 13  1  0
 13 14  2  0
 14 15  1  0
  2 16  1  0
 16 17  2  0
 16 18  1  0
  7  2  1  0
 14  9  1  0
M  END
>  <rName>  (403) 
4-aza-Ac6c_Bn_2Me

>  <PQ_SYMBOL>  (403) 
4-aza-Ac6c_Bn_2Me

>  <FULL_NAME>  (403) 
4-amino-1-(2-methylbenzyl)piperidine-4-carboxylic acid

>  <IUPAC_CONDENSED>  (403) 
4-aza-Ac6c(Bn(2-Me))

>  <IUPAC>  (403) 
4-amino-1-((2-methylphenyl)methyl)piperidine-4-carboxylic acid

>  <TYPE>  (403) 
Backbone

>  <CLASS>  (403) 
alpha

>  <ANALOG>  (403) 
X

>  <MOL_WT>  (403) 
248.32600000000002

>  <LOGP>  (403) 
1.37292

>  <TPSA>  (403) 
66.56

>  <POPULARITY>  (403) 
6.9

>  <PROTECTED>  (403) 
TRUE

>  <SMILES>  (403) 
NC1(CCN(CC1)Cc2(ccccc2C))C(=O)O

>  <INCHIKEY>  (403) 
HPGWIARCDHPCHI-UHFFFAOYSA-N

$$$$
4-aza-Ac6c_Bn_2OMe
     RDKit          2D

 19 20  0  0  0  0  0  0  0  0999 V2000
   -4.5892    1.1644    0.0000 N   0  0  0  0  0  0  0  0  0  0  0  0
   -3.2914    0.4124    0.0000 C   0  0  0  0  0  0  0  0  0  0  0  0
   -2.7761    1.8211    0.0000 C   0  0  0  0  0  0  0  0  0  0  0  0
   -1.2985    2.0793    0.0000 C   0  0  0  0  0  0  0  0  0  0  0  0
   -0.3361    0.9287    0.0000 N   0  0  0  0  0  0  0  0  0  0  0  0
   -0.8514   -0.4800    0.0000 C   0  0  0  0  0  0  0  0  0  0  0  0
   -2.3290   -0.7382    0.0000 C   0  0  0  0  0  0  0  0  0  0  0  0
    1.1415    1.1868    0.0000 C   0  0  0  0  0  0  0  0  0  0  0  0
    2.1039    0.0363    0.0000 C   0  0  0  0  0  0  0  0  0  0  0  0
    1.5886   -1.3725    0.0000 C   0  0  0  0  0  0  0  0  0  0  0  0
    2.5510   -2.5231    0.0000 C   0  0  0  0  0  0  0  0  0  0  0  0
    4.0286   -2.2649    0.0000 C   0  0  0  0  0  0  0  0  0  0  0  0
    4.5438   -0.8562    0.0000 C   0  0  0  0  0  0  0  0  0  0  0  0
    3.5815    0.2944    0.0000 C   0  0  0  0  0  0  0  0  0  0  0  0
    4.0967    1.7031    0.0000 O   0  0  0  0  0  0  0  0  0  0  0  0
    5.5743    1.9613    0.0000 C   0  0  0  0  0  0  0  0  0  0  0  0
   -4.2574   -0.7352    0.0000 C   0  0  0  0  0  0  0  0  0  0  0  0
   -3.7466   -2.1455    0.0000 O   0  0  0  0  0  0  0  0  0  0  0  0
   -5.7342   -0.4724    0.0000 O   0  0  0  0  0  0  0  0  0  0  0  0
  1  2  1  0
  2  3  1  0
  3  4  1  0
  4  5  1  0
  5  6  1  0
  6  7  1  0
  5  8  1  0
  8  9  1  0
  9 10  2  0
 10 11  1  0
 11 12  2  0
 12 13  1  0
 13 14  2  0
 14 15  1  0
 15 16  1  0
  2 17  1  0
 17 18  2  0
 17 19  1  0
  7  2  1  0
 14  9  1  0
M  END
>  <rName>  (404) 
4-aza-Ac6c_Bn_2OMe

>  <PQ_SYMBOL>  (404) 
4-aza-Ac6c_Bn_2OMe

>  <FULL_NAME>  (404) 
4-aza-Ac6c(Bn(2-OMe))

>  <IUPAC_CONDENSED>  (404) 
4-aza-Ac6c(Bn(2-OMe))

>  <IUPAC>  (404) 
4-amino-1-((2-methoxyphenyl)methyl)piperidine-4-carboxylic acid

>  <TYPE>  (404) 
Backbone

>  <CLASS>  (404) 
alpha

>  <ANALOG>  (404) 
X

>  <MOL_WT>  (404) 
264.325

>  <LOGP>  (404) 
1.0730999999999995

>  <TPSA>  (404) 
75.78999999999999

>  <POPULARITY>  (404) 
2.2

>  <PROTECTED>  (404) 
TRUE

>  <SMILES>  (404) 
NC1(CCN(CC1)Cc2(ccccc2OC))C(=O)O

>  <INCHIKEY>  (404) 
ZZEBDYDFEWOCHP-UHFFFAOYSA-N

$$$$
4-aza-Ac6c_Bn_35diF
     RDKit          2D

 19 20  0  0  0  0  0  0  0  0999 V2000
   -4.7075    0.8211    0.0000 N   0  0  0  0  0  0  0  0  0  0  0  0
   -3.3023    0.2964    0.0000 C   0  0  0  0  0  0  0  0  0  0  0  0
   -3.0295    1.7714    0.0000 C   0  0  0  0  0  0  0  0  0  0  0  0
   -1.6158    2.2726    0.0000 C   0  0  0  0  0  0  0  0  0  0  0  0
   -0.4748    1.2989    0.0000 N   0  0  0  0  0  0  0  0  0  0  0  0
   -0.7475   -0.1761    0.0000 C   0  0  0  0  0  0  0  0  0  0  0  0
   -2.1613   -0.6773    0.0000 C   0  0  0  0  0  0  0  0  0  0  0  0
    0.9390    1.8002    0.0000 C   0  0  0  0  0  0  0  0  0  0  0  0
    2.0800    0.8265    0.0000 C   0  0  0  0  0  0  0  0  0  0  0  0
    1.8072   -0.6485    0.0000 C   0  0  0  0  0  0  0  0  0  0  0  0
    2.9482   -1.6222    0.0000 C   0  0  0  0  0  0  0  0  0  0  0  0
    2.6754   -3.0972    0.0000 F   0  0  0  0  0  0  0  0  0  0  0  0
    4.3620   -1.1210    0.0000 C   0  0  0  0  0  0  0  0  0  0  0  0
    4.6347    0.3540    0.0000 C   0  0  0  0  0  0  0  0  0  0  0  0
    6.0485    0.8553    0.0000 F   0  0  0  0  0  0  0  0  0  0  0  0
    3.4937    1.3278    0.0000 C   0  0  0  0  0  0  0  0  0  0  0  0
   -4.0631   -0.9964    0.0000 C   0  0  0  0  0  0  0  0  0  0  0  0
   -3.3239   -2.3016    0.0000 O   0  0  0  0  0  0  0  0  0  0  0  0
   -5.5630   -0.9839    0.0000 O   0  0  0  0  0  0  0  0  0  0  0  0
  1  2  1  0
  2  3  1  0
  3  4  1  0
  4  5  1  0
  5  6  1  0
  6  7  1  0
  5  8  1  0
  8  9  1  0
  9 10  2  0
 10 11  1  0
 11 12  1  0
 11 13  2  0
 13 14  1  0
 14 15  1  0
 14 16  2  0
  2 17  1  0
 17 18  2  0
 17 19  1  0
  7  2  1  0
 16  9  1  0
M  END
>  <rName>  (405) 
4-aza-Ac6c_Bn_35diF

>  <PQ_SYMBOL>  (405) 
4-aza-Ac6c_Bn_35diF

>  <FULL_NAME>  (405) 
4-aza-Ac6c(Bn(3,5-diF))

>  <IUPAC_CONDENSED>  (405) 
4-aza-Ac6c(Bn(3,5-diF))

>  <IUPAC>  (405) 
4-amino-1-((3,5-difluorophenyl)methyl)piperidine-4-carboxylic acid

>  <TYPE>  (405) 
Backbone

>  <CLASS>  (405) 
alpha

>  <ANALOG>  (405) 
X

>  <MOL_WT>  (405) 
270.279

>  <LOGP>  (405) 
1.3427

>  <TPSA>  (405) 
66.56

>  <POPULARITY>  (405) 
2.2

>  <PROTECTED>  (405) 
TRUE

>  <SMILES>  (405) 
NC1(CCN(CC1)Cc2(cc(F)cc(F)c2))C(=O)O

>  <INCHIKEY>  (405) 
MYGFZEWHQZSONN-UHFFFAOYSA-N

$$$$
4-aza-Ac6c_Bn_3Cl
     RDKit          2D

 18 19  0  0  0  0  0  0  0  0999 V2000
   -4.5235    0.8620    0.0000 N   0  0  0  0  0  0  0  0  0  0  0  0
   -3.1444    0.2719    0.0000 C   0  0  0  0  0  0  0  0  0  0  0  0
   -2.8028    1.7325    0.0000 C   0  0  0  0  0  0  0  0  0  0  0  0
   -1.3671    2.1670    0.0000 C   0  0  0  0  0  0  0  0  0  0  0  0
   -0.2730    1.1409    0.0000 N   0  0  0  0  0  0  0  0  0  0  0  0
   -0.6146   -0.3197    0.0000 C   0  0  0  0  0  0  0  0  0  0  0  0
   -2.0503   -0.7542    0.0000 C   0  0  0  0  0  0  0  0  0  0  0  0
    1.1627    1.5754    0.0000 C   0  0  0  0  0  0  0  0  0  0  0  0
    2.2568    0.5493    0.0000 C   0  0  0  0  0  0  0  0  0  0  0  0
    1.9153   -0.9113    0.0000 C   0  0  0  0  0  0  0  0  0  0  0  0
    3.0094   -1.9374    0.0000 C   0  0  0  0  0  0  0  0  0  0  0  0
    4.4451   -1.5030    0.0000 C   0  0  0  0  0  0  0  0  0  0  0  0
    4.7867   -0.0424    0.0000 C   0  0  0  0  0  0  0  0  0  0  0  0
    6.2223    0.3921    0.0000 Cl  0  0  0  0  0  0  0  0  0  0  0  0
    3.6925    0.9837    0.0000 C   0  0  0  0  0  0  0  0  0  0  0  0
   -3.9649   -0.9837    0.0000 C   0  0  0  0  0  0  0  0  0  0  0  0
   -3.2877   -2.3222    0.0000 O   0  0  0  0  0  0  0  0  0  0  0  0
   -5.4626   -0.9010    0.0000 O   0  0  0  0  0  0  0  0  0  0  0  0
  1  2  1  0
  2  3  1  0
  3  4  1  0
  4  5  1  0
  5  6  1  0
  6  7  1  0
  5  8  1  0
  8  9  1  0
  9 10  2  0
 10 11  1  0
 11 12  2  0
 12 13  1  0
 13 14  1  0
 13 15  2  0
  2 16  1  0
 16 17  2  0
 16 18  1  0
  7  2  1  0
 15  9  1  0
M  END
>  <rName>  (406) 
4-aza-Ac6c_Bn_3Cl

>  <PQ_SYMBOL>  (406) 
4-aza-Ac6c_Bn_3Cl

>  <FULL_NAME>  (406) 
4-amino-1-(3-chlorobenzyl)piperidine-4-carboxylic acid

>  <IUPAC_CONDENSED>  (406) 
4-aza-Ac6c(Bn(3-Cl))

>  <IUPAC>  (406) 
4-amino-1-((3-chlorophenyl)methyl)piperidine-4-carboxylic acid

>  <TYPE>  (406) 
Backbone

>  <CLASS>  (406) 
alpha

>  <ANALOG>  (406) 
X

>  <MOL_WT>  (406) 
268.744

>  <LOGP>  (406) 
1.7178999999999998

>  <TPSA>  (406) 
66.56

>  <POPULARITY>  (406) 
6.4

>  <PROTECTED>  (406) 
TRUE

>  <SMILES>  (406) 
NC1(CCN(CC1)Cc2(cccc(Cl)c2))C(=O)O

>  <INCHIKEY>  (406) 
UADRFWIPKAMILQ-UHFFFAOYSA-N

$$$$
4-aza-Ac6c_Bn_3F
     RDKit          2D

 18 19  0  0  0  0  0  0  0  0999 V2000
   -4.5235    0.8620    0.0000 N   0  0  0  0  0  0  0  0  0  0  0  0
   -3.1444    0.2719    0.0000 C   0  0  0  0  0  0  0  0  0  0  0  0
   -2.8028    1.7325    0.0000 C   0  0  0  0  0  0  0  0  0  0  0  0
   -1.3671    2.1670    0.0000 C   0  0  0  0  0  0  0  0  0  0  0  0
   -0.2730    1.1409    0.0000 N   0  0  0  0  0  0  0  0  0  0  0  0
   -0.6146   -0.3197    0.0000 C   0  0  0  0  0  0  0  0  0  0  0  0
   -2.0503   -0.7542    0.0000 C   0  0  0  0  0  0  0  0  0  0  0  0
    1.1627    1.5754    0.0000 C   0  0  0  0  0  0  0  0  0  0  0  0
    2.2568    0.5493    0.0000 C   0  0  0  0  0  0  0  0  0  0  0  0
    1.9153   -0.9113    0.0000 C   0  0  0  0  0  0  0  0  0  0  0  0
    3.0094   -1.9374    0.0000 C   0  0  0  0  0  0  0  0  0  0  0  0
    4.4451   -1.5030    0.0000 C   0  0  0  0  0  0  0  0  0  0  0  0
    4.7867   -0.0424    0.0000 C   0  0  0  0  0  0  0  0  0  0  0  0
    6.2223    0.3921    0.0000 F   0  0  0  0  0  0  0  0  0  0  0  0
    3.6925    0.9837    0.0000 C   0  0  0  0  0  0  0  0  0  0  0  0
   -3.9649   -0.9837    0.0000 C   0  0  0  0  0  0  0  0  0  0  0  0
   -3.2877   -2.3222    0.0000 O   0  0  0  0  0  0  0  0  0  0  0  0
   -5.4626   -0.9010    0.0000 O   0  0  0  0  0  0  0  0  0  0  0  0
  1  2  1  0
  2  3  1  0
  3  4  1  0
  4  5  1  0
  5  6  1  0
  6  7  1  0
  5  8  1  0
  8  9  1  0
  9 10  2  0
 10 11  1  0
 11 12  2  0
 12 13  1  0
 13 14  1  0
 13 15  2  0
  2 16  1  0
 16 17  2  0
 16 18  1  0
  7  2  1  0
 15  9  1  0
M  END
>  <rName>  (407) 
4-aza-Ac6c_Bn_3F

>  <PQ_SYMBOL>  (407) 
4-aza-Ac6c_Bn_3F

>  <FULL_NAME>  (407) 
4-Amino-1-[(3-fluorophenyl)methyl]piperidine-4-carboxylic acid

>  <IUPAC_CONDENSED>  (407) 
4-aza-Ac6c(Bn(3-F))

>  <IUPAC>  (407) 
4-amino-1-[(3-fluorophenyl)methyl]piperidine-4-carboxylic acid

>  <TYPE>  (407) 
Backbone

>  <CLASS>  (407) 
alpha

>  <ANALOG>  (407) 
X

>  <MOL_WT>  (407) 
252.28900000000002

>  <LOGP>  (407) 
1.2035999999999998

>  <TPSA>  (407) 
66.56

>  <POPULARITY>  (407) 
2.2

>  <PROTECTED>  (407) 
TRUE

>  <SMILES>  (407) 
NC1(CCN(CC1)Cc2(cccc(F)c2))C(=O)O

>  <INCHIKEY>  (407) 
NPXMSBRWVQAAGD-UHFFFAOYSA-N

$$$$
4-aza-Ac6c_Bn_3Me
     RDKit          2D

 18 19  0  0  0  0  0  0  0  0999 V2000
   -4.5235    0.8620    0.0000 N   0  0  0  0  0  0  0  0  0  0  0  0
   -3.1444    0.2719    0.0000 C   0  0  0  0  0  0  0  0  0  0  0  0
   -2.8028    1.7325    0.0000 C   0  0  0  0  0  0  0  0  0  0  0  0
   -1.3671    2.1670    0.0000 C   0  0  0  0  0  0  0  0  0  0  0  0
   -0.2730    1.1409    0.0000 N   0  0  0  0  0  0  0  0  0  0  0  0
   -0.6146   -0.3197    0.0000 C   0  0  0  0  0  0  0  0  0  0  0  0
   -2.0503   -0.7542    0.0000 C   0  0  0  0  0  0  0  0  0  0  0  0
    1.1627    1.5754    0.0000 C   0  0  0  0  0  0  0  0  0  0  0  0
    2.2568    0.5493    0.0000 C   0  0  0  0  0  0  0  0  0  0  0  0
    1.9153   -0.9113    0.0000 C   0  0  0  0  0  0  0  0  0  0  0  0
    3.0094   -1.9374    0.0000 C   0  0  0  0  0  0  0  0  0  0  0  0
    4.4451   -1.5030    0.0000 C   0  0  0  0  0  0  0  0  0  0  0  0
    4.7867   -0.0424    0.0000 C   0  0  0  0  0  0  0  0  0  0  0  0
    6.2223    0.3921    0.0000 C   0  0  0  0  0  0  0  0  0  0  0  0
    3.6925    0.9837    0.0000 C   0  0  0  0  0  0  0  0  0  0  0  0
   -3.9649   -0.9837    0.0000 C   0  0  0  0  0  0  0  0  0  0  0  0
   -3.2877   -2.3222    0.0000 O   0  0  0  0  0  0  0  0  0  0  0  0
   -5.4626   -0.9010    0.0000 O   0  0  0  0  0  0  0  0  0  0  0  0
  1  2  1  0
  2  3  1  0
  3  4  1  0
  4  5  1  0
  5  6  1  0
  6  7  1  0
  5  8  1  0
  8  9  1  0
  9 10  2  0
 10 11  1  0
 11 12  2  0
 12 13  1  0
 13 14  1  0
 13 15  2  0
  2 16  1  0
 16 17  2  0
 16 18  1  0
  7  2  1  0
 15  9  1  0
M  END
>  <rName>  (408) 
4-aza-Ac6c_Bn_3Me

>  <PQ_SYMBOL>  (408) 
4-aza-Ac6c_Bn_3Me

>  <FULL_NAME>  (408) 
4-aza-Ac6c(Bn(3-Me))

>  <IUPAC_CONDENSED>  (408) 
4-aza-Ac6c(Bn(3-Me))

>  <IUPAC>  (408) 
4-amino-1-((3-methylphenyl)methyl)piperidine-4-carboxylic acid

>  <TYPE>  (408) 
Backbone

>  <CLASS>  (408) 
alpha

>  <ANALOG>  (408) 
X

>  <MOL_WT>  (408) 
248.32600000000002

>  <LOGP>  (408) 
1.37292

>  <TPSA>  (408) 
66.56

>  <POPULARITY>  (408) 
2.2

>  <PROTECTED>  (408) 
TRUE

>  <SMILES>  (408) 
NC1(CCN(CC1)Cc2(cccc(C)c2))C(=O)O

>  <INCHIKEY>  (408) 
ZJJUAVBCPDBDKL-UHFFFAOYSA-N

$$$$
4-aza-Ac6c_Bn_3OMe
     RDKit          2D

 19 20  0  0  0  0  0  0  0  0999 V2000
   -4.9243    0.8043    0.0000 N   0  0  0  0  0  0  0  0  0  0  0  0
   -3.5345    0.2399    0.0000 C   0  0  0  0  0  0  0  0  0  0  0  0
   -3.2200    1.7066    0.0000 C   0  0  0  0  0  0  0  0  0  0  0  0
   -1.7926    2.1676    0.0000 C   0  0  0  0  0  0  0  0  0  0  0  0
   -0.6797    1.1619    0.0000 N   0  0  0  0  0  0  0  0  0  0  0  0
   -0.9942   -0.3048    0.0000 C   0  0  0  0  0  0  0  0  0  0  0  0
   -2.4216   -0.7658    0.0000 C   0  0  0  0  0  0  0  0  0  0  0  0
    0.7477    1.6229    0.0000 C   0  0  0  0  0  0  0  0  0  0  0  0
    1.8606    0.6172    0.0000 C   0  0  0  0  0  0  0  0  0  0  0  0
    1.5462   -0.8495    0.0000 C   0  0  0  0  0  0  0  0  0  0  0  0
    2.6591   -1.8551    0.0000 C   0  0  0  0  0  0  0  0  0  0  0  0
    4.0865   -1.3942    0.0000 C   0  0  0  0  0  0  0  0  0  0  0  0
    4.4010    0.0725    0.0000 C   0  0  0  0  0  0  0  0  0  0  0  0
    5.8284    0.5335    0.0000 O   0  0  0  0  0  0  0  0  0  0  0  0
    6.9413   -0.4722    0.0000 C   0  0  0  0  0  0  0  0  0  0  0  0
    3.2881    1.0782    0.0000 C   0  0  0  0  0  0  0  0  0  0  0  0
   -4.3316   -1.0308    0.0000 C   0  0  0  0  0  0  0  0  0  0  0  0
   -3.6298   -2.3564    0.0000 O   0  0  0  0  0  0  0  0  0  0  0  0
   -5.8306   -0.9757    0.0000 O   0  0  0  0  0  0  0  0  0  0  0  0
  1  2  1  0
  2  3  1  0
  3  4  1  0
  4  5  1  0
  5  6  1  0
  6  7  1  0
  5  8  1  0
  8  9  1  0
  9 10  1  0
 10 11  2  0
 11 12  1  0
 12 13  2  0
 13 14  1  0
 14 15  1  0
 13 16  1  0
  2 17  1  0
 17 18  2  0
 17 19  1  0
  7  2  1  0
 16  9  2  0
M  END
>  <rName>  (409) 
4-aza-Ac6c_Bn_3OMe

>  <PQ_SYMBOL>  (409) 
4-aza-Ac6c_Bn_3OMe

>  <FULL_NAME>  (409) 
4-aza-Ac6c(Bn(3-OMe))

>  <IUPAC_CONDENSED>  (409) 
4-aza-Ac6c(Bn(3-OMe))

>  <IUPAC>  (409) 
4-amino-1-((3-methoxyphenyl)methyl)piperidine-4-carboxylic acid

>  <TYPE>  (409) 
Backbone

>  <CLASS>  (409) 
alpha

>  <ANALOG>  (409) 
X

>  <MOL_WT>  (409) 
264.325

>  <LOGP>  (409) 
1.0730999999999995

>  <TPSA>  (409) 
75.78999999999999

>  <POPULARITY>  (409) 
2.2

>  <PROTECTED>  (409) 
TRUE

>  <SMILES>  (409) 
NC1(CCN(CC1)Cc2(cccc(OC)c2))C(=O)O

>  <INCHIKEY>  (409) 
RCMJVDPGZBLSHO-UHFFFAOYSA-N

$$$$
4-aza-Ac6c_Bn_4Cl
     RDKit          2D

 18 19  0  0  0  0  0  0  0  0999 V2000
   -4.5622    0.5962    0.0000 N   0  0  0  0  0  0  0  0  0  0  0  0
   -3.1335    0.1390    0.0000 C   0  0  0  0  0  0  0  0  0  0  0  0
   -2.9314    1.6253    0.0000 C   0  0  0  0  0  0  0  0  0  0  0  0
   -1.5431    2.1934    0.0000 C   0  0  0  0  0  0  0  0  0  0  0  0
   -0.3570    1.2752    0.0000 N   0  0  0  0  0  0  0  0  0  0  0  0
   -0.5592   -0.2111    0.0000 C   0  0  0  0  0  0  0  0  0  0  0  0
   -1.9474   -0.7792    0.0000 C   0  0  0  0  0  0  0  0  0  0  0  0
    1.0313    1.8433    0.0000 C   0  0  0  0  0  0  0  0  0  0  0  0
    2.2174    0.9250    0.0000 C   0  0  0  0  0  0  0  0  0  0  0  0
    2.0152   -0.5613    0.0000 C   0  0  0  0  0  0  0  0  0  0  0  0
    3.2013   -1.4795    0.0000 C   0  0  0  0  0  0  0  0  0  0  0  0
    4.5896   -0.9114    0.0000 C   0  0  0  0  0  0  0  0  0  0  0  0
    5.7757   -1.8297    0.0000 Cl  0  0  0  0  0  0  0  0  0  0  0  0
    4.7917    0.5749    0.0000 C   0  0  0  0  0  0  0  0  0  0  0  0
    3.6056    1.4931    0.0000 C   0  0  0  0  0  0  0  0  0  0  0  0
   -3.8319   -1.1885    0.0000 C   0  0  0  0  0  0  0  0  0  0  0  0
   -3.0313   -2.4570    0.0000 O   0  0  0  0  0  0  0  0  0  0  0  0
   -5.3307   -1.2475    0.0000 O   0  0  0  0  0  0  0  0  0  0  0  0
  1  2  1  0
  2  3  1  0
  3  4  1  0
  4  5  1  0
  5  6  1  0
  6  7  1  0
  5  8  1  0
  8  9  1  0
  9 10  1  0
 10 11  2  0
 11 12  1  0
 12 13  1  0
 12 14  2  0
 14 15  1  0
  2 16  1  0
 16 17  2  0
 16 18  1  0
  7  2  1  0
 15  9  2  0
M  END
>  <rName>  (410) 
4-aza-Ac6c_Bn_4Cl

>  <PQ_SYMBOL>  (410) 
4-aza-Ac6c_Bn_4Cl

>  <FULL_NAME>  (410) 
4-amino-1-(4-chlorobenzyl)piperidine-4-carboxylic acid

>  <IUPAC_CONDENSED>  (410) 
4-aza-Ac6c(Bn(4-Cl))

>  <IUPAC>  (410) 
4-amino-1-((4-chlorophenyl)methyl)piperidine-4-carboxylic acid

>  <TYPE>  (410) 
Backbone

>  <CLASS>  (410) 
alpha

>  <ANALOG>  (410) 
X

>  <MOL_WT>  (410) 
268.744

>  <LOGP>  (410) 
1.7179

>  <TPSA>  (410) 
66.56

>  <POPULARITY>  (410) 
5.9

>  <PROTECTED>  (410) 
TRUE

>  <SMILES>  (410) 
NC1(CCN(CC1)Cc2(ccc(Cl)cc2))C(=O)O

>  <INCHIKEY>  (410) 
ABDIXVFLGWCHDW-UHFFFAOYSA-N

$$$$
4-aza-Ac6c_Bn_4F
     RDKit          2D

 18 19  0  0  0  0  0  0  0  0999 V2000
   -4.5622    0.5962    0.0000 N   0  0  0  0  0  0  0  0  0  0  0  0
   -3.1335    0.1390    0.0000 C   0  0  0  0  0  0  0  0  0  0  0  0
   -2.9314    1.6253    0.0000 C   0  0  0  0  0  0  0  0  0  0  0  0
   -1.5431    2.1934    0.0000 C   0  0  0  0  0  0  0  0  0  0  0  0
   -0.3570    1.2752    0.0000 N   0  0  0  0  0  0  0  0  0  0  0  0
   -0.5592   -0.2111    0.0000 C   0  0  0  0  0  0  0  0  0  0  0  0
   -1.9474   -0.7792    0.0000 C   0  0  0  0  0  0  0  0  0  0  0  0
    1.0313    1.8433    0.0000 C   0  0  0  0  0  0  0  0  0  0  0  0
    2.2174    0.9250    0.0000 C   0  0  0  0  0  0  0  0  0  0  0  0
    2.0152   -0.5613    0.0000 C   0  0  0  0  0  0  0  0  0  0  0  0
    3.2013   -1.4795    0.0000 C   0  0  0  0  0  0  0  0  0  0  0  0
    4.5896   -0.9114    0.0000 C   0  0  0  0  0  0  0  0  0  0  0  0
    5.7757   -1.8297    0.0000 F   0  0  0  0  0  0  0  0  0  0  0  0
    4.7917    0.5749    0.0000 C   0  0  0  0  0  0  0  0  0  0  0  0
    3.6056    1.4931    0.0000 C   0  0  0  0  0  0  0  0  0  0  0  0
   -3.8319   -1.1885    0.0000 C   0  0  0  0  0  0  0  0  0  0  0  0
   -3.0313   -2.4570    0.0000 O   0  0  0  0  0  0  0  0  0  0  0  0
   -5.3307   -1.2475    0.0000 O   0  0  0  0  0  0  0  0  0  0  0  0
  1  2  1  0
  2  3  1  0
  3  4  1  0
  4  5  1  0
  5  6  1  0
  6  7  1  0
  5  8  1  0
  8  9  1  0
  9 10  1  0
 10 11  2  0
 11 12  1  0
 12 13  1  0
 12 14  2  0
 14 15  1  0
  2 16  1  0
 16 17  2  0
 16 18  1  0
  7  2  1  0
 15  9  2  0
M  END
>  <rName>  (411) 
4-aza-Ac6c_Bn_4F

>  <PQ_SYMBOL>  (411) 
4-aza-Ac6c_Bn_4F

>  <FULL_NAME>  (411) 
4-Amino-1-[(4-fluorophenyl)methyl]piperidine-4-carboxylic acid

>  <IUPAC_CONDENSED>  (411) 
4-aza-Ac6c(Bn(4-F))

>  <IUPAC>  (411) 
4-amino-1-[(4-fluorophenyl)methyl]piperidine-4-carboxylic acid

>  <TYPE>  (411) 
Backbone

>  <CLASS>  (411) 
alpha

>  <ANALOG>  (411) 
X

>  <MOL_WT>  (411) 
252.28900000000002

>  <LOGP>  (411) 
1.2035999999999998

>  <TPSA>  (411) 
66.56

>  <POPULARITY>  (411) 
2.2

>  <PROTECTED>  (411) 
TRUE

>  <SMILES>  (411) 
NC1(CCN(CC1)Cc2(ccc(F)cc2))C(=O)O

>  <INCHIKEY>  (411) 
AXOWDNIIRNGHCG-UHFFFAOYSA-N

$$$$
4-aza-Ac6c_Bn_4OMe
     RDKit          2D

 19 20  0  0  0  0  0  0  0  0999 V2000
   -4.9047    0.3373    0.0000 N   0  0  0  0  0  0  0  0  0  0  0  0
   -3.4412    0.0086    0.0000 C   0  0  0  0  0  0  0  0  0  0  0  0
   -3.3716    1.5070    0.0000 C   0  0  0  0  0  0  0  0  0  0  0  0
   -2.0391    2.1958    0.0000 C   0  0  0  0  0  0  0  0  0  0  0  0
   -0.7763    1.3864    0.0000 N   0  0  0  0  0  0  0  0  0  0  0  0
   -0.8459   -0.1120    0.0000 C   0  0  0  0  0  0  0  0  0  0  0  0
   -2.1784   -0.8009    0.0000 C   0  0  0  0  0  0  0  0  0  0  0  0
    0.5562    2.0752    0.0000 C   0  0  0  0  0  0  0  0  0  0  0  0
    1.8190    1.2658    0.0000 C   0  0  0  0  0  0  0  0  0  0  0  0
    1.7494   -0.2326    0.0000 C   0  0  0  0  0  0  0  0  0  0  0  0
    3.0122   -1.0421    0.0000 C   0  0  0  0  0  0  0  0  0  0  0  0
    4.3446   -0.3532    0.0000 C   0  0  0  0  0  0  0  0  0  0  0  0
    5.6075   -1.1627    0.0000 O   0  0  0  0  0  0  0  0  0  0  0  0
    5.5378   -2.6611    0.0000 C   0  0  0  0  0  0  0  0  0  0  0  0
    4.4143    1.1452    0.0000 C   0  0  0  0  0  0  0  0  0  0  0  0
    3.1514    1.9546    0.0000 C   0  0  0  0  0  0  0  0  0  0  0  0
   -4.0191   -1.3756    0.0000 C   0  0  0  0  0  0  0  0  0  0  0  0
   -3.1093   -2.5682    0.0000 O   0  0  0  0  0  0  0  0  0  0  0  0
   -5.5068   -1.5673    0.0000 O   0  0  0  0  0  0  0  0  0  0  0  0
  1  2  1  0
  2  3  1  0
  3  4  1  0
  4  5  1  0
  5  6  1  0
  6  7  1  0
  5  8  1  0
  8  9  1  0
  9 10  1  0
 10 11  2  0
 11 12  1  0
 12 13  1  0
 13 14  1  0
 12 15  2  0
 15 16  1  0
  2 17  1  0
 17 18  2  0
 17 19  1  0
  7  2  1  0
 16  9  2  0
M  END
>  <rName>  (412) 
4-aza-Ac6c_Bn_4OMe

>  <PQ_SYMBOL>  (412) 
4-aza-Ac6c_Bn_4OMe

>  <FULL_NAME>  (412) 
4-amino-1-(4-methoxybenzyl)piperidine-4-carboxylic acid

>  <IUPAC_CONDENSED>  (412) 
4-aza-Ac6c(Bn(4-OMe))

>  <IUPAC>  (412) 
4-amino-1-((4-methoxyphenyl)methyl)piperidine-4-carboxylic acid

>  <TYPE>  (412) 
Backbone

>  <CLASS>  (412) 
alpha

>  <ANALOG>  (412) 
X

>  <MOL_WT>  (412) 
264.325

>  <LOGP>  (412) 
1.0730999999999995

>  <TPSA>  (412) 
75.78999999999999

>  <POPULARITY>  (412) 
9.0

>  <PROTECTED>  (412) 
TRUE

>  <SMILES>  (412) 
NC1(CCN(CC1)Cc2(ccc(OC)cc2))C(=O)O

>  <INCHIKEY>  (412) 
JEYKZZICXPKITI-UHFFFAOYSA-N

$$$$
4-aza-Ac6c_Et
     RDKit          2D

 12 12  0  0  0  0  0  0  0  0999 V2000
    2.2042   -1.3609    0.0000 N   0  0  0  0  0  0  0  0  0  0  0  0
    1.0760   -0.3724    0.0000 C   0  0  0  0  0  0  0  0  0  0  0  0
    0.2984   -1.6551    0.0000 C   0  0  0  0  0  0  0  0  0  0  0  0
   -1.2012   -1.6230    0.0000 C   0  0  0  0  0  0  0  0  0  0  0  0
   -1.9233   -0.3083    0.0000 N   0  0  0  0  0  0  0  0  0  0  0  0
   -3.4230   -0.2762    0.0000 C   0  0  0  0  0  0  0  0  0  0  0  0
   -4.1450    1.0385    0.0000 C   0  0  0  0  0  0  0  0  0  0  0  0
   -1.1457    0.9744    0.0000 C   0  0  0  0  0  0  0  0  0  0  0  0
    0.3539    0.9424    0.0000 C   0  0  0  0  0  0  0  0  0  0  0  0
    2.2454    0.5670    0.0000 C   0  0  0  0  0  0  0  0  0  0  0  0
    2.0166    2.0495    0.0000 O   0  0  0  0  0  0  0  0  0  0  0  0
    3.6437    0.0240    0.0000 O   0  0  0  0  0  0  0  0  0  0  0  0
  1  2  1  0
  2  3  1  0
  3  4  1  0
  4  5  1  0
  5  6  1  0
  6  7  1  0
  5  8  1  0
  8  9  1  0
  2 10  1  0
 10 11  2  0
 10 12  1  0
  9  2  1  0
M  END
>  <rName>  (413) 
4-aza-Ac6c_Et

>  <PQ_SYMBOL>  (413) 
4-aza-Ac6c_Et

>  <FULL_NAME>  (413) 
4-Amino-1-ethyl-4-piperidinecarboxylic acid

>  <IUPAC_CONDENSED>  (413) 
4-aza-Ac6c(Et)

>  <IUPAC>  (413) 
4-amino-1-ethylpiperidine-4-carboxylic acid

>  <TYPE>  (413) 
Backbone

>  <CLASS>  (413) 
alpha

>  <ANALOG>  (413) 
X

>  <MOL_WT>  (413) 
172.228

>  <LOGP>  (413) 
-0.11579999999999996

>  <TPSA>  (413) 
66.56

>  <POPULARITY>  (413) 
2.2

>  <PROTECTED>  (413) 
TRUE

>  <SMILES>  (413) 
NC1(CCN(CC)CC1)C(=O)O

>  <INCHIKEY>  (413) 
VJNDFYVXJBBZDB-UHFFFAOYSA-N

$$$$
4-aza-Ac6c_Mbzl
     RDKit          2D

 18 19  0  0  0  0  0  0  0  0999 V2000
   -4.5622    0.5962    0.0000 N   0  0  0  0  0  0  0  0  0  0  0  0
   -3.1335    0.1390    0.0000 C   0  0  0  0  0  0  0  0  0  0  0  0
   -2.9314    1.6253    0.0000 C   0  0  0  0  0  0  0  0  0  0  0  0
   -1.5431    2.1934    0.0000 C   0  0  0  0  0  0  0  0  0  0  0  0
   -0.3570    1.2752    0.0000 N   0  0  0  0  0  0  0  0  0  0  0  0
   -0.5592   -0.2111    0.0000 C   0  0  0  0  0  0  0  0  0  0  0  0
   -1.9474   -0.7792    0.0000 C   0  0  0  0  0  0  0  0  0  0  0  0
    1.0313    1.8433    0.0000 C   0  0  0  0  0  0  0  0  0  0  0  0
    2.2174    0.9250    0.0000 C   0  0  0  0  0  0  0  0  0  0  0  0
    2.0152   -0.5613    0.0000 C   0  0  0  0  0  0  0  0  0  0  0  0
    3.2013   -1.4795    0.0000 C   0  0  0  0  0  0  0  0  0  0  0  0
    4.5896   -0.9114    0.0000 C   0  0  0  0  0  0  0  0  0  0  0  0
    5.7757   -1.8297    0.0000 C   0  0  0  0  0  0  0  0  0  0  0  0
    4.7917    0.5749    0.0000 C   0  0  0  0  0  0  0  0  0  0  0  0
    3.6056    1.4931    0.0000 C   0  0  0  0  0  0  0  0  0  0  0  0
   -3.8319   -1.1885    0.0000 C   0  0  0  0  0  0  0  0  0  0  0  0
   -3.0313   -2.4570    0.0000 O   0  0  0  0  0  0  0  0  0  0  0  0
   -5.3307   -1.2475    0.0000 O   0  0  0  0  0  0  0  0  0  0  0  0
  1  2  1  0
  2  3  1  0
  3  4  1  0
  4  5  1  0
  5  6  1  0
  6  7  1  0
  5  8  1  0
  8  9  1  0
  9 10  1  0
 10 11  2  0
 11 12  1  0
 12 13  1  0
 12 14  2  0
 14 15  1  0
  2 16  1  0
 16 17  2  0
 16 18  1  0
  7  2  1  0
 15  9  2  0
M  END
>  <rName>  (414) 
4-aza-Ac6c_Mbzl

>  <PQ_SYMBOL>  (414) 
4-aza-Ac6c_Mbzl

>  <FULL_NAME>  (414) 
4-amino-1-(4-methylbenzyl)piperidine-4-carboxylic acid

>  <IUPAC_CONDENSED>  (414) 
4-aza-Ac6c(Mbzl)

>  <IUPAC>  (414) 
4-amino-1-((4-methylphenyl)methyl)piperidine-4-carboxylic acid

>  <TYPE>  (414) 
Backbone

>  <CLASS>  (414) 
alpha

>  <ANALOG>  (414) 
X

>  <MOL_WT>  (414) 
248.32600000000002

>  <LOGP>  (414) 
1.37292

>  <TPSA>  (414) 
66.56

>  <POPULARITY>  (414) 
7.7

>  <PROTECTED>  (414) 
TRUE

>  <SMILES>  (414) 
NC1(CCN(CC1)Cc2(ccc(C)cc2))C(=O)O

>  <INCHIKEY>  (414) 
CRIHNSOGDQGGAQ-UHFFFAOYSA-N

$$$$
4-aza-Ac6c_Me
     RDKit          2D

 11 11  0  0  0  0  0  0  0  0999 V2000
    1.6249   -1.5175    0.0000 N   0  0  0  0  0  0  0  0  0  0  0  0
    0.6516   -0.3762    0.0000 C   0  0  0  0  0  0  0  0  0  0  0  0
   -0.3034   -1.5329    0.0000 C   0  0  0  0  0  0  0  0  0  0  0  0
   -1.7826   -1.2842    0.0000 C   0  0  0  0  0  0  0  0  0  0  0  0
   -2.3069    0.1212    0.0000 N   0  0  0  0  0  0  0  0  0  0  0  0
   -3.7861    0.3699    0.0000 C   0  0  0  0  0  0  0  0  0  0  0  0
   -1.3519    1.2779    0.0000 C   0  0  0  0  0  0  0  0  0  0  0  0
    0.1274    1.0292    0.0000 C   0  0  0  0  0  0  0  0  0  0  0  0
    1.9446    0.3841    0.0000 C   0  0  0  0  0  0  0  0  0  0  0  0
    1.9327    1.8841    0.0000 O   0  0  0  0  0  0  0  0  0  0  0  0
    3.2496   -0.3555    0.0000 O   0  0  0  0  0  0  0  0  0  0  0  0
  1  2  1  0
  2  3  1  0
  3  4  1  0
  4  5  1  0
  5  6  1  0
  5  7  1  0
  7  8  1  0
  2  9  1  0
  9 10  2  0
  9 11  1  0
  8  2  1  0
M  END
>  <rName>  (415) 
4-aza-Ac6c_Me

>  <PQ_SYMBOL>  (415) 
4-aza-Ac6c_Me

>  <FULL_NAME>  (415) 
4-amino-1-methylpiperidine-4-carboxylic acid

>  <IUPAC_CONDENSED>  (415) 
4-aza-Ac6c(Me)

>  <IUPAC>  (415) 
4-amino-1-methylpiperidine-4-carboxylic acid

>  <TYPE>  (415) 
Backbone

>  <CLASS>  (415) 
alpha

>  <ANALOG>  (415) 
X

>  <MOL_WT>  (415) 
158.201

>  <LOGP>  (415) 
-0.5059

>  <TPSA>  (415) 
66.56

>  <POPULARITY>  (415) 
14.0

>  <PROTECTED>  (415) 
TRUE

>  <SMILES>  (415) 
NC1(CCN(C)CC1)C(=O)O

>  <INCHIKEY>  (415) 
PRROBIIYGSUPNR-UHFFFAOYSA-N

$$$$
4-aza-Ac6c_Ph
     RDKit          2D

 16 17  0  0  0  0  0  0  0  0999 V2000
    3.5049   -1.4159    0.0000 N   0  0  0  0  0  0  0  0  0  0  0  0
    2.4325   -0.3671    0.0000 C   0  0  0  0  0  0  0  0  0  0  0  0
    1.5858   -1.6052    0.0000 C   0  0  0  0  0  0  0  0  0  0  0  0
    0.0902   -1.4910    0.0000 C   0  0  0  0  0  0  0  0  0  0  0  0
   -0.5588   -0.1386    0.0000 N   0  0  0  0  0  0  0  0  0  0  0  0
    0.2880    1.0995    0.0000 C   0  0  0  0  0  0  0  0  0  0  0  0
    1.7836    0.9853    0.0000 C   0  0  0  0  0  0  0  0  0  0  0  0
   -2.0544   -0.0244    0.0000 C   0  0  0  0  0  0  0  0  0  0  0  0
   -2.7033    1.3279    0.0000 C   0  0  0  0  0  0  0  0  0  0  0  0
   -4.1990    1.4421    0.0000 C   0  0  0  0  0  0  0  0  0  0  0  0
   -5.0457    0.2040    0.0000 C   0  0  0  0  0  0  0  0  0  0  0  0
   -4.3968   -1.1484    0.0000 C   0  0  0  0  0  0  0  0  0  0  0  0
   -2.9011   -1.2626    0.0000 C   0  0  0  0  0  0  0  0  0  0  0  0
    3.6517    0.5068    0.0000 C   0  0  0  0  0  0  0  0  0  0  0  0
    3.5044    1.9996    0.0000 O   0  0  0  0  0  0  0  0  0  0  0  0
    5.0181   -0.1120    0.0000 O   0  0  0  0  0  0  0  0  0  0  0  0
  1  2  1  0
  2  3  1  0
  3  4  1  0
  4  5  1  0
  5  6  1  0
  6  7  1  0
  5  8  1  0
  8  9  2  0
  9 10  1  0
 10 11  2  0
 11 12  1  0
 12 13  2  0
  2 14  1  0
 14 15  2  0
 14 16  1  0
  7  2  1  0
 13  8  1  0
M  END
>  <rName>  (416) 
4-aza-Ac6c_Ph

>  <PQ_SYMBOL>  (416) 
4-aza-Ac6c_Ph

>  <FULL_NAME>  (416) 
4-Amino-1-phenylpiperidine-4-carboxylic acid

>  <IUPAC_CONDENSED>  (416) 
4-aza-Ac6c(Ph)

>  <IUPAC>  (416) 
4-amino-1-phenylpiperidine-4-carboxylic acid

>  <TYPE>  (416) 
Backbone

>  <CLASS>  (416) 
alpha

>  <ANALOG>  (416) 
X

>  <MOL_WT>  (416) 
220.27200000000002

>  <LOGP>  (416) 
1.0689

>  <TPSA>  (416) 
66.56

>  <POPULARITY>  (416) 
6.0

>  <PROTECTED>  (416) 
TRUE

>  <SMILES>  (416) 
NC1(CCN(CC1)c2(ccccc2))C(=O)O

>  <INCHIKEY>  (416) 
FPGAOFXYANTSRQ-UHFFFAOYSA-N

$$$$
4-aza-Ac6c_Ph_35diF
     RDKit          2D

 18 19  0  0  0  0  0  0  0  0999 V2000
    4.0723   -1.4192    0.0000 N   0  0  0  0  0  0  0  0  0  0  0  0
    2.9950   -0.3755    0.0000 C   0  0  0  0  0  0  0  0  0  0  0  0
    2.1542   -1.6177    0.0000 C   0  0  0  0  0  0  0  0  0  0  0  0
    0.6580   -1.5106    0.0000 C   0  0  0  0  0  0  0  0  0  0  0  0
    0.0026   -0.1613    0.0000 N   0  0  0  0  0  0  0  0  0  0  0  0
    0.8435    1.0809    0.0000 C   0  0  0  0  0  0  0  0  0  0  0  0
    2.3396    0.9738    0.0000 C   0  0  0  0  0  0  0  0  0  0  0  0
   -1.4935   -0.0542    0.0000 C   0  0  0  0  0  0  0  0  0  0  0  0
   -2.1489    1.2951    0.0000 C   0  0  0  0  0  0  0  0  0  0  0  0
   -3.6451    1.4021    0.0000 C   0  0  0  0  0  0  0  0  0  0  0  0
   -4.3004    2.7514    0.0000 F   0  0  0  0  0  0  0  0  0  0  0  0
   -4.4859    0.1600    0.0000 C   0  0  0  0  0  0  0  0  0  0  0  0
   -3.8305   -1.1893    0.0000 C   0  0  0  0  0  0  0  0  0  0  0  0
   -4.6714   -2.4315    0.0000 F   0  0  0  0  0  0  0  0  0  0  0  0
   -2.3344   -1.2964    0.0000 C   0  0  0  0  0  0  0  0  0  0  0  0
    4.2100    0.5042    0.0000 C   0  0  0  0  0  0  0  0  0  0  0  0
    4.0556    1.9963    0.0000 O   0  0  0  0  0  0  0  0  0  0  0  0
    5.5793   -0.1081    0.0000 O   0  0  0  0  0  0  0  0  0  0  0  0
  1  2  1  0
  2  3  1  0
  3  4  1  0
  4  5  1  0
  5  6  1  0
  6  7  1  0
  5  8  1  0
  8  9  2  0
  9 10  1  0
 10 11  1  0
 10 12  2  0
 12 13  1  0
 13 14  1  0
 13 15  2  0
  2 16  1  0
 16 17  2  0
 16 18  1  0
  7  2  1  0
 15  8  1  0
M  END
>  <rName>  (417) 
4-aza-Ac6c_Ph_35diF

>  <PQ_SYMBOL>  (417) 
4-aza-Ac6c_Ph_35diF

>  <FULL_NAME>  (417) 
4-aza-Ac6c(Ph(3,5-diF))

>  <IUPAC_CONDENSED>  (417) 
4-aza-Ac6c(Ph(3,5-diF))

>  <IUPAC>  (417) 
4-amino-1-(3,5-difluorophenyl)piperidine-4-carboxylic acid

>  <TYPE>  (417) 
Backbone

>  <CLASS>  (417) 
alpha

>  <ANALOG>  (417) 
X

>  <MOL_WT>  (417) 
256.25199999999995

>  <LOGP>  (417) 
1.3471

>  <TPSA>  (417) 
66.56

>  <POPULARITY>  (417) 
2.2

>  <PROTECTED>  (417) 
TRUE

>  <SMILES>  (417) 
NC1(CCN(CC1)c2(cc(F)cc(F)c2))C(=O)O

>  <INCHIKEY>  (417) 
WCYONHAPGNOUMS-UHFFFAOYSA-N

$$$$
4-aza-Ac6c_Pr
     RDKit          2D

 13 13  0  0  0  0  0  0  0  0999 V2000
   -2.7349    1.2507    0.0000 N   0  0  0  0  0  0  0  0  0  0  0  0
   -1.5389    0.3455    0.0000 C   0  0  0  0  0  0  0  0  0  0  0  0
   -0.8551    1.6806    0.0000 C   0  0  0  0  0  0  0  0  0  0  0  0
    0.6430    1.7559    0.0000 C   0  0  0  0  0  0  0  0  0  0  0  0
    1.4573    0.4962    0.0000 N   0  0  0  0  0  0  0  0  0  0  0  0
    2.9554    0.5716    0.0000 C   0  0  0  0  0  0  0  0  0  0  0  0
    3.7697   -0.6882    0.0000 C   0  0  0  0  0  0  0  0  0  0  0  0
    5.2679   -0.6128    0.0000 C   0  0  0  0  0  0  0  0  0  0  0  0
    0.7735   -0.8389    0.0000 C   0  0  0  0  0  0  0  0  0  0  0  0
   -0.7246   -0.9142    0.0000 C   0  0  0  0  0  0  0  0  0  0  0  0
   -2.6381   -0.6752    0.0000 C   0  0  0  0  0  0  0  0  0  0  0  0
   -2.3037   -2.1375    0.0000 O   0  0  0  0  0  0  0  0  0  0  0  0
   -4.0716   -0.2337    0.0000 O   0  0  0  0  0  0  0  0  0  0  0  0
  1  2  1  0
  2  3  1  0
  3  4  1  0
  4  5  1  0
  5  6  1  0
  6  7  1  0
  7  8  1  0
  5  9  1  0
  9 10  1  0
  2 11  1  0
 11 12  2  0
 11 13  1  0
 10  2  1  0
M  END
>  <rName>  (418) 
4-aza-Ac6c_Pr

>  <PQ_SYMBOL>  (418) 
4-aza-Ac6c_Pr

>  <FULL_NAME>  (418) 
1-Propyl-4-amino-4-piperidinecarboxylic acid

>  <IUPAC_CONDENSED>  (418) 
4-aza-Ac6c(Pr)

>  <IUPAC>  (418) 
4-amino-1-propylpiperidine-4-carboxylic acid

>  <TYPE>  (418) 
Backbone

>  <CLASS>  (418) 
alpha

>  <ANALOG>  (418) 
X

>  <MOL_WT>  (418) 
186.255

>  <LOGP>  (418) 
0.27429999999999993

>  <TPSA>  (418) 
66.56

>  <POPULARITY>  (418) 
2.2

>  <PROTECTED>  (418) 
TRUE

>  <SMILES>  (418) 
NC1(CCN(CCC)CC1)C(=O)O

>  <INCHIKEY>  (418) 
AIJKZYKSKZUUHO-UHFFFAOYSA-N

$$$$
4-aza-Ac6c_g_g_g_gtetraMe_OH
     RDKit          2D

 15 15  0  0  0  0  0  0  0  0999 V2000
    2.0456   -1.7341    0.0000 N   0  0  0  0  0  0  0  0  0  0  0  0
    1.1794   -0.5094    0.0000 C   0  0  0  0  0  0  0  0  0  0  0  0
    0.1238   -1.5751    0.0000 C   0  0  0  0  0  0  0  0  0  0  0  0
   -1.3269   -1.1937    0.0000 C   0  0  0  0  0  0  0  0  0  0  0  0
   -1.4506   -2.6886    0.0000 C   0  0  0  0  0  0  0  0  0  0  0  0
   -2.8206   -1.3315    0.0000 C   0  0  0  0  0  0  0  0  0  0  0  0
   -1.7220    0.2533    0.0000 N   0  0  0  0  0  0  0  0  0  0  0  0
   -3.1727    0.6347    0.0000 O   0  0  0  0  0  0  0  0  0  0  0  0
   -0.6664    1.3190    0.0000 C   0  0  0  0  0  0  0  0  0  0  0  0
   -1.8991    2.1735    0.0000 C   0  0  0  0  0  0  0  0  0  0  0  0
   -0.0389    2.6814    0.0000 C   0  0  0  0  0  0  0  0  0  0  0  0
    0.7843    0.9376    0.0000 C   0  0  0  0  0  0  0  0  0  0  0  0
    2.5359    0.1309    0.0000 C   0  0  0  0  0  0  0  0  0  0  0  0
    2.6595    1.6258    0.0000 O   0  0  0  0  0  0  0  0  0  0  0  0
    3.7686   -0.7236    0.0000 O   0  0  0  0  0  0  0  0  0  0  0  0
  1  2  1  0
  2  3  1  0
  3  4  1  0
  4  5  1  0
  4  6  1  0
  4  7  1  0
  7  8  1  0
  7  9  1  0
  9 10  1  0
  9 11  1  0
  9 12  1  0
  2 13  1  0
 13 14  2  0
 13 15  1  0
 12  2  1  0
M  END
>  <rName>  (419) 
4-aza-Ac6c_g_g_g_gtetraMe_OH

>  <PQ_SYMBOL>  (419) 
4-aza-Ac6c_g_g_g_gtetraMe_OH

>  <FULL_NAME>  (419) 
4-Amino-1-oxyl-2,2,6,6-tetramethylpiperidine-4-carboxylic acid

>  <IUPAC_CONDENSED>  (419) 
4-aza-Ac6c(g,g,g,g-tetraMe,OH)

>  <IUPAC>  (419) 
4-amino-1-hydroxy-2,2,6,6-tetramethylpiperidine-4-carboxylic acid

>  <TYPE>  (419) 
Backbone

>  <CLASS>  (419) 
alpha

>  <ANALOG>  (419) 
X

>  <MOL_WT>  (419) 
216.28099999999998

>  <LOGP>  (419) 
0.8106999999999998

>  <TPSA>  (419) 
86.79

>  <POPULARITY>  (419) 
3.5

>  <PROTECTED>  (419) 
TRUE

>  <SMILES>  (419) 
NC1(CC(C)(C)N(O)C(C)(C)C1)C(=O)O

>  <INCHIKEY>  (419) 
BYTZPINCZITWEC-UHFFFAOYSA-N

$$$$
4-aza-Ac6c_iPr
     RDKit          2D

 13 13  0  0  0  0  0  0  0  0999 V2000
    2.3986   -1.4745    0.0000 N   0  0  0  0  0  0  0  0  0  0  0  0
    1.3690   -0.3837    0.0000 C   0  0  0  0  0  0  0  0  0  0  0  0
    0.4735   -1.5871    0.0000 C   0  0  0  0  0  0  0  0  0  0  0  0
   -1.0164   -1.4133    0.0000 C   0  0  0  0  0  0  0  0  0  0  0  0
   -1.6108   -0.0361    0.0000 N   0  0  0  0  0  0  0  0  0  0  0  0
   -0.7154    1.1673    0.0000 C   0  0  0  0  0  0  0  0  0  0  0  0
    0.7745    0.9935    0.0000 C   0  0  0  0  0  0  0  0  0  0  0  0
   -3.1007    0.1376    0.0000 C   0  0  0  0  0  0  0  0  0  0  0  0
   -3.6952    1.5148    0.0000 C   0  0  0  0  0  0  0  0  0  0  0  0
   -3.9962   -1.0658    0.0000 C   0  0  0  0  0  0  0  0  0  0  0  0
    2.6220    0.4409    0.0000 C   0  0  0  0  0  0  0  0  0  0  0  0
    2.5344    1.9383    0.0000 O   0  0  0  0  0  0  0  0  0  0  0  0
    3.9626   -0.2320    0.0000 O   0  0  0  0  0  0  0  0  0  0  0  0
  1  2  1  0
  2  3  1  0
  3  4  1  0
  4  5  1  0
  5  6  1  0
  6  7  1  0
  5  8  1  0
  8  9  1  0
  8 10  1  0
  2 11  1  0
 11 12  2  0
 11 13  1  0
  7  2  1  0
M  END
>  <rName>  (420) 
4-aza-Ac6c_iPr

>  <PQ_SYMBOL>  (420) 
4-aza-Ac6c_iPr

>  <FULL_NAME>  (420) 
4-Amino-1-isopropylpiperidine-4-carboxylic acid

>  <IUPAC_CONDENSED>  (420) 
4-aza-Ac6c(iPr)

>  <IUPAC>  (420) 
4-amino-1-propan-2-ylpiperidine-4-carboxylic acid

>  <TYPE>  (420) 
Backbone

>  <CLASS>  (420) 
alpha

>  <ANALOG>  (420) 
X

>  <MOL_WT>  (420) 
186.255

>  <LOGP>  (420) 
0.2727000000000001

>  <TPSA>  (420) 
66.56

>  <POPULARITY>  (420) 
2.2

>  <PROTECTED>  (420) 
TRUE

>  <SMILES>  (420) 
NC1(CCN(CC1)C(C)C)C(=O)O

>  <INCHIKEY>  (420) 
KNIHUVGGQCRUDR-UHFFFAOYSA-N

$$$$
4-aza-Pip
     RDKit          2D

  9  9  0  0  0  0  0  0  0  0999 V2000
    0.4167   -1.2990    0.0000 N   0  0  0  0  0  0  0  0  0  0  0  0
   -0.3333    0.0000    0.0000 C   0  0  0  0  0  0  0  0  0  0  0  0
    0.4167    1.2990    0.0000 C   0  0  0  0  0  0  0  0  0  0  0  0
    1.9167    1.2990    0.0000 N   0  0  0  0  0  0  0  0  0  0  0  0
    2.6667    0.0000    0.0000 C   0  0  0  0  0  0  0  0  0  0  0  0
    1.9167   -1.2990    0.0000 C   0  0  0  0  0  0  0  0  0  0  0  0
   -1.8333   -0.0000    0.0000 C   0  0  0  0  0  0  0  0  0  0  0  0
   -2.5833   -1.2990    0.0000 O   0  0  0  0  0  0  0  0  0  0  0  0
   -2.5833    1.2990    0.0000 O   0  0  0  0  0  0  0  0  0  0  0  0
  1  2  1  0
  2  3  1  0
  3  4  1  0
  4  5  1  0
  5  6  1  0
  2  7  1  6
  7  8  2  0
  7  9  1  0
  6  1  1  0
M  END
>  <rName>  (421) 
4-aza-Pip

>  <PQ_SYMBOL>  (421) 
4-aza-Pip

>  <FULL_NAME>  (421) 
(2S)-piperazine-2-carboxylic acid

>  <IUPAC_CONDENSED>  (421) 
4-aza-Pip

>  <IUPAC>  (421) 
(2S)-piperazine-2-carboxylic acid

>  <TYPE>  (421) 
Backbone

>  <CLASS>  (421) 
alpha

>  <ANALOG>  (421) 
Pro

>  <MOL_WT>  (421) 
130.14700000000002

>  <LOGP>  (421) 
-1.3675999999999993

>  <TPSA>  (421) 
61.36

>  <POPULARITY>  (421) 
14.5

>  <PROTECTED>  (421) 
TRUE

>  <SMILES>  (421) 
N1[C@@H](CNCC1)C(=O)O

>  <INCHIKEY>  (421) 
JSSXHAMIXJGYCS-BYPYZUCNSA-N

$$$$
4-aza-Pip_Ph_4I
     RDKit          2D

 16 17  0  0  0  0  0  0  0  0999 V2000
   -3.0795   -1.3843    0.0000 N   0  0  0  0  0  0  0  0  0  0  0  0
   -2.6790    0.0612    0.0000 C   0  0  0  0  0  0  0  0  0  0  0  0
   -1.2269    0.4372    0.0000 C   0  0  0  0  0  0  0  0  0  0  0  0
   -0.1752   -0.6324    0.0000 N   0  0  0  0  0  0  0  0  0  0  0  0
   -0.5757   -2.0780    0.0000 C   0  0  0  0  0  0  0  0  0  0  0  0
   -2.0278   -2.4539    0.0000 C   0  0  0  0  0  0  0  0  0  0  0  0
    1.2769   -0.2565    0.0000 C   0  0  0  0  0  0  0  0  0  0  0  0
    2.3286   -1.3261    0.0000 C   0  0  0  0  0  0  0  0  0  0  0  0
    3.7807   -0.9501    0.0000 C   0  0  0  0  0  0  0  0  0  0  0  0
    4.1812    0.4954    0.0000 C   0  0  0  0  0  0  0  0  0  0  0  0
    5.6333    0.8714    0.0000 I   0  0  0  0  0  0  0  0  0  0  0  0
    3.1295    1.5650    0.0000 C   0  0  0  0  0  0  0  0  0  0  0  0
    1.6774    1.1891    0.0000 C   0  0  0  0  0  0  0  0  0  0  0  0
   -3.7306    1.1308    0.0000 C   0  0  0  0  0  0  0  0  0  0  0  0
   -5.1827    0.7549    0.0000 O   0  0  0  0  0  0  0  0  0  0  0  0
   -3.3301    2.5764    0.0000 O   0  0  0  0  0  0  0  0  0  0  0  0
  1  2  1  0
  2  3  1  0
  3  4  1  0
  4  5  1  0
  5  6  1  0
  4  7  1  0
  7  8  1  0
  8  9  2  0
  9 10  1  0
 10 11  1  0
 10 12  2  0
 12 13  1  0
  2 14  1  6
 14 15  2  0
 14 16  1  0
  6  1  1  0
 13  7  2  0
M  END
>  <rName>  (422) 
4-aza-Pip_Ph_4I

>  <PQ_SYMBOL>  (422) 
4-aza-Pip_Ph_4I

>  <FULL_NAME>  (422) 
O=C(O)[C@@H]1CN(c2ccc(I)cc2)CCN1

>  <IUPAC_CONDENSED>  (422) 
4-aza-Pip(Ph(4-I))

>  <IUPAC>  (422) 
(2S)-4-(4-iodophenyl)piperazine-2-carboxylic acid

>  <TYPE>  (422) 
Backbone

>  <CLASS>  (422) 
alpha

>  <ANALOG>  (422) 
Pro

>  <MOL_WT>  (422) 
332.1410000000001

>  <LOGP>  (422) 
1.1539999999999997

>  <TPSA>  (422) 
52.57000000000001

>  <POPULARITY>  (422) 
2.2

>  <PROTECTED>  (422) 
TRUE

>  <SMILES>  (422) 
N1[C@@H](CN(CC1)c2(ccc(I)cc2))C(=O)O

>  <INCHIKEY>  (422) 
MQUJJMKWCPHXDY-JTQLQIEISA-N

$$$$
4-azabicyclo510octane-8-CO2H_1R_7S_8R
     RDKit          2D

 11 12  0  0  0  0  0  0  0  0999 V2000
    3.3127   -0.0000    0.0000 N   0  0  0  0  0  0  0  0  0  0  0  0
    2.6619    1.3515    0.0000 C   0  0  0  0  0  0  0  0  0  0  0  0
    1.1995    1.6852    0.0000 C   0  0  0  0  0  0  0  0  0  0  0  0
    0.0268    0.7500    0.0000 C   0  0  0  0  0  0  0  0  0  0  0  0
   -1.2723   -0.0000    0.0000 C   0  0  0  0  0  0  0  0  0  0  0  0
    0.0268   -0.7500    0.0000 C   0  0  0  0  0  0  0  0  0  0  0  0
    1.1995   -1.6852    0.0000 C   0  0  0  0  0  0  0  0  0  0  0  0
    2.6619   -1.3515    0.0000 C   0  0  0  0  0  0  0  0  0  0  0  0
   -2.7723    0.0000    0.0000 C   0  0  0  0  0  0  0  0  0  0  0  0
   -3.5223   -1.2990    0.0000 O   0  0  0  0  0  0  0  0  0  0  0  0
   -3.5223    1.2990    0.0000 O   0  0  0  0  0  0  0  0  0  0  0  0
  1  2  1  0
  2  3  1  0
  4  3  1  6
  4  5  1  0
  5  6  1  0
  6  7  1  6
  7  8  1  0
  5  9  1  1
  9 10  2  0
  9 11  1  0
  6  4  1  0
  8  1  1  0
M  END
>  <rName>  (423) 
4-azabicyclo510octane-8-CO2H_1R_7S_8R

>  <PQ_SYMBOL>  (423) 
4-azabicyclo510octane-8-CO2H_1R_7S_8R

>  <FULL_NAME>  (423) 
(1R,7S,8R)-4-azabicyclo[5.1.0]octane-8-carboxylic acid

>  <IUPAC_CONDENSED>  (423) 
4-azabicyclo[5.1.0]octane-8-CO2H(1R,7S,8R)

>  <IUPAC>  (423) 
(1R,7S)-4-azabicyclo[5.1.0]octane-8-carboxylic acid

>  <TYPE>  (423) 
Backbone

>  <CLASS>  (423) 
delta

>  <ANALOG>  (423) 
Pro

>  <MOL_WT>  (423) 
155.197

>  <LOGP>  (423) 
0.31659999999999994

>  <TPSA>  (423) 
49.33

>  <POPULARITY>  (423) 
2.9

>  <PROTECTED>  (423) 
TRUE

>  <SMILES>  (423) 
N2CC[C@H]1[C@@H]([C@H]1CC2)C(=O)O

>  <INCHIKEY>  (423) 
ZSWXRKLJXQWMII-ZMONIFLSSA-N

$$$$
4-azaspiro24heptane-6-CO2H
     RDKit          2D

 10 11  0  0  0  0  0  0  0  0999 V2000
   -1.3203   -1.3856    0.0000 N   0  0  0  0  0  0  0  0  0  0  0  0
    0.1740   -1.5160    0.0000 C   0  0  0  0  0  0  0  0  0  0  0  0
    0.7598   -0.1351    0.0000 C   0  0  0  0  0  0  0  0  0  0  0  0
   -0.3725    0.8487    0.0000 C   0  0  0  0  0  0  0  0  0  0  0  0
   -1.6581    0.0759    0.0000 C   0  0  0  0  0  0  0  0  0  0  0  0
   -3.1469   -0.1073    0.0000 C   0  0  0  0  0  0  0  0  0  0  0  0
   -2.5611    1.2736    0.0000 C   0  0  0  0  0  0  0  0  0  0  0  0
    2.2212    0.2027    0.0000 C   0  0  0  0  0  0  0  0  0  0  0  0
    2.6595    1.6372    0.0000 O   0  0  0  0  0  0  0  0  0  0  0  0
    3.2445   -0.8941    0.0000 O   0  0  0  0  0  0  0  0  0  0  0  0
  1  2  1  0
  2  3  1  0
  3  4  1  0
  4  5  1  0
  5  6  1  0
  6  7  1  0
  3  8  1  0
  8  9  2  0
  8 10  1  0
  5  1  1  0
  7  5  1  0
M  END
>  <rName>  (424) 
4-azaspiro24heptane-6-CO2H

>  <PQ_SYMBOL>  (424) 
4-azaspiro24heptane-6-CO2H

>  <FULL_NAME>  (424) 
4-Azaspiro[2.4]heptane-6-carboxylic acid

>  <IUPAC_CONDENSED>  (424) 
4-azaspiro[2.4]heptane-6-CO2H

>  <IUPAC>  (424) 
4-azaspiro[2.4]heptane-6-carboxylic acid

>  <TYPE>  (424) 
Backbone

>  <CLASS>  (424) 
beta

>  <ANALOG>  (424) 
Pro

>  <MOL_WT>  (424) 
141.17000000000002

>  <LOGP>  (424) 
0.2131

>  <TPSA>  (424) 
49.33

>  <POPULARITY>  (424) 
2.9

>  <PROTECTED>  (424) 
TRUE

>  <SMILES>  (424) 
N1CC(CC12(CC2))C(=O)O

>  <INCHIKEY>  (424) 
AZUFMQXRCBYFTB-UHFFFAOYSA-N

$$$$
4-azaspiro24heptane-7-CO2H
     RDKit          2D

 10 11  0  0  0  0  0  0  0  0999 V2000
   -2.1792    0.2144    0.0000 N   0  0  0  0  0  0  0  0  0  0  0  0
   -0.8860   -0.5456    0.0000 C   0  0  0  0  0  0  0  0  0  0  0  0
   -0.0138   -1.7659    0.0000 C   0  0  0  0  0  0  0  0  0  0  0  0
   -1.5067   -1.9112    0.0000 C   0  0  0  0  0  0  0  0  0  0  0  0
    0.2364    0.4494    0.0000 C   0  0  0  0  0  0  0  0  0  0  0  0
   -0.3631    1.8244    0.0000 C   0  0  0  0  0  0  0  0  0  0  0  0
   -1.8560    1.6792    0.0000 C   0  0  0  0  0  0  0  0  0  0  0  0
    1.7012    0.1262    0.0000 C   0  0  0  0  0  0  0  0  0  0  0  0
    2.1537   -1.3039    0.0000 O   0  0  0  0  0  0  0  0  0  0  0  0
    2.7135    1.2331    0.0000 O   0  0  0  0  0  0  0  0  0  0  0  0
  1  2  1  0
  2  3  1  0
  3  4  1  0
  2  5  1  0
  5  6  1  0
  6  7  1  0
  5  8  1  0
  8  9  2  0
  8 10  1  0
  7  1  1  0
  4  2  1  0
M  END
>  <rName>  (425) 
4-azaspiro24heptane-7-CO2H

>  <PQ_SYMBOL>  (425) 
4-azaspiro24heptane-7-CO2H

>  <FULL_NAME>  (425) 
4-Azaspiro[2.4]heptane-7-carboxylic acid

>  <IUPAC_CONDENSED>  (425) 
4-azaspiro[2.4]heptane-7-CO2H

>  <IUPAC>  (425) 
4-azaspiro[2.4]heptane-7-carboxylic acid

>  <TYPE>  (425) 
Backbone

>  <CLASS>  (425) 
beta

>  <ANALOG>  (425) 
X

>  <MOL_WT>  (425) 
141.17

>  <LOGP>  (425) 
0.2131

>  <TPSA>  (425) 
49.33

>  <POPULARITY>  (425) 
2.9

>  <PROTECTED>  (425) 
TRUE

>  <SMILES>  (425) 
N1C2(CC2)C(CC1)C(=O)O

>  <INCHIKEY>  (425) 
RYONJUSLOZSKOV-UHFFFAOYSA-N

$$$$
4-azaspiro25octane-6-CO2H
     RDKit          2D

 11 12  0  0  0  0  0  0  0  0999 V2000
   -1.1956    1.2990    0.0000 N   0  0  0  0  0  0  0  0  0  0  0  0
    0.3044    1.2990    0.0000 C   0  0  0  0  0  0  0  0  0  0  0  0
    1.0544   -0.0000    0.0000 C   0  0  0  0  0  0  0  0  0  0  0  0
    0.3044   -1.2990    0.0000 C   0  0  0  0  0  0  0  0  0  0  0  0
   -1.1956   -1.2990    0.0000 C   0  0  0  0  0  0  0  0  0  0  0  0
   -1.9456    0.0000    0.0000 C   0  0  0  0  0  0  0  0  0  0  0  0
   -3.2447   -0.7500    0.0000 C   0  0  0  0  0  0  0  0  0  0  0  0
   -3.2447    0.7500    0.0000 C   0  0  0  0  0  0  0  0  0  0  0  0
    2.5544   -0.0000    0.0000 C   0  0  0  0  0  0  0  0  0  0  0  0
    3.3044    1.2990    0.0000 O   0  0  0  0  0  0  0  0  0  0  0  0
    3.3044   -1.2990    0.0000 O   0  0  0  0  0  0  0  0  0  0  0  0
  1  2  1  0
  2  3  1  0
  3  4  1  0
  4  5  1  0
  5  6  1  0
  6  7  1  0
  7  8  1  0
  3  9  1  0
  9 10  2  0
  9 11  1  0
  6  1  1  0
  8  6  1  0
M  END
>  <rName>  (426) 
4-azaspiro25octane-6-CO2H

>  <PQ_SYMBOL>  (426) 
4-azaspiro25octane-6-CO2H

>  <FULL_NAME>  (426) 
4-Azaspiro[2.5]octane-6-carboxylic acid

>  <IUPAC_CONDENSED>  (426) 
4-azaspiro[2.5]octane-6-CO2H

>  <IUPAC>  (426) 
4-azaspiro[2.5]octane-6-carboxylic acid

>  <TYPE>  (426) 
Backbone

>  <CLASS>  (426) 
beta

>  <ANALOG>  (426) 
Pro

>  <MOL_WT>  (426) 
155.197

>  <LOGP>  (426) 
0.6032

>  <TPSA>  (426) 
49.33

>  <POPULARITY>  (426) 
2.8

>  <PROTECTED>  (426) 
TRUE

>  <SMILES>  (426) 
N1CC(CCC12(CC2))C(=O)O

>  <INCHIKEY>  (426) 
GYKJBGKEDKFIAT-UHFFFAOYSA-N

$$$$
4-guanidinobutanoyl
     RDKit          2D

 10  9  0  0  0  0  0  0  0  0999 V2000
   -4.4693    0.9153    0.0000 N   0  0  0  0  0  0  0  0  0  0  0  0
   -3.2691    0.0155    0.0000 C   0  0  0  0  0  0  0  0  0  0  0  0
   -3.4483   -1.4737    0.0000 N   0  0  0  0  0  0  0  0  0  0  0  0
   -1.8898    0.6050    0.0000 N   0  0  0  0  0  0  0  0  0  0  0  0
   -0.6897   -0.2947    0.0000 C   0  0  0  0  0  0  0  0  0  0  0  0
    0.6897    0.2947    0.0000 C   0  0  0  0  0  0  0  0  0  0  0  0
    1.8898   -0.6050    0.0000 C   0  0  0  0  0  0  0  0  0  0  0  0
    3.2691   -0.0155    0.0000 C   0  0  0  0  0  0  0  0  0  0  0  0
    3.4483    1.4737    0.0000 O   0  0  0  0  0  0  0  0  0  0  0  0
    4.4693   -0.9153    0.0000 O   0  0  0  0  0  0  0  0  0  0  0  0
  1  2  1  0
  2  3  2  0
  2  4  1  0
  4  5  1  0
  5  6  1  0
  6  7  1  0
  7  8  1  0
  8  9  2  0
  8 10  1  0
M  END
>  <rName>  (427) 
4-guanidinobutanoyl

>  <PQ_SYMBOL>  (427) 
4-guanidinobutanoyl

>  <FULL_NAME>  (427) 
4-Guanidinobutyric acid

>  <IUPAC_CONDENSED>  (427) 
4-guanidinobutanoyl

>  <IUPAC>  (427) 
4-(((amino)(imino)methyl)amino)butanoic acid

>  <TYPE>  (427) 
N-term cap

>  <CLASS>  (427) 
n_cap

>  <ANALOG>  (427) 
X

>  <MOL_WT>  (427) 
145.162

>  <LOGP>  (427) 
-0.6657299999999999

>  <TPSA>  (427) 
99.2

>  <POPULARITY>  (427) 
9.4

>  <PROTECTED>  (427) 
TRUE

>  <SMILES>  (427) 
NC(=N)NCCCC(=O)O

>  <INCHIKEY>  (427) 
TUHVEAJXIMEOSA-UHFFFAOYSA-N

$$$$
4-methylamino-bicyclo211hexane-1-CO2H
     RDKit          2D

 11 12  0  0  0  0  0  0  0  0999 V2000
   -2.2541   -0.5538    0.0000 N   0  0  0  0  0  0  0  0  0  0  0  0
   -3.7536   -0.5172    0.0000 C   0  0  0  0  0  0  0  0  0  0  0  0
   -1.4517    0.7607    0.0000 C   0  0  0  0  0  0  0  0  0  0  0  0
   -0.2824    1.7630    0.0000 C   0  0  0  0  0  0  0  0  0  0  0  0
    1.0321    0.9606    0.0000 C   0  0  0  0  0  0  0  0  0  0  0  0
    0.6752   -0.5375    0.0000 C   0  0  0  0  0  0  0  0  0  0  0  0
   -0.8598   -0.6611    0.0000 C   0  0  0  0  0  0  0  0  0  0  0  0
   -0.1848    0.5502    0.0000 C   0  0  0  0  0  0  0  0  0  0  0  0
    2.0343   -0.2087    0.0000 C   0  0  0  0  0  0  0  0  0  0  0  0
    1.5361   -1.6235    0.0000 O   0  0  0  0  0  0  0  0  0  0  0  0
    3.5087    0.0673    0.0000 O   0  0  0  0  0  0  0  0  0  0  0  0
  1  2  1  0
  1  3  1  0
  3  4  1  0
  4  5  1  0
  5  6  1  0
  6  7  1  0
  5  8  1  0
  5  9  1  0
  9 10  2  0
  9 11  1  0
  7  3  1  0
  8  3  1  0
M  END
>  <rName>  (428) 
4-methylamino-bicyclo211hexane-1-CO2H

>  <PQ_SYMBOL>  (428) 
4-methylamino-bicyclo211hexane-1-CO2H

>  <FULL_NAME>  (428) 
4-(Methylamino)bicyclo[2.1.1]hexane-1-carboxylic acid

>  <IUPAC_CONDENSED>  (428) 
4-methylamino-bicyclo[2.1.1]hexane-1-CO2H

>  <IUPAC>  (428) 
4-(methylamino)bicyclo[2.1.1]hexane-1-carboxylic acid

>  <TYPE>  (428) 
Backbone

>  <CLASS>  (428) 
gamma

>  <ANALOG>  (428) 
Val

>  <MOL_WT>  (428) 
155.197

>  <LOGP>  (428) 
0.6032

>  <TPSA>  (428) 
49.33

>  <POPULARITY>  (428) 
3.0

>  <PROTECTED>  (428) 
TRUE

>  <SMILES>  (428) 
N(C)C12CC(CC1)(C2)C(=O)O

>  <INCHIKEY>  (428) 
QJZCMPGDAUEBAV-UHFFFAOYSA-N

$$$$
4-morpholinoacetyl-anilino
     RDKit          2D

 16 17  0  0  0  0  0  0  0  0999 V2000
   -5.9883   -0.3379    0.0000 N   0  0  0  0  0  0  0  0  0  0  0  0
   -4.5121   -0.0716    0.0000 C   0  0  0  0  0  0  0  0  0  0  0  0
   -4.0047    1.3400    0.0000 C   0  0  0  0  0  0  0  0  0  0  0  0
   -2.5285    1.6063    0.0000 C   0  0  0  0  0  0  0  0  0  0  0  0
   -1.5598    0.4611    0.0000 C   0  0  0  0  0  0  0  0  0  0  0  0
   -2.0672   -0.9505    0.0000 C   0  0  0  0  0  0  0  0  0  0  0  0
   -3.5434   -1.2168    0.0000 C   0  0  0  0  0  0  0  0  0  0  0  0
   -0.0836    0.7274    0.0000 C   0  0  0  0  0  0  0  0  0  0  0  0
    0.8851   -0.4178    0.0000 C   0  0  0  0  0  0  0  0  0  0  0  0
    0.3777   -1.8294    0.0000 O   0  0  0  0  0  0  0  0  0  0  0  0
    2.3613   -0.1515    0.0000 N   0  0  0  0  0  0  0  0  0  0  0  0
    3.3300   -1.2967    0.0000 C   0  0  0  0  0  0  0  0  0  0  0  0
    4.8062   -1.0303    0.0000 C   0  0  0  0  0  0  0  0  0  0  0  0
    5.3136    0.3812    0.0000 O   0  0  0  0  0  0  0  0  0  0  0  0
    4.3449    1.5264    0.0000 C   0  0  0  0  0  0  0  0  0  0  0  0
    2.8687    1.2601    0.0000 C   0  0  0  0  0  0  0  0  0  0  0  0
  1  2  1  0
  2  3  1  0
  3  4  2  0
  4  5  1  0
  5  6  2  0
  6  7  1  0
  5  8  1  0
  8  9  1  0
  9 10  2  0
  9 11  1  0
 11 12  1  0
 12 13  1  0
 13 14  1  0
 14 15  1  0
 15 16  1  0
 16 11  1  0
  7  2  2  0
M  END
>  <rName>  (429) 
4-morpholinoacetyl-anilino

>  <PQ_SYMBOL>  (429) 
4-morpholinoacetyl-anilino

>  <FULL_NAME>  (429) 
4-(2-morpholin-4-yl-2-oxoethyl)aniline

>  <IUPAC_CONDENSED>  (429) 
4-morpholinoacetyl-anilino

>  <IUPAC>  (429) 
2-(4-aminophenyl)-1-(morpholin-4-yl)ethan-1-one

>  <TYPE>  (429) 
C-term cap

>  <CLASS>  (429) 
c_cap

>  <ANALOG>  (429) 
X

>  <MOL_WT>  (429) 
220.27199999999993

>  <LOGP>  (429) 
0.6700999999999999

>  <TPSA>  (429) 
55.56

>  <POPULARITY>  (429) 
5.5

>  <PROTECTED>  (429) 
TRUE

>  <SMILES>  (429) 
Nc2ccc(cc2)CC(=O)N1CCOCC1

>  <INCHIKEY>  (429) 
QNKIGGHXVDYYKX-UHFFFAOYSA-N

$$$$
4-oxa-66-diMe-Pip
     RDKit          2D

 11 11  0  0  0  0  0  0  0  0999 V2000
   -0.2771   -1.2990    0.0000 N   0  0  0  0  0  0  0  0  0  0  0  0
   -1.0271    0.0000    0.0000 C   0  0  0  0  0  0  0  0  0  0  0  0
   -0.2771    1.2990    0.0000 C   0  0  0  0  0  0  0  0  0  0  0  0
    1.2229    1.2990    0.0000 O   0  0  0  0  0  0  0  0  0  0  0  0
    1.9729    0.0000    0.0000 C   0  0  0  0  0  0  0  0  0  0  0  0
    3.1220    0.9642    0.0000 C   0  0  0  0  0  0  0  0  0  0  0  0
    3.1220   -0.9642    0.0000 C   0  0  0  0  0  0  0  0  0  0  0  0
    1.2229   -1.2990    0.0000 C   0  0  0  0  0  0  0  0  0  0  0  0
   -2.5271   -0.0000    0.0000 C   0  0  0  0  0  0  0  0  0  0  0  0
   -3.2771   -1.2990    0.0000 O   0  0  0  0  0  0  0  0  0  0  0  0
   -3.2771    1.2990    0.0000 O   0  0  0  0  0  0  0  0  0  0  0  0
  1  2  1  0
  2  3  1  0
  3  4  1  0
  4  5  1  0
  5  6  1  0
  5  7  1  0
  5  8  1  0
  2  9  1  6
  9 10  2  0
  9 11  1  0
  8  1  1  0
M  END
>  <rName>  (430) 
4-oxa-66-diMe-Pip

>  <PQ_SYMBOL>  (430) 
4-oxa-66-diMe-Pip

>  <FULL_NAME>  (430) 
(S)-6,6-dimethylmorpholine-3-carboxylic acid

>  <IUPAC_CONDENSED>  (430) 
4-oxa-6,6-diMe-Pip

>  <IUPAC>  (430) 
(3S)-6,6-dimethylmorpholine-3-carboxylic acid

>  <TYPE>  (430) 
Backbone

>  <CLASS>  (430) 
alpha

>  <ANALOG>  (430) 
Pro

>  <MOL_WT>  (430) 
159.185

>  <LOGP>  (430) 
-0.16200000000000064

>  <TPSA>  (430) 
58.56

>  <POPULARITY>  (430) 
5.3

>  <PROTECTED>  (430) 
TRUE

>  <SMILES>  (430) 
N1[C@@H](COC(C)(C)C1)C(=O)O

>  <INCHIKEY>  (430) 
GNGXTWQIBWAVCJ-YFKPBYRVSA-N

$$$$
4-oxa-Ac6c
     RDKit          2D

 10 10  0  0  0  0  0  0  0  0999 V2000
    1.1103   -1.5851    0.0000 N   0  0  0  0  0  0  0  0  0  0  0  0
    0.2419   -0.3621    0.0000 C   0  0  0  0  0  0  0  0  0  0  0  0
   -0.8118   -1.4296    0.0000 C   0  0  0  0  0  0  0  0  0  0  0  0
   -2.2632   -1.0509    0.0000 C   0  0  0  0  0  0  0  0  0  0  0  0
   -2.6609    0.3955    0.0000 O   0  0  0  0  0  0  0  0  0  0  0  0
   -1.6072    1.4630    0.0000 C   0  0  0  0  0  0  0  0  0  0  0  0
   -0.1558    1.0843    0.0000 C   0  0  0  0  0  0  0  0  0  0  0  0
    1.5972    0.2807    0.0000 C   0  0  0  0  0  0  0  0  0  0  0  0
    1.7181    1.7758    0.0000 O   0  0  0  0  0  0  0  0  0  0  0  0
    2.8315   -0.5716    0.0000 O   0  0  0  0  0  0  0  0  0  0  0  0
  1  2  1  0
  2  3  1  0
  3  4  1  0
  4  5  1  0
  5  6  1  0
  6  7  1  0
  2  8  1  0
  8  9  2  0
  8 10  1  0
  7  2  1  0
M  END
>  <rName>  (431) 
4-oxa-Ac6c

>  <PQ_SYMBOL>  (431) 
4-oxa-Ac6c

>  <FULL_NAME>  (431) 
4-aminooxane-4-carboxylic acid

>  <IUPAC_CONDENSED>  (431) 
4-oxa-Ac6c

>  <IUPAC>  (431) 
4-aminooxane-4-carboxylic acid

>  <TYPE>  (431) 
Backbone

>  <CLASS>  (431) 
alpha

>  <ANALOG>  (431) 
Ser

>  <MOL_WT>  (431) 
145.15800000000002

>  <LOGP>  (431) 
-0.42110000000000053

>  <TPSA>  (431) 
72.55

>  <POPULARITY>  (431) 
10.9

>  <PROTECTED>  (431) 
TRUE

>  <SMILES>  (431) 
NC1(CCOCC1)C(=O)O

>  <INCHIKEY>  (431) 
DPDPQQHHTHKSRN-UHFFFAOYSA-N

$$$$
4-thia-Ac6c
     RDKit          2D

 10 10  0  0  0  0  0  0  0  0999 V2000
    1.1103   -1.5851    0.0000 N   0  0  0  0  0  0  0  0  0  0  0  0
    0.2419   -0.3621    0.0000 C   0  0  0  0  0  0  0  0  0  0  0  0
   -0.8118   -1.4296    0.0000 C   0  0  0  0  0  0  0  0  0  0  0  0
   -2.2632   -1.0509    0.0000 C   0  0  0  0  0  0  0  0  0  0  0  0
   -2.6609    0.3955    0.0000 S   0  0  0  0  0  0  0  0  0  0  0  0
   -1.6072    1.4630    0.0000 C   0  0  0  0  0  0  0  0  0  0  0  0
   -0.1558    1.0843    0.0000 C   0  0  0  0  0  0  0  0  0  0  0  0
    1.5972    0.2807    0.0000 C   0  0  0  0  0  0  0  0  0  0  0  0
    1.7181    1.7758    0.0000 O   0  0  0  0  0  0  0  0  0  0  0  0
    2.8315   -0.5716    0.0000 O   0  0  0  0  0  0  0  0  0  0  0  0
  1  2  1  0
  2  3  1  0
  3  4  1  0
  4  5  1  0
  5  6  1  0
  6  7  1  0
  2  8  1  0
  8  9  2  0
  8 10  1  0
  7  2  1  0
M  END
>  <rName>  (432) 
4-thia-Ac6c

>  <PQ_SYMBOL>  (432) 
4-thia-Ac6c

>  <FULL_NAME>  (432) 
4-Aminotetrahydro-2H-thiopyran-4-carboxylic acid

>  <IUPAC_CONDENSED>  (432) 
4-thia-Ac6c

>  <IUPAC>  (432) 
4-aminothiane-4-carboxylic acid

>  <TYPE>  (432) 
Backbone

>  <CLASS>  (432) 
alpha

>  <ANALOG>  (432) 
Met

>  <MOL_WT>  (432) 
161.226

>  <LOGP>  (432) 
0.2954999999999996

>  <TPSA>  (432) 
63.32000000000001

>  <POPULARITY>  (432) 
8.5

>  <PROTECTED>  (432) 
TRUE

>  <SMILES>  (432) 
NC1(CCSCC1)C(=O)O

>  <INCHIKEY>  (432) 
WIPRZHGCPZSPLJ-UHFFFAOYSA-N

$$$$
4-thia-Ac6c_O2
     RDKit          2D

 12 12  0  0  0  0  0  0  0  0999 V2000
    1.8973   -1.5208    0.0000 N   0  0  0  0  0  0  0  0  0  0  0  0
    0.9132   -0.3887    0.0000 C   0  0  0  0  0  0  0  0  0  0  0  0
   -0.0308   -1.5544    0.0000 C   0  0  0  0  0  0  0  0  0  0  0  0
   -1.5123   -1.3197    0.0000 C   0  0  0  0  0  0  0  0  0  0  0  0
   -2.0499    0.0806    0.0000 S   0  0  0  0  0  0  0  0  0  0  0  0
   -3.3356   -0.6919    0.0000 O   0  0  0  0  0  0  0  0  0  0  0  0
   -3.0340    1.2127    0.0000 O   0  0  0  0  0  0  0  0  0  0  0  0
   -1.1059    1.2463    0.0000 C   0  0  0  0  0  0  0  0  0  0  0  0
    0.3756    1.0117    0.0000 C   0  0  0  0  0  0  0  0  0  0  0  0
    2.1989    0.3839    0.0000 C   0  0  0  0  0  0  0  0  0  0  0  0
    2.1728    1.8836    0.0000 O   0  0  0  0  0  0  0  0  0  0  0  0
    3.5109   -0.3434    0.0000 O   0  0  0  0  0  0  0  0  0  0  0  0
  1  2  1  0
  2  3  1  0
  3  4  1  0
  4  5  1  0
  5  6  2  0
  5  7  2  0
  5  8  1  0
  8  9  1  0
  2 10  1  0
 10 11  2  0
 10 12  1  0
  9  2  1  0
M  END
>  <rName>  (433) 
4-thia-Ac6c_O2

>  <PQ_SYMBOL>  (433) 
4-thia-Ac6c_O2

>  <FULL_NAME>  (433) 
4-aminotetrahydro-2H-thiopyran-4-carboxylic acid 1,1-dioxide

>  <IUPAC_CONDENSED>  (433) 
4-thia-Ac6c(O2)

>  <IUPAC>  (433) 
4-amino-1,1-dioxothiane-4-carboxylic acid

>  <TYPE>  (433) 
Backbone

>  <CLASS>  (433) 
alpha

>  <ANALOG>  (433) 
X

>  <MOL_WT>  (433) 
193.22399999999996

>  <LOGP>  (433) 
-1.0229000000000004

>  <TPSA>  (433) 
97.46000000000001

>  <POPULARITY>  (433) 
2.2

>  <PROTECTED>  (433) 
TRUE

>  <SMILES>  (433) 
NC1(CCS(=O)(=O)CC1)C(=O)O

>  <INCHIKEY>  (433) 
FANFYQGRZWKLBT-UHFFFAOYSA-N

$$$$
4-thia-Pip
     RDKit          2D

  9  9  0  0  0  0  0  0  0  0999 V2000
    0.4167   -1.2990    0.0000 N   0  0  0  0  0  0  0  0  0  0  0  0
   -0.3333    0.0000    0.0000 C   0  0  0  0  0  0  0  0  0  0  0  0
    0.4167    1.2990    0.0000 C   0  0  0  0  0  0  0  0  0  0  0  0
    1.9167    1.2990    0.0000 S   0  0  0  0  0  0  0  0  0  0  0  0
    2.6667    0.0000    0.0000 C   0  0  0  0  0  0  0  0  0  0  0  0
    1.9167   -1.2990    0.0000 C   0  0  0  0  0  0  0  0  0  0  0  0
   -1.8333   -0.0000    0.0000 C   0  0  0  0  0  0  0  0  0  0  0  0
   -2.5833   -1.2990    0.0000 O   0  0  0  0  0  0  0  0  0  0  0  0
   -2.5833    1.2990    0.0000 O   0  0  0  0  0  0  0  0  0  0  0  0
  1  2  1  0
  2  3  1  0
  3  4  1  0
  4  5  1  0
  5  6  1  0
  2  7  1  6
  7  8  2  0
  7  9  1  0
  6  1  1  0
M  END
>  <rName>  (434) 
4-thia-Pip

>  <PQ_SYMBOL>  (434) 
4-thia-Pip

>  <FULL_NAME>  (434) 
(3R)-thiomorpholine-3-carboxylic acid

>  <IUPAC_CONDENSED>  (434) 
4-thia-Pip

>  <IUPAC>  (434) 
(3R)-thiomorpholine-3-carboxylic acid

>  <TYPE>  (434) 
Backbone

>  <CLASS>  (434) 
alpha

>  <ANALOG>  (434) 
Pro

>  <MOL_WT>  (434) 
147.199

>  <LOGP>  (434) 
-0.22400000000000003

>  <TPSA>  (434) 
49.33

>  <POPULARITY>  (434) 
9.8

>  <PROTECTED>  (434) 
TRUE

>  <SMILES>  (434) 
N1[C@@H](CSCC1)C(=O)O

>  <INCHIKEY>  (434) 
JOKIQGQOKXGHDV-BYPYZUCNSA-N

$$$$
4-thia-Pip_carbonyl_5RMe
     RDKit          2D

 11 11  0  0  0  0  0  0  0  0999 V2000
    3.4740   -0.7463    0.0000 C   0  0  0  0  0  0  0  0  0  0  0  0
    1.9898   -0.5295    0.0000 C   0  0  0  0  0  0  0  0  0  0  0  0
    1.0599   -1.7064    0.0000 S   0  0  0  0  0  0  0  0  0  0  0  0
   -0.4244   -1.4895    0.0000 C   0  0  0  0  0  0  0  0  0  0  0  0
   -0.9787   -0.0957    0.0000 C   0  0  0  0  0  0  0  0  0  0  0  0
   -0.0487    1.0813    0.0000 N   0  0  0  0  0  0  0  0  0  0  0  0
    1.4355    0.8644    0.0000 C   0  0  0  0  0  0  0  0  0  0  0  0
    2.3655    2.0413    0.0000 O   0  0  0  0  0  0  0  0  0  0  0  0
   -2.4629    0.1212    0.0000 C   0  0  0  0  0  0  0  0  0  0  0  0
   -3.3929   -1.0557    0.0000 O   0  0  0  0  0  0  0  0  0  0  0  0
   -3.0172    1.5150    0.0000 O   0  0  0  0  0  0  0  0  0  0  0  0
  2  1  1  1
  2  3  1  0
  3  4  1  0
  4  5  1  0
  5  6  1  0
  6  7  1  0
  7  8  2  0
  5  9  1  1
  9 10  2  0
  9 11  1  0
  7  2  1  0
M  END
>  <rName>  (435) 
4-thia-Pip_carbonyl_5RMe

>  <PQ_SYMBOL>  (435) 
4-thia-Pip_carbonyl_5RMe

>  <FULL_NAME>  (435) 
(3R,6R)-6-methyl-5-oxothiomorpholine-3-carboxylic acid

>  <IUPAC_CONDENSED>  (435) 
4-thia-Pip(carbonyl,5R-Me)

>  <IUPAC>  (435) 
(3R,6R)-6-methyl-5-oxothiomorpholine-3-carboxylic acid

>  <TYPE>  (435) 
N-term cap

>  <CLASS>  (435) 
n_cap

>  <ANALOG>  (435) 
X

>  <MOL_WT>  (435) 
175.20899999999997

>  <LOGP>  (435) 
-0.30890000000000023

>  <TPSA>  (435) 
66.4

>  <POPULARITY>  (435) 
6.5

>  <PROTECTED>  (435) 
TRUE

>  <SMILES>  (435) 
C[C@H]1SC[C@H](NC1=O)C(=O)O

>  <INCHIKEY>  (435) 
QJFTZLOJRRSNEI-DMTCNVIQSA-N

$$$$
4Abz
     RDKit          2D

 10 10  0  0  0  0  0  0  0  0999 V2000
    3.7500    0.0000    0.0000 N   0  0  0  0  0  0  0  0  0  0  0  0
    2.2500   -0.0000    0.0000 C   0  0  0  0  0  0  0  0  0  0  0  0
    1.5000   -1.2990    0.0000 C   0  0  0  0  0  0  0  0  0  0  0  0
   -0.0000   -1.2990    0.0000 C   0  0  0  0  0  0  0  0  0  0  0  0
   -0.7500    0.0000    0.0000 C   0  0  0  0  0  0  0  0  0  0  0  0
    0.0000    1.2990    0.0000 C   0  0  0  0  0  0  0  0  0  0  0  0
    1.5000    1.2990    0.0000 C   0  0  0  0  0  0  0  0  0  0  0  0
   -2.2500    0.0000    0.0000 C   0  0  0  0  0  0  0  0  0  0  0  0
   -3.0000   -1.2990    0.0000 O   0  0  0  0  0  0  0  0  0  0  0  0
   -3.0000    1.2990    0.0000 O   0  0  0  0  0  0  0  0  0  0  0  0
  1  2  1  0
  2  3  1  0
  3  4  2  0
  4  5  1  0
  5  6  2  0
  6  7  1  0
  5  8  1  0
  8  9  2  0
  8 10  1  0
  7  2  2  0
M  END
>  <rName>  (436) 
4Abz

>  <PQ_SYMBOL>  (436) 
4Abz

>  <FULL_NAME>  (436) 
4-Aminobenzoic acid

>  <IUPAC_CONDENSED>  (436) 
4Abz

>  <IUPAC>  (436) 
4-aminobenzene-1-carboxylic acid

>  <TYPE>  (436) 
Backbone

>  <CLASS>  (436) 
delta

>  <ANALOG>  (436) 
X

>  <MOL_WT>  (436) 
137.138

>  <LOGP>  (436) 
0.9670000000000001

>  <TPSA>  (436) 
63.32000000000001

>  <POPULARITY>  (436) 
14.2

>  <PROTECTED>  (436) 
FALSE

>  <SMILES>  (436) 
Nc1ccc(cc1)C(=O)O

>  <INCHIKEY>  (436) 
ALYNCZNDIQEVRV-UHFFFAOYSA-N

$$$$
4Pal
     RDKit          2D

 12 12  0  0  0  0  0  0  0  0999 V2000
   -1.2391    1.6805    0.0000 N   0  0  0  0  0  0  0  0  0  0  0  0
   -1.6184    0.2292    0.0000 C   0  0  0  0  0  0  0  0  0  0  0  0
   -0.5513   -0.8249    0.0000 C   0  0  0  0  0  0  0  0  0  0  0  0
    0.8952   -0.4278    0.0000 C   0  0  0  0  0  0  0  0  0  0  0  0
    1.2745    1.0235    0.0000 C   0  0  0  0  0  0  0  0  0  0  0  0
    2.7210    1.4206    0.0000 C   0  0  0  0  0  0  0  0  0  0  0  0
    3.7882    0.3665    0.0000 N   0  0  0  0  0  0  0  0  0  0  0  0
    3.4088   -1.0848    0.0000 C   0  0  0  0  0  0  0  0  0  0  0  0
    1.9624   -1.4819    0.0000 C   0  0  0  0  0  0  0  0  0  0  0  0
   -3.0649   -0.1679    0.0000 C   0  0  0  0  0  0  0  0  0  0  0  0
   -3.4442   -1.6191    0.0000 O   0  0  0  0  0  0  0  0  0  0  0  0
   -4.1321    0.8862    0.0000 O   0  0  0  0  0  0  0  0  0  0  0  0
  2  1  1  1
  2  3  1  0
  3  4  1  0
  4  5  1  0
  5  6  2  0
  6  7  1  0
  7  8  2  0
  8  9  1  0
  2 10  1  0
 10 11  2  0
 10 12  1  0
  9  4  2  0
M  END
>  <rName>  (437) 
4Pal

>  <PQ_SYMBOL>  (437) 
4Pal

>  <FULL_NAME>  (437) 
3-(4-Pyridyl)-L-Alanine

>  <IUPAC_CONDENSED>  (437) 
4Pal

>  <IUPAC>  (437) 
(2S)-2-amino-3-(pyridin-4-yl)propanoic acid

>  <TYPE>  (437) 
Backbone

>  <CLASS>  (437) 
alpha

>  <ANALOG>  (437) 
Phe

>  <MOL_WT>  (437) 
166.17999999999998

>  <LOGP>  (437) 
0.035999999999999754

>  <TPSA>  (437) 
76.21

>  <POPULARITY>  (437) 
24.7

>  <PROTECTED>  (437) 
TRUE

>  <SMILES>  (437) 
N[C@@H](Cc1(ccncc1))C(=O)O

>  <INCHIKEY>  (437) 
FQFVANSXYKWQOT-ZETCQYMHSA-N

$$$$
4Pal_2CF3
     RDKit          2D

 16 16  0  0  0  0  0  0  0  0999 V2000
   -2.9171    1.6042    0.0000 N   0  0  0  0  0  0  0  0  0  0  0  0
   -2.9225    0.1042    0.0000 C   0  0  0  0  0  0  0  0  0  0  0  0
   -1.6261   -0.6504    0.0000 C   0  0  0  0  0  0  0  0  0  0  0  0
   -0.3244    0.0949    0.0000 C   0  0  0  0  0  0  0  0  0  0  0  0
   -0.3190    1.5949    0.0000 C   0  0  0  0  0  0  0  0  0  0  0  0
    0.9827    2.3402    0.0000 C   0  0  0  0  0  0  0  0  0  0  0  0
    2.2790    1.5856    0.0000 N   0  0  0  0  0  0  0  0  0  0  0  0
    2.2736    0.0856    0.0000 C   0  0  0  0  0  0  0  0  0  0  0  0
    0.9719   -0.6597    0.0000 C   0  0  0  0  0  0  0  0  0  0  0  0
    3.5700   -0.6691    0.0000 C   0  0  0  0  0  0  0  0  0  0  0  0
    4.8663   -1.4237    0.0000 F   0  0  0  0  0  0  0  0  0  0  0  0
    2.8153   -1.9654    0.0000 F   0  0  0  0  0  0  0  0  0  0  0  0
    4.3246    0.6273    0.0000 F   0  0  0  0  0  0  0  0  0  0  0  0
   -4.2242   -0.6411    0.0000 C   0  0  0  0  0  0  0  0  0  0  0  0
   -4.2296   -2.1411    0.0000 O   0  0  0  0  0  0  0  0  0  0  0  0
   -5.5205    0.1136    0.0000 O   0  0  0  0  0  0  0  0  0  0  0  0
  2  1  1  1
  2  3  1  0
  3  4  1  0
  4  5  1  0
  5  6  2  0
  6  7  1  0
  7  8  2  0
  8  9  1  0
  8 10  1  0
 10 11  1  0
 10 12  1  0
 10 13  1  0
  2 14  1  0
 14 15  2  0
 14 16  1  0
  9  4  2  0
M  END
>  <rName>  (438) 
4Pal_2CF3

>  <PQ_SYMBOL>  (438) 
4Pal_2CF3

>  <FULL_NAME>  (438) 
(2S)-2-amino-3-[2-(trifluoromethyl)pyridin-4-yl]propanoic acid

>  <IUPAC_CONDENSED>  (438) 
4Pal(2-CF3)

>  <IUPAC>  (438) 
(2S)-2-amino-3-(2-(trifluoromethyl)pyridin-4-yl)propanoic acid

>  <TYPE>  (438) 
Backbone

>  <CLASS>  (438) 
alpha

>  <ANALOG>  (438) 
Phe

>  <MOL_WT>  (438) 
234.17699999999994

>  <LOGP>  (438) 
1.0548

>  <TPSA>  (438) 
76.21

>  <POPULARITY>  (438) 
2.8

>  <PROTECTED>  (438) 
TRUE

>  <SMILES>  (438) 
N[C@@H](Cc1(ccnc(c1)C(F)(F)F))C(=O)O

>  <INCHIKEY>  (438) 
ZYSHLPWHTPDRSS-LURJTMIESA-N

$$$$
4Pal_2CN
     RDKit          2D

 14 14  0  0  0  0  0  0  0  0999 V2000
   -2.3578    1.5845    0.0000 N   0  0  0  0  0  0  0  0  0  0  0  0
   -2.4110    0.0855    0.0000 C   0  0  0  0  0  0  0  0  0  0  0  0
   -1.1393   -0.7101    0.0000 C   0  0  0  0  0  0  0  0  0  0  0  0
    0.1855   -0.0066    0.0000 C   0  0  0  0  0  0  0  0  0  0  0  0
    0.2386    1.4925    0.0000 C   0  0  0  0  0  0  0  0  0  0  0  0
    1.5634    2.1960    0.0000 C   0  0  0  0  0  0  0  0  0  0  0  0
    2.8351    1.4004    0.0000 N   0  0  0  0  0  0  0  0  0  0  0  0
    2.7819   -0.0986    0.0000 C   0  0  0  0  0  0  0  0  0  0  0  0
    4.0535   -0.8942    0.0000 C   0  0  0  0  0  0  0  0  0  0  0  0
    5.3252   -1.6898    0.0000 N   0  0  0  0  0  0  0  0  0  0  0  0
    1.4571   -0.8021    0.0000 C   0  0  0  0  0  0  0  0  0  0  0  0
   -3.7358   -0.6180    0.0000 C   0  0  0  0  0  0  0  0  0  0  0  0
   -3.7889   -2.1171    0.0000 O   0  0  0  0  0  0  0  0  0  0  0  0
   -5.0074    0.1776    0.0000 O   0  0  0  0  0  0  0  0  0  0  0  0
  2  1  1  1
  2  3  1  0
  3  4  1  0
  4  5  1  0
  5  6  2  0
  6  7  1  0
  7  8  2  0
  8  9  1  0
  9 10  3  0
  8 11  1  0
  2 12  1  0
 12 13  2  0
 12 14  1  0
 11  4  2  0
M  END
>  <rName>  (439) 
4Pal_2CN

>  <PQ_SYMBOL>  (439) 
4Pal_2CN

>  <FULL_NAME>  (439) 
3-(2-Cyano-4-pyridyl)-(S)-alanine

>  <IUPAC_CONDENSED>  (439) 
4Pal(2-CN)

>  <IUPAC>  (439) 
(2S)-2-amino-3-(2-cyano-4-pyridinyl)propanoic acid

>  <TYPE>  (439) 
Backbone

>  <CLASS>  (439) 
alpha

>  <ANALOG>  (439) 
Phe

>  <MOL_WT>  (439) 
191.18999999999997

>  <LOGP>  (439) 
-0.09232000000000001

>  <TPSA>  (439) 
100.0

>  <POPULARITY>  (439) 
3.8

>  <PROTECTED>  (439) 
TRUE

>  <SMILES>  (439) 
N[C@@H](Cc1(ccnc(C#N)c1))C(=O)O

>  <INCHIKEY>  (439) 
LGHMVMCUVXMTDG-QMMMGPOBSA-N

$$$$
4Pal_2CN_3F
     RDKit          2D

 15 15  0  0  0  0  0  0  0  0999 V2000
   -2.4994    1.6682    0.0000 N   0  0  0  0  0  0  0  0  0  0  0  0
   -2.5103    0.1683    0.0000 C   0  0  0  0  0  0  0  0  0  0  0  0
   -1.2168   -0.5912    0.0000 C   0  0  0  0  0  0  0  0  0  0  0  0
    0.0877    0.1494    0.0000 C   0  0  0  0  0  0  0  0  0  0  0  0
    0.0986    1.6493    0.0000 C   0  0  0  0  0  0  0  0  0  0  0  0
    1.4031    2.3899    0.0000 C   0  0  0  0  0  0  0  0  0  0  0  0
    2.6966    1.6304    0.0000 N   0  0  0  0  0  0  0  0  0  0  0  0
    2.6857    0.1305    0.0000 C   0  0  0  0  0  0  0  0  0  0  0  0
    3.9792   -0.6290    0.0000 C   0  0  0  0  0  0  0  0  0  0  0  0
    5.2728   -1.3884    0.0000 N   0  0  0  0  0  0  0  0  0  0  0  0
    1.3812   -0.6101    0.0000 C   0  0  0  0  0  0  0  0  0  0  0  0
    1.3703   -2.1100    0.0000 F   0  0  0  0  0  0  0  0  0  0  0  0
   -3.8148   -0.5723    0.0000 C   0  0  0  0  0  0  0  0  0  0  0  0
   -3.8257   -2.0722    0.0000 O   0  0  0  0  0  0  0  0  0  0  0  0
   -5.1083    0.1872    0.0000 O   0  0  0  0  0  0  0  0  0  0  0  0
  2  1  1  1
  2  3  1  0
  3  4  1  0
  4  5  1  0
  5  6  2  0
  6  7  1  0
  7  8  2  0
  8  9  1  0
  9 10  3  0
  8 11  1  0
 11 12  1  0
  2 13  1  0
 13 14  2  0
 13 15  1  0
 11  4  2  0
M  END
>  <rName>  (440) 
4Pal_2CN_3F

>  <PQ_SYMBOL>  (440) 
4Pal_2CN_3F

>  <FULL_NAME>  (440) 
(S)-2-amino-3-(2-cyano-3-fluoropyridin-4-yl)propanoic acid

>  <IUPAC_CONDENSED>  (440) 
4Pal(2-CN,3-F)

>  <IUPAC>  (440) 
(2S)-2-amino-3-(3-fluoro-2-(nitrilomethyl)pyridin-4-yl)propanoic acid

>  <TYPE>  (440) 
Backbone

>  <CLASS>  (440) 
alpha

>  <ANALOG>  (440) 
Phe

>  <MOL_WT>  (440) 
209.17999999999995

>  <LOGP>  (440) 
0.046779999999999766

>  <TPSA>  (440) 
100.0

>  <POPULARITY>  (440) 
2.2

>  <PROTECTED>  (440) 
TRUE

>  <SMILES>  (440) 
N[C@@H](Cc1(ccnc(C#N)c1F))C(=O)O

>  <INCHIKEY>  (440) 
YDWQWMIIUIHIRH-LURJTMIESA-N

$$$$
4Pal_2Cl_3CO2H
     RDKit          2D

 16 16  0  0  0  0  0  0  0  0999 V2000
   -2.3721    1.9001    0.0000 N   0  0  0  0  0  0  0  0  0  0  0  0
   -2.3583    0.4002    0.0000 C   0  0  0  0  0  0  0  0  0  0  0  0
   -1.0524   -0.3378    0.0000 C   0  0  0  0  0  0  0  0  0  0  0  0
    0.2397    0.4241    0.0000 C   0  0  0  0  0  0  0  0  0  0  0  0
    0.2259    1.9240    0.0000 C   0  0  0  0  0  0  0  0  0  0  0  0
    1.5180    2.6860    0.0000 C   0  0  0  0  0  0  0  0  0  0  0  0
    2.8238    1.9479    0.0000 N   0  0  0  0  0  0  0  0  0  0  0  0
    2.8376    0.4480    0.0000 C   0  0  0  0  0  0  0  0  0  0  0  0
    4.1435   -0.2900    0.0000 Cl  0  0  0  0  0  0  0  0  0  0  0  0
    1.5456   -0.3139    0.0000 C   0  0  0  0  0  0  0  0  0  0  0  0
    1.5594   -1.8139    0.0000 C   0  0  0  0  0  0  0  0  0  0  0  0
    0.2673   -2.5758    0.0000 O   0  0  0  0  0  0  0  0  0  0  0  0
    2.8653   -2.5519    0.0000 O   0  0  0  0  0  0  0  0  0  0  0  0
   -3.6504   -0.3617    0.0000 C   0  0  0  0  0  0  0  0  0  0  0  0
   -3.6366   -1.8617    0.0000 O   0  0  0  0  0  0  0  0  0  0  0  0
   -4.9563    0.3763    0.0000 O   0  0  0  0  0  0  0  0  0  0  0  0
  2  1  1  1
  2  3  1  0
  3  4  1  0
  4  5  1  0
  5  6  2  0
  6  7  1  0
  7  8  2  0
  8  9  1  0
  8 10  1  0
 10 11  1  0
 11 12  2  0
 11 13  1  0
  2 14  1  0
 14 15  2  0
 14 16  1  0
 10  4  2  0
M  END
>  <rName>  (441) 
4Pal_2Cl_3CO2H

>  <PQ_SYMBOL>  (441) 
4Pal_2Cl_3CO2H

>  <FULL_NAME>  (441) 
(S)-4-(2-amino-2-carboxyethyl)-2-chloronicotinic acid

>  <IUPAC_CONDENSED>  (441) 
4Pal(2-Cl,3-CO2H)

>  <IUPAC>  (441) 
4-((2S)-2-amino-3-hydroxy-3-oxopropyl)-2-chloropyridine-3-carboxylic acid

>  <TYPE>  (441) 
Backbone

>  <CLASS>  (441) 
alpha

>  <ANALOG>  (441) 
Phe

>  <MOL_WT>  (441) 
244.634

>  <LOGP>  (441) 
0.38760000000000006

>  <TPSA>  (441) 
113.51

>  <POPULARITY>  (441) 
2.2

>  <PROTECTED>  (441) 
TRUE

>  <SMILES>  (441) 
N[C@@H](Cc1(ccnc(Cl)c1C(=O)O))C(=O)O

>  <INCHIKEY>  (441) 
WVRNWHJUAQFPOZ-YFKPBYRVSA-N

$$$$
4Pal_2Cl_3Me
     RDKit          2D

 14 14  0  0  0  0  0  0  0  0999 V2000
   -1.9599    1.7683    0.0000 N   0  0  0  0  0  0  0  0  0  0  0  0
   -2.1168    0.2766    0.0000 C   0  0  0  0  0  0  0  0  0  0  0  0
   -0.9034   -0.6052    0.0000 C   0  0  0  0  0  0  0  0  0  0  0  0
    0.4670    0.0047    0.0000 C   0  0  0  0  0  0  0  0  0  0  0  0
    0.6239    1.4965    0.0000 C   0  0  0  0  0  0  0  0  0  0  0  0
    1.9943    2.1065    0.0000 C   0  0  0  0  0  0  0  0  0  0  0  0
    3.2078    1.2247    0.0000 N   0  0  0  0  0  0  0  0  0  0  0  0
    3.0508   -0.2671    0.0000 C   0  0  0  0  0  0  0  0  0  0  0  0
    4.2643   -1.1489    0.0000 Cl  0  0  0  0  0  0  0  0  0  0  0  0
    1.6804   -0.8771    0.0000 C   0  0  0  0  0  0  0  0  0  0  0  0
    1.5235   -2.3688    0.0000 C   0  0  0  0  0  0  0  0  0  0  0  0
   -3.4872   -0.3334    0.0000 C   0  0  0  0  0  0  0  0  0  0  0  0
   -3.6441   -1.8252    0.0000 O   0  0  0  0  0  0  0  0  0  0  0  0
   -4.7006    0.5484    0.0000 O   0  0  0  0  0  0  0  0  0  0  0  0
  2  1  1  1
  2  3  1  0
  3  4  1  0
  4  5  1  0
  5  6  2  0
  6  7  1  0
  7  8  2  0
  8  9  1  0
  8 10  1  0
 10 11  1  0
  2 12  1  0
 12 13  2  0
 12 14  1  0
 10  4  2  0
M  END
>  <rName>  (442) 
4Pal_2Cl_3Me

>  <PQ_SYMBOL>  (442) 
4Pal_2Cl_3Me

>  <FULL_NAME>  (442) 
(S)-2-amino-3-(2-chloro-3-methylpyridin-4-yl)propanoic acid

>  <IUPAC_CONDENSED>  (442) 
4Pal(2-Cl,3-Me)

>  <IUPAC>  (442) 
(2S)-2-amino-3-(2-chloro-3-methylpyridin-4-yl)propanoic acid

>  <TYPE>  (442) 
Backbone

>  <CLASS>  (442) 
alpha

>  <ANALOG>  (442) 
Phe

>  <MOL_WT>  (442) 
214.652

>  <LOGP>  (442) 
0.9978199999999999

>  <TPSA>  (442) 
76.21

>  <POPULARITY>  (442) 
2.4

>  <PROTECTED>  (442) 
TRUE

>  <SMILES>  (442) 
N[C@@H](Cc1(ccnc(Cl)c1C))C(=O)O

>  <INCHIKEY>  (442) 
DRXSZTCTPNWCPQ-ZETCQYMHSA-N

$$$$
4Pal_2Cl_5Me
     RDKit          2D

 14 14  0  0  0  0  0  0  0  0999 V2000
   -1.4552    1.7882    0.0000 N   0  0  0  0  0  0  0  0  0  0  0  0
   -1.9325    0.3661    0.0000 C   0  0  0  0  0  0  0  0  0  0  0  0
   -0.9397   -0.7583    0.0000 C   0  0  0  0  0  0  0  0  0  0  0  0
    0.5305   -0.4606    0.0000 C   0  0  0  0  0  0  0  0  0  0  0  0
    1.0078    0.9614    0.0000 C   0  0  0  0  0  0  0  0  0  0  0  0
    2.4780    1.2591    0.0000 C   0  0  0  0  0  0  0  0  0  0  0  0
    2.9553    2.6811    0.0000 Cl  0  0  0  0  0  0  0  0  0  0  0  0
    3.4709    0.1347    0.0000 N   0  0  0  0  0  0  0  0  0  0  0  0
    2.9935   -1.2874    0.0000 C   0  0  0  0  0  0  0  0  0  0  0  0
    1.5234   -1.5850    0.0000 C   0  0  0  0  0  0  0  0  0  0  0  0
    1.0461   -3.0070    0.0000 C   0  0  0  0  0  0  0  0  0  0  0  0
   -3.4027    0.0685    0.0000 C   0  0  0  0  0  0  0  0  0  0  0  0
   -3.8800   -1.3536    0.0000 O   0  0  0  0  0  0  0  0  0  0  0  0
   -4.3955    1.1929    0.0000 O   0  0  0  0  0  0  0  0  0  0  0  0
  2  1  1  1
  2  3  1  0
  3  4  1  0
  4  5  1  0
  5  6  2  0
  6  7  1  0
  6  8  1  0
  8  9  2  0
  9 10  1  0
 10 11  1  0
  2 12  1  0
 12 13  2  0
 12 14  1  0
 10  4  2  0
M  END
>  <rName>  (443) 
4Pal_2Cl_5Me

>  <PQ_SYMBOL>  (443) 
4Pal_2Cl_5Me

>  <FULL_NAME>  (443) 
(S)-2-amino-3-(2-chloro-5-methylpyridin-4-yl)propanoic acid

>  <IUPAC_CONDENSED>  (443) 
4Pal(2-Cl,5-Me)

>  <IUPAC>  (443) 
(2S)-2-amino-3-(2-chloro-5-methylpyridin-4-yl)propanoic acid

>  <TYPE>  (443) 
Backbone

>  <CLASS>  (443) 
alpha

>  <ANALOG>  (443) 
Phe

>  <MOL_WT>  (443) 
214.652

>  <LOGP>  (443) 
0.9978199999999999

>  <TPSA>  (443) 
76.21

>  <POPULARITY>  (443) 
2.5

>  <PROTECTED>  (443) 
TRUE

>  <SMILES>  (443) 
N[C@@H](Cc1(cc(Cl)ncc1C))C(=O)O

>  <INCHIKEY>  (443) 
UFQARVWZVUZHAL-ZETCQYMHSA-N

$$$$
4Pal_2Cl_5NH2
     RDKit          2D

 14 14  0  0  0  0  0  0  0  0999 V2000
   -1.4552    1.7882    0.0000 N   0  0  0  0  0  0  0  0  0  0  0  0
   -1.9325    0.3661    0.0000 C   0  0  0  0  0  0  0  0  0  0  0  0
   -0.9397   -0.7583    0.0000 C   0  0  0  0  0  0  0  0  0  0  0  0
    0.5305   -0.4606    0.0000 C   0  0  0  0  0  0  0  0  0  0  0  0
    1.0078    0.9614    0.0000 C   0  0  0  0  0  0  0  0  0  0  0  0
    2.4780    1.2591    0.0000 C   0  0  0  0  0  0  0  0  0  0  0  0
    2.9553    2.6811    0.0000 Cl  0  0  0  0  0  0  0  0  0  0  0  0
    3.4709    0.1347    0.0000 N   0  0  0  0  0  0  0  0  0  0  0  0
    2.9935   -1.2874    0.0000 C   0  0  0  0  0  0  0  0  0  0  0  0
    1.5234   -1.5850    0.0000 C   0  0  0  0  0  0  0  0  0  0  0  0
    1.0461   -3.0070    0.0000 N   0  0  0  0  0  0  0  0  0  0  0  0
   -3.4027    0.0685    0.0000 C   0  0  0  0  0  0  0  0  0  0  0  0
   -3.8800   -1.3536    0.0000 O   0  0  0  0  0  0  0  0  0  0  0  0
   -4.3955    1.1929    0.0000 O   0  0  0  0  0  0  0  0  0  0  0  0
  2  1  1  1
  2  3  1  0
  3  4  1  0
  4  5  1  0
  5  6  2  0
  6  7  1  0
  6  8  1  0
  8  9  2  0
  9 10  1  0
 10 11  1  0
  2 12  1  0
 12 13  2  0
 12 14  1  0
 10  4  2  0
M  END
>  <rName>  (444) 
4Pal_2Cl_5NH2

>  <PQ_SYMBOL>  (444) 
4Pal_2Cl_5NH2

>  <FULL_NAME>  (444) 
(S)-2-amino-3-(5-amino-2-chloropyridin-4-yl)propanoic acid

>  <IUPAC_CONDENSED>  (444) 
4Pal(2-Cl,5-NH2)

>  <IUPAC>  (444) 
(2S)-2-amino-3-(5-amino-2-chloropyridin-4-yl)propanoic acid

>  <TYPE>  (444) 
Backbone

>  <CLASS>  (444) 
alpha

>  <ANALOG>  (444) 
Phe

>  <MOL_WT>  (444) 
215.64

>  <LOGP>  (444) 
0.2716000000000001

>  <TPSA>  (444) 
102.23

>  <POPULARITY>  (444) 
2.2

>  <PROTECTED>  (444) 
TRUE

>  <SMILES>  (444) 
N[C@@H](Cc1(cc(Cl)ncc1N))C(=O)O

>  <INCHIKEY>  (444) 
QQBUUHBDGJTWST-YFKPBYRVSA-N

$$$$
4Pal_2Cl_6CF3
     RDKit          2D

 17 17  0  0  0  0  0  0  0  0999 V2000
   -2.9339    1.4642    0.0000 N   0  0  0  0  0  0  0  0  0  0  0  0
   -2.9829   -0.0350    0.0000 C   0  0  0  0  0  0  0  0  0  0  0  0
   -1.7090   -0.8270    0.0000 C   0  0  0  0  0  0  0  0  0  0  0  0
   -0.3862   -0.1198    0.0000 C   0  0  0  0  0  0  0  0  0  0  0  0
   -0.3372    1.3794    0.0000 C   0  0  0  0  0  0  0  0  0  0  0  0
    0.9856    2.0866    0.0000 C   0  0  0  0  0  0  0  0  0  0  0  0
    1.0346    3.5858    0.0000 Cl  0  0  0  0  0  0  0  0  0  0  0  0
    2.2595    1.2946    0.0000 N   0  0  0  0  0  0  0  0  0  0  0  0
    2.2105   -0.2046    0.0000 C   0  0  0  0  0  0  0  0  0  0  0  0
    0.8877   -0.9118    0.0000 C   0  0  0  0  0  0  0  0  0  0  0  0
    3.4844   -0.9966    0.0000 C   0  0  0  0  0  0  0  0  0  0  0  0
    4.7582   -1.7886    0.0000 F   0  0  0  0  0  0  0  0  0  0  0  0
    2.6924   -2.2705    0.0000 F   0  0  0  0  0  0  0  0  0  0  0  0
    4.2764    0.2772    0.0000 F   0  0  0  0  0  0  0  0  0  0  0  0
   -4.3057   -0.7422    0.0000 C   0  0  0  0  0  0  0  0  0  0  0  0
   -4.3547   -2.2414    0.0000 O   0  0  0  0  0  0  0  0  0  0  0  0
   -5.5796    0.0498    0.0000 O   0  0  0  0  0  0  0  0  0  0  0  0
  2  1  1  1
  2  3  1  0
  3  4  1  0
  4  5  2  0
  5  6  1  0
  6  7  1  0
  6  8  2  0
  8  9  1  0
  9 10  2  0
  9 11  1  0
 11 12  1  0
 11 13  1  0
 11 14  1  0
  2 15  1  0
 15 16  2  0
 15 17  1  0
 10  4  1  0
M  END
>  <rName>  (445) 
4Pal_2Cl_6CF3

>  <PQ_SYMBOL>  (445) 
4Pal_2Cl_6CF3

>  <FULL_NAME>  (445) 
(S)-2-amino-3-(2-chloro-6-(trifluoromethyl)pyridin-4-yl)propanoic acid

>  <IUPAC_CONDENSED>  (445) 
4Pal(2-Cl,6-CF3)

>  <IUPAC>  (445) 
(2S)-2-amino-3-(2-chloro-6-(trifluoromethyl)pyridin-4-yl)propanoic acid

>  <TYPE>  (445) 
Backbone

>  <CLASS>  (445) 
alpha

>  <ANALOG>  (445) 
Phe

>  <MOL_WT>  (445) 
268.62199999999996

>  <LOGP>  (445) 
1.7082000000000002

>  <TPSA>  (445) 
76.21

>  <POPULARITY>  (445) 
2.2

>  <PROTECTED>  (445) 
TRUE

>  <SMILES>  (445) 
N[C@@H](Cc1(cc(Cl)nc(c1)C(F)(F)F))C(=O)O

>  <INCHIKEY>  (445) 
NSHNABXFUYLLBI-YFKPBYRVSA-N

$$$$
4Pal_2F_3F
     RDKit          2D

 14 14  0  0  0  0  0  0  0  0999 V2000
   -1.9599    1.7683    0.0000 N   0  0  0  0  0  0  0  0  0  0  0  0
   -2.1168    0.2766    0.0000 C   0  0  0  0  0  0  0  0  0  0  0  0
   -0.9034   -0.6052    0.0000 C   0  0  0  0  0  0  0  0  0  0  0  0
    0.4670    0.0047    0.0000 C   0  0  0  0  0  0  0  0  0  0  0  0
    0.6239    1.4965    0.0000 C   0  0  0  0  0  0  0  0  0  0  0  0
    1.9943    2.1065    0.0000 C   0  0  0  0  0  0  0  0  0  0  0  0
    3.2078    1.2247    0.0000 N   0  0  0  0  0  0  0  0  0  0  0  0
    3.0508   -0.2671    0.0000 C   0  0  0  0  0  0  0  0  0  0  0  0
    4.2643   -1.1489    0.0000 F   0  0  0  0  0  0  0  0  0  0  0  0
    1.6804   -0.8771    0.0000 C   0  0  0  0  0  0  0  0  0  0  0  0
    1.5235   -2.3688    0.0000 F   0  0  0  0  0  0  0  0  0  0  0  0
   -3.4872   -0.3334    0.0000 C   0  0  0  0  0  0  0  0  0  0  0  0
   -3.6441   -1.8252    0.0000 O   0  0  0  0  0  0  0  0  0  0  0  0
   -4.7006    0.5484    0.0000 O   0  0  0  0  0  0  0  0  0  0  0  0
  2  1  1  1
  2  3  1  0
  3  4  1  0
  4  5  1  0
  5  6  2  0
  6  7  1  0
  7  8  2  0
  8  9  1  0
  8 10  1  0
 10 11  1  0
  2 12  1  0
 12 13  2  0
 12 14  1  0
 10  4  2  0
M  END
>  <rName>  (446) 
4Pal_2F_3F

>  <PQ_SYMBOL>  (446) 
4Pal_2F_3F

>  <FULL_NAME>  (446) 
(S)-2-amino-3-(2,3-difluoropyridin-4-yl)propanoic acid

>  <IUPAC_CONDENSED>  (446) 
4Pal(2-F,3-F)

>  <IUPAC>  (446) 
(2S)-2-amino-3-(2,3-difluoropyridin-4-yl)propanoic acid

>  <TYPE>  (446) 
Backbone

>  <CLASS>  (446) 
alpha

>  <ANALOG>  (446) 
Phe

>  <MOL_WT>  (446) 
202.15999999999997

>  <LOGP>  (446) 
0.31419999999999976

>  <TPSA>  (446) 
76.21

>  <POPULARITY>  (446) 
2.4

>  <PROTECTED>  (446) 
TRUE

>  <SMILES>  (446) 
N[C@@H](Cc1(ccnc(F)c1F))C(=O)O

>  <INCHIKEY>  (446) 
WDXYXMTXTPYCLJ-YFKPBYRVSA-N

$$$$
4Pal_2F_3Me
     RDKit          2D

 14 14  0  0  0  0  0  0  0  0999 V2000
   -1.9599    1.7683    0.0000 N   0  0  0  0  0  0  0  0  0  0  0  0
   -2.1168    0.2766    0.0000 C   0  0  0  0  0  0  0  0  0  0  0  0
   -0.9034   -0.6052    0.0000 C   0  0  0  0  0  0  0  0  0  0  0  0
    0.4670    0.0047    0.0000 C   0  0  0  0  0  0  0  0  0  0  0  0
    0.6239    1.4965    0.0000 C   0  0  0  0  0  0  0  0  0  0  0  0
    1.9943    2.1065    0.0000 C   0  0  0  0  0  0  0  0  0  0  0  0
    3.2078    1.2247    0.0000 N   0  0  0  0  0  0  0  0  0  0  0  0
    3.0508   -0.2671    0.0000 C   0  0  0  0  0  0  0  0  0  0  0  0
    4.2643   -1.1489    0.0000 F   0  0  0  0  0  0  0  0  0  0  0  0
    1.6804   -0.8771    0.0000 C   0  0  0  0  0  0  0  0  0  0  0  0
    1.5235   -2.3688    0.0000 C   0  0  0  0  0  0  0  0  0  0  0  0
   -3.4872   -0.3334    0.0000 C   0  0  0  0  0  0  0  0  0  0  0  0
   -3.6441   -1.8252    0.0000 O   0  0  0  0  0  0  0  0  0  0  0  0
   -4.7006    0.5484    0.0000 O   0  0  0  0  0  0  0  0  0  0  0  0
  2  1  1  1
  2  3  1  0
  3  4  1  0
  4  5  1  0
  5  6  2  0
  6  7  1  0
  7  8  2  0
  8  9  1  0
  8 10  1  0
 10 11  1  0
  2 12  1  0
 12 13  2  0
 12 14  1  0
 10  4  2  0
M  END
>  <rName>  (447) 
4Pal_2F_3Me

>  <PQ_SYMBOL>  (447) 
4Pal_2F_3Me

>  <FULL_NAME>  (447) 
(S)-2-amino-3-(2-fluoro-3-methylpyridin-4-yl)propanoic acid

>  <IUPAC_CONDENSED>  (447) 
4Pal(2-F,3-Me)

>  <IUPAC>  (447) 
(2S)-2-amino-3-(2-fluoro-3-methylpyridin-4-yl)propanoic acid

>  <TYPE>  (447) 
Backbone

>  <CLASS>  (447) 
alpha

>  <ANALOG>  (447) 
Phe

>  <MOL_WT>  (447) 
198.19699999999997

>  <LOGP>  (447) 
0.4835199999999999

>  <TPSA>  (447) 
76.21

>  <POPULARITY>  (447) 
2.2

>  <PROTECTED>  (447) 
TRUE

>  <SMILES>  (447) 
N[C@@H](Cc1(ccnc(F)c1C))C(=O)O

>  <INCHIKEY>  (447) 
UHGFSQBALWAZQV-ZETCQYMHSA-N

$$$$
4Pal_2F_5Cl
     RDKit          2D

 14 14  0  0  0  0  0  0  0  0999 V2000
   -1.4552    1.7882    0.0000 N   0  0  0  0  0  0  0  0  0  0  0  0
   -1.9325    0.3661    0.0000 C   0  0  0  0  0  0  0  0  0  0  0  0
   -0.9397   -0.7583    0.0000 C   0  0  0  0  0  0  0  0  0  0  0  0
    0.5305   -0.4606    0.0000 C   0  0  0  0  0  0  0  0  0  0  0  0
    1.0078    0.9614    0.0000 C   0  0  0  0  0  0  0  0  0  0  0  0
    2.4780    1.2591    0.0000 C   0  0  0  0  0  0  0  0  0  0  0  0
    2.9553    2.6811    0.0000 F   0  0  0  0  0  0  0  0  0  0  0  0
    3.4709    0.1347    0.0000 N   0  0  0  0  0  0  0  0  0  0  0  0
    2.9935   -1.2874    0.0000 C   0  0  0  0  0  0  0  0  0  0  0  0
    1.5234   -1.5850    0.0000 C   0  0  0  0  0  0  0  0  0  0  0  0
    1.0461   -3.0070    0.0000 Cl  0  0  0  0  0  0  0  0  0  0  0  0
   -3.4027    0.0685    0.0000 C   0  0  0  0  0  0  0  0  0  0  0  0
   -3.8800   -1.3536    0.0000 O   0  0  0  0  0  0  0  0  0  0  0  0
   -4.3955    1.1929    0.0000 O   0  0  0  0  0  0  0  0  0  0  0  0
  2  1  1  1
  2  3  1  0
  3  4  1  0
  4  5  1  0
  5  6  2  0
  6  7  1  0
  6  8  1  0
  8  9  2  0
  9 10  1  0
 10 11  1  0
  2 12  1  0
 12 13  2  0
 12 14  1  0
 10  4  2  0
M  END
>  <rName>  (448) 
4Pal_2F_5Cl

>  <PQ_SYMBOL>  (448) 
4Pal_2F_5Cl

>  <FULL_NAME>  (448) 
(S)-2-amino-3-(5-chloro-2-fluoropyridin-4-yl)propanoic acid

>  <IUPAC_CONDENSED>  (448) 
4Pal(2-F,5-Cl)

>  <IUPAC>  (448) 
(2S)-2-amino-3-(5-chloro-2-fluoropyridin-4-yl)propanoic acid

>  <TYPE>  (448) 
Backbone

>  <CLASS>  (448) 
alpha

>  <ANALOG>  (448) 
Phe

>  <MOL_WT>  (448) 
218.61499999999998

>  <LOGP>  (448) 
0.8285

>  <TPSA>  (448) 
76.21

>  <POPULARITY>  (448) 
2.2

>  <PROTECTED>  (448) 
TRUE

>  <SMILES>  (448) 
N[C@@H](Cc1(cc(F)ncc1Cl))C(=O)O

>  <INCHIKEY>  (448) 
ZPEBPGXRYWQMSN-LURJTMIESA-N

$$$$
4Pal_2F_5F
     RDKit          2D

 14 14  0  0  0  0  0  0  0  0999 V2000
   -1.4552    1.7882    0.0000 N   0  0  0  0  0  0  0  0  0  0  0  0
   -1.9325    0.3661    0.0000 C   0  0  0  0  0  0  0  0  0  0  0  0
   -0.9397   -0.7583    0.0000 C   0  0  0  0  0  0  0  0  0  0  0  0
    0.5305   -0.4606    0.0000 C   0  0  0  0  0  0  0  0  0  0  0  0
    1.0078    0.9614    0.0000 C   0  0  0  0  0  0  0  0  0  0  0  0
    2.4780    1.2591    0.0000 C   0  0  0  0  0  0  0  0  0  0  0  0
    2.9553    2.6811    0.0000 F   0  0  0  0  0  0  0  0  0  0  0  0
    3.4709    0.1347    0.0000 N   0  0  0  0  0  0  0  0  0  0  0  0
    2.9935   -1.2874    0.0000 C   0  0  0  0  0  0  0  0  0  0  0  0
    1.5234   -1.5850    0.0000 C   0  0  0  0  0  0  0  0  0  0  0  0
    1.0461   -3.0070    0.0000 F   0  0  0  0  0  0  0  0  0  0  0  0
   -3.4027    0.0685    0.0000 C   0  0  0  0  0  0  0  0  0  0  0  0
   -3.8800   -1.3536    0.0000 O   0  0  0  0  0  0  0  0  0  0  0  0
   -4.3955    1.1929    0.0000 O   0  0  0  0  0  0  0  0  0  0  0  0
  2  1  1  1
  2  3  1  0
  3  4  1  0
  4  5  1  0
  5  6  2  0
  6  7  1  0
  6  8  1  0
  8  9  2  0
  9 10  1  0
 10 11  1  0
  2 12  1  0
 12 13  2  0
 12 14  1  0
 10  4  2  0
M  END
>  <rName>  (449) 
4Pal_2F_5F

>  <PQ_SYMBOL>  (449) 
4Pal_2F_5F

>  <FULL_NAME>  (449) 
(S)-2-amino-3-(2,5-difluoropyridin-4-yl)propanoic acid

>  <IUPAC_CONDENSED>  (449) 
4Pal(2-F,5-F)

>  <IUPAC>  (449) 
(2S)-2-amino-3-(2,5-difluoropyridin-4-yl)propanoic acid

>  <TYPE>  (449) 
Backbone

>  <CLASS>  (449) 
alpha

>  <ANALOG>  (449) 
Phe

>  <MOL_WT>  (449) 
202.15999999999997

>  <LOGP>  (449) 
0.31419999999999976

>  <TPSA>  (449) 
76.21

>  <POPULARITY>  (449) 
2.4

>  <PROTECTED>  (449) 
TRUE

>  <SMILES>  (449) 
N[C@@H](Cc1(cc(F)ncc1F))C(=O)O

>  <INCHIKEY>  (449) 
GFAOTXJJHWRIQG-LURJTMIESA-N

$$$$
4Pal_2F_5Me
     RDKit          2D

 14 14  0  0  0  0  0  0  0  0999 V2000
   -1.4552    1.7882    0.0000 N   0  0  0  0  0  0  0  0  0  0  0  0
   -1.9325    0.3661    0.0000 C   0  0  0  0  0  0  0  0  0  0  0  0
   -0.9397   -0.7583    0.0000 C   0  0  0  0  0  0  0  0  0  0  0  0
    0.5305   -0.4606    0.0000 C   0  0  0  0  0  0  0  0  0  0  0  0
    1.0078    0.9614    0.0000 C   0  0  0  0  0  0  0  0  0  0  0  0
    2.4780    1.2591    0.0000 C   0  0  0  0  0  0  0  0  0  0  0  0
    2.9553    2.6811    0.0000 F   0  0  0  0  0  0  0  0  0  0  0  0
    3.4709    0.1347    0.0000 N   0  0  0  0  0  0  0  0  0  0  0  0
    2.9935   -1.2874    0.0000 C   0  0  0  0  0  0  0  0  0  0  0  0
    1.5234   -1.5850    0.0000 C   0  0  0  0  0  0  0  0  0  0  0  0
    1.0461   -3.0070    0.0000 C   0  0  0  0  0  0  0  0  0  0  0  0
   -3.4027    0.0685    0.0000 C   0  0  0  0  0  0  0  0  0  0  0  0
   -3.8800   -1.3536    0.0000 O   0  0  0  0  0  0  0  0  0  0  0  0
   -4.3955    1.1929    0.0000 O   0  0  0  0  0  0  0  0  0  0  0  0
  2  1  1  1
  2  3  1  0
  3  4  1  0
  4  5  1  0
  5  6  2  0
  6  7  1  0
  6  8  1  0
  8  9  2  0
  9 10  1  0
 10 11  1  0
  2 12  1  0
 12 13  2  0
 12 14  1  0
 10  4  2  0
M  END
>  <rName>  (450) 
4Pal_2F_5Me

>  <PQ_SYMBOL>  (450) 
4Pal_2F_5Me

>  <FULL_NAME>  (450) 
(S)-2-amino-3-(2-fluoro-5-methylpyridin-4-yl)propanoic acid

>  <IUPAC_CONDENSED>  (450) 
4Pal(2-F,5-Me)

>  <IUPAC>  (450) 
(2S)-2-amino-3-(2-fluoro-5-methylpyridin-4-yl)propanoic acid

>  <TYPE>  (450) 
Backbone

>  <CLASS>  (450) 
alpha

>  <ANALOG>  (450) 
Phe

>  <MOL_WT>  (450) 
198.19699999999997

>  <LOGP>  (450) 
0.4835199999999999

>  <TPSA>  (450) 
76.21

>  <POPULARITY>  (450) 
2.4

>  <PROTECTED>  (450) 
TRUE

>  <SMILES>  (450) 
N[C@@H](Cc1(cc(F)ncc1C))C(=O)O

>  <INCHIKEY>  (450) 
XDTUABHVVLMBMN-ZETCQYMHSA-N

$$$$
4Pal_2Me_6Me
     RDKit          2D

 14 14  0  0  0  0  0  0  0  0999 V2000
   -1.8014    1.6047    0.0000 N   0  0  0  0  0  0  0  0  0  0  0  0
   -2.1617    0.1486    0.0000 C   0  0  0  0  0  0  0  0  0  0  0  0
   -1.0809   -0.8915    0.0000 C   0  0  0  0  0  0  0  0  0  0  0  0
    0.3603   -0.4755    0.0000 C   0  0  0  0  0  0  0  0  0  0  0  0
    0.7206    0.9806    0.0000 C   0  0  0  0  0  0  0  0  0  0  0  0
    2.1617    1.3967    0.0000 C   0  0  0  0  0  0  0  0  0  0  0  0
    2.5220    2.8527    0.0000 C   0  0  0  0  0  0  0  0  0  0  0  0
    3.2426    0.3566    0.0000 N   0  0  0  0  0  0  0  0  0  0  0  0
    2.8823   -1.0995    0.0000 C   0  0  0  0  0  0  0  0  0  0  0  0
    3.9632   -2.1396    0.0000 C   0  0  0  0  0  0  0  0  0  0  0  0
    1.4412   -1.5155    0.0000 C   0  0  0  0  0  0  0  0  0  0  0  0
   -3.6029   -0.2674    0.0000 C   0  0  0  0  0  0  0  0  0  0  0  0
   -3.9632   -1.7235    0.0000 O   0  0  0  0  0  0  0  0  0  0  0  0
   -4.6837    0.7726    0.0000 O   0  0  0  0  0  0  0  0  0  0  0  0
  2  1  1  1
  2  3  1  0
  3  4  1  0
  4  5  2  0
  5  6  1  0
  6  7  1  0
  6  8  2  0
  8  9  1  0
  9 10  1  0
  9 11  2  0
  2 12  1  0
 12 13  2  0
 12 14  1  0
 11  4  1  0
M  END
>  <rName>  (451) 
4Pal_2Me_6Me

>  <PQ_SYMBOL>  (451) 
4Pal_2Me_6Me

>  <FULL_NAME>  (451) 
(2S)-2-amino-3-(2,6-dimethyl-4-pyridinyl)propanoic acid

>  <IUPAC_CONDENSED>  (451) 
4Pal(2-Me,6-Me)

>  <IUPAC>  (451) 
(2S)-2-amino-3-(2,6-dimethyl-4-pyridinyl)propanoic acid

>  <TYPE>  (451) 
Backbone

>  <CLASS>  (451) 
alpha

>  <ANALOG>  (451) 
Phe

>  <MOL_WT>  (451) 
194.23399999999998

>  <LOGP>  (451) 
0.6528400000000001

>  <TPSA>  (451) 
76.21

>  <POPULARITY>  (451) 
2.2

>  <PROTECTED>  (451) 
TRUE

>  <SMILES>  (451) 
N[C@@H](Cc1(cc(C)nc(C)c1))C(=O)O

>  <INCHIKEY>  (451) 
VXBNBRCYFPGDJV-VIFPVBQESA-N

$$$$
4Pal_2OMe_5Me
     RDKit          2D

 15 15  0  0  0  0  0  0  0  0999 V2000
   -1.4698    1.8520    0.0000 N   0  0  0  0  0  0  0  0  0  0  0  0
   -2.1710    0.5260    0.0000 C   0  0  0  0  0  0  0  0  0  0  0  0
   -1.3733   -0.7443    0.0000 C   0  0  0  0  0  0  0  0  0  0  0  0
    0.1257   -0.6886    0.0000 C   0  0  0  0  0  0  0  0  0  0  0  0
    0.8269    0.6374    0.0000 C   0  0  0  0  0  0  0  0  0  0  0  0
    2.3259    0.6931    0.0000 C   0  0  0  0  0  0  0  0  0  0  0  0
    3.0271    2.0191    0.0000 O   0  0  0  0  0  0  0  0  0  0  0  0
    4.5261    2.0748    0.0000 C   0  0  0  0  0  0  0  0  0  0  0  0
    3.1236   -0.5772    0.0000 N   0  0  0  0  0  0  0  0  0  0  0  0
    2.4223   -1.9032    0.0000 C   0  0  0  0  0  0  0  0  0  0  0  0
    0.9234   -1.9589    0.0000 C   0  0  0  0  0  0  0  0  0  0  0  0
    0.2221   -3.2849    0.0000 C   0  0  0  0  0  0  0  0  0  0  0  0
   -3.6700    0.4703    0.0000 C   0  0  0  0  0  0  0  0  0  0  0  0
   -4.3712   -0.8557    0.0000 O   0  0  0  0  0  0  0  0  0  0  0  0
   -4.4677    1.7405    0.0000 O   0  0  0  0  0  0  0  0  0  0  0  0
  2  1  1  1
  2  3  1  0
  3  4  1  0
  4  5  1  0
  5  6  2  0
  6  7  1  0
  7  8  1  0
  6  9  1  0
  9 10  2  0
 10 11  1  0
 11 12  1  0
  2 13  1  0
 13 14  2  0
 13 15  1  0
 11  4  2  0
M  END
>  <rName>  (452) 
4Pal_2OMe_5Me

>  <PQ_SYMBOL>  (452) 
4Pal_2OMe_5Me

>  <FULL_NAME>  (452) 
(2S)-2-amino-3-(2-methoxy-5-methylpyridin-4-yl)propanoic acid

>  <IUPAC_CONDENSED>  (452) 
4Pal(2-OMe,5-Me)

>  <IUPAC>  (452) 
(2S)-2-amino-3-(2-methoxy-5-methylpyridin-4-yl)propanoic acid

>  <TYPE>  (452) 
Backbone

>  <CLASS>  (452) 
alpha

>  <ANALOG>  (452) 
Phe

>  <MOL_WT>  (452) 
210.23299999999998

>  <LOGP>  (452) 
0.3530199999999996

>  <TPSA>  (452) 
85.44000000000001

>  <POPULARITY>  (452) 
2.5

>  <PROTECTED>  (452) 
TRUE

>  <SMILES>  (452) 
N[C@@H](Cc1(cc(OC)ncc1C))C(=O)O

>  <INCHIKEY>  (452) 
CAFNRZDZEDVHOH-QMMMGPOBSA-N

$$$$
4Pal_Me_2carbonyl
     RDKit          2D

 14 14  0  0  0  0  0  0  0  0999 V2000
   -2.0094    1.6916    0.0000 N   0  0  0  0  0  0  0  0  0  0  0  0
   -2.3243    0.2250    0.0000 C   0  0  0  0  0  0  0  0  0  0  0  0
   -1.2116   -0.7809    0.0000 C   0  0  0  0  0  0  0  0  0  0  0  0
    0.2159   -0.3203    0.0000 C   0  0  0  0  0  0  0  0  0  0  0  0
    0.5308    1.1463    0.0000 C   0  0  0  0  0  0  0  0  0  0  0  0
    1.9583    1.6069    0.0000 C   0  0  0  0  0  0  0  0  0  0  0  0
    3.0710    0.6009    0.0000 N   0  0  0  0  0  0  0  0  0  0  0  0
    4.4985    1.0615    0.0000 C   0  0  0  0  0  0  0  0  0  0  0  0
    2.7561   -0.8657    0.0000 C   0  0  0  0  0  0  0  0  0  0  0  0
    3.8688   -1.8716    0.0000 O   0  0  0  0  0  0  0  0  0  0  0  0
    1.3286   -1.3263    0.0000 C   0  0  0  0  0  0  0  0  0  0  0  0
   -3.7518   -0.2356    0.0000 C   0  0  0  0  0  0  0  0  0  0  0  0
   -4.0666   -1.7022    0.0000 O   0  0  0  0  0  0  0  0  0  0  0  0
   -4.8644    0.7704    0.0000 O   0  0  0  0  0  0  0  0  0  0  0  0
  2  1  1  1
  2  3  1  0
  3  4  1  0
  4  5  1  0
  5  6  2  0
  6  7  1  0
  7  8  1  0
  7  9  1  0
  9 10  2  0
  9 11  1  0
  2 12  1  0
 12 13  2  0
 12 14  1  0
 11  4  2  0
M  END
>  <rName>  (453) 
4Pal_Me_2carbonyl

>  <PQ_SYMBOL>  (453) 
4Pal_Me_2carbonyl

>  <FULL_NAME>  (453) 
4Pal(Me,2-carbonyl)

>  <IUPAC_CONDENSED>  (453) 
4Pal(Me,2-carbonyl)

>  <IUPAC>  (453) 
(2S)-2-amino-3-(1-methyl-6-oxo-1-azacyclohexa-2,4-dien-4-yl)propanoic acid

>  <TYPE>  (453) 
Backbone

>  <CLASS>  (453) 
alpha

>  <ANALOG>  (453) 
Phe

>  <MOL_WT>  (453) 
196.206

>  <LOGP>  (453) 
-0.6603000000000001

>  <TPSA>  (453) 
85.32000000000001

>  <POPULARITY>  (453) 
2.2

>  <PROTECTED>  (453) 
TRUE

>  <SMILES>  (453) 
N[C@@H](Cc1(ccn(C)c(=O)c1))C(=O)O

>  <INCHIKEY>  (453) 
RUQFMQZTCIXZQI-ZETCQYMHSA-N

$$$$
4Pal_Noxide
     RDKit          2D

 13 13  0  0  0  0  0  0  0  0999 V2000
   -1.5766    1.6851    0.0000 N   0  0  0  0  0  0  0  0  0  0  0  0
   -2.0128    0.2500    0.0000 C   0  0  0  0  0  0  0  0  0  0  0  0
   -0.9880   -0.8454    0.0000 C   0  0  0  0  0  0  0  0  0  0  0  0
    0.4730   -0.5055    0.0000 C   0  0  0  0  0  0  0  0  0  0  0  0
    0.9092    0.9296    0.0000 C   0  0  0  0  0  0  0  0  0  0  0  0
    2.3702    1.2695    0.0000 C   0  0  0  0  0  0  0  0  0  0  0  0
    3.3950    0.1741    0.0000 N   0  0  0  0  0  0  0  0  0  0  0  0
    4.8560    0.5140    0.0000 O   0  0  0  0  0  0  0  0  0  0  0  0
    2.9588   -1.2611    0.0000 C   0  0  0  0  0  0  0  0  0  0  0  0
    1.4978   -1.6009    0.0000 C   0  0  0  0  0  0  0  0  0  0  0  0
   -3.4738   -0.0899    0.0000 C   0  0  0  0  0  0  0  0  0  0  0  0
   -3.9100   -1.5250    0.0000 O   0  0  0  0  0  0  0  0  0  0  0  0
   -4.4986    1.0055    0.0000 O   0  0  0  0  0  0  0  0  0  0  0  0
  2  1  1  1
  2  3  1  0
  3  4  1  0
  4  5  1  0
  5  6  2  0
  6  7  1  0
  7  8  1  0
  7  9  2  0
  9 10  1  0
  2 11  1  0
 11 12  2  0
 11 13  1  0
 10  4  2  0
M  CHG  2   7   1   8  -1
M  END
>  <rName>  (454) 
4Pal_Noxide

>  <PQ_SYMBOL>  (454) 
4Pal_Noxide

>  <FULL_NAME>  (454) 
(2S)-2-amino-3-(1-oxidopyridin-1-ium-4-yl)propanoic acid

>  <IUPAC_CONDENSED>  (454) 
4Pal(N-oxide)

>  <IUPAC>  (454) 
(2S)-2-amino-3-(1-oxidopyridin-1-ium-4-yl)propanoic acid

>  <TYPE>  (454) 
Backbone

>  <CLASS>  (454) 
alpha

>  <ANALOG>  (454) 
Phe

>  <MOL_WT>  (454) 
182.17899999999997

>  <LOGP>  (454) 
-0.7255999999999998

>  <TPSA>  (454) 
90.26

>  <POPULARITY>  (454) 
2.2

>  <PROTECTED>  (454) 
TRUE

>  <SMILES>  (454) 
N[C@@H](Cc1(cc[n+]([O-])cc1))C(=O)O

>  <INCHIKEY>  (454) 
AQCBOZOEFVOFGR-ZETCQYMHSA-N

$$$$
4Ph-1-oxophthalazin-2-acetyl
     RDKit          2D

 21 23  0  0  0  0  0  0  0  0999 V2000
    4.2739    2.5979    0.0000 C   0  0  0  0  0  0  0  0  0  0  0  0
    4.3448    1.0996    0.0000 C   0  0  0  0  0  0  0  0  0  0  0  0
    3.0827    0.2890    0.0000 C   0  0  0  0  0  0  0  0  0  0  0  0
    1.7497    0.9767    0.0000 C   0  0  0  0  0  0  0  0  0  0  0  0
    1.6787    2.4750    0.0000 C   0  0  0  0  0  0  0  0  0  0  0  0
    2.9408    3.2856    0.0000 C   0  0  0  0  0  0  0  0  0  0  0  0
    0.4876    0.1661    0.0000 C   0  0  0  0  0  0  0  0  0  0  0  0
   -0.8455    0.8538    0.0000 N   0  0  0  0  0  0  0  0  0  0  0  0
   -2.1076    0.0432    0.0000 N   0  0  0  0  0  0  0  0  0  0  0  0
   -2.0367   -1.4551    0.0000 C   0  0  0  0  0  0  0  0  0  0  0  0
   -3.2988   -2.2657    0.0000 O   0  0  0  0  0  0  0  0  0  0  0  0
   -0.7036   -2.1428    0.0000 C   0  0  0  0  0  0  0  0  0  0  0  0
   -0.6327   -3.6411    0.0000 C   0  0  0  0  0  0  0  0  0  0  0  0
    0.7004   -4.3289    0.0000 C   0  0  0  0  0  0  0  0  0  0  0  0
    1.9625   -3.5183    0.0000 C   0  0  0  0  0  0  0  0  0  0  0  0
    1.8916   -2.0199    0.0000 C   0  0  0  0  0  0  0  0  0  0  0  0
    0.5585   -1.3322    0.0000 C   0  0  0  0  0  0  0  0  0  0  0  0
   -3.4407    0.7310    0.0000 C   0  0  0  0  0  0  0  0  0  0  0  0
   -3.5116    2.2293    0.0000 C   0  0  0  0  0  0  0  0  0  0  0  0
   -2.2495    3.0399    0.0000 O   0  0  0  0  0  0  0  0  0  0  0  0
   -4.8447    2.9170    0.0000 O   0  0  0  0  0  0  0  0  0  0  0  0
  1  2  2  0
  2  3  1  0
  3  4  2  0
  4  5  1  0
  5  6  2  0
  4  7  1  0
  7  8  2  0
  8  9  1  0
  9 10  1  0
 10 11  2  0
 10 12  1  0
 12 13  2  0
 13 14  1  0
 14 15  2  0
 15 16  1  0
 16 17  2  0
  9 18  1  0
 18 19  1  0
 19 20  2  0
 19 21  1  0
 17  7  1  0
 17 12  1  0
  6  1  1  0
M  END
>  <rName>  (455) 
4Ph-1-oxophthalazin-2-acetyl

>  <PQ_SYMBOL>  (455) 
4Ph-1-oxophthalazin-2-acetyl

>  <FULL_NAME>  (455) 
2-(1-oxo-4-phenylphthalazin-2-yl)acetic acid

>  <IUPAC_CONDENSED>  (455) 
4Ph-1-oxophthalazin-2-acetyl

>  <IUPAC>  (455) 
2-(2-oxo-5-phenyl-3,4-diazabicyclo[4.4.0]deca-1(10),4,6,8-tetraen-3-yl)acetic acid

>  <TYPE>  (455) 
N-term cap

>  <CLASS>  (455) 
n_cap

>  <ANALOG>  (455) 
X

>  <MOL_WT>  (455) 
280.283

>  <LOGP>  (455) 
2.1481

>  <TPSA>  (455) 
72.19

>  <POPULARITY>  (455) 
7.9

>  <PROTECTED>  (455) 
TRUE

>  <SMILES>  (455) 
c3ccc(cc3)c1nn(c(=O)c2(ccccc12))CC(=O)O

>  <INCHIKEY>  (455) 
GYXUGIHFRFKEMD-UHFFFAOYSA-N

$$$$
4R-amino-cyclopent-2-ene-1S-CO2H
     RDKit          2D

  9  9  0  0  0  0  0  0  0  0999 V2000
   -3.3052   -0.8467    0.0000 N   0  0  0  0  0  0  0  0  0  0  0  0
   -1.9481   -0.2077    0.0000 C   0  0  0  0  0  0  0  0  0  0  0  0
   -0.6334   -0.9301    0.0000 C   0  0  0  0  0  0  0  0  0  0  0  0
    0.4598    0.0969    0.0000 C   0  0  0  0  0  0  0  0  0  0  0  0
   -0.1792    1.4541    0.0000 C   0  0  0  0  0  0  0  0  0  0  0  0
   -1.6673    1.2657    0.0000 C   0  0  0  0  0  0  0  0  0  0  0  0
    1.9333   -0.1838    0.0000 C   0  0  0  0  0  0  0  0  0  0  0  0
    2.9132    0.9519    0.0000 O   0  0  0  0  0  0  0  0  0  0  0  0
    2.4269   -1.6003    0.0000 O   0  0  0  0  0  0  0  0  0  0  0  0
  2  1  1  1
  2  3  1  0
  3  4  1  0
  4  5  1  0
  5  6  2  0
  4  7  1  1
  7  8  2  0
  7  9  1  0
  6  2  1  0
M  END
>  <rName>  (456) 
4R-amino-cyclopent-2-ene-1S-CO2H

>  <PQ_SYMBOL>  (456) 
4R-amino-cyclopent-2-ene-1S-CO2H

>  <FULL_NAME>  (456) 
(1S,4R)-4-aminocyclopent-2-ene-1-carboxylic acid

>  <IUPAC_CONDENSED>  (456) 
4R-amino-cyclopent-2-ene-1S-CO2H

>  <IUPAC>  (456) 
(1S,4R)-4-aminocyclopent-2-ene-1-carboxylic acid

>  <TYPE>  (456) 
Backbone

>  <CLASS>  (456) 
gamma

>  <ANALOG>  (456) 
Ala

>  <MOL_WT>  (456) 
127.14299999999997

>  <LOGP>  (456) 
-0.025600000000000345

>  <TPSA>  (456) 
63.32000000000001

>  <POPULARITY>  (456) 
6.8

>  <PROTECTED>  (456) 
TRUE

>  <SMILES>  (456) 
N[C@@H]1C[C@@H](C=C1)C(=O)O

>  <INCHIKEY>  (456) 
VTCHZFWYUPZZKL-UHNVWZDZSA-N

$$$$
4S-amino-cyclopent-1-ene-1-CO2H_3OH_3R
     RDKit          2D

 10 10  0  0  0  0  0  0  0  0999 V2000
   -2.7794   -1.6317    0.0000 N   0  0  0  0  0  0  0  0  0  0  0  0
   -1.5659   -0.7500    0.0000 C   0  0  0  0  0  0  0  0  0  0  0  0
   -0.1393   -1.2135    0.0000 C   0  0  0  0  0  0  0  0  0  0  0  0
    0.7423    0.0000    0.0000 C   0  0  0  0  0  0  0  0  0  0  0  0
   -0.1393    1.2135    0.0000 C   0  0  0  0  0  0  0  0  0  0  0  0
   -1.5659    0.7500    0.0000 C   0  0  0  0  0  0  0  0  0  0  0  0
   -2.7794    1.6317    0.0000 O   0  0  0  0  0  0  0  0  0  0  0  0
    2.2423    0.0000    0.0000 C   0  0  0  0  0  0  0  0  0  0  0  0
    2.9923    1.2990    0.0000 O   0  0  0  0  0  0  0  0  0  0  0  0
    2.9923   -1.2990    0.0000 O   0  0  0  0  0  0  0  0  0  0  0  0
  2  1  1  6
  2  3  1  0
  3  4  1  0
  4  5  2  0
  5  6  1  0
  6  7  1  6
  4  8  1  0
  8  9  2  0
  8 10  1  0
  6  2  1  0
M  END
>  <rName>  (457) 
4S-amino-cyclopent-1-ene-1-CO2H_3OH_3R

>  <PQ_SYMBOL>  (457) 
4S-amino-cyclopent-1-ene-1-CO2H_3OH_3R

>  <FULL_NAME>  (457) 
(3R,4S)-4-amino-3-hydroxycyclopentene-1-carboxylic acid

>  <IUPAC_CONDENSED>  (457) 
4S-amino-cyclopent-1-ene-1-CO2H(3-OH,3R)

>  <IUPAC>  (457) 
(3R,4S)-4-amino-3-hydroxycyclopent-1-ene-1-carboxylic acid

>  <TYPE>  (457) 
Backbone

>  <CLASS>  (457) 
gamma

>  <ANALOG>  (457) 
Thr

>  <MOL_WT>  (457) 
143.14199999999997

>  <LOGP>  (457) 
-0.9107000000000005

>  <TPSA>  (457) 
83.55

>  <POPULARITY>  (457) 
2.9

>  <PROTECTED>  (457) 
TRUE

>  <SMILES>  (457) 
N[C@H]1CC(=C[C@H]1O)C(=O)O

>  <INCHIKEY>  (457) 
LKYCCARKSDKHBJ-CRCLSJGQSA-N

$$$$
4S-amino-cyclopent-2-ene-1R-CO2H
     RDKit          2D

  9  9  0  0  0  0  0  0  0  0999 V2000
   -3.3052   -0.8467    0.0000 N   0  0  0  0  0  0  0  0  0  0  0  0
   -1.9481   -0.2077    0.0000 C   0  0  0  0  0  0  0  0  0  0  0  0
   -0.6334   -0.9301    0.0000 C   0  0  0  0  0  0  0  0  0  0  0  0
    0.4598    0.0969    0.0000 C   0  0  0  0  0  0  0  0  0  0  0  0
   -0.1792    1.4541    0.0000 C   0  0  0  0  0  0  0  0  0  0  0  0
   -1.6673    1.2657    0.0000 C   0  0  0  0  0  0  0  0  0  0  0  0
    1.9333   -0.1838    0.0000 C   0  0  0  0  0  0  0  0  0  0  0  0
    2.9132    0.9519    0.0000 O   0  0  0  0  0  0  0  0  0  0  0  0
    2.4269   -1.6003    0.0000 O   0  0  0  0  0  0  0  0  0  0  0  0
  2  1  1  6
  2  3  1  0
  3  4  1  0
  4  5  1  0
  5  6  2  0
  4  7  1  6
  7  8  2  0
  7  9  1  0
  6  2  1  0
M  END
>  <rName>  (458) 
4S-amino-cyclopent-2-ene-1R-CO2H

>  <PQ_SYMBOL>  (458) 
4S-amino-cyclopent-2-ene-1R-CO2H

>  <FULL_NAME>  (458) 
(1R,4S)-4-aminocyclopent-2-ene-1-carboxylic acid

>  <IUPAC_CONDENSED>  (458) 
4S-amino-cyclopent-2-ene-1R-CO2H

>  <IUPAC>  (458) 
(1R,4S)-4-aminocyclopent-2-ene-1-carboxylic acid

>  <TYPE>  (458) 
Backbone

>  <CLASS>  (458) 
gamma

>  <ANALOG>  (458) 
Ala

>  <MOL_WT>  (458) 
127.14299999999997

>  <LOGP>  (458) 
-0.025600000000000345

>  <TPSA>  (458) 
63.32000000000001

>  <POPULARITY>  (458) 
7.1

>  <PROTECTED>  (458) 
TRUE

>  <SMILES>  (458) 
N[C@H]1C[C@H](C=C1)C(=O)O

>  <INCHIKEY>  (458) 
VTCHZFWYUPZZKL-CRCLSJGQSA-N

$$$$
5-Ava
     RDKit          2D

  8  7  0  0  0  0  0  0  0  0999 V2000
    4.2551   -0.1865    0.0000 N   0  0  0  0  0  0  0  0  0  0  0  0
    2.8948    0.4455    0.0000 C   0  0  0  0  0  0  0  0  0  0  0  0
    1.6672   -0.4165    0.0000 C   0  0  0  0  0  0  0  0  0  0  0  0
    0.3069    0.2155    0.0000 C   0  0  0  0  0  0  0  0  0  0  0  0
   -0.9207   -0.6465    0.0000 C   0  0  0  0  0  0  0  0  0  0  0  0
   -2.2810   -0.0145    0.0000 C   0  0  0  0  0  0  0  0  0  0  0  0
   -2.4138    1.4796    0.0000 O   0  0  0  0  0  0  0  0  0  0  0  0
   -3.5085   -0.8766    0.0000 O   0  0  0  0  0  0  0  0  0  0  0  0
  1  2  1  0
  2  3  1  0
  3  4  1  0
  4  5  1  0
  5  6  1  0
  6  7  2  0
  6  8  1  0
M  END
>  <rName>  (459) 
5-Ava

>  <PQ_SYMBOL>  (459) 
5-Ava

>  <FULL_NAME>  (459) 
5-aminovaleric acid

>  <IUPAC_CONDENSED>  (459) 
5-Ava

>  <IUPAC>  (459) 
5-aminopentanoic acid

>  <TYPE>  (459) 
Backbone

>  <CLASS>  (459) 
delta

>  <ANALOG>  (459) 
Gly

>  <MOL_WT>  (459) 
117.14799999999998

>  <LOGP>  (459) 
0.20000000000000012

>  <TPSA>  (459) 
63.32000000000001

>  <POPULARITY>  (459) 
18.9

>  <PROTECTED>  (459) 
TRUE

>  <SMILES>  (459) 
NCCCCC(=O)O

>  <INCHIKEY>  (459) 
JJMDCOVWQOJGCB-UHFFFAOYSA-N

$$$$
5-Ava_22diMe
     RDKit          2D

 10  9  0  0  0  0  0  0  0  0999 V2000
   -4.3904   -0.5043    0.0000 N   0  0  0  0  0  0  0  0  0  0  0  0
   -3.2165    0.4294    0.0000 C   0  0  0  0  0  0  0  0  0  0  0  0
   -1.8209   -0.1204    0.0000 C   0  0  0  0  0  0  0  0  0  0  0  0
   -0.6469    0.8133    0.0000 C   0  0  0  0  0  0  0  0  0  0  0  0
    0.7487    0.2635    0.0000 C   0  0  0  0  0  0  0  0  0  0  0  0
    1.2985    1.6591    0.0000 C   0  0  0  0  0  0  0  0  0  0  0  0
    0.1989   -1.1321    0.0000 C   0  0  0  0  0  0  0  0  0  0  0  0
    2.1443   -0.2863    0.0000 C   0  0  0  0  0  0  0  0  0  0  0  0
    3.3183    0.6475    0.0000 O   0  0  0  0  0  0  0  0  0  0  0  0
    2.3660   -1.7698    0.0000 O   0  0  0  0  0  0  0  0  0  0  0  0
  1  2  1  0
  2  3  1  0
  3  4  1  0
  4  5  1  0
  5  6  1  0
  5  7  1  0
  5  8  1  0
  8  9  2  0
  8 10  1  0
M  END
>  <rName>  (460) 
5-Ava_22diMe

>  <PQ_SYMBOL>  (460) 
5-Ava_22diMe

>  <FULL_NAME>  (460) 
5-Amino-2,2-dimethylpentanoic acid

>  <IUPAC_CONDENSED>  (460) 
5-Ava(2,2-diMe)

>  <IUPAC>  (460) 
5-amino-2,2-dimethylpentanoic acid

>  <TYPE>  (460) 
Backbone

>  <CLASS>  (460) 
delta

>  <ANALOG>  (460) 
Ala

>  <MOL_WT>  (460) 
145.202

>  <LOGP>  (460) 
0.8361000000000001

>  <TPSA>  (460) 
63.32000000000001

>  <POPULARITY>  (460) 
14.3

>  <PROTECTED>  (460) 
TRUE

>  <SMILES>  (460) 
NCCCC(C)(C)C(=O)O

>  <INCHIKEY>  (460) 
BCOUQGKXRXWITB-UHFFFAOYSA-N

$$$$
5-Ava_2CF3
     RDKit          2D

 12 11  0  0  0  0  0  0  0  0999 V2000
   -4.5535   -0.0201    0.0000 N   0  0  0  0  0  0  0  0  0  0  0  0
   -3.2940   -0.8347    0.0000 C   0  0  0  0  0  0  0  0  0  0  0  0
   -1.9587   -0.1513    0.0000 C   0  0  0  0  0  0  0  0  0  0  0  0
   -0.6992   -0.9659    0.0000 C   0  0  0  0  0  0  0  0  0  0  0  0
    0.6361   -0.2825    0.0000 C   0  0  0  0  0  0  0  0  0  0  0  0
    0.7118    1.2156    0.0000 C   0  0  0  0  0  0  0  0  0  0  0  0
    0.7876    2.7137    0.0000 F   0  0  0  0  0  0  0  0  0  0  0  0
    2.2099    1.1399    0.0000 F   0  0  0  0  0  0  0  0  0  0  0  0
   -0.7863    1.2914    0.0000 F   0  0  0  0  0  0  0  0  0  0  0  0
    1.8956   -1.0971    0.0000 C   0  0  0  0  0  0  0  0  0  0  0  0
    1.8198   -2.5952    0.0000 O   0  0  0  0  0  0  0  0  0  0  0  0
    3.2308   -0.4137    0.0000 O   0  0  0  0  0  0  0  0  0  0  0  0
  1  2  1  0
  2  3  1  0
  3  4  1  0
  4  5  1  0
  5  6  1  0
  6  7  1  0
  6  8  1  0
  6  9  1  0
  5 10  1  0
 10 11  2  0
 10 12  1  0
M  END
>  <rName>  (461) 
5-Ava_2CF3

>  <PQ_SYMBOL>  (461) 
5-Ava_2CF3

>  <FULL_NAME>  (461) 
5-Amino-2-(trifluoromethyl)pentanoic acid

>  <IUPAC_CONDENSED>  (461) 
5-Ava(2-CF3)

>  <IUPAC>  (461) 
5-amino-2-(trifluoromethyl)pentanoic acid

>  <TYPE>  (461) 
Backbone

>  <CLASS>  (461) 
delta

>  <ANALOG>  (461) 
X

>  <MOL_WT>  (461) 
185.14499999999998

>  <LOGP>  (461) 
0.9884000000000002

>  <TPSA>  (461) 
63.32000000000001

>  <POPULARITY>  (461) 
4.2

>  <PROTECTED>  (461) 
TRUE

>  <SMILES>  (461) 
NCCCC(C(F)(F)F)C(=O)O

>  <INCHIKEY>  (461) 
ZAZQTIGGNMOFBN-UHFFFAOYSA-N

$$$$
5-Ava_2Me
     RDKit          2D

  9  8  0  0  0  0  0  0  0  0999 V2000
   -3.8768   -0.5760    0.0000 N   0  0  0  0  0  0  0  0  0  0  0  0
   -2.8079    0.4764    0.0000 C   0  0  0  0  0  0  0  0  0  0  0  0
   -1.3621    0.0769    0.0000 C   0  0  0  0  0  0  0  0  0  0  0  0
   -0.2932    1.1292    0.0000 C   0  0  0  0  0  0  0  0  0  0  0  0
    1.1527    0.7297    0.0000 C   0  0  0  0  0  0  0  0  0  0  0  0
    2.2216    1.7821    0.0000 C   0  0  0  0  0  0  0  0  0  0  0  0
    1.5296   -0.7222    0.0000 C   0  0  0  0  0  0  0  0  0  0  0  0
    2.9754   -1.1217    0.0000 O   0  0  0  0  0  0  0  0  0  0  0  0
    0.4607   -1.7745    0.0000 O   0  0  0  0  0  0  0  0  0  0  0  0
  1  2  1  0
  2  3  1  0
  3  4  1  0
  4  5  1  0
  5  6  1  0
  5  7  1  0
  7  8  2  0
  7  9  1  0
M  END
>  <rName>  (462) 
5-Ava_2Me

>  <PQ_SYMBOL>  (462) 
5-Ava_2Me

>  <FULL_NAME>  (462) 
5-Amino-2-methylpentanoic acid

>  <IUPAC_CONDENSED>  (462) 
5-Ava(2-Me)

>  <IUPAC>  (462) 
5-amino-2-methylpentanoic acid

>  <TYPE>  (462) 
Backbone

>  <CLASS>  (462) 
delta

>  <ANALOG>  (462) 
Ala

>  <MOL_WT>  (462) 
131.17499999999998

>  <LOGP>  (462) 
0.4460000000000001

>  <TPSA>  (462) 
63.32000000000001

>  <POPULARITY>  (462) 
16.0

>  <PROTECTED>  (462) 
TRUE

>  <SMILES>  (462) 
NCCCC(C)C(=O)O

>  <INCHIKEY>  (462) 
UTJLXEIPEHZYQJ-UHFFFAOYSA-N

$$$$
5-Ava_2OMe
     RDKit          2D

 10  9  0  0  0  0  0  0  0  0999 V2000
    4.2952   -0.2615    0.0000 N   0  0  0  0  0  0  0  0  0  0  0  0
    3.1211    0.6719    0.0000 C   0  0  0  0  0  0  0  0  0  0  0  0
    1.7256    0.1218    0.0000 C   0  0  0  0  0  0  0  0  0  0  0  0
    0.5514    1.0552    0.0000 C   0  0  0  0  0  0  0  0  0  0  0  0
   -0.8441    0.5050    0.0000 C   0  0  0  0  0  0  0  0  0  0  0  0
   -2.0182    1.4385    0.0000 O   0  0  0  0  0  0  0  0  0  0  0  0
   -3.4137    0.8883    0.0000 C   0  0  0  0  0  0  0  0  0  0  0  0
   -1.0653   -0.9785    0.0000 C   0  0  0  0  0  0  0  0  0  0  0  0
   -2.4608   -1.5287    0.0000 O   0  0  0  0  0  0  0  0  0  0  0  0
    0.1088   -1.9120    0.0000 O   0  0  0  0  0  0  0  0  0  0  0  0
  1  2  1  0
  2  3  1  0
  3  4  1  0
  4  5  1  0
  5  6  1  0
  6  7  1  0
  5  8  1  0
  8  9  2  0
  8 10  1  0
M  END
>  <rName>  (463) 
5-Ava_2OMe

>  <PQ_SYMBOL>  (463) 
5-Ava_2OMe

>  <FULL_NAME>  (463) 
5-Amino-2-methoxypentanoic acid

>  <IUPAC_CONDENSED>  (463) 
5-Ava(2-OMe)

>  <IUPAC>  (463) 
5-amino-2-methoxypentanoic acid

>  <TYPE>  (463) 
Backbone

>  <CLASS>  (463) 
delta

>  <ANALOG>  (463) 
Ser

>  <MOL_WT>  (463) 
147.17399999999998

>  <LOGP>  (463) 
-0.1751000000000001

>  <TPSA>  (463) 
72.55

>  <POPULARITY>  (463) 
12.5

>  <PROTECTED>  (463) 
TRUE

>  <SMILES>  (463) 
NCCCC(OC)C(=O)O

>  <INCHIKEY>  (463) 
AJPSLQOJNYJGMI-UHFFFAOYSA-N

$$$$
5-Ava_3CF3
     RDKit          2D

 12 11  0  0  0  0  0  0  0  0999 V2000
    4.1847   -0.9864    0.0000 N   0  0  0  0  0  0  0  0  0  0  0  0
    2.8406   -0.3204    0.0000 C   0  0  0  0  0  0  0  0  0  0  0  0
    1.5918   -1.1513    0.0000 C   0  0  0  0  0  0  0  0  0  0  0  0
    0.2478   -0.4853    0.0000 C   0  0  0  0  0  0  0  0  0  0  0  0
    0.1526    1.0117    0.0000 C   0  0  0  0  0  0  0  0  0  0  0  0
    0.0574    2.5087    0.0000 F   0  0  0  0  0  0  0  0  0  0  0  0
   -1.3444    0.9165    0.0000 F   0  0  0  0  0  0  0  0  0  0  0  0
    1.6496    1.1069    0.0000 F   0  0  0  0  0  0  0  0  0  0  0  0
   -1.0010   -1.3162    0.0000 C   0  0  0  0  0  0  0  0  0  0  0  0
   -2.3450   -0.6501    0.0000 C   0  0  0  0  0  0  0  0  0  0  0  0
   -2.4402    0.8468    0.0000 O   0  0  0  0  0  0  0  0  0  0  0  0
   -3.5939   -1.4811    0.0000 O   0  0  0  0  0  0  0  0  0  0  0  0
  1  2  1  0
  2  3  1  0
  3  4  1  0
  4  5  1  0
  5  6  1  0
  5  7  1  0
  5  8  1  0
  4  9  1  0
  9 10  1  0
 10 11  2  0
 10 12  1  0
M  END
>  <rName>  (464) 
5-Ava_3CF3

>  <PQ_SYMBOL>  (464) 
5-Ava_3CF3

>  <FULL_NAME>  (464) 
5-Amino-3-(trifluoromethyl)pentanoic acid

>  <IUPAC_CONDENSED>  (464) 
5-Ava(3-CF3)

>  <IUPAC>  (464) 
5-amino-3-(trifluoromethyl)pentanoic acid

>  <TYPE>  (464) 
Backbone

>  <CLASS>  (464) 
delta

>  <ANALOG>  (464) 
X

>  <MOL_WT>  (464) 
185.145

>  <LOGP>  (464) 
0.9884000000000002

>  <TPSA>  (464) 
63.32000000000001

>  <POPULARITY>  (464) 
5.4

>  <PROTECTED>  (464) 
TRUE

>  <SMILES>  (464) 
NCCC(C(F)(F)F)CC(=O)O

>  <INCHIKEY>  (464) 
NBFMNAOCYLBNGU-UHFFFAOYSA-N

$$$$
5-Ava_3Me
     RDKit          2D

  9  8  0  0  0  0  0  0  0  0999 V2000
    2.5981   -1.5000    0.0000 N   0  0  0  0  0  0  0  0  0  0  0  0
    1.2990   -0.7500    0.0000 C   0  0  0  0  0  0  0  0  0  0  0  0
    0.0000   -1.5000    0.0000 C   0  0  0  0  0  0  0  0  0  0  0  0
   -1.2990   -0.7500    0.0000 C   0  0  0  0  0  0  0  0  0  0  0  0
   -2.5981   -1.5000    0.0000 C   0  0  0  0  0  0  0  0  0  0  0  0
   -1.2990    0.7500    0.0000 C   0  0  0  0  0  0  0  0  0  0  0  0
    0.0000    1.5000    0.0000 C   0  0  0  0  0  0  0  0  0  0  0  0
    1.2990    0.7500    0.0000 O   0  0  0  0  0  0  0  0  0  0  0  0
   -0.0000    3.0000    0.0000 O   0  0  0  0  0  0  0  0  0  0  0  0
  1  2  1  0
  2  3  1  0
  3  4  1  0
  4  5  1  0
  4  6  1  0
  6  7  1  0
  7  8  2  0
  7  9  1  0
M  END
>  <rName>  (465) 
5-Ava_3Me

>  <PQ_SYMBOL>  (465) 
5-Ava_3Me

>  <FULL_NAME>  (465) 
5-Amino-3-methylpentanoic acid

>  <IUPAC_CONDENSED>  (465) 
5-Ava(3-Me)

>  <IUPAC>  (465) 
5-amino-3-methylpentanoic acid

>  <TYPE>  (465) 
Backbone

>  <CLASS>  (465) 
delta

>  <ANALOG>  (465) 
Ala

>  <MOL_WT>  (465) 
131.175

>  <LOGP>  (465) 
0.4460000000000001

>  <TPSA>  (465) 
63.32000000000001

>  <POPULARITY>  (465) 
15.9

>  <PROTECTED>  (465) 
TRUE

>  <SMILES>  (465) 
NCCC(C)CC(=O)O

>  <INCHIKEY>  (465) 
KQLVEQAREGFUPP-UHFFFAOYSA-N

$$$$
5-Ava_3SOH
     RDKit          2D

  9  8  0  0  0  0  0  0  0  0999 V2000
    4.2336   -0.4002    0.0000 N   0  0  0  0  0  0  0  0  0  0  0  0
    2.8768    0.2394    0.0000 C   0  0  0  0  0  0  0  0  0  0  0  0
    1.6444   -0.6157    0.0000 C   0  0  0  0  0  0  0  0  0  0  0  0
    0.2877    0.0239    0.0000 C   0  0  0  0  0  0  0  0  0  0  0  0
    0.1633    1.5188    0.0000 O   0  0  0  0  0  0  0  0  0  0  0  0
   -0.9447   -0.8312    0.0000 C   0  0  0  0  0  0  0  0  0  0  0  0
   -2.3014   -0.1915    0.0000 C   0  0  0  0  0  0  0  0  0  0  0  0
   -2.4259    1.3033    0.0000 O   0  0  0  0  0  0  0  0  0  0  0  0
   -3.5338   -1.0467    0.0000 O   0  0  0  0  0  0  0  0  0  0  0  0
  1  2  1  0
  2  3  1  0
  3  4  1  0
  4  5  1  1
  4  6  1  0
  6  7  1  0
  7  8  2  0
  7  9  1  0
M  END
>  <rName>  (466) 
5-Ava_3SOH

>  <PQ_SYMBOL>  (466) 
5-Ava_3SOH

>  <FULL_NAME>  (466) 
(3S)-5-amino-3-hydroxypentanoic acid

>  <IUPAC_CONDENSED>  (466) 
5-Ava(3S-OH)

>  <IUPAC>  (466) 
(3S)-5-amino-3-hydroxypentanoic acid

>  <TYPE>  (466) 
Backbone

>  <CLASS>  (466) 
delta

>  <ANALOG>  (466) 
X

>  <MOL_WT>  (466) 
133.147

>  <LOGP>  (466) 
-0.8292000000000004

>  <TPSA>  (466) 
83.55

>  <POPULARITY>  (466) 
11.9

>  <PROTECTED>  (466) 
TRUE

>  <SMILES>  (466) 
NCC[C@H](O)CC(=O)O

>  <INCHIKEY>  (466) 
KRWVHJOWLJRKRP-BYPYZUCNSA-N

$$$$
5-Ava_44diF
     RDKit          2D

 10  9  0  0  0  0  0  0  0  0999 V2000
   -3.3354    1.3124    0.0000 N   0  0  0  0  0  0  0  0  0  0  0  0
   -2.8480   -0.1062    0.0000 C   0  0  0  0  0  0  0  0  0  0  0  0
   -1.3758   -0.3934    0.0000 C   0  0  0  0  0  0  0  0  0  0  0  0
   -1.0886    1.0789    0.0000 F   0  0  0  0  0  0  0  0  0  0  0  0
   -1.6630   -1.8656    0.0000 F   0  0  0  0  0  0  0  0  0  0  0  0
    0.0965   -0.6806    0.0000 C   0  0  0  0  0  0  0  0  0  0  0  0
    1.0813    0.4508    0.0000 C   0  0  0  0  0  0  0  0  0  0  0  0
    2.5536    0.1636    0.0000 C   0  0  0  0  0  0  0  0  0  0  0  0
    3.0410   -1.2550    0.0000 O   0  0  0  0  0  0  0  0  0  0  0  0
    3.5384    1.2950    0.0000 O   0  0  0  0  0  0  0  0  0  0  0  0
  1  2  1  0
  2  3  1  0
  3  4  1  0
  3  5  1  0
  3  6  1  0
  6  7  1  0
  7  8  1  0
  8  9  2  0
  8 10  1  0
M  END
>  <rName>  (467) 
5-Ava_44diF

>  <PQ_SYMBOL>  (467) 
5-Ava_44diF

>  <FULL_NAME>  (467) 
5-Amino-4,4-difluoropentanoic acid

>  <IUPAC_CONDENSED>  (467) 
5-Ava(4,4-diF)

>  <IUPAC>  (467) 
5-amino-4,4-difluoropentanoic acid

>  <TYPE>  (467) 
Backbone

>  <CLASS>  (467) 
delta

>  <ANALOG>  (467) 
X

>  <MOL_WT>  (467) 
153.12800000000001

>  <LOGP>  (467) 
0.44519999999999976

>  <TPSA>  (467) 
63.32000000000001

>  <POPULARITY>  (467) 
7.6

>  <PROTECTED>  (467) 
TRUE

>  <SMILES>  (467) 
NCC(F)(F)CCC(=O)O

>  <INCHIKEY>  (467) 
HWZHYOODDZJODV-UHFFFAOYSA-N

$$$$
5-Ava_44diMe
     RDKit          2D

 10  9  0  0  0  0  0  0  0  0999 V2000
    3.3354   -1.3124    0.0000 N   0  0  0  0  0  0  0  0  0  0  0  0
    2.8480    0.1062    0.0000 C   0  0  0  0  0  0  0  0  0  0  0  0
    1.3758    0.3934    0.0000 C   0  0  0  0  0  0  0  0  0  0  0  0
    1.6630    1.8656    0.0000 C   0  0  0  0  0  0  0  0  0  0  0  0
    1.0886   -1.0789    0.0000 C   0  0  0  0  0  0  0  0  0  0  0  0
   -0.0965    0.6806    0.0000 C   0  0  0  0  0  0  0  0  0  0  0  0
   -1.0813   -0.4508    0.0000 C   0  0  0  0  0  0  0  0  0  0  0  0
   -2.5536   -0.1636    0.0000 C   0  0  0  0  0  0  0  0  0  0  0  0
   -3.0410    1.2550    0.0000 O   0  0  0  0  0  0  0  0  0  0  0  0
   -3.5384   -1.2950    0.0000 O   0  0  0  0  0  0  0  0  0  0  0  0
  1  2  1  0
  2  3  1  0
  3  4  1  0
  3  5  1  0
  3  6  1  0
  6  7  1  0
  7  8  1  0
  8  9  2  0
  8 10  1  0
M  END
>  <rName>  (468) 
5-Ava_44diMe

>  <PQ_SYMBOL>  (468) 
5-Ava_44diMe

>  <FULL_NAME>  (468) 
5-Amino-4,4-dimethylpentanoic acid

>  <IUPAC_CONDENSED>  (468) 
5-Ava(4,4-diMe)

>  <IUPAC>  (468) 
5-amino-4,4-dimethylpentanoic acid

>  <TYPE>  (468) 
Backbone

>  <CLASS>  (468) 
delta

>  <ANALOG>  (468) 
Ala

>  <MOL_WT>  (468) 
145.202

>  <LOGP>  (468) 
0.8361000000000001

>  <TPSA>  (468) 
63.32000000000001

>  <POPULARITY>  (468) 
13.9

>  <PROTECTED>  (468) 
TRUE

>  <SMILES>  (468) 
NCC(C)(C)CCC(=O)O

>  <INCHIKEY>  (468) 
KUOPIRGTHFYVDC-UHFFFAOYSA-N

$$$$
5-Ava_4CF3
     RDKit          2D

 12 11  0  0  0  0  0  0  0  0999 V2000
    3.4371    1.3402    0.0000 N   0  0  0  0  0  0  0  0  0  0  0  0
    1.9731    1.6670    0.0000 C   0  0  0  0  0  0  0  0  0  0  0  0
    0.9581    0.5625    0.0000 C   0  0  0  0  0  0  0  0  0  0  0  0
    1.4070   -0.8687    0.0000 C   0  0  0  0  0  0  0  0  0  0  0  0
    1.8560   -2.2999    0.0000 F   0  0  0  0  0  0  0  0  0  0  0  0
   -0.0242   -1.3176    0.0000 F   0  0  0  0  0  0  0  0  0  0  0  0
    2.8383   -0.4197    0.0000 F   0  0  0  0  0  0  0  0  0  0  0  0
   -0.5059    0.8894    0.0000 C   0  0  0  0  0  0  0  0  0  0  0  0
   -1.5209   -0.2151    0.0000 C   0  0  0  0  0  0  0  0  0  0  0  0
   -2.9849    0.1117    0.0000 C   0  0  0  0  0  0  0  0  0  0  0  0
   -3.4338    1.5430    0.0000 O   0  0  0  0  0  0  0  0  0  0  0  0
   -3.9999   -0.9927    0.0000 O   0  0  0  0  0  0  0  0  0  0  0  0
  1  2  1  0
  2  3  1  0
  3  4  1  0
  4  5  1  0
  4  6  1  0
  4  7  1  0
  3  8  1  0
  8  9  1  0
  9 10  1  0
 10 11  2  0
 10 12  1  0
M  END
>  <rName>  (469) 
5-Ava_4CF3

>  <PQ_SYMBOL>  (469) 
5-Ava_4CF3

>  <FULL_NAME>  (469) 
4-(Aminomethyl)-5,5,5-trifluoropentanoic acid

>  <IUPAC_CONDENSED>  (469) 
5-Ava(4-CF3)

>  <IUPAC>  (469) 
5-amino-4-(trifluoromethyl)pentanoic acid

>  <TYPE>  (469) 
Backbone

>  <CLASS>  (469) 
delta

>  <ANALOG>  (469) 
X

>  <MOL_WT>  (469) 
185.145

>  <LOGP>  (469) 
0.9884

>  <TPSA>  (469) 
63.32000000000001

>  <POPULARITY>  (469) 
6.4

>  <PROTECTED>  (469) 
TRUE

>  <SMILES>  (469) 
NCC(C(F)(F)F)CCC(=O)O

>  <INCHIKEY>  (469) 
AERPGFVGUBZEGI-UHFFFAOYSA-N

$$$$
5-Ava_4Me
     RDKit          2D

  9  8  0  0  0  0  0  0  0  0999 V2000
    1.1993   -2.0831    0.0000 N   0  0  0  0  0  0  0  0  0  0  0  0
    2.2407   -1.0035    0.0000 C   0  0  0  0  0  0  0  0  0  0  0  0
    1.8264    0.4382    0.0000 C   0  0  0  0  0  0  0  0  0  0  0  0
    2.8678    1.5178    0.0000 C   0  0  0  0  0  0  0  0  0  0  0  0
    0.3708    0.8002    0.0000 C   0  0  0  0  0  0  0  0  0  0  0  0
   -0.6706   -0.2794    0.0000 C   0  0  0  0  0  0  0  0  0  0  0  0
   -2.1263    0.0826    0.0000 C   0  0  0  0  0  0  0  0  0  0  0  0
   -2.5405    1.5243    0.0000 O   0  0  0  0  0  0  0  0  0  0  0  0
   -3.1676   -0.9970    0.0000 O   0  0  0  0  0  0  0  0  0  0  0  0
  1  2  1  0
  2  3  1  0
  3  4  1  0
  3  5  1  0
  5  6  1  0
  6  7  1  0
  7  8  2  0
  7  9  1  0
M  END
>  <rName>  (470) 
5-Ava_4Me

>  <PQ_SYMBOL>  (470) 
5-Ava_4Me

>  <FULL_NAME>  (470) 
5-Amino-4-methylpentanoic acid

>  <IUPAC_CONDENSED>  (470) 
5-Ava(4-Me)

>  <IUPAC>  (470) 
5-amino-4-methylpentanoic acid

>  <TYPE>  (470) 
Backbone

>  <CLASS>  (470) 
delta

>  <ANALOG>  (470) 
Ala

>  <MOL_WT>  (470) 
131.175

>  <LOGP>  (470) 
0.4460000000000001

>  <TPSA>  (470) 
63.32000000000001

>  <POPULARITY>  (470) 
16.4

>  <PROTECTED>  (470) 
TRUE

>  <SMILES>  (470) 
NCC(C)CCC(=O)O

>  <INCHIKEY>  (470) 
PSNUVGIVZCOHME-UHFFFAOYSA-N

$$$$
5-Ava_4OMe
     RDKit          2D

 10  9  0  0  0  0  0  0  0  0999 V2000
   -0.5385   -2.2655    0.0000 N   0  0  0  0  0  0  0  0  0  0  0  0
   -1.6847   -1.2979    0.0000 C   0  0  0  0  0  0  0  0  0  0  0  0
   -1.4197    0.1786    0.0000 C   0  0  0  0  0  0  0  0  0  0  0  0
   -2.5659    1.1462    0.0000 O   0  0  0  0  0  0  0  0  0  0  0  0
   -3.9770    0.6374    0.0000 C   0  0  0  0  0  0  0  0  0  0  0  0
   -0.0086    0.6873    0.0000 C   0  0  0  0  0  0  0  0  0  0  0  0
    1.1375   -0.2803    0.0000 C   0  0  0  0  0  0  0  0  0  0  0  0
    2.5486    0.2285    0.0000 C   0  0  0  0  0  0  0  0  0  0  0  0
    2.8135    1.7049    0.0000 O   0  0  0  0  0  0  0  0  0  0  0  0
    3.6947   -0.7392    0.0000 O   0  0  0  0  0  0  0  0  0  0  0  0
  1  2  1  0
  2  3  1  0
  3  4  1  0
  4  5  1  0
  3  6  1  0
  6  7  1  0
  7  8  1  0
  8  9  2  0
  8 10  1  0
M  END
>  <rName>  (471) 
5-Ava_4OMe

>  <PQ_SYMBOL>  (471) 
5-Ava_4OMe

>  <FULL_NAME>  (471) 
5-Amino-4-methoxypentanoic acid

>  <IUPAC_CONDENSED>  (471) 
5-Ava(4-OMe)

>  <IUPAC>  (471) 
5-amino-4-methoxypentanoic acid

>  <TYPE>  (471) 
Backbone

>  <CLASS>  (471) 
delta

>  <ANALOG>  (471) 
Ser

>  <MOL_WT>  (471) 
147.174

>  <LOGP>  (471) 
-0.17510000000000053

>  <TPSA>  (471) 
72.55

>  <POPULARITY>  (471) 
12.9

>  <PROTECTED>  (471) 
TRUE

>  <SMILES>  (471) 
NCC(OC)CCC(=O)O

>  <INCHIKEY>  (471) 
RDQYWXWVDIQUBZ-UHFFFAOYSA-N

$$$$
5-Ava_4carbonyl
     RDKit          2D

  9  8  0  0  0  0  0  0  0  0999 V2000
    4.0458    0.2755    0.0000 N   0  0  0  0  0  0  0  0  0  0  0  0
    2.6491    0.8225    0.0000 C   0  0  0  0  0  0  0  0  0  0  0  0
    1.4770   -0.1135    0.0000 C   0  0  0  0  0  0  0  0  0  0  0  0
    1.7016   -1.5966    0.0000 O   0  0  0  0  0  0  0  0  0  0  0  0
    0.0803    0.4336    0.0000 C   0  0  0  0  0  0  0  0  0  0  0  0
   -1.0918   -0.5025    0.0000 C   0  0  0  0  0  0  0  0  0  0  0  0
   -2.4885    0.0446    0.0000 C   0  0  0  0  0  0  0  0  0  0  0  0
   -2.7130    1.5277    0.0000 O   0  0  0  0  0  0  0  0  0  0  0  0
   -3.6606   -0.8914    0.0000 O   0  0  0  0  0  0  0  0  0  0  0  0
  1  2  1  0
  2  3  1  0
  3  4  2  0
  3  5  1  0
  5  6  1  0
  6  7  1  0
  7  8  2  0
  7  9  1  0
M  END
>  <rName>  (472) 
5-Ava_4carbonyl

>  <PQ_SYMBOL>  (472) 
5-Ava_4carbonyl

>  <FULL_NAME>  (472) 
5-amino-4-oxopentanoic acid

>  <IUPAC_CONDENSED>  (472) 
5-Ava(4-carbonyl)

>  <IUPAC>  (472) 
5-amino-4-oxopentanoic acid

>  <TYPE>  (472) 
Backbone

>  <CLASS>  (472) 
delta

>  <ANALOG>  (472) 
Gly

>  <MOL_WT>  (472) 
131.131

>  <LOGP>  (472) 
-0.6210000000000004

>  <TPSA>  (472) 
80.39

>  <POPULARITY>  (472) 
12.1

>  <PROTECTED>  (472) 
TRUE

>  <SMILES>  (472) 
NCC(=O)CCC(=O)O

>  <INCHIKEY>  (472) 
ZGXJTSGNIOSYLO-UHFFFAOYSA-N

$$$$
5-amino-3-oxabicyclo311heptane-1-CO2H
     RDKit          2D

 11 12  0  0  0  0  0  0  0  0999 V2000
    3.0251    0.0168    0.0000 N   0  0  0  0  0  0  0  0  0  0  0  0
    1.8111   -0.7198    0.0000 C   0  0  0  0  0  0  0  0  0  0  0  0
    0.5971   -1.4564    0.0000 C   0  0  0  0  0  0  0  0  0  0  0  0
   -0.6478   -0.7734    0.0000 C   0  0  0  0  0  0  0  0  0  0  0  0
   -0.6787    0.6463    0.0000 C   0  0  0  0  0  0  0  0  0  0  0  0
    0.5353    1.3829    0.0000 O   0  0  0  0  0  0  0  0  0  0  0  0
    1.7802    0.6998    0.0000 C   0  0  0  0  0  0  0  0  0  0  0  0
    0.5708   -0.2467    0.0000 C   0  0  0  0  0  0  0  0  0  0  0  0
   -1.8927   -0.0903    0.0000 C   0  0  0  0  0  0  0  0  0  0  0  0
   -1.9254    1.4093    0.0000 O   0  0  0  0  0  0  0  0  0  0  0  0
   -3.1751   -0.8684    0.0000 O   0  0  0  0  0  0  0  0  0  0  0  0
  1  2  1  0
  2  3  1  0
  3  4  1  0
  4  5  1  0
  5  6  1  0
  6  7  1  0
  4  8  1  0
  4  9  1  0
  9 10  2  0
  9 11  1  0
  7  2  1  0
  8  2  1  0
M  END
>  <rName>  (473) 
5-amino-3-oxabicyclo311heptane-1-CO2H

>  <PQ_SYMBOL>  (473) 
5-amino-3-oxabicyclo311heptane-1-CO2H

>  <FULL_NAME>  (473) 
5-Amino-3-oxabicyclo[3.1.1]heptane-1-carboxylic acid

>  <IUPAC_CONDENSED>  (473) 
5-amino-3-oxabicyclo[3.1.1]heptane-1-CO2H

>  <IUPAC>  (473) 
5-amino-3-oxabicyclo[3.1.1]heptane-1-carboxylic acid

>  <TYPE>  (473) 
Backbone

>  <CLASS>  (473) 
gamma

>  <ANALOG>  (473) 
Ser

>  <MOL_WT>  (473) 
157.169

>  <LOGP>  (473) 
-0.42110000000000053

>  <TPSA>  (473) 
72.55

>  <POPULARITY>  (473) 
2.6

>  <PROTECTED>  (473) 
TRUE

>  <SMILES>  (473) 
NC12CC(COC1)(C2)C(=O)O

>  <INCHIKEY>  (473) 
XXYQWQQIBAUDHC-UHFFFAOYSA-N

$$$$
5-amino-bicyclo311heptane-1-CO2H
     RDKit          2D

 11 12  0  0  0  0  0  0  0  0999 V2000
    3.0251    0.0168    0.0000 N   0  0  0  0  0  0  0  0  0  0  0  0
    1.8111   -0.7198    0.0000 C   0  0  0  0  0  0  0  0  0  0  0  0
    0.5971   -1.4564    0.0000 C   0  0  0  0  0  0  0  0  0  0  0  0
   -0.6478   -0.7734    0.0000 C   0  0  0  0  0  0  0  0  0  0  0  0
   -0.6787    0.6463    0.0000 C   0  0  0  0  0  0  0  0  0  0  0  0
    0.5353    1.3829    0.0000 C   0  0  0  0  0  0  0  0  0  0  0  0
    1.7802    0.6998    0.0000 C   0  0  0  0  0  0  0  0  0  0  0  0
    0.5708   -0.2467    0.0000 C   0  0  0  0  0  0  0  0  0  0  0  0
   -1.8927   -0.0903    0.0000 C   0  0  0  0  0  0  0  0  0  0  0  0
   -1.9254    1.4093    0.0000 O   0  0  0  0  0  0  0  0  0  0  0  0
   -3.1751   -0.8684    0.0000 O   0  0  0  0  0  0  0  0  0  0  0  0
  1  2  1  0
  2  3  1  0
  3  4  1  0
  4  5  1  0
  5  6  1  0
  6  7  1  0
  4  8  1  0
  4  9  1  0
  9 10  2  0
  9 11  1  0
  7  2  1  0
  8  2  1  0
M  END
>  <rName>  (474) 
5-amino-bicyclo311heptane-1-CO2H

>  <PQ_SYMBOL>  (474) 
5-amino-bicyclo311heptane-1-CO2H

>  <FULL_NAME>  (474) 
5-Aminonorpinane-1-carboxylic acid

>  <IUPAC_CONDENSED>  (474) 
5-amino-bicyclo[3.1.1]heptane-1-CO2H

>  <IUPAC>  (474) 
5-aminobicyclo[3.1.1]heptane-1-carboxylic acid

>  <TYPE>  (474) 
Backbone

>  <CLASS>  (474) 
gamma

>  <ANALOG>  (474) 
Leu

>  <MOL_WT>  (474) 
155.197

>  <LOGP>  (474) 
0.7325999999999997

>  <TPSA>  (474) 
63.32000000000001

>  <POPULARITY>  (474) 
2.8

>  <PROTECTED>  (474) 
TRUE

>  <SMILES>  (474) 
NC12CC(CCC1)(C2)C(=O)O

>  <INCHIKEY>  (474) 
ANOAGBGBTWMTTC-UHFFFAOYSA-N

$$$$
5-amino-cycloheptane-1-CO2H_44diF
     RDKit          2D

 13 13  0  0  0  0  0  0  0  0999 V2000
   -3.0838   -1.6067    0.0000 N   0  0  0  0  0  0  0  0  0  0  0  0
   -1.7584   -0.9043    0.0000 C   0  0  0  0  0  0  0  0  0  0  0  0
   -0.5505   -1.7937    0.0000 C   0  0  0  0  0  0  0  0  0  0  0  0
    0.8980   -1.4038    0.0000 C   0  0  0  0  0  0  0  0  0  0  0  0
    1.4962   -0.0283    0.0000 C   0  0  0  0  0  0  0  0  0  0  0  0
    0.7938    1.2971    0.0000 C   0  0  0  0  0  0  0  0  0  0  0  0
   -0.6803    1.5743    0.0000 C   0  0  0  0  0  0  0  0  0  0  0  0
   -1.8162    0.5946    0.0000 C   0  0  0  0  0  0  0  0  0  0  0  0
   -3.2646    0.2047    0.0000 F   0  0  0  0  0  0  0  0  0  0  0  0
   -2.5186    1.9199    0.0000 F   0  0  0  0  0  0  0  0  0  0  0  0
    2.9951    0.0295    0.0000 C   0  0  0  0  0  0  0  0  0  0  0  0
    3.6945    1.3565    0.0000 O   0  0  0  0  0  0  0  0  0  0  0  0
    3.7946   -1.2397    0.0000 O   0  0  0  0  0  0  0  0  0  0  0  0
  1  2  1  0
  2  3  1  0
  3  4  1  0
  4  5  1  0
  5  6  1  0
  6  7  1  0
  7  8  1  0
  8  9  1  0
  8 10  1  0
  5 11  1  0
 11 12  2  0
 11 13  1  0
  8  2  1  0
M  END
>  <rName>  (475) 
5-amino-cycloheptane-1-CO2H_44diF

>  <PQ_SYMBOL>  (475) 
5-amino-cycloheptane-1-CO2H_44diF

>  <FULL_NAME>  (475) 
5-Amino-4,4-difluorocycloheptane-1-carboxylic acid

>  <IUPAC_CONDENSED>  (475) 
5-amino-cycloheptane-1-CO2H(4,4-diF)

>  <IUPAC>  (475) 
4-amino-5,5-difluorocycloheptanecarboxylic acid

>  <TYPE>  (475) 
Backbone

>  <CLASS>  (475) 
delta

>  <ANALOG>  (475) 
X

>  <MOL_WT>  (475) 
193.19299999999998

>  <LOGP>  (475) 
1.2238

>  <TPSA>  (475) 
63.32000000000001

>  <POPULARITY>  (475) 
2.9

>  <PROTECTED>  (475) 
TRUE

>  <SMILES>  (475) 
NC1CCC(CCC1(F)F)C(=O)O

>  <INCHIKEY>  (475) 
SGFYFJOWIMZNEZ-UHFFFAOYSA-N

$$$$
5-amino-oxane-3-CO2H_3R_5S
     RDKit          2D

 10 10  0  0  0  0  0  0  0  0999 V2000
    2.9197   -1.6440    0.0000 N   0  0  0  0  0  0  0  0  0  0  0  0
    1.8615   -0.5809    0.0000 C   0  0  0  0  0  0  0  0  0  0  0  0
    0.4117   -0.9659    0.0000 C   0  0  0  0  0  0  0  0  0  0  0  0
   -0.6466    0.0971    0.0000 C   0  0  0  0  0  0  0  0  0  0  0  0
   -0.2551    1.5451    0.0000 C   0  0  0  0  0  0  0  0  0  0  0  0
    1.1946    1.9301    0.0000 O   0  0  0  0  0  0  0  0  0  0  0  0
    2.2529    0.8671    0.0000 C   0  0  0  0  0  0  0  0  0  0  0  0
   -2.0963   -0.2879    0.0000 C   0  0  0  0  0  0  0  0  0  0  0  0
   -2.4878   -1.7359    0.0000 O   0  0  0  0  0  0  0  0  0  0  0  0
   -3.1546    0.7752    0.0000 O   0  0  0  0  0  0  0  0  0  0  0  0
  2  1  1  1
  2  3  1  0
  3  4  1  0
  4  5  1  0
  5  6  1  0
  6  7  1  0
  4  8  1  1
  8  9  2  0
  8 10  1  0
  7  2  1  0
M  END
>  <rName>  (476) 
5-amino-oxane-3-CO2H_3R_5S

>  <PQ_SYMBOL>  (476) 
5-amino-oxane-3-CO2H_3R_5S

>  <FULL_NAME>  (476) 
rac-(3R,5S)-5-aminooxane-3-carboxylic acid

>  <IUPAC_CONDENSED>  (476) 
5-amino-oxane-3-CO2H(3R,5S)

>  <IUPAC>  (476) 
(3R,5S)-5-aminooxane-3-carboxylic acid

>  <TYPE>  (476) 
Backbone

>  <CLASS>  (476) 
gamma

>  <ANALOG>  (476) 
Ser

>  <MOL_WT>  (476) 
145.15800000000002

>  <LOGP>  (476) 
-0.5652000000000004

>  <TPSA>  (476) 
72.55

>  <POPULARITY>  (476) 
3.9

>  <PROTECTED>  (476) 
TRUE

>  <SMILES>  (476) 
N[C@H]1C[C@H](COC1)C(=O)O

>  <INCHIKEY>  (476) 
HQELMMYWNKKPPG-UHNVWZDZSA-N

$$$$
5-amino-oxepane-4-CO2H
     RDKit          2D

 11 11  0  0  0  0  0  0  0  0999 V2000
    1.0292   -2.2063    0.0000 N   0  0  0  0  0  0  0  0  0  0  0  0
   -0.0141   -1.1285    0.0000 C   0  0  0  0  0  0  0  0  0  0  0  0
    0.5043    0.2791    0.0000 C   0  0  0  0  0  0  0  0  0  0  0  0
   -0.2730    1.5620    0.0000 C   0  0  0  0  0  0  0  0  0  0  0  0
   -1.7607    1.7541    0.0000 C   0  0  0  0  0  0  0  0  0  0  0  0
   -2.8384    0.7108    0.0000 O   0  0  0  0  0  0  0  0  0  0  0  0
   -2.6947   -0.7823    0.0000 C   0  0  0  0  0  0  0  0  0  0  0  0
   -1.4378   -1.6009    0.0000 C   0  0  0  0  0  0  0  0  0  0  0  0
    1.9974    0.4228    0.0000 C   0  0  0  0  0  0  0  0  0  0  0  0
    2.6195    1.7877    0.0000 O   0  0  0  0  0  0  0  0  0  0  0  0
    2.8684   -0.7985    0.0000 O   0  0  0  0  0  0  0  0  0  0  0  0
  1  2  1  0
  2  3  1  0
  3  4  1  0
  4  5  1  0
  5  6  1  0
  6  7  1  0
  7  8  1  0
  3  9  1  0
  9 10  2  0
  9 11  1  0
  8  2  1  0
M  END
>  <rName>  (477) 
5-amino-oxepane-4-CO2H

>  <PQ_SYMBOL>  (477) 
5-amino-oxepane-4-CO2H

>  <FULL_NAME>  (477) 
5-Aminooxepane-4-carboxylic acid

>  <IUPAC_CONDENSED>  (477) 
5-amino-oxepane-4-CO2H

>  <IUPAC>  (477) 
5-amino-1-oxacycloheptane-4-carboxylic acid

>  <TYPE>  (477) 
Backbone

>  <CLASS>  (477) 
beta

>  <ANALOG>  (477) 
Ser

>  <MOL_WT>  (477) 
159.185

>  <LOGP>  (477) 
-0.17510000000000053

>  <TPSA>  (477) 
72.55

>  <POPULARITY>  (477) 
3.4

>  <PROTECTED>  (477) 
TRUE

>  <SMILES>  (477) 
NC1C(CCOCC1)C(=O)O

>  <INCHIKEY>  (477) 
ROEYMEUWFDFJBY-UHFFFAOYSA-N

$$$$
5-amino-spiro23hexane-1-CO2H_22diF
     RDKit          2D

 12 13  0  0  0  0  0  0  0  0999 V2000
    3.9075   -1.1375    0.0000 N   0  0  0  0  0  0  0  0  0  0  0  0
    2.5096   -0.5938    0.0000 C   0  0  0  0  0  0  0  0  0  0  0  0
    1.1365   -1.1978    0.0000 C   0  0  0  0  0  0  0  0  0  0  0  0
    0.5325    0.1752    0.0000 C   0  0  0  0  0  0  0  0  0  0  0  0
    1.9055    0.7792    0.0000 C   0  0  0  0  0  0  0  0  0  0  0  0
   -0.9500   -0.0529    0.0000 C   0  0  0  0  0  0  0  0  0  0  0  0
   -0.4063    1.3451    0.0000 C   0  0  0  0  0  0  0  0  0  0  0  0
   -1.6886    2.1234    0.0000 F   0  0  0  0  0  0  0  0  0  0  0  0
    0.5828    2.4728    0.0000 F   0  0  0  0  0  0  0  0  0  0  0  0
   -2.1199   -0.9917    0.0000 C   0  0  0  0  0  0  0  0  0  0  0  0
   -1.8918   -2.4742    0.0000 O   0  0  0  0  0  0  0  0  0  0  0  0
   -3.5179   -0.4479    0.0000 O   0  0  0  0  0  0  0  0  0  0  0  0
  1  2  1  0
  2  3  1  0
  3  4  1  0
  4  5  1  0
  4  6  1  0
  6  7  1  0
  7  8  1  0
  7  9  1  0
  6 10  1  0
 10 11  2  0
 10 12  1  0
  7  4  1  0
  5  2  1  0
M  END
>  <rName>  (478) 
5-amino-spiro23hexane-1-CO2H_22diF

>  <PQ_SYMBOL>  (478) 
5-amino-spiro23hexane-1-CO2H_22diF

>  <FULL_NAME>  (478) 
5-Amino-2,2-difluorospiro[2.3]hexane-1-carboxylic acid

>  <IUPAC_CONDENSED>  (478) 
5-amino-spiro[2.3]hexane-1-CO2H(2,2-diF)

>  <IUPAC>  (478) 
5-amino-2,2-difluorospiro[2.3]hexane-1-carboxylic acid

>  <TYPE>  (478) 
Backbone

>  <CLASS>  (478) 
delta

>  <ANALOG>  (478) 
X

>  <MOL_WT>  (478) 
177.14999999999998

>  <LOGP>  (478) 
0.44359999999999994

>  <TPSA>  (478) 
63.32000000000001

>  <POPULARITY>  (478) 
2.7

>  <PROTECTED>  (478) 
TRUE

>  <SMILES>  (478) 
NC2CC1(C2)C(C1(F)F)C(=O)O

>  <INCHIKEY>  (478) 
CTMDPOXILTUJTM-UHFFFAOYSA-N

$$$$
5-amino-spiro23hexane-5-CO2H
     RDKit          2D

 10 11  0  0  0  0  0  0  0  0999 V2000
    1.3293   -1.6791    0.0000 N   0  0  0  0  0  0  0  0  0  0  0  0
    0.5026   -0.4275    0.0000 C   0  0  0  0  0  0  0  0  0  0  0  0
   -0.7490   -1.2543    0.0000 C   0  0  0  0  0  0  0  0  0  0  0  0
   -1.5758   -0.0027    0.0000 C   0  0  0  0  0  0  0  0  0  0  0  0
   -2.9987   -0.4774    0.0000 C   0  0  0  0  0  0  0  0  0  0  0  0
   -2.6983    0.9923    0.0000 C   0  0  0  0  0  0  0  0  0  0  0  0
   -0.3242    0.8241    0.0000 C   0  0  0  0  0  0  0  0  0  0  0  0
    1.7542    0.3993    0.0000 C   0  0  0  0  0  0  0  0  0  0  0  0
    1.6639    1.8966    0.0000 O   0  0  0  0  0  0  0  0  0  0  0  0
    3.0959   -0.2712    0.0000 O   0  0  0  0  0  0  0  0  0  0  0  0
  1  2  1  0
  2  3  1  0
  3  4  1  0
  4  5  1  0
  5  6  1  0
  4  7  1  0
  2  8  1  0
  8  9  2  0
  8 10  1  0
  6  4  1  0
  7  2  1  0
M  END
>  <rName>  (479) 
5-amino-spiro23hexane-5-CO2H

>  <PQ_SYMBOL>  (479) 
5-amino-spiro23hexane-5-CO2H

>  <FULL_NAME>  (479) 
5-Aminospiro[2.3]hexane-5-carboxylic acid

>  <IUPAC_CONDENSED>  (479) 
5-amino-spiro[2.3]hexane-5-CO2H

>  <IUPAC>  (479) 
5-aminospiro[2.3]hexane-5-carboxylic acid

>  <TYPE>  (479) 
Backbone

>  <CLASS>  (479) 
alpha

>  <ANALOG>  (479) 
X

>  <MOL_WT>  (479) 
141.17000000000002

>  <LOGP>  (479) 
0.34249999999999975

>  <TPSA>  (479) 
63.32000000000001

>  <POPULARITY>  (479) 
2.7

>  <PROTECTED>  (479) 
TRUE

>  <SMILES>  (479) 
NC2(CC1(CC1)C2)C(=O)O

>  <INCHIKEY>  (479) 
FBVUPDDWFXPCTI-UHFFFAOYSA-N

$$$$
5-aminomethyl-3-oxabicyclo311heptane-1-CO2H
     RDKit          2D

 12 13  0  0  0  0  0  0  0  0999 V2000
    4.0122   -0.3855    0.0000 N   0  0  0  0  0  0  0  0  0  0  0  0
    2.6529    0.2489    0.0000 C   0  0  0  0  0  0  0  0  0  0  0  0
    1.4894   -0.5653    0.0000 C   0  0  0  0  0  0  0  0  0  0  0  0
    0.3260   -1.3794    0.0000 C   0  0  0  0  0  0  0  0  0  0  0  0
   -0.9608   -0.7789    0.0000 C   0  0  0  0  0  0  0  0  0  0  0  0
   -1.0841    0.6357    0.0000 C   0  0  0  0  0  0  0  0  0  0  0  0
    0.0793    1.4499    0.0000 O   0  0  0  0  0  0  0  0  0  0  0  0
    1.3661    0.8494    0.0000 C   0  0  0  0  0  0  0  0  0  0  0  0
    0.2209   -0.1740    0.0000 C   0  0  0  0  0  0  0  0  0  0  0  0
   -2.2476   -0.1784    0.0000 C   0  0  0  0  0  0  0  0  0  0  0  0
   -2.3778    1.3159    0.0000 O   0  0  0  0  0  0  0  0  0  0  0  0
   -3.4765   -1.0384    0.0000 O   0  0  0  0  0  0  0  0  0  0  0  0
  1  2  1  0
  2  3  1  0
  3  4  1  0
  4  5  1  0
  5  6  1  0
  6  7  1  0
  7  8  1  0
  5  9  1  0
  5 10  1  0
 10 11  2  0
 10 12  1  0
  8  3  1  0
  9  3  1  0
M  END
>  <rName>  (480) 
5-aminomethyl-3-oxabicyclo311heptane-1-CO2H

>  <PQ_SYMBOL>  (480) 
5-aminomethyl-3-oxabicyclo311heptane-1-CO2H

>  <FULL_NAME>  (480) 
5-(Aminomethyl)-3-oxabicyclo[3.1.1]heptane-1-carboxylic acid

>  <IUPAC_CONDENSED>  (480) 
5-aminomethyl-3-oxabicyclo[3.1.1]heptane-1-CO2H

>  <IUPAC>  (480) 
5-(aminomethyl)-3-oxabicyclo[3.1.1]heptane-1-carboxylic acid

>  <TYPE>  (480) 
Backbone

>  <CLASS>  (480) 
delta

>  <ANALOG>  (480) 
Ser

>  <MOL_WT>  (480) 
171.196

>  <LOGP>  (480) 
-0.17350000000000027

>  <TPSA>  (480) 
72.55

>  <POPULARITY>  (480) 
2.5

>  <PROTECTED>  (480) 
TRUE

>  <SMILES>  (480) 
NCC12CC(COC1)(C2)C(=O)O

>  <INCHIKEY>  (480) 
WGMUALNAXKVDFL-UHFFFAOYSA-N

$$$$
5-aminomethyl-6-oxabicyclo321octane-1-CO2H
     RDKit          2D

 13 14  0  0  0  0  0  0  0  0999 V2000
   -3.6763    1.4360    0.0000 N   0  0  0  0  0  0  0  0  0  0  0  0
   -2.2020    1.1595    0.0000 C   0  0  0  0  0  0  0  0  0  0  0  0
   -1.7309   -0.1801    0.0000 C   0  0  0  0  0  0  0  0  0  0  0  0
   -0.2005   -0.8532    0.0000 C   0  0  0  0  0  0  0  0  0  0  0  0
    1.4403   -0.5324    0.0000 C   0  0  0  0  0  0  0  0  0  0  0  0
    0.9734   -1.8734    0.0000 C   0  0  0  0  0  0  0  0  0  0  0  0
   -0.3662   -2.3445    0.0000 C   0  0  0  0  0  0  0  0  0  0  0  0
   -1.5697   -1.5909    0.0000 C   0  0  0  0  0  0  0  0  0  0  0  0
    0.6829    0.6688    0.0000 C   0  0  0  0  0  0  0  0  0  0  0  0
   -0.7284    0.8255    0.0000 O   0  0  0  0  0  0  0  0  0  0  0  0
    2.1939    0.6712    0.0000 C   0  0  0  0  0  0  0  0  0  0  0  0
    1.4909    1.9962    0.0000 O   0  0  0  0  0  0  0  0  0  0  0  0
    3.6929    0.6174    0.0000 O   0  0  0  0  0  0  0  0  0  0  0  0
  1  2  1  0
  2  3  1  0
  3  4  1  0
  4  5  1  0
  5  6  1  0
  6  7  1  0
  7  8  1  0
  5  9  1  0
  9 10  1  0
  5 11  1  0
 11 12  2  0
 11 13  1  0
  8  3  1  0
 10  3  1  0
M  END
>  <rName>  (481) 
5-aminomethyl-6-oxabicyclo321octane-1-CO2H

>  <PQ_SYMBOL>  (481) 
5-aminomethyl-6-oxabicyclo321octane-1-CO2H

>  <FULL_NAME>  (481) 
5-(Aminomethyl)-6-oxabicyclo[3.2.1]octane-1-carboxylic acid

>  <IUPAC_CONDENSED>  (481) 
5-aminomethyl-6-oxabicyclo[3.2.1]octane-1-CO2H

>  <IUPAC>  (481) 
5-(aminomethyl)-6-oxabicyclo[3.2.1]octane-1-carboxylic acid

>  <TYPE>  (481) 
Backbone

>  <CLASS>  (481) 
delta

>  <ANALOG>  (481) 
Ser

>  <MOL_WT>  (481) 
185.22299999999998

>  <LOGP>  (481) 
0.3590999999999997

>  <TPSA>  (481) 
72.55

>  <POPULARITY>  (481) 
2.7

>  <PROTECTED>  (481) 
TRUE

>  <SMILES>  (481) 
NCC21CC(CCC1)(CO2)C(=O)O

>  <INCHIKEY>  (481) 
WAUNSROYQKOEMJ-UHFFFAOYSA-N

$$$$
5-aminomethyl-oxolane-2-CO2H_2S_5R
     RDKit          2D

 10 10  0  0  0  0  0  0  0  0999 V2000
   -4.0834    0.0049    0.0000 N   0  0  0  0  0  0  0  0  0  0  0  0
   -2.8508   -0.8499    0.0000 C   0  0  0  0  0  0  0  0  0  0  0  0
   -1.4942   -0.2099    0.0000 C   0  0  0  0  0  0  0  0  0  0  0  0
   -0.1790   -0.9312    0.0000 O   0  0  0  0  0  0  0  0  0  0  0  0
    0.9134    0.0968    0.0000 C   0  0  0  0  0  0  0  0  0  0  0  0
    0.2734    1.4534    0.0000 C   0  0  0  0  0  0  0  0  0  0  0  0
   -1.2146    1.2638    0.0000 C   0  0  0  0  0  0  0  0  0  0  0  0
    2.3871   -0.1828    0.0000 C   0  0  0  0  0  0  0  0  0  0  0  0
    3.3661    0.9537    0.0000 O   0  0  0  0  0  0  0  0  0  0  0  0
    2.8819   -1.5989    0.0000 O   0  0  0  0  0  0  0  0  0  0  0  0
  1  2  1  0
  3  2  1  1
  3  4  1  0
  4  5  1  0
  5  6  1  0
  6  7  1  0
  5  8  1  1
  8  9  2  0
  8 10  1  0
  7  3  1  0
M  END
>  <rName>  (482) 
5-aminomethyl-oxolane-2-CO2H_2S_5R

>  <PQ_SYMBOL>  (482) 
5-aminomethyl-oxolane-2-CO2H_2S_5R

>  <FULL_NAME>  (482) 
(2S,5R)-5-(aminomethyl)oxolane-2-carboxylic acid

>  <IUPAC_CONDENSED>  (482) 
5-aminomethyl-oxolane-2-CO2H(2S,5R)

>  <IUPAC>  (482) 
(2S,5R)-5-(aminomethyl)oxolane-2-carboxylic acid

>  <TYPE>  (482) 
Backbone

>  <CLASS>  (482) 
delta

>  <ANALOG>  (482) 
Ala

>  <MOL_WT>  (482) 
145.158

>  <LOGP>  (482) 
-0.42270000000000035

>  <TPSA>  (482) 
72.55

>  <POPULARITY>  (482) 
6.0

>  <PROTECTED>  (482) 
TRUE

>  <SMILES>  (482) 
NC[C@@H]1O[C@@H](CC1)C(=O)O

>  <INCHIKEY>  (482) 
RZMLFDPCVRKIQV-UHNVWZDZSA-N

$$$$
5-aminomethyl-oxolane-3-CO2H
     RDKit          2D

 10 10  0  0  0  0  0  0  0  0999 V2000
   -4.0834    0.0049    0.0000 N   0  0  0  0  0  0  0  0  0  0  0  0
   -2.8508   -0.8499    0.0000 C   0  0  0  0  0  0  0  0  0  0  0  0
   -1.4942   -0.2099    0.0000 C   0  0  0  0  0  0  0  0  0  0  0  0
   -0.1790   -0.9312    0.0000 C   0  0  0  0  0  0  0  0  0  0  0  0
    0.9134    0.0968    0.0000 C   0  0  0  0  0  0  0  0  0  0  0  0
    0.2734    1.4534    0.0000 C   0  0  0  0  0  0  0  0  0  0  0  0
   -1.2146    1.2638    0.0000 O   0  0  0  0  0  0  0  0  0  0  0  0
    2.3871   -0.1828    0.0000 C   0  0  0  0  0  0  0  0  0  0  0  0
    3.3661    0.9537    0.0000 O   0  0  0  0  0  0  0  0  0  0  0  0
    2.8819   -1.5989    0.0000 O   0  0  0  0  0  0  0  0  0  0  0  0
  1  2  1  0
  2  3  1  0
  3  4  1  0
  4  5  1  0
  5  6  1  0
  6  7  1  0
  5  8  1  0
  8  9  2  0
  8 10  1  0
  7  3  1  0
M  END
>  <rName>  (483) 
5-aminomethyl-oxolane-3-CO2H

>  <PQ_SYMBOL>  (483) 
5-aminomethyl-oxolane-3-CO2H

>  <FULL_NAME>  (483) 
5-(Aminomethyl)oxolane-3-carboxylic acid

>  <IUPAC_CONDENSED>  (483) 
5-aminomethyl-oxolane-3-CO2H

>  <IUPAC>  (483) 
5-(aminomethyl)oxolane-3-carboxylic acid

>  <TYPE>  (483) 
Backbone

>  <CLASS>  (483) 
delta

>  <ANALOG>  (483) 
Ser

>  <MOL_WT>  (483) 
145.158

>  <LOGP>  (483) 
-0.5652000000000004

>  <TPSA>  (483) 
72.55

>  <POPULARITY>  (483) 
7.8

>  <PROTECTED>  (483) 
TRUE

>  <SMILES>  (483) 
NCC1CC(CO1)C(=O)O

>  <INCHIKEY>  (483) 
KPRSCPZCRBEMQV-UHFFFAOYSA-N

$$$$
5-azaspiro23hexane-1-CO2H
     RDKit          2D

  9 10  0  0  0  0  0  0  0  0999 V2000
    2.6964   -0.8548    0.0000 N   0  0  0  0  0  0  0  0  0  0  0  0
    1.2210   -1.1257    0.0000 C   0  0  0  0  0  0  0  0  0  0  0  0
    0.9502    0.3497    0.0000 C   0  0  0  0  0  0  0  0  0  0  0  0
    2.4255    0.6205    0.0000 C   0  0  0  0  0  0  0  0  0  0  0  0
   -0.5450    0.4699    0.0000 C   0  0  0  0  0  0  0  0  0  0  0  0
    0.3067    1.7046    0.0000 C   0  0  0  0  0  0  0  0  0  0  0  0
   -1.9000   -0.1736    0.0000 C   0  0  0  0  0  0  0  0  0  0  0  0
   -2.0202   -1.6688    0.0000 O   0  0  0  0  0  0  0  0  0  0  0  0
   -3.1347    0.6781    0.0000 O   0  0  0  0  0  0  0  0  0  0  0  0
  1  2  1  0
  2  3  1  0
  3  4  1  0
  3  5  1  0
  5  6  1  0
  5  7  1  0
  7  8  2  0
  7  9  1  0
  6  3  1  0
  4  1  1  0
M  END
>  <rName>  (484) 
5-azaspiro23hexane-1-CO2H

>  <PQ_SYMBOL>  (484) 
5-azaspiro23hexane-1-CO2H

>  <FULL_NAME>  (484) 
5-Azaspiro[2.3]hexane-1-carboxylic acid

>  <IUPAC_CONDENSED>  (484) 
5-azaspiro[2.3]hexane-1-CO2H

>  <IUPAC>  (484) 
5-azaspiro[2.3]hexane-1-carboxylic acid

>  <TYPE>  (484) 
Backbone

>  <CLASS>  (484) 
gamma

>  <ANALOG>  (484) 
Ala

>  <MOL_WT>  (484) 
127.14299999999997

>  <LOGP>  (484) 
-0.31949999999999995

>  <TPSA>  (484) 
49.33

>  <POPULARITY>  (484) 
4.5

>  <PROTECTED>  (484) 
TRUE

>  <SMILES>  (484) 
N2CC1(C2)C(C1)C(=O)O

>  <INCHIKEY>  (484) 
BVNMDAJWABADOP-UHFFFAOYSA-N

$$$$
5-azaspiro23hexane-4-CO2H_4R
     RDKit          2D

  9 10  0  0  0  0  0  0  0  0999 V2000
   -0.2615    1.8668    0.0000 N   0  0  0  0  0  0  0  0  0  0  0  0
    0.2566    0.4591    0.0000 C   0  0  0  0  0  0  0  0  0  0  0  0
   -1.1511   -0.0590    0.0000 C   0  0  0  0  0  0  0  0  0  0  0  0
   -1.0150   -1.5528    0.0000 C   0  0  0  0  0  0  0  0  0  0  0  0
   -2.3767   -0.9238    0.0000 C   0  0  0  0  0  0  0  0  0  0  0  0
   -1.6692    1.3487    0.0000 C   0  0  0  0  0  0  0  0  0  0  0  0
    1.6183   -0.1700    0.0000 C   0  0  0  0  0  0  0  0  0  0  0  0
    1.7544   -1.6638    0.0000 O   0  0  0  0  0  0  0  0  0  0  0  0
    2.8440    0.6948    0.0000 O   0  0  0  0  0  0  0  0  0  0  0  0
  1  2  1  0
  2  3  1  0
  3  4  1  0
  4  5  1  0
  3  6  1  0
  2  7  1  1
  7  8  2  0
  7  9  1  0
  5  3  1  0
  6  1  1  0
M  END
>  <rName>  (485) 
5-azaspiro23hexane-4-CO2H_4R

>  <PQ_SYMBOL>  (485) 
5-azaspiro23hexane-4-CO2H_4R

>  <FULL_NAME>  (485) 
5-azaspiro[2.3]hexane-4-CO2H(4R)

>  <IUPAC_CONDENSED>  (485) 
5-azaspiro[2.3]hexane-4-CO2H(4R)

>  <IUPAC>  (485) 
(4R)-5-azaspiro[2.3]hexane-4-carboxylic acid

>  <TYPE>  (485) 
Backbone

>  <CLASS>  (485) 
alpha

>  <ANALOG>  (485) 
Pro

>  <MOL_WT>  (485) 
127.14299999999999

>  <LOGP>  (485) 
-0.17700000000000032

>  <TPSA>  (485) 
49.33

>  <POPULARITY>  (485) 
2.2

>  <PROTECTED>  (485) 
TRUE

>  <SMILES>  (485) 
N2[C@H](C1(CC1)C2)C(=O)O

>  <INCHIKEY>  (485) 
HABNVZOUKOEIMW-BYPYZUCNSA-N

$$$$
5-azaspiro23hexane-4-CO2H_4S
     RDKit          2D

  9 10  0  0  0  0  0  0  0  0999 V2000
   -0.2615    1.8668    0.0000 N   0  0  0  0  0  0  0  0  0  0  0  0
    0.2566    0.4591    0.0000 C   0  0  0  0  0  0  0  0  0  0  0  0
   -1.1511   -0.0590    0.0000 C   0  0  0  0  0  0  0  0  0  0  0  0
   -1.0150   -1.5528    0.0000 C   0  0  0  0  0  0  0  0  0  0  0  0
   -2.3767   -0.9238    0.0000 C   0  0  0  0  0  0  0  0  0  0  0  0
   -1.6692    1.3487    0.0000 C   0  0  0  0  0  0  0  0  0  0  0  0
    1.6183   -0.1700    0.0000 C   0  0  0  0  0  0  0  0  0  0  0  0
    1.7544   -1.6638    0.0000 O   0  0  0  0  0  0  0  0  0  0  0  0
    2.8440    0.6948    0.0000 O   0  0  0  0  0  0  0  0  0  0  0  0
  1  2  1  0
  2  3  1  0
  3  4  1  0
  4  5  1  0
  3  6  1  0
  2  7  1  6
  7  8  2  0
  7  9  1  0
  5  3  1  0
  6  1  1  0
M  END
>  <rName>  (486) 
5-azaspiro23hexane-4-CO2H_4S

>  <PQ_SYMBOL>  (486) 
5-azaspiro23hexane-4-CO2H_4S

>  <FULL_NAME>  (486) 
5-azaspiro[2.3]hexane-4-CO2H(4S)

>  <IUPAC_CONDENSED>  (486) 
5-azaspiro[2.3]hexane-4-CO2H(4S)

>  <IUPAC>  (486) 
(4S)-5-azaspiro[2.3]hexane-4-carboxylic acid

>  <TYPE>  (486) 
Backbone

>  <CLASS>  (486) 
alpha

>  <ANALOG>  (486) 
Pro

>  <MOL_WT>  (486) 
127.14299999999999

>  <LOGP>  (486) 
-0.17700000000000032

>  <TPSA>  (486) 
49.33

>  <POPULARITY>  (486) 
2.2

>  <PROTECTED>  (486) 
TRUE

>  <SMILES>  (486) 
N2[C@@H](C1(CC1)C2)C(=O)O

>  <INCHIKEY>  (486) 
HABNVZOUKOEIMW-SCSAIBSYSA-N

$$$$
5-azaspiro24heptan-6-yl_6S_Ac
     RDKit          2D

 11 12  0  0  0  0  0  0  0  0999 V2000
   -0.0396   -1.1360    0.0000 N   0  0  0  0  0  0  0  0  0  0  0  0
    0.2566    0.3344    0.0000 C   0  0  0  0  0  0  0  0  0  0  0  0
   -1.0504    1.0705    0.0000 C   0  0  0  0  0  0  0  0  0  0  0  0
   -2.1543    0.0550    0.0000 C   0  0  0  0  0  0  0  0  0  0  0  0
   -3.5759   -0.4237    0.0000 C   0  0  0  0  0  0  0  0  0  0  0  0
   -3.2797    1.0468    0.0000 C   0  0  0  0  0  0  0  0  0  0  0  0
   -1.5296   -1.3087    0.0000 C   0  0  0  0  0  0  0  0  0  0  0  0
    1.6203    0.9591    0.0000 C   0  0  0  0  0  0  0  0  0  0  0  0
    2.8432    0.0904    0.0000 C   0  0  0  0  0  0  0  0  0  0  0  0
    2.7023   -1.4030    0.0000 O   0  0  0  0  0  0  0  0  0  0  0  0
    4.2069    0.7151    0.0000 O   0  0  0  0  0  0  0  0  0  0  0  0
  1  2  1  0
  2  3  1  0
  3  4  1  0
  4  5  1  0
  5  6  1  0
  4  7  1  0
  2  8  1  1
  8  9  1  0
  9 10  2  0
  9 11  1  0
  6  4  1  0
  7  1  1  0
M  END
>  <rName>  (487) 
5-azaspiro24heptan-6-yl_6S_Ac

>  <PQ_SYMBOL>  (487) 
5-azaspiro24heptan-6-yl_6S_Ac

>  <FULL_NAME>  (487) 
2-[(6S)-5-Azaspiro[2.4]heptan-6-YL]acetic acid

>  <IUPAC_CONDENSED>  (487) 
5-azaspiro[2.4]heptan-6-yl(6S)Ac

>  <IUPAC>  (487) 
2-((6S)-5-azaspiro[2.4]heptan-6-yl)acetic acid

>  <TYPE>  (487) 
Backbone

>  <CLASS>  (487) 
beta

>  <ANALOG>  (487) 
Pro

>  <MOL_WT>  (487) 
155.197

>  <LOGP>  (487) 
0.6032

>  <TPSA>  (487) 
49.33

>  <POPULARITY>  (487) 
2.9

>  <PROTECTED>  (487) 
TRUE

>  <SMILES>  (487) 
N2[C@@H](CC1(CC1)C2)CC(=O)O

>  <INCHIKEY>  (487) 
BAQCCAPOZOIOAA-ZCFIWIBFSA-N

$$$$
5-azaspiro24heptane-1-CO2H
     RDKit          2D

 10 11  0  0  0  0  0  0  0  0999 V2000
   -3.0148    0.0908    0.0000 N   0  0  0  0  0  0  0  0  0  0  0  0
   -2.0392   -1.0486    0.0000 C   0  0  0  0  0  0  0  0  0  0  0  0
   -0.6541   -0.4729    0.0000 C   0  0  0  0  0  0  0  0  0  0  0  0
   -0.7736    1.0223    0.0000 C   0  0  0  0  0  0  0  0  0  0  0  0
   -2.2326    1.3707    0.0000 C   0  0  0  0  0  0  0  0  0  0  0  0
    0.8454   -0.5104    0.0000 C   0  0  0  0  0  0  0  0  0  0  0  0
    0.0632   -1.7903    0.0000 C   0  0  0  0  0  0  0  0  0  0  0  0
    2.1628    0.2070    0.0000 C   0  0  0  0  0  0  0  0  0  0  0  0
    2.2002    1.7065    0.0000 O   0  0  0  0  0  0  0  0  0  0  0  0
    3.4427   -0.5752    0.0000 O   0  0  0  0  0  0  0  0  0  0  0  0
  1  2  1  0
  2  3  1  0
  3  4  1  0
  4  5  1  0
  3  6  1  0
  6  7  1  0
  6  8  1  0
  8  9  2  0
  8 10  1  0
  7  3  1  0
  5  1  1  0
M  END
>  <rName>  (488) 
5-azaspiro24heptane-1-CO2H

>  <PQ_SYMBOL>  (488) 
5-azaspiro24heptane-1-CO2H

>  <FULL_NAME>  (488) 
5-Azaspiro[2.4]heptane-1-carboxylic acid

>  <IUPAC_CONDENSED>  (488) 
5-azaspiro[2.4]heptane-1-CO2H

>  <IUPAC>  (488) 
5-azaspiro[2.4]heptane-1-carboxylic acid

>  <TYPE>  (488) 
Backbone

>  <CLASS>  (488) 
gamma

>  <ANALOG>  (488) 
Pro

>  <MOL_WT>  (488) 
141.17

>  <LOGP>  (488) 
0.07059999999999994

>  <TPSA>  (488) 
49.33

>  <POPULARITY>  (488) 
5.4

>  <PROTECTED>  (488) 
TRUE

>  <SMILES>  (488) 
N2CC1(CC2)C(C1)C(=O)O

>  <INCHIKEY>  (488) 
UQPSRHCDEVLDQQ-UHFFFAOYSA-N

$$$$
5-azaspiro24heptane-6-CO2H_6S
     RDKit          2D

 10 11  0  0  0  0  0  0  0  0999 V2000
    0.1740   -1.5160    0.0000 N   0  0  0  0  0  0  0  0  0  0  0  0
    0.7598   -0.1351    0.0000 C   0  0  0  0  0  0  0  0  0  0  0  0
   -0.3725    0.8487    0.0000 C   0  0  0  0  0  0  0  0  0  0  0  0
   -1.6581    0.0759    0.0000 C   0  0  0  0  0  0  0  0  0  0  0  0
   -3.1469   -0.1073    0.0000 C   0  0  0  0  0  0  0  0  0  0  0  0
   -2.5611    1.2736    0.0000 C   0  0  0  0  0  0  0  0  0  0  0  0
   -1.3203   -1.3856    0.0000 C   0  0  0  0  0  0  0  0  0  0  0  0
    2.2212    0.2027    0.0000 C   0  0  0  0  0  0  0  0  0  0  0  0
    2.6595    1.6372    0.0000 O   0  0  0  0  0  0  0  0  0  0  0  0
    3.2445   -0.8941    0.0000 O   0  0  0  0  0  0  0  0  0  0  0  0
  1  2  1  0
  2  3  1  0
  3  4  1  0
  4  5  1  0
  5  6  1  0
  4  7  1  0
  2  8  1  1
  8  9  2  0
  8 10  1  0
  6  4  1  0
  7  1  1  0
M  END
>  <rName>  (489) 
5-azaspiro24heptane-6-CO2H_6S

>  <PQ_SYMBOL>  (489) 
5-azaspiro24heptane-6-CO2H_6S

>  <FULL_NAME>  (489) 
(S)-5-azaspiro[2.4]heptane-6-carboxylic acid

>  <IUPAC_CONDENSED>  (489) 
5-azaspiro[2.4]heptane-6-CO2H(6S)

>  <IUPAC>  (489) 
(6S)-5-azaspiro[2.4]heptane-6-carboxylic acid

>  <TYPE>  (489) 
Backbone

>  <CLASS>  (489) 
alpha

>  <ANALOG>  (489) 
Pro

>  <MOL_WT>  (489) 
141.17000000000002

>  <LOGP>  (489) 
0.2131

>  <TPSA>  (489) 
49.33

>  <POPULARITY>  (489) 
9.0

>  <PROTECTED>  (489) 
TRUE

>  <SMILES>  (489) 
N2[C@@H](CC1(CC1)C2)C(=O)O

>  <INCHIKEY>  (489) 
HWOAMAASOUOLEG-YFKPBYRVSA-N

$$$$
5-azaspiro24heptane-7-CO2H
     RDKit          2D

 10 11  0  0  0  0  0  0  0  0999 V2000
    1.8560    1.6792    0.0000 N   0  0  0  0  0  0  0  0  0  0  0  0
    0.3631    1.8244    0.0000 C   0  0  0  0  0  0  0  0  0  0  0  0
   -0.2364    0.4494    0.0000 C   0  0  0  0  0  0  0  0  0  0  0  0
    0.8860   -0.5456    0.0000 C   0  0  0  0  0  0  0  0  0  0  0  0
    1.5067   -1.9112    0.0000 C   0  0  0  0  0  0  0  0  0  0  0  0
    0.0138   -1.7659    0.0000 C   0  0  0  0  0  0  0  0  0  0  0  0
    2.1792    0.2144    0.0000 C   0  0  0  0  0  0  0  0  0  0  0  0
   -1.7012    0.1262    0.0000 C   0  0  0  0  0  0  0  0  0  0  0  0
   -2.1537   -1.3039    0.0000 O   0  0  0  0  0  0  0  0  0  0  0  0
   -2.7135    1.2331    0.0000 O   0  0  0  0  0  0  0  0  0  0  0  0
  1  2  1  0
  2  3  1  0
  3  4  1  0
  4  5  1  0
  5  6  1  0
  4  7  1  0
  3  8  1  0
  8  9  2  0
  8 10  1  0
  6  4  1  0
  7  1  1  0
M  END
>  <rName>  (490) 
5-azaspiro24heptane-7-CO2H

>  <PQ_SYMBOL>  (490) 
5-azaspiro24heptane-7-CO2H

>  <FULL_NAME>  (490) 
5-Aza-spiro[2.4]heptane-7-carboxylic acid

>  <IUPAC_CONDENSED>  (490) 
5-azaspiro[2.4]heptane-7-CO2H

>  <IUPAC>  (490) 
5-azaspiro[2.4]heptane-7-carboxylic acid

>  <TYPE>  (490) 
Backbone

>  <CLASS>  (490) 
beta

>  <ANALOG>  (490) 
Pro

>  <MOL_WT>  (490) 
141.17000000000002

>  <LOGP>  (490) 
0.07059999999999994

>  <TPSA>  (490) 
49.33

>  <POPULARITY>  (490) 
4.2

>  <PROTECTED>  (490) 
TRUE

>  <SMILES>  (490) 
N2CC(C1(CC1)C2)C(=O)O

>  <INCHIKEY>  (490) 
TWXWMEGIVQLEOG-UHFFFAOYSA-N

$$$$
5-azaspiro24heptane-7-CO2H_7R
     RDKit          2D

 10 11  0  0  0  0  0  0  0  0999 V2000
    1.8560    1.6792    0.0000 N   0  0  0  0  0  0  0  0  0  0  0  0
    0.3631    1.8244    0.0000 C   0  0  0  0  0  0  0  0  0  0  0  0
   -0.2364    0.4494    0.0000 C   0  0  0  0  0  0  0  0  0  0  0  0
    0.8860   -0.5456    0.0000 C   0  0  0  0  0  0  0  0  0  0  0  0
    1.5067   -1.9112    0.0000 C   0  0  0  0  0  0  0  0  0  0  0  0
    0.0138   -1.7659    0.0000 C   0  0  0  0  0  0  0  0  0  0  0  0
    2.1792    0.2144    0.0000 C   0  0  0  0  0  0  0  0  0  0  0  0
   -1.7012    0.1262    0.0000 C   0  0  0  0  0  0  0  0  0  0  0  0
   -2.1537   -1.3039    0.0000 O   0  0  0  0  0  0  0  0  0  0  0  0
   -2.7135    1.2331    0.0000 O   0  0  0  0  0  0  0  0  0  0  0  0
  1  2  1  0
  2  3  1  0
  3  4  1  0
  4  5  1  0
  5  6  1  0
  4  7  1  0
  3  8  1  1
  8  9  2  0
  8 10  1  0
  6  4  1  0
  7  1  1  0
M  END
>  <rName>  (491) 
5-azaspiro24heptane-7-CO2H_7R

>  <PQ_SYMBOL>  (491) 
5-azaspiro24heptane-7-CO2H_7R

>  <FULL_NAME>  (491) 
(R)-5-Aza-spiro[2.4]heptane-7-carboxylic acid

>  <IUPAC_CONDENSED>  (491) 
5-azaspiro[2.4]heptane-7-CO2H(7R)

>  <IUPAC>  (491) 
(7R)-5-azaspiro[2.4]heptane-7-carboxylic acid

>  <TYPE>  (491) 
Backbone

>  <CLASS>  (491) 
beta

>  <ANALOG>  (491) 
Pro

>  <MOL_WT>  (491) 
141.17000000000002

>  <LOGP>  (491) 
0.07059999999999994

>  <TPSA>  (491) 
49.33

>  <POPULARITY>  (491) 
2.2

>  <PROTECTED>  (491) 
TRUE

>  <SMILES>  (491) 
N2C[C@@H](C1(CC1)C2)C(=O)O

>  <INCHIKEY>  (491) 
TWXWMEGIVQLEOG-RXMQYKEDSA-N

$$$$
5-azaspiro24heptane-7-CO2H_7S
     RDKit          2D

 10 11  0  0  0  0  0  0  0  0999 V2000
    1.8560    1.6792    0.0000 N   0  0  0  0  0  0  0  0  0  0  0  0
    0.3631    1.8244    0.0000 C   0  0  0  0  0  0  0  0  0  0  0  0
   -0.2364    0.4494    0.0000 C   0  0  0  0  0  0  0  0  0  0  0  0
    0.8860   -0.5456    0.0000 C   0  0  0  0  0  0  0  0  0  0  0  0
    1.5067   -1.9112    0.0000 C   0  0  0  0  0  0  0  0  0  0  0  0
    0.0138   -1.7659    0.0000 C   0  0  0  0  0  0  0  0  0  0  0  0
    2.1792    0.2144    0.0000 C   0  0  0  0  0  0  0  0  0  0  0  0
   -1.7012    0.1262    0.0000 C   0  0  0  0  0  0  0  0  0  0  0  0
   -2.1537   -1.3039    0.0000 O   0  0  0  0  0  0  0  0  0  0  0  0
   -2.7135    1.2331    0.0000 O   0  0  0  0  0  0  0  0  0  0  0  0
  1  2  1  0
  2  3  1  0
  3  4  1  0
  4  5  1  0
  5  6  1  0
  4  7  1  0
  3  8  1  6
  8  9  2  0
  8 10  1  0
  6  4  1  0
  7  1  1  0
M  END
>  <rName>  (492) 
5-azaspiro24heptane-7-CO2H_7S

>  <PQ_SYMBOL>  (492) 
5-azaspiro24heptane-7-CO2H_7S

>  <FULL_NAME>  (492) 
(7S)-5-azaspiro[2.4]heptane-7-carboxylic acid

>  <IUPAC_CONDENSED>  (492) 
5-azaspiro[2.4]heptane-7-CO2H(7S)

>  <IUPAC>  (492) 
(7S)-5-azaspiro[2.4]heptane-7-carboxylic acid

>  <TYPE>  (492) 
Backbone

>  <CLASS>  (492) 
beta

>  <ANALOG>  (492) 
Pro

>  <MOL_WT>  (492) 
141.17000000000002

>  <LOGP>  (492) 
0.07059999999999994

>  <TPSA>  (492) 
49.33

>  <POPULARITY>  (492) 
2.2

>  <PROTECTED>  (492) 
TRUE

>  <SMILES>  (492) 
N2C[C@H](C1(CC1)C2)C(=O)O

>  <INCHIKEY>  (492) 
TWXWMEGIVQLEOG-YFKPBYRVSA-N

$$$$
5-azaspiro25octane-1-CO2H
     RDKit          2D

 11 12  0  0  0  0  0  0  0  0999 V2000
    1.7112   -1.6510    0.0000 N   0  0  0  0  0  0  0  0  0  0  0  0
    0.3969   -0.9282    0.0000 C   0  0  0  0  0  0  0  0  0  0  0  0
    0.3656    0.5715    0.0000 C   0  0  0  0  0  0  0  0  0  0  0  0
    1.6488    1.3483    0.0000 C   0  0  0  0  0  0  0  0  0  0  0  0
    2.9631    0.6256    0.0000 C   0  0  0  0  0  0  0  0  0  0  0  0
    2.9944   -0.8741    0.0000 C   0  0  0  0  0  0  0  0  0  0  0  0
   -1.1340    0.5402    0.0000 C   0  0  0  0  0  0  0  0  0  0  0  0
   -0.4113    1.8546    0.0000 C   0  0  0  0  0  0  0  0  0  0  0  0
   -2.4172   -0.2367    0.0000 C   0  0  0  0  0  0  0  0  0  0  0  0
   -2.3860   -1.7363    0.0000 O   0  0  0  0  0  0  0  0  0  0  0  0
   -3.7316    0.4861    0.0000 O   0  0  0  0  0  0  0  0  0  0  0  0
  1  2  1  0
  2  3  1  0
  3  4  1  0
  4  5  1  0
  5  6  1  0
  3  7  1  0
  7  8  1  0
  7  9  1  0
  9 10  2  0
  9 11  1  0
  8  3  1  0
  6  1  1  0
M  END
>  <rName>  (493) 
5-azaspiro25octane-1-CO2H

>  <PQ_SYMBOL>  (493) 
5-azaspiro25octane-1-CO2H

>  <FULL_NAME>  (493) 
5-Azaspiro[2.5]octane-1-carboxylic acid

>  <IUPAC_CONDENSED>  (493) 
5-azaspiro[2.5]octane-1-CO2H

>  <IUPAC>  (493) 
5-azaspiro[2.5]octane-1-carboxylic acid

>  <TYPE>  (493) 
Backbone

>  <CLASS>  (493) 
gamma

>  <ANALOG>  (493) 
Pro

>  <MOL_WT>  (493) 
155.197

>  <LOGP>  (493) 
0.46069999999999983

>  <TPSA>  (493) 
49.33

>  <POPULARITY>  (493) 
4.3

>  <PROTECTED>  (493) 
TRUE

>  <SMILES>  (493) 
N2CC1(CCC2)C(C1)C(=O)O

>  <INCHIKEY>  (493) 
NYMDBPDMYQKIAA-UHFFFAOYSA-N

$$$$
5-azaspiro25octane-7-CO2H
     RDKit          2D

 11 12  0  0  0  0  0  0  0  0999 V2000
   -0.7704    2.1298    0.0000 N   0  0  0  0  0  0  0  0  0  0  0  0
    0.6398    1.6186    0.0000 C   0  0  0  0  0  0  0  0  0  0  0  0
    0.9022    0.1417    0.0000 C   0  0  0  0  0  0  0  0  0  0  0  0
   -0.2456   -0.8239    0.0000 C   0  0  0  0  0  0  0  0  0  0  0  0
   -1.6558   -0.3127    0.0000 C   0  0  0  0  0  0  0  0  0  0  0  0
   -2.1670   -1.7229    0.0000 C   0  0  0  0  0  0  0  0  0  0  0  0
   -3.1327   -0.5751    0.0000 C   0  0  0  0  0  0  0  0  0  0  0  0
   -1.9182    1.1641    0.0000 C   0  0  0  0  0  0  0  0  0  0  0  0
    2.3124   -0.3695    0.0000 C   0  0  0  0  0  0  0  0  0  0  0  0
    3.4602    0.5962    0.0000 O   0  0  0  0  0  0  0  0  0  0  0  0
    2.5748   -1.8463    0.0000 O   0  0  0  0  0  0  0  0  0  0  0  0
  1  2  1  0
  2  3  1  0
  3  4  1  0
  4  5  1  0
  5  6  1  0
  6  7  1  0
  5  8  1  0
  3  9  1  0
  9 10  2  0
  9 11  1  0
  7  5  1  0
  8  1  1  0
M  END
>  <rName>  (494) 
5-azaspiro25octane-7-CO2H

>  <PQ_SYMBOL>  (494) 
5-azaspiro25octane-7-CO2H

>  <FULL_NAME>  (494) 
5-Azaspiro(2,5)octane-7-carboxylic acid

>  <IUPAC_CONDENSED>  (494) 
5-azaspiro[2.5]octane-7-CO2H

>  <IUPAC>  (494) 
5-azaspiro[2.5]octane-7-carboxylic acid

>  <TYPE>  (494) 
Backbone

>  <CLASS>  (494) 
beta

>  <ANALOG>  (494) 
Pro

>  <MOL_WT>  (494) 
155.197

>  <LOGP>  (494) 
0.46069999999999983

>  <TPSA>  (494) 
49.33

>  <POPULARITY>  (494) 
6.3

>  <PROTECTED>  (494) 
TRUE

>  <SMILES>  (494) 
N2CC(CC1(CC1)C2)C(=O)O

>  <INCHIKEY>  (494) 
DJALQTLGSDTQNA-UHFFFAOYSA-N

$$$$
5-azaspiro34octan-7-ylAc
     RDKit          2D

 12 13  0  0  0  0  0  0  0  0999 V2000
    1.1925    1.3611    0.0000 N   0  0  0  0  0  0  0  0  0  0  0  0
   -0.2944    1.1628    0.0000 C   0  0  0  0  0  0  0  0  0  0  0  0
   -0.5652   -0.3126    0.0000 C   0  0  0  0  0  0  0  0  0  0  0  0
    0.7543   -1.0260    0.0000 C   0  0  0  0  0  0  0  0  0  0  0  0
    1.8406    0.0084    0.0000 C   0  0  0  0  0  0  0  0  0  0  0  0
    2.6923   -1.2264    0.0000 C   0  0  0  0  0  0  0  0  0  0  0  0
    3.9270   -0.3746    0.0000 C   0  0  0  0  0  0  0  0  0  0  0  0
    3.0753    0.8601    0.0000 C   0  0  0  0  0  0  0  0  0  0  0  0
   -1.9179   -0.9607    0.0000 C   0  0  0  0  0  0  0  0  0  0  0  0
   -3.1556   -0.1132    0.0000 C   0  0  0  0  0  0  0  0  0  0  0  0
   -3.0405    1.3824    0.0000 O   0  0  0  0  0  0  0  0  0  0  0  0
   -4.5084   -0.7613    0.0000 O   0  0  0  0  0  0  0  0  0  0  0  0
  1  2  1  0
  2  3  1  0
  3  4  1  0
  4  5  1  0
  5  6  1  0
  6  7  1  0
  7  8  1  0
  3  9  1  0
  9 10  1  0
 10 11  2  0
 10 12  1  0
  5  1  1  0
  8  5  1  0
M  END
>  <rName>  (495) 
5-azaspiro34octan-7-ylAc

>  <PQ_SYMBOL>  (495) 
5-azaspiro34octan-7-ylAc

>  <FULL_NAME>  (495) 
2-{5-Azaspiro[3.4]octan-7-yl}acetic acid

>  <IUPAC_CONDENSED>  (495) 
5-azaspiro[3.4]octan-7-ylAc

>  <IUPAC>  (495) 
2-(5-azaspiro[3.4]octan-7-yl)acetic acid

>  <TYPE>  (495) 
Backbone

>  <CLASS>  (495) 
gamma

>  <ANALOG>  (495) 
Pro

>  <MOL_WT>  (495) 
169.22400000000002

>  <LOGP>  (495) 
0.9932999999999998

>  <TPSA>  (495) 
49.33

>  <POPULARITY>  (495) 
2.7

>  <PROTECTED>  (495) 
TRUE

>  <SMILES>  (495) 
N1CC(CC12(CCC2))CC(=O)O

>  <INCHIKEY>  (495) 
YBPGLIKNNIRXJT-UHFFFAOYSA-N

$$$$
5-azaspiro34octane-2-CO2H
     RDKit          2D

 11 12  0  0  0  0  0  0  0  0999 V2000
   -1.8114   -1.2135    0.0000 N   0  0  0  0  0  0  0  0  0  0  0  0
   -0.9297   -0.0000    0.0000 C   0  0  0  0  0  0  0  0  0  0  0  0
   -1.8114    1.2135    0.0000 C   0  0  0  0  0  0  0  0  0  0  0  0
   -3.2380    0.7500    0.0000 C   0  0  0  0  0  0  0  0  0  0  0  0
   -3.2380   -0.7500    0.0000 C   0  0  0  0  0  0  0  0  0  0  0  0
    0.1310   -1.0607    0.0000 C   0  0  0  0  0  0  0  0  0  0  0  0
    1.1916   -0.0000    0.0000 C   0  0  0  0  0  0  0  0  0  0  0  0
    0.1310    1.0607    0.0000 C   0  0  0  0  0  0  0  0  0  0  0  0
    2.6916    0.0000    0.0000 C   0  0  0  0  0  0  0  0  0  0  0  0
    3.4416    1.2990    0.0000 O   0  0  0  0  0  0  0  0  0  0  0  0
    3.4416   -1.2990    0.0000 O   0  0  0  0  0  0  0  0  0  0  0  0
  1  2  1  0
  2  3  1  0
  3  4  1  0
  4  5  1  0
  2  6  1  0
  6  7  1  0
  7  8  1  0
  7  9  1  0
  9 10  2  0
  9 11  1  0
  8  2  1  0
  5  1  1  0
M  END
>  <rName>  (496) 
5-azaspiro34octane-2-CO2H

>  <PQ_SYMBOL>  (496) 
5-azaspiro34octane-2-CO2H

>  <FULL_NAME>  (496) 
5-Aza-spiro[3.4]octane-2-carboxylic acid

>  <IUPAC_CONDENSED>  (496) 
5-azaspiro[3.4]octane-2-CO2H

>  <IUPAC>  (496) 
5-azaspiro[3.4]octane-2-carboxylic acid

>  <TYPE>  (496) 
Backbone

>  <CLASS>  (496) 
gamma

>  <ANALOG>  (496) 
Pro

>  <MOL_WT>  (496) 
155.197

>  <LOGP>  (496) 
0.6032

>  <TPSA>  (496) 
49.33

>  <POPULARITY>  (496) 
4.2

>  <PROTECTED>  (496) 
TRUE

>  <SMILES>  (496) 
N2C1(CCC2)CC(C1)C(=O)O

>  <INCHIKEY>  (496) 
XONSSESEMDOJJO-UHFFFAOYSA-N

$$$$
5-azaspiro34octane-7-CO2H
     RDKit          2D

 11 12  0  0  0  0  0  0  0  0999 V2000
    0.9660    1.4956    0.0000 N   0  0  0  0  0  0  0  0  0  0  0  0
   -0.5327    1.5590    0.0000 C   0  0  0  0  0  0  0  0  0  0  0  0
   -1.0561    0.1533    0.0000 C   0  0  0  0  0  0  0  0  0  0  0  0
    0.1191   -0.7789    0.0000 C   0  0  0  0  0  0  0  0  0  0  0  0
    1.3688    0.0507    0.0000 C   0  0  0  0  0  0  0  0  0  0  0  0
    1.9927   -1.3134    0.0000 C   0  0  0  0  0  0  0  0  0  0  0  0
    3.3568   -0.6894    0.0000 C   0  0  0  0  0  0  0  0  0  0  0  0
    2.7329    0.6747    0.0000 C   0  0  0  0  0  0  0  0  0  0  0  0
   -2.5009   -0.2496    0.0000 C   0  0  0  0  0  0  0  0  0  0  0  0
   -2.8745   -1.7023    0.0000 O   0  0  0  0  0  0  0  0  0  0  0  0
   -3.5723    0.8003    0.0000 O   0  0  0  0  0  0  0  0  0  0  0  0
  1  2  1  0
  2  3  1  0
  3  4  1  0
  4  5  1  0
  5  6  1  0
  6  7  1  0
  7  8  1  0
  3  9  1  0
  9 10  2  0
  9 11  1  0
  5  1  1  0
  8  5  1  0
M  END
>  <rName>  (497) 
5-azaspiro34octane-7-CO2H

>  <PQ_SYMBOL>  (497) 
5-azaspiro34octane-7-CO2H

>  <FULL_NAME>  (497) 
5-Azaspiro[3.4]octane-7-carboxylic acid

>  <IUPAC_CONDENSED>  (497) 
5-azaspiro[3.4]octane-7-CO2H

>  <IUPAC>  (497) 
5-azaspiro[3.4]octane-7-carboxylic acid

>  <TYPE>  (497) 
Backbone

>  <CLASS>  (497) 
beta

>  <ANALOG>  (497) 
Pro

>  <MOL_WT>  (497) 
155.197

>  <LOGP>  (497) 
0.6032

>  <TPSA>  (497) 
49.33

>  <POPULARITY>  (497) 
3.1

>  <PROTECTED>  (497) 
TRUE

>  <SMILES>  (497) 
N1CC(CC12(CCC2))C(=O)O

>  <INCHIKEY>  (497) 
CSZKJCOOCVANTQ-UHFFFAOYSA-N

$$$$
5-azaspiro34octane-8-CO2H
     RDKit          2D

 11 12  0  0  0  0  0  0  0  0999 V2000
    1.9698   -0.8692    0.0000 N   0  0  0  0  0  0  0  0  0  0  0  0
    0.8764    0.1576    0.0000 C   0  0  0  0  0  0  0  0  0  0  0  0
    2.0616    1.0770    0.0000 C   0  0  0  0  0  0  0  0  0  0  0  0
    1.1422    2.2622    0.0000 C   0  0  0  0  0  0  0  0  0  0  0  0
   -0.0430    1.3428    0.0000 C   0  0  0  0  0  0  0  0  0  0  0  0
   -0.4381   -0.5650    0.0000 C   0  0  0  0  0  0  0  0  0  0  0  0
   -0.1570   -2.0385    0.0000 C   0  0  0  0  0  0  0  0  0  0  0  0
    1.3312   -2.2264    0.0000 C   0  0  0  0  0  0  0  0  0  0  0  0
   -1.7953    0.0736    0.0000 C   0  0  0  0  0  0  0  0  0  0  0  0
   -1.9209    1.5684    0.0000 O   0  0  0  0  0  0  0  0  0  0  0  0
   -3.0270   -0.7825    0.0000 O   0  0  0  0  0  0  0  0  0  0  0  0
  1  2  1  0
  2  3  1  0
  3  4  1  0
  4  5  1  0
  2  6  1  0
  6  7  1  0
  7  8  1  0
  6  9  1  0
  9 10  2  0
  9 11  1  0
  8  1  1  0
  5  2  1  0
M  END
>  <rName>  (498) 
5-azaspiro34octane-8-CO2H

>  <PQ_SYMBOL>  (498) 
5-azaspiro34octane-8-CO2H

>  <FULL_NAME>  (498) 
5-Azaspiro[3.4]octane-8-carboxylic acid

>  <IUPAC_CONDENSED>  (498) 
5-azaspiro[3.4]octane-8-CO2H

>  <IUPAC>  (498) 
5-azaspiro[3.4]octane-8-carboxylic acid

>  <TYPE>  (498) 
Backbone

>  <CLASS>  (498) 
beta

>  <ANALOG>  (498) 
X

>  <MOL_WT>  (498) 
155.197

>  <LOGP>  (498) 
0.6032

>  <TPSA>  (498) 
49.33

>  <POPULARITY>  (498) 
4.4

>  <PROTECTED>  (498) 
TRUE

>  <SMILES>  (498) 
N1C2(CCC2)C(CC1)C(=O)O

>  <INCHIKEY>  (498) 
SACXNYFXIOCTAL-UHFFFAOYSA-N

$$$$
5-azaspiro35nonane-7-CO2H
     RDKit          2D

 12 13  0  0  0  0  0  0  0  0999 V2000
    0.8964   -1.2990    0.0000 N   0  0  0  0  0  0  0  0  0  0  0  0
   -0.6036   -1.2990    0.0000 C   0  0  0  0  0  0  0  0  0  0  0  0
   -1.3536   -0.0000    0.0000 C   0  0  0  0  0  0  0  0  0  0  0  0
   -0.6036    1.2990    0.0000 C   0  0  0  0  0  0  0  0  0  0  0  0
    0.8964    1.2990    0.0000 C   0  0  0  0  0  0  0  0  0  0  0  0
    1.6464   -0.0000    0.0000 C   0  0  0  0  0  0  0  0  0  0  0  0
    2.7071   -1.0607    0.0000 C   0  0  0  0  0  0  0  0  0  0  0  0
    3.7678    0.0000    0.0000 C   0  0  0  0  0  0  0  0  0  0  0  0
    2.7071    1.0607    0.0000 C   0  0  0  0  0  0  0  0  0  0  0  0
   -2.8536    0.0000    0.0000 C   0  0  0  0  0  0  0  0  0  0  0  0
   -3.6036   -1.2990    0.0000 O   0  0  0  0  0  0  0  0  0  0  0  0
   -3.6036    1.2990    0.0000 O   0  0  0  0  0  0  0  0  0  0  0  0
  1  2  1  0
  2  3  1  0
  3  4  1  0
  4  5  1  0
  5  6  1  0
  6  7  1  0
  7  8  1  0
  8  9  1  0
  3 10  1  0
 10 11  2  0
 10 12  1  0
  6  1  1  0
  9  6  1  0
M  END
>  <rName>  (499) 
5-azaspiro35nonane-7-CO2H

>  <PQ_SYMBOL>  (499) 
5-azaspiro35nonane-7-CO2H

>  <FULL_NAME>  (499) 
5-Azaspiro[3.5]nonane-7-carboxylic acid

>  <IUPAC_CONDENSED>  (499) 
5-azaspiro[3.5]nonane-7-CO2H

>  <IUPAC>  (499) 
5-azaspiro[3.5]nonane-7-carboxylic acid

>  <TYPE>  (499) 
Backbone

>  <CLASS>  (499) 
beta

>  <ANALOG>  (499) 
Pro

>  <MOL_WT>  (499) 
169.22400000000002

>  <LOGP>  (499) 
0.9932999999999998

>  <TPSA>  (499) 
49.33

>  <POPULARITY>  (499) 
2.9

>  <PROTECTED>  (499) 
TRUE

>  <SMILES>  (499) 
N1CC(CCC12(CCC2))C(=O)O

>  <INCHIKEY>  (499) 
OTFRGULJJROQPF-UHFFFAOYSA-N

$$$$
5-azaspiro35nonane-8-CO2H
     RDKit          2D

 12 13  0  0  0  0  0  0  0  0999 V2000
    1.5482   -1.4297    0.0000 N   0  0  0  0  0  0  0  0  0  0  0  0
    0.3150   -2.2836    0.0000 C   0  0  0  0  0  0  0  0  0  0  0  0
   -1.0411   -1.6426    0.0000 C   0  0  0  0  0  0  0  0  0  0  0  0
   -1.1640   -0.1476    0.0000 C   0  0  0  0  0  0  0  0  0  0  0  0
    0.0692    0.7063    0.0000 C   0  0  0  0  0  0  0  0  0  0  0  0
    1.4253    0.0652    0.0000 C   0  0  0  0  0  0  0  0  0  0  0  0
    2.9011   -0.2030    0.0000 C   0  0  0  0  0  0  0  0  0  0  0  0
    3.1694    1.2728    0.0000 C   0  0  0  0  0  0  0  0  0  0  0  0
    1.6935    1.5410    0.0000 C   0  0  0  0  0  0  0  0  0  0  0  0
   -2.5201    0.4934    0.0000 C   0  0  0  0  0  0  0  0  0  0  0  0
   -3.7534   -0.3605    0.0000 O   0  0  0  0  0  0  0  0  0  0  0  0
   -2.6430    1.9884    0.0000 O   0  0  0  0  0  0  0  0  0  0  0  0
  1  2  1  0
  2  3  1  0
  3  4  1  0
  4  5  1  0
  5  6  1  0
  6  7  1  0
  7  8  1  0
  8  9  1  0
  4 10  1  0
 10 11  2  0
 10 12  1  0
  6  1  1  0
  9  6  1  0
M  END
>  <rName>  (500) 
5-azaspiro35nonane-8-CO2H

>  <PQ_SYMBOL>  (500) 
5-azaspiro35nonane-8-CO2H

>  <FULL_NAME>  (500) 
5-Azaspiro[3.5]nonane-8-carboxylic acid

>  <IUPAC_CONDENSED>  (500) 
5-azaspiro[3.5]nonane-8-CO2H

>  <IUPAC>  (500) 
5-azaspiro[3.5]nonane-8-carboxylic acid

>  <TYPE>  (500) 
Backbone

>  <CLASS>  (500) 
gamma

>  <ANALOG>  (500) 
Pro

>  <MOL_WT>  (500) 
169.22400000000002

>  <LOGP>  (500) 
0.9932999999999998

>  <TPSA>  (500) 
49.33

>  <POPULARITY>  (500) 
2.9

>  <PROTECTED>  (500) 
TRUE

>  <SMILES>  (500) 
N1CCC(CC12(CCC2))C(=O)O

>  <INCHIKEY>  (500) 
BTXJSHXGZWKDFQ-UHFFFAOYSA-N

$$$$
5-guanidinopentanoyl
     RDKit          2D

 11 10  0  0  0  0  0  0  0  0999 V2000
   -5.1962    0.6818    0.0000 N   0  0  0  0  0  0  0  0  0  0  0  0
   -3.8971   -0.0682    0.0000 C   0  0  0  0  0  0  0  0  0  0  0  0
   -3.8971   -1.5682    0.0000 N   0  0  0  0  0  0  0  0  0  0  0  0
   -2.5981    0.6818    0.0000 N   0  0  0  0  0  0  0  0  0  0  0  0
   -1.2990   -0.0682    0.0000 C   0  0  0  0  0  0  0  0  0  0  0  0
   -0.0000    0.6818    0.0000 C   0  0  0  0  0  0  0  0  0  0  0  0
    1.2990   -0.0682    0.0000 C   0  0  0  0  0  0  0  0  0  0  0  0
    2.5981    0.6818    0.0000 C   0  0  0  0  0  0  0  0  0  0  0  0
    3.8971   -0.0682    0.0000 C   0  0  0  0  0  0  0  0  0  0  0  0
    3.8971   -1.5682    0.0000 O   0  0  0  0  0  0  0  0  0  0  0  0
    5.1962    0.6818    0.0000 O   0  0  0  0  0  0  0  0  0  0  0  0
  1  2  1  0
  2  3  2  0
  2  4  1  0
  4  5  1  0
  5  6  1  0
  6  7  1  0
  7  8  1  0
  8  9  1  0
  9 10  2  0
  9 11  1  0
M  END
>  <rName>  (501) 
5-guanidinopentanoyl

>  <PQ_SYMBOL>  (501) 
5-guanidinopentanoyl

>  <FULL_NAME>  (501) 
delta-Guanidinovaleric acid

>  <IUPAC_CONDENSED>  (501) 
5-guanidinopentanoyl

>  <IUPAC>  (501) 
5-(((amino)(imino)methyl)amino)pentanoic acid

>  <TYPE>  (501) 
N-term cap

>  <CLASS>  (501) 
n_cap

>  <ANALOG>  (501) 
X

>  <MOL_WT>  (501) 
159.18900000000002

>  <LOGP>  (501) 
-0.2756300000000001

>  <TPSA>  (501) 
99.2

>  <POPULARITY>  (501) 
14.3

>  <PROTECTED>  (501) 
TRUE

>  <SMILES>  (501) 
NC(=N)NCCCCC(=O)O

>  <INCHIKEY>  (501) 
UKUBCVAQGIZRHL-UHFFFAOYSA-N

$$$$
5-oxa-2-azaspiro34octane-6-CO2H
     RDKit          2D

 11 12  0  0  0  0  0  0  0  0999 V2000
    3.3568   -0.6894    0.0000 N   0  0  0  0  0  0  0  0  0  0  0  0
    1.9927   -1.3134    0.0000 C   0  0  0  0  0  0  0  0  0  0  0  0
    1.3688    0.0507    0.0000 C   0  0  0  0  0  0  0  0  0  0  0  0
    2.7329    0.6747    0.0000 C   0  0  0  0  0  0  0  0  0  0  0  0
    0.1191   -0.7789    0.0000 O   0  0  0  0  0  0  0  0  0  0  0  0
   -1.0561    0.1533    0.0000 C   0  0  0  0  0  0  0  0  0  0  0  0
   -0.5327    1.5590    0.0000 C   0  0  0  0  0  0  0  0  0  0  0  0
    0.9660    1.4956    0.0000 C   0  0  0  0  0  0  0  0  0  0  0  0
   -2.5009   -0.2496    0.0000 C   0  0  0  0  0  0  0  0  0  0  0  0
   -2.8745   -1.7023    0.0000 O   0  0  0  0  0  0  0  0  0  0  0  0
   -3.5723    0.8003    0.0000 O   0  0  0  0  0  0  0  0  0  0  0  0
  1  2  1  0
  2  3  1  0
  3  4  1  0
  3  5  1  0
  5  6  1  0
  6  7  1  0
  7  8  1  0
  6  9  1  0
  9 10  2  0
  9 11  1  0
  8  3  1  0
  4  1  1  0
M  END
>  <rName>  (502) 
5-oxa-2-azaspiro34octane-6-CO2H

>  <PQ_SYMBOL>  (502) 
5-oxa-2-azaspiro34octane-6-CO2H

>  <FULL_NAME>  (502) 
5-Oxa-2-azaspiro[3.4]octane-6-carboxylic acid

>  <IUPAC_CONDENSED>  (502) 
5-oxa-2-azaspiro[3.4]octane-6-CO2H

>  <IUPAC>  (502) 
5-oxa-2-azaspiro[3.4]octane-6-carboxylic acid

>  <TYPE>  (502) 
Backbone

>  <CLASS>  (502) 
delta

>  <ANALOG>  (502) 
Val

>  <MOL_WT>  (502) 
157.16899999999998

>  <LOGP>  (502) 
-0.40800000000000064

>  <TPSA>  (502) 
58.56

>  <POPULARITY>  (502) 
4.0

>  <PROTECTED>  (502) 
TRUE

>  <SMILES>  (502) 
N2CC1(C2)OC(CC1)C(=O)O

>  <INCHIKEY>  (502) 
QBKPCKUEVNXLNE-UHFFFAOYSA-N

$$$$
5-oxa-2-azaspiro34octane-6-CO2H_6Me
     RDKit          2D

 12 13  0  0  0  0  0  0  0  0999 V2000
    3.5937   -0.3013    0.0000 N   0  0  0  0  0  0  0  0  0  0  0  0
    2.3667   -1.1641    0.0000 C   0  0  0  0  0  0  0  0  0  0  0  0
    1.5039    0.0628    0.0000 C   0  0  0  0  0  0  0  0  0  0  0  0
    2.7308    0.9257    0.0000 C   0  0  0  0  0  0  0  0  0  0  0  0
    0.4270   -0.9814    0.0000 O   0  0  0  0  0  0  0  0  0  0  0  0
   -0.8989   -0.2799    0.0000 C   0  0  0  0  0  0  0  0  0  0  0  0
   -1.4579   -1.6718    0.0000 C   0  0  0  0  0  0  0  0  0  0  0  0
   -0.6414    1.1979    0.0000 C   0  0  0  0  0  0  0  0  0  0  0  0
    0.8436    1.4097    0.0000 C   0  0  0  0  0  0  0  0  0  0  0  0
   -2.3416    0.1306    0.0000 C   0  0  0  0  0  0  0  0  0  0  0  0
   -3.4185   -0.9136    0.0000 O   0  0  0  0  0  0  0  0  0  0  0  0
   -2.7075    1.5853    0.0000 O   0  0  0  0  0  0  0  0  0  0  0  0
  1  2  1  0
  2  3  1  0
  3  4  1  0
  3  5  1  0
  5  6  1  0
  6  7  1  0
  6  8  1  0
  8  9  1  0
  6 10  1  0
 10 11  2  0
 10 12  1  0
  9  3  1  0
  4  1  1  0
M  END
>  <rName>  (503) 
5-oxa-2-azaspiro34octane-6-CO2H_6Me

>  <PQ_SYMBOL>  (503) 
5-oxa-2-azaspiro34octane-6-CO2H_6Me

>  <FULL_NAME>  (503) 
6-Methyl-5-oxa-2-azaspiro[3.4]octane-6-carboxylic acid

>  <IUPAC_CONDENSED>  (503) 
5-oxa-2-azaspiro[3.4]octane-6-CO2H(6-Me)

>  <IUPAC>  (503) 
6-methyl-5-oxa-2-azaspiro[3.4]octane-6-carboxylic acid

>  <TYPE>  (503) 
Backbone

>  <CLASS>  (503) 
delta

>  <ANALOG>  (503) 
Val

>  <MOL_WT>  (503) 
171.196

>  <LOGP>  (503) 
-0.01790000000000075

>  <TPSA>  (503) 
58.56

>  <POPULARITY>  (503) 
2.5

>  <PROTECTED>  (503) 
TRUE

>  <SMILES>  (503) 
N2CC1(C2)OC(C)(CC1)C(=O)O

>  <INCHIKEY>  (503) 
GRMZFRJBZKIGJJ-UHFFFAOYSA-N

$$$$
5-oxa-2-azaspiro34octane-7-CO2H
     RDKit          2D

 11 12  0  0  0  0  0  0  0  0999 V2000
    3.3568   -0.6894    0.0000 N   0  0  0  0  0  0  0  0  0  0  0  0
    1.9927   -1.3134    0.0000 C   0  0  0  0  0  0  0  0  0  0  0  0
    1.3688    0.0507    0.0000 C   0  0  0  0  0  0  0  0  0  0  0  0
    2.7329    0.6747    0.0000 C   0  0  0  0  0  0  0  0  0  0  0  0
    0.1191   -0.7789    0.0000 C   0  0  0  0  0  0  0  0  0  0  0  0
   -1.0561    0.1533    0.0000 C   0  0  0  0  0  0  0  0  0  0  0  0
   -0.5327    1.5590    0.0000 C   0  0  0  0  0  0  0  0  0  0  0  0
    0.9660    1.4956    0.0000 O   0  0  0  0  0  0  0  0  0  0  0  0
   -2.5009   -0.2496    0.0000 C   0  0  0  0  0  0  0  0  0  0  0  0
   -2.8745   -1.7023    0.0000 O   0  0  0  0  0  0  0  0  0  0  0  0
   -3.5723    0.8003    0.0000 O   0  0  0  0  0  0  0  0  0  0  0  0
  1  2  1  0
  2  3  1  0
  3  4  1  0
  3  5  1  0
  5  6  1  0
  6  7  1  0
  7  8  1  0
  6  9  1  0
  9 10  2  0
  9 11  1  0
  8  3  1  0
  4  1  1  0
M  END
>  <rName>  (504) 
5-oxa-2-azaspiro34octane-7-CO2H

>  <PQ_SYMBOL>  (504) 
5-oxa-2-azaspiro34octane-7-CO2H

>  <FULL_NAME>  (504) 
5-Oxa-2-azaspiro[3.4]octane-7-carboxylic acid

>  <IUPAC_CONDENSED>  (504) 
5-oxa-2-azaspiro[3.4]octane-7-CO2H

>  <IUPAC>  (504) 
5-oxa-2-azaspiro[3.4]octane-7-carboxylic acid

>  <TYPE>  (504) 
Backbone

>  <CLASS>  (504) 
delta

>  <ANALOG>  (504) 
Ser

>  <MOL_WT>  (504) 
157.16899999999998

>  <LOGP>  (504) 
-0.5505000000000002

>  <TPSA>  (504) 
58.56

>  <POPULARITY>  (504) 
2.9

>  <PROTECTED>  (504) 
TRUE

>  <SMILES>  (504) 
N2CC1(C2)CC(CO1)C(=O)O

>  <INCHIKEY>  (504) 
SYYWGSGPWFJYEG-UHFFFAOYSA-N

$$$$
5-oxa-2-azaspiro35nonane-7-CO2H
     RDKit          2D

 12 13  0  0  0  0  0  0  0  0999 V2000
    3.7678    0.0000    0.0000 N   0  0  0  0  0  0  0  0  0  0  0  0
    2.7071   -1.0607    0.0000 C   0  0  0  0  0  0  0  0  0  0  0  0
    1.6464    0.0000    0.0000 C   0  0  0  0  0  0  0  0  0  0  0  0
    2.7071    1.0607    0.0000 C   0  0  0  0  0  0  0  0  0  0  0  0
    0.8964    1.2990    0.0000 C   0  0  0  0  0  0  0  0  0  0  0  0
   -0.6036    1.2990    0.0000 C   0  0  0  0  0  0  0  0  0  0  0  0
   -1.3536   -0.0000    0.0000 C   0  0  0  0  0  0  0  0  0  0  0  0
   -0.6036   -1.2990    0.0000 C   0  0  0  0  0  0  0  0  0  0  0  0
    0.8964   -1.2990    0.0000 O   0  0  0  0  0  0  0  0  0  0  0  0
   -2.8536   -0.0000    0.0000 C   0  0  0  0  0  0  0  0  0  0  0  0
   -3.6036   -1.2990    0.0000 O   0  0  0  0  0  0  0  0  0  0  0  0
   -3.6036    1.2990    0.0000 O   0  0  0  0  0  0  0  0  0  0  0  0
  1  2  1  0
  2  3  1  0
  3  4  1  0
  3  5  1  0
  5  6  1  0
  6  7  1  0
  7  8  1  0
  8  9  1  0
  7 10  1  0
 10 11  2  0
 10 12  1  0
  9  3  1  0
  4  1  1  0
M  END
>  <rName>  (505) 
5-oxa-2-azaspiro35nonane-7-CO2H

>  <PQ_SYMBOL>  (505) 
5-oxa-2-azaspiro35nonane-7-CO2H

>  <FULL_NAME>  (505) 
O=C(O)C1CCC2(CNC2)OC1

>  <IUPAC_CONDENSED>  (505) 
5-oxa-2-azaspiro[3.5]nonane-7-CO2H

>  <IUPAC>  (505) 
5-oxa-2-azaspiro[3.5]nonane-7-carboxylic acid

>  <TYPE>  (505) 
Backbone

>  <CLASS>  (505) 
epsilon

>  <ANALOG>  (505) 
Ser

>  <MOL_WT>  (505) 
171.196

>  <LOGP>  (505) 
-0.16040000000000038

>  <TPSA>  (505) 
58.56

>  <POPULARITY>  (505) 
2.6

>  <PROTECTED>  (505) 
TRUE

>  <SMILES>  (505) 
N2CC1(C2)CCC(CO1)C(=O)O

>  <INCHIKEY>  (505) 
ZKGRCZFNXZSSDV-UHFFFAOYSA-N

$$$$
5-oxa-8-azaspiro35nonan-6-ylAc
     RDKit          2D

 13 14  0  0  0  0  0  0  0  0999 V2000
    1.4932   -2.3305    0.0000 N   0  0  0  0  0  0  0  0  0  0  0  0
   -0.0060   -2.2821    0.0000 C   0  0  0  0  0  0  0  0  0  0  0  0
   -0.7137   -0.9596    0.0000 C   0  0  0  0  0  0  0  0  0  0  0  0
    0.0778    0.3146    0.0000 O   0  0  0  0  0  0  0  0  0  0  0  0
    1.5770    0.2662    0.0000 C   0  0  0  0  0  0  0  0  0  0  0  0
    3.0376    0.6075    0.0000 C   0  0  0  0  0  0  0  0  0  0  0  0
    2.6963    2.0682    0.0000 C   0  0  0  0  0  0  0  0  0  0  0  0
    1.2357    1.7269    0.0000 C   0  0  0  0  0  0  0  0  0  0  0  0
    2.2847   -1.0563    0.0000 C   0  0  0  0  0  0  0  0  0  0  0  0
   -2.2129   -0.9112    0.0000 C   0  0  0  0  0  0  0  0  0  0  0  0
   -2.9207    0.4113    0.0000 C   0  0  0  0  0  0  0  0  0  0  0  0
   -2.1292    1.6855    0.0000 O   0  0  0  0  0  0  0  0  0  0  0  0
   -4.4199    0.4597    0.0000 O   0  0  0  0  0  0  0  0  0  0  0  0
  1  2  1  0
  2  3  1  0
  3  4  1  0
  4  5  1  0
  5  6  1  0
  6  7  1  0
  7  8  1  0
  5  9  1  0
  3 10  1  0
 10 11  1  0
 11 12  2  0
 11 13  1  0
  8  5  1  0
  9  1  1  0
M  END
>  <rName>  (506) 
5-oxa-8-azaspiro35nonan-6-ylAc

>  <PQ_SYMBOL>  (506) 
5-oxa-8-azaspiro35nonan-6-ylAc

>  <FULL_NAME>  (506) 
2-{5-Oxa-8-azaspiro[3.5]nonan-6-yl}acetic acid

>  <IUPAC_CONDENSED>  (506) 
5-oxa-8-azaspiro[3.5]nonan-6-ylAc

>  <IUPAC>  (506) 
2-(5-oxa-8-azaspiro[3.5]nonan-6-yl)acetic acid

>  <TYPE>  (506) 
Backbone

>  <CLASS>  (506) 
gamma

>  <ANALOG>  (506) 
Pro

>  <MOL_WT>  (506) 
185.22299999999998

>  <LOGP>  (506) 
0.3721999999999996

>  <TPSA>  (506) 
58.56

>  <POPULARITY>  (506) 
2.8

>  <PROTECTED>  (506) 
TRUE

>  <SMILES>  (506) 
N2CC(OC1(CCC1)C2)CC(=O)O

>  <INCHIKEY>  (506) 
BYLWERGVLXRGMI-UHFFFAOYSA-N

$$$$
5-oxa-8-azaspiro35nonane-2-CO2H
     RDKit          2D

 12 13  0  0  0  0  0  0  0  0999 V2000
    2.8839   -1.2990    0.0000 N   0  0  0  0  0  0  0  0  0  0  0  0
    1.3839   -1.2990    0.0000 C   0  0  0  0  0  0  0  0  0  0  0  0
    0.6339    0.0000    0.0000 C   0  0  0  0  0  0  0  0  0  0  0  0
    1.3839    1.2990    0.0000 O   0  0  0  0  0  0  0  0  0  0  0  0
    2.8839    1.2990    0.0000 C   0  0  0  0  0  0  0  0  0  0  0  0
    3.6339   -0.0000    0.0000 C   0  0  0  0  0  0  0  0  0  0  0  0
   -0.4268    1.0607    0.0000 C   0  0  0  0  0  0  0  0  0  0  0  0
   -1.4874    0.0000    0.0000 C   0  0  0  0  0  0  0  0  0  0  0  0
   -0.4268   -1.0607    0.0000 C   0  0  0  0  0  0  0  0  0  0  0  0
   -2.9874   -0.0000    0.0000 C   0  0  0  0  0  0  0  0  0  0  0  0
   -3.7374   -1.2990    0.0000 O   0  0  0  0  0  0  0  0  0  0  0  0
   -3.7374    1.2990    0.0000 O   0  0  0  0  0  0  0  0  0  0  0  0
  1  2  1  0
  2  3  1  0
  3  4  1  0
  4  5  1  0
  5  6  1  0
  3  7  1  0
  7  8  1  0
  8  9  1  0
  8 10  1  0
 10 11  2  0
 10 12  1  0
  9  3  1  0
  6  1  1  0
M  END
>  <rName>  (507) 
5-oxa-8-azaspiro35nonane-2-CO2H

>  <PQ_SYMBOL>  (507) 
5-oxa-8-azaspiro35nonane-2-CO2H

>  <FULL_NAME>  (507) 
O=C(O)C1CC2(CNCCO2)C1

>  <IUPAC_CONDENSED>  (507) 
5-oxa-8-azaspiro[3.5]nonane-2-CO2H

>  <IUPAC>  (507) 
5-oxa-8-azaspiro[3.5]nonane-2-carboxylic acid

>  <TYPE>  (507) 
Backbone

>  <CLASS>  (507) 
delta

>  <ANALOG>  (507) 
Pro

>  <MOL_WT>  (507) 
171.196

>  <LOGP>  (507) 
-0.16040000000000038

>  <TPSA>  (507) 
58.56

>  <POPULARITY>  (507) 
2.8

>  <PROTECTED>  (507) 
TRUE

>  <SMILES>  (507) 
N2CC1(OCC2)CC(C1)C(=O)O

>  <INCHIKEY>  (507) 
MLXDKVZRLHXNPM-UHFFFAOYSA-N

$$$$
5-oxa-8-azaspiro35nonane-6-CO2H
     RDKit          2D

 12 13  0  0  0  0  0  0  0  0999 V2000
    0.3150   -2.2836    0.0000 N   0  0  0  0  0  0  0  0  0  0  0  0
   -1.0411   -1.6426    0.0000 C   0  0  0  0  0  0  0  0  0  0  0  0
   -1.1640   -0.1476    0.0000 C   0  0  0  0  0  0  0  0  0  0  0  0
    0.0692    0.7063    0.0000 O   0  0  0  0  0  0  0  0  0  0  0  0
    1.4253    0.0652    0.0000 C   0  0  0  0  0  0  0  0  0  0  0  0
    2.9011   -0.2030    0.0000 C   0  0  0  0  0  0  0  0  0  0  0  0
    3.1694    1.2728    0.0000 C   0  0  0  0  0  0  0  0  0  0  0  0
    1.6935    1.5410    0.0000 C   0  0  0  0  0  0  0  0  0  0  0  0
    1.5482   -1.4297    0.0000 C   0  0  0  0  0  0  0  0  0  0  0  0
   -2.5201    0.4934    0.0000 C   0  0  0  0  0  0  0  0  0  0  0  0
   -3.7534   -0.3605    0.0000 O   0  0  0  0  0  0  0  0  0  0  0  0
   -2.6430    1.9884    0.0000 O   0  0  0  0  0  0  0  0  0  0  0  0
  1  2  1  0
  2  3  1  0
  3  4  1  0
  4  5  1  0
  5  6  1  0
  6  7  1  0
  7  8  1  0
  5  9  1  0
  3 10  1  0
 10 11  2  0
 10 12  1  0
  8  5  1  0
  9  1  1  0
M  END
>  <rName>  (508) 
5-oxa-8-azaspiro35nonane-6-CO2H

>  <PQ_SYMBOL>  (508) 
5-oxa-8-azaspiro35nonane-6-CO2H

>  <FULL_NAME>  (508) 
5-Oxa-8-azaspiro[3.5]nonane-6-carboxylic acid

>  <IUPAC_CONDENSED>  (508) 
5-oxa-8-azaspiro[3.5]nonane-6-CO2H

>  <IUPAC>  (508) 
5-oxa-8-azaspiro[3.5]nonane-6-carboxylic acid

>  <TYPE>  (508) 
Backbone

>  <CLASS>  (508) 
beta

>  <ANALOG>  (508) 
Pro

>  <MOL_WT>  (508) 
171.196

>  <LOGP>  (508) 
-0.017900000000000305

>  <TPSA>  (508) 
58.56

>  <POPULARITY>  (508) 
2.8

>  <PROTECTED>  (508) 
TRUE

>  <SMILES>  (508) 
N2CC(OC1(CCC1)C2)C(=O)O

>  <INCHIKEY>  (508) 
NNSINUBLLVXPST-UHFFFAOYSA-N

$$$$
5-oxa-8-azaspiro35nonane-6-CO2H_6R
     RDKit          2D

 12 13  0  0  0  0  0  0  0  0999 V2000
    0.3150   -2.2836    0.0000 N   0  0  0  0  0  0  0  0  0  0  0  0
   -1.0411   -1.6426    0.0000 C   0  0  0  0  0  0  0  0  0  0  0  0
   -1.1640   -0.1476    0.0000 C   0  0  0  0  0  0  0  0  0  0  0  0
    0.0692    0.7063    0.0000 O   0  0  0  0  0  0  0  0  0  0  0  0
    1.4253    0.0652    0.0000 C   0  0  0  0  0  0  0  0  0  0  0  0
    2.9011   -0.2030    0.0000 C   0  0  0  0  0  0  0  0  0  0  0  0
    3.1694    1.2728    0.0000 C   0  0  0  0  0  0  0  0  0  0  0  0
    1.6935    1.5410    0.0000 C   0  0  0  0  0  0  0  0  0  0  0  0
    1.5482   -1.4297    0.0000 C   0  0  0  0  0  0  0  0  0  0  0  0
   -2.5201    0.4934    0.0000 C   0  0  0  0  0  0  0  0  0  0  0  0
   -3.7534   -0.3605    0.0000 O   0  0  0  0  0  0  0  0  0  0  0  0
   -2.6430    1.9884    0.0000 O   0  0  0  0  0  0  0  0  0  0  0  0
  1  2  1  0
  2  3  1  0
  3  4  1  0
  4  5  1  0
  5  6  1  0
  6  7  1  0
  7  8  1  0
  5  9  1  0
  3 10  1  6
 10 11  2  0
 10 12  1  0
  8  5  1  0
  9  1  1  0
M  END
>  <rName>  (509) 
5-oxa-8-azaspiro35nonane-6-CO2H_6R

>  <PQ_SYMBOL>  (509) 
5-oxa-8-azaspiro35nonane-6-CO2H_6R

>  <FULL_NAME>  (509) 
O=C(O)[C@H]1CNCC2(CCC2)O1

>  <IUPAC_CONDENSED>  (509) 
5-oxa-8-azaspiro[3.5]nonane-6-CO2H(6R)

>  <IUPAC>  (509) 
(6R)-5-oxa-8-azaspiro[3.5]nonane-6-carboxylic acid

>  <TYPE>  (509) 
Backbone

>  <CLASS>  (509) 
beta

>  <ANALOG>  (509) 
Pro

>  <MOL_WT>  (509) 
171.196

>  <LOGP>  (509) 
-0.017900000000000305

>  <TPSA>  (509) 
58.56

>  <POPULARITY>  (509) 
2.8

>  <PROTECTED>  (509) 
TRUE

>  <SMILES>  (509) 
N2C[C@@H](OC1(CCC1)C2)C(=O)O

>  <INCHIKEY>  (509) 
NNSINUBLLVXPST-ZCFIWIBFSA-N

$$$$
5F-uracil-1-acetyl
     RDKit          2D

 13 13  0  0  0  0  0  0  0  0999 V2000
    3.9357   -0.2465    0.0000 O   0  0  0  0  0  0  0  0  0  0  0  0
    2.4558   -0.0015    0.0000 C   0  0  0  0  0  0  0  0  0  0  0  0
    1.5037   -1.1606    0.0000 C   0  0  0  0  0  0  0  0  0  0  0  0
    2.0314   -2.5647    0.0000 F   0  0  0  0  0  0  0  0  0  0  0  0
    0.0238   -0.9155    0.0000 C   0  0  0  0  0  0  0  0  0  0  0  0
   -0.5039    0.4886    0.0000 N   0  0  0  0  0  0  0  0  0  0  0  0
    0.4482    1.6477    0.0000 C   0  0  0  0  0  0  0  0  0  0  0  0
   -0.0795    3.0518    0.0000 O   0  0  0  0  0  0  0  0  0  0  0  0
    1.9281    1.4026    0.0000 N   0  0  0  0  0  0  0  0  0  0  0  0
   -1.9837    0.7336    0.0000 C   0  0  0  0  0  0  0  0  0  0  0  0
   -2.9359   -0.4255    0.0000 C   0  0  0  0  0  0  0  0  0  0  0  0
   -2.4081   -1.8296    0.0000 O   0  0  0  0  0  0  0  0  0  0  0  0
   -4.4157   -0.1804    0.0000 O   0  0  0  0  0  0  0  0  0  0  0  0
  1  2  2  0
  2  3  1  0
  3  4  1  0
  3  5  2  0
  5  6  1  0
  6  7  1  0
  7  8  2  0
  7  9  1  0
  6 10  1  0
 10 11  1  0
 11 12  2  0
 11 13  1  0
  9  2  1  0
M  END
>  <rName>  (510) 
5F-uracil-1-acetyl

>  <PQ_SYMBOL>  (510) 
5F-uracil-1-acetyl

>  <FULL_NAME>  (510) 
2-(5-fluoro-2,4-dioxopyrimidin-1-yl)acetic acid

>  <IUPAC_CONDENSED>  (510) 
5F-uracil-1-acetyl

>  <IUPAC>  (510) 
2-(5-fluoro-2,4-dioxo-1,3-diazacyclohex-5-en-1-yl)acetic acid

>  <TYPE>  (510) 
N-term cap

>  <CLASS>  (510) 
n_cap

>  <ANALOG>  (510) 
X

>  <MOL_WT>  (510) 
188.11399999999998

>  <LOGP>  (510) 
-1.2397000000000002

>  <TPSA>  (510) 
92.16000000000001

>  <POPULARITY>  (510) 
9.5

>  <PROTECTED>  (510) 
TRUE

>  <SMILES>  (510) 
O=c1c(F)cn(c(=O)[nH]1)CC(=O)O

>  <INCHIKEY>  (510) 
CPMUSDZOVZYEJJ-UHFFFAOYSA-N

$$$$
5Pal_2F
     RDKit          2D

 13 13  0  0  0  0  0  0  0  0999 V2000
   -1.5766    1.6851    0.0000 N   0  0  0  0  0  0  0  0  0  0  0  0
   -2.0128    0.2500    0.0000 C   0  0  0  0  0  0  0  0  0  0  0  0
   -0.9880   -0.8454    0.0000 C   0  0  0  0  0  0  0  0  0  0  0  0
    0.4730   -0.5055    0.0000 C   0  0  0  0  0  0  0  0  0  0  0  0
    0.9092    0.9296    0.0000 C   0  0  0  0  0  0  0  0  0  0  0  0
    2.3702    1.2695    0.0000 C   0  0  0  0  0  0  0  0  0  0  0  0
    3.3950    0.1741    0.0000 C   0  0  0  0  0  0  0  0  0  0  0  0
    4.8560    0.5140    0.0000 F   0  0  0  0  0  0  0  0  0  0  0  0
    2.9588   -1.2611    0.0000 N   0  0  0  0  0  0  0  0  0  0  0  0
    1.4978   -1.6009    0.0000 C   0  0  0  0  0  0  0  0  0  0  0  0
   -3.4738   -0.0899    0.0000 C   0  0  0  0  0  0  0  0  0  0  0  0
   -3.9100   -1.5250    0.0000 O   0  0  0  0  0  0  0  0  0  0  0  0
   -4.4986    1.0055    0.0000 O   0  0  0  0  0  0  0  0  0  0  0  0
  2  1  1  1
  2  3  1  0
  3  4  1  0
  4  5  1  0
  5  6  2  0
  6  7  1  0
  7  8  1  0
  7  9  2  0
  9 10  1  0
  2 11  1  0
 11 12  2  0
 11 13  1  0
 10  4  2  0
M  END
>  <rName>  (511) 
5Pal_2F

>  <PQ_SYMBOL>  (511) 
5Pal_2F

>  <FULL_NAME>  (511) 
(2S)-2-amino-3-(6-fluoropyridin-3-yl)propanoic Acid

>  <IUPAC_CONDENSED>  (511) 
5Pal(2-F)

>  <IUPAC>  (511) 
(2S)-2-amino-3-(6-fluoropyridin-3-yl)propanoic acid

>  <TYPE>  (511) 
Backbone

>  <CLASS>  (511) 
alpha

>  <ANALOG>  (511) 
Phe

>  <MOL_WT>  (511) 
184.17

>  <LOGP>  (511) 
0.17509999999999998

>  <TPSA>  (511) 
76.21

>  <POPULARITY>  (511) 
3.7

>  <PROTECTED>  (511) 
TRUE

>  <SMILES>  (511) 
N[C@@H](Cc1(ccc(F)nc1))C(=O)O

>  <INCHIKEY>  (511) 
PSPBMVIGHPBZQZ-LURJTMIESA-N

$$$$
5R-amino-cyclohex-3-ene-1S-CO2H
     RDKit          2D

 10 10  0  0  0  0  0  0  0  0999 V2000
    2.9197   -1.6440    0.0000 N   0  0  0  0  0  0  0  0  0  0  0  0
    1.8615   -0.5809    0.0000 C   0  0  0  0  0  0  0  0  0  0  0  0
    0.4117   -0.9659    0.0000 C   0  0  0  0  0  0  0  0  0  0  0  0
   -0.6466    0.0971    0.0000 C   0  0  0  0  0  0  0  0  0  0  0  0
   -0.2551    1.5451    0.0000 C   0  0  0  0  0  0  0  0  0  0  0  0
    1.1946    1.9301    0.0000 C   0  0  0  0  0  0  0  0  0  0  0  0
    2.2529    0.8671    0.0000 C   0  0  0  0  0  0  0  0  0  0  0  0
   -2.0963   -0.2879    0.0000 C   0  0  0  0  0  0  0  0  0  0  0  0
   -2.4878   -1.7359    0.0000 O   0  0  0  0  0  0  0  0  0  0  0  0
   -3.1546    0.7752    0.0000 O   0  0  0  0  0  0  0  0  0  0  0  0
  2  1  1  6
  2  3  1  0
  3  4  1  0
  4  5  1  0
  5  6  1  0
  6  7  2  0
  4  8  1  1
  8  9  2  0
  8 10  1  0
  7  2  1  0
M  END
>  <rName>  (512) 
5R-amino-cyclohex-3-ene-1S-CO2H

>  <PQ_SYMBOL>  (512) 
5R-amino-cyclohex-3-ene-1S-CO2H

>  <FULL_NAME>  (512) 
rac-(1R,5S)-5-aminocyclohex-3-ene-1-carboxylic acid

>  <IUPAC_CONDENSED>  (512) 
5R-amino-cyclohex-3-ene-1S-CO2H

>  <IUPAC>  (512) 
(1S,5R)-5-aminocyclohex-3-ene-1-carboxylic acid

>  <TYPE>  (512) 
Backbone

>  <CLASS>  (512) 
gamma

>  <ANALOG>  (512) 
Val

>  <MOL_WT>  (512) 
141.17

>  <LOGP>  (512) 
0.3645

>  <TPSA>  (512) 
63.32000000000001

>  <POPULARITY>  (512) 
2.2

>  <PROTECTED>  (512) 
TRUE

>  <SMILES>  (512) 
N[C@@H]1C[C@H](CC=C1)C(=O)O

>  <INCHIKEY>  (512) 
QOUDZMWPQSGONB-WDSKDSINSA-N

$$$$
5S-amino-cyclohex-3-ene-1R-CO2H
     RDKit          2D

 10 10  0  0  0  0  0  0  0  0999 V2000
    2.9197   -1.6440    0.0000 N   0  0  0  0  0  0  0  0  0  0  0  0
    1.8615   -0.5809    0.0000 C   0  0  0  0  0  0  0  0  0  0  0  0
    0.4117   -0.9659    0.0000 C   0  0  0  0  0  0  0  0  0  0  0  0
   -0.6466    0.0971    0.0000 C   0  0  0  0  0  0  0  0  0  0  0  0
   -0.2551    1.5451    0.0000 C   0  0  0  0  0  0  0  0  0  0  0  0
    1.1946    1.9301    0.0000 C   0  0  0  0  0  0  0  0  0  0  0  0
    2.2529    0.8671    0.0000 C   0  0  0  0  0  0  0  0  0  0  0  0
   -2.0963   -0.2879    0.0000 C   0  0  0  0  0  0  0  0  0  0  0  0
   -2.4878   -1.7359    0.0000 O   0  0  0  0  0  0  0  0  0  0  0  0
   -3.1546    0.7752    0.0000 O   0  0  0  0  0  0  0  0  0  0  0  0
  2  1  1  1
  2  3  1  0
  3  4  1  0
  4  5  1  0
  5  6  1  0
  6  7  2  0
  4  8  1  6
  8  9  2  0
  8 10  1  0
  7  2  1  0
M  END
>  <rName>  (513) 
5S-amino-cyclohex-3-ene-1R-CO2H

>  <PQ_SYMBOL>  (513) 
5S-amino-cyclohex-3-ene-1R-CO2H

>  <FULL_NAME>  (513) 
rel-(1R,5S)-5-Aminocyclohex-3-enecarboxylic acid

>  <IUPAC_CONDENSED>  (513) 
5S-amino-cyclohex-3-ene-1R-CO2H

>  <IUPAC>  (513) 
(1R,5S)-5-aminocyclohex-3-ene-1-carboxylic acid

>  <TYPE>  (513) 
Backbone

>  <CLASS>  (513) 
gamma

>  <ANALOG>  (513) 
Val

>  <MOL_WT>  (513) 
141.17

>  <LOGP>  (513) 
0.3645

>  <TPSA>  (513) 
63.32000000000001

>  <POPULARITY>  (513) 
7.1

>  <PROTECTED>  (513) 
TRUE

>  <SMILES>  (513) 
N[C@H]1C[C@@H](CC=C1)C(=O)O

>  <INCHIKEY>  (513) 
QOUDZMWPQSGONB-PHDIDXHHSA-N

$$$$
6-Ahx
     RDKit          2D

  9  8  0  0  0  0  0  0  0  0999 V2000
   -4.8948    0.3895    0.0000 N   0  0  0  0  0  0  0  0  0  0  0  0
   -3.6312   -0.4188    0.0000 C   0  0  0  0  0  0  0  0  0  0  0  0
   -2.2994    0.2714    0.0000 C   0  0  0  0  0  0  0  0  0  0  0  0
   -1.0358   -0.5368    0.0000 C   0  0  0  0  0  0  0  0  0  0  0  0
    0.2960    0.1534    0.0000 C   0  0  0  0  0  0  0  0  0  0  0  0
    1.5596   -0.6549    0.0000 C   0  0  0  0  0  0  0  0  0  0  0  0
    2.8913    0.0353    0.0000 C   0  0  0  0  0  0  0  0  0  0  0  0
    2.9595    1.5338    0.0000 O   0  0  0  0  0  0  0  0  0  0  0  0
    4.1550   -0.7729    0.0000 O   0  0  0  0  0  0  0  0  0  0  0  0
  1  2  1  0
  2  3  1  0
  3  4  1  0
  4  5  1  0
  5  6  1  0
  6  7  1  0
  7  8  2  0
  7  9  1  0
M  END
>  <rName>  (514) 
6-Ahx

>  <PQ_SYMBOL>  (514) 
6-Ahx

>  <FULL_NAME>  (514) 
6-aminohexanoic acid

>  <IUPAC_CONDENSED>  (514) 
6-Ahx

>  <IUPAC>  (514) 
6-aminohexanoic acid

>  <TYPE>  (514) 
Backbone

>  <CLASS>  (514) 
epsilon

>  <ANALOG>  (514) 
Gly

>  <MOL_WT>  (514) 
131.175

>  <LOGP>  (514) 
0.5901000000000001

>  <TPSA>  (514) 
63.32000000000001

>  <POPULARITY>  (514) 
37.6

>  <PROTECTED>  (514) 
TRUE

>  <SMILES>  (514) 
NCCCCCC(=O)O

>  <INCHIKEY>  (514) 
SLXKOJJOQWFEFD-UHFFFAOYSA-N

$$$$
6-Ahx_2CH2CF3
     RDKit          2D

 14 13  0  0  0  0  0  0  0  0999 V2000
    6.0989   -0.4640    0.0000 N   0  0  0  0  0  0  0  0  0  0  0  0
    4.7369    0.1645    0.0000 C   0  0  0  0  0  0  0  0  0  0  0  0
    3.5116   -0.7007    0.0000 C   0  0  0  0  0  0  0  0  0  0  0  0
    2.1497   -0.0723    0.0000 C   0  0  0  0  0  0  0  0  0  0  0  0
    0.9244   -0.9375    0.0000 C   0  0  0  0  0  0  0  0  0  0  0  0
   -0.4376   -0.3090    0.0000 C   0  0  0  0  0  0  0  0  0  0  0  0
   -1.6629   -1.1743    0.0000 C   0  0  0  0  0  0  0  0  0  0  0  0
   -3.0249   -0.5458    0.0000 C   0  0  0  0  0  0  0  0  0  0  0  0
   -4.3868    0.0827    0.0000 F   0  0  0  0  0  0  0  0  0  0  0  0
   -3.6534   -1.9078    0.0000 F   0  0  0  0  0  0  0  0  0  0  0  0
   -2.3964    0.8162    0.0000 F   0  0  0  0  0  0  0  0  0  0  0  0
   -0.5743    1.1847    0.0000 C   0  0  0  0  0  0  0  0  0  0  0  0
    0.6510    2.0500    0.0000 O   0  0  0  0  0  0  0  0  0  0  0  0
   -1.9363    1.8132    0.0000 O   0  0  0  0  0  0  0  0  0  0  0  0
  1  2  1  0
  2  3  1  0
  3  4  1  0
  4  5  1  0
  5  6  1  0
  6  7  1  0
  7  8  1  0
  8  9  1  0
  8 10  1  0
  8 11  1  0
  6 12  1  0
 12 13  2  0
 12 14  1  0
M  END
>  <rName>  (515) 
6-Ahx_2CH2CF3

>  <PQ_SYMBOL>  (515) 
6-Ahx_2CH2CF3

>  <FULL_NAME>  (515) 
6-Amino-2-(2,2,2-trifluoroethyl)hexanoic acid

>  <IUPAC_CONDENSED>  (515) 
6-Ahx(2-CH2CF3)

>  <IUPAC>  (515) 
6-amino-2-(2,2,2-trifluoroethyl)hexanoic acid

>  <TYPE>  (515) 
Backbone

>  <CLASS>  (515) 
epsilon

>  <ANALOG>  (515) 
X

>  <MOL_WT>  (515) 
213.19899999999996

>  <LOGP>  (515) 
1.7686000000000004

>  <TPSA>  (515) 
63.32000000000001

>  <POPULARITY>  (515) 
3.5

>  <PROTECTED>  (515) 
TRUE

>  <SMILES>  (515) 
NCCCCC(CC(F)(F)F)C(=O)O

>  <INCHIKEY>  (515) 
HADIFBBETYYENE-UHFFFAOYSA-N

$$$$
6-amino-bicyclo320heptane-3-CO2H
     RDKit          2D

 11 12  0  0  0  0  0  0  0  0999 V2000
    3.8806   -1.1559    0.0000 N   0  0  0  0  0  0  0  0  0  0  0  0
    2.6921   -0.2406    0.0000 C   0  0  0  0  0  0  0  0  0  0  0  0
    1.2046   -0.4339    0.0000 C   0  0  0  0  0  0  0  0  0  0  0  0
   -0.1504   -1.0773    0.0000 C   0  0  0  0  0  0  0  0  0  0  0  0
   -1.1810    0.0126    0.0000 C   0  0  0  0  0  0  0  0  0  0  0  0
   -0.4630    1.3296    0.0000 C   0  0  0  0  0  0  0  0  0  0  0  0
    1.0114    1.0537    0.0000 C   0  0  0  0  0  0  0  0  0  0  0  0
    2.4989    1.2469    0.0000 C   0  0  0  0  0  0  0  0  0  0  0  0
   -2.6685   -0.1806    0.0000 C   0  0  0  0  0  0  0  0  0  0  0  0
   -3.2450   -1.5654    0.0000 O   0  0  0  0  0  0  0  0  0  0  0  0
   -3.5796    1.0110    0.0000 O   0  0  0  0  0  0  0  0  0  0  0  0
  1  2  1  0
  2  3  1  0
  3  4  1  0
  4  5  1  0
  5  6  1  0
  6  7  1  0
  7  8  1  0
  5  9  1  0
  9 10  2  0
  9 11  1  0
  7  3  1  0
  8  2  1  0
M  END
>  <rName>  (516) 
6-amino-bicyclo320heptane-3-CO2H

>  <PQ_SYMBOL>  (516) 
6-amino-bicyclo320heptane-3-CO2H

>  <FULL_NAME>  (516) 
6-Aminobicyclo[3.2.0]heptane-3-carboxylic acid

>  <IUPAC_CONDENSED>  (516) 
6-amino-bicyclo[3.2.0]heptane-3-CO2H

>  <IUPAC>  (516) 
6-aminobicyclo[3.2.0]heptane-3-carboxylic acid

>  <TYPE>  (516) 
Backbone

>  <CLASS>  (516) 
delta

>  <ANALOG>  (516) 
Val

>  <MOL_WT>  (516) 
155.197

>  <LOGP>  (516) 
0.44439999999999985

>  <TPSA>  (516) 
63.32000000000001

>  <POPULARITY>  (516) 
4.9

>  <PROTECTED>  (516) 
TRUE

>  <SMILES>  (516) 
NC2C1CC(CC1C2)C(=O)O

>  <INCHIKEY>  (516) 
KFJMFKYYEAIWQF-UHFFFAOYSA-N

$$$$
6-amino-bicyclo411octane-1-CO2H
     RDKit          2D

 12 13  0  0  0  0  0  0  0  0999 V2000
    0.7886    1.9321    0.0000 N   0  0  0  0  0  0  0  0  0  0  0  0
   -0.5268    1.3971    0.0000 C   0  0  0  0  0  0  0  0  0  0  0  0
    0.5260    0.4442    0.0000 C   0  0  0  0  0  0  0  0  0  0  0  0
    0.4374   -0.9731    0.0000 C   0  0  0  0  0  0  0  0  0  0  0  0
   -0.7259   -1.7874    0.0000 C   0  0  0  0  0  0  0  0  0  0  0  0
   -2.0879   -1.3856    0.0000 C   0  0  0  0  0  0  0  0  0  0  0  0
   -2.6230   -0.0703    0.0000 C   0  0  0  0  0  0  0  0  0  0  0  0
   -1.9282    1.1681    0.0000 C   0  0  0  0  0  0  0  0  0  0  0  0
   -0.5078    0.0236    0.0000 C   0  0  0  0  0  0  0  0  0  0  0  0
    1.7527   -0.4380    0.0000 C   0  0  0  0  0  0  0  0  0  0  0  0
    1.9579    1.0479    0.0000 O   0  0  0  0  0  0  0  0  0  0  0  0
    2.9369   -1.3587    0.0000 O   0  0  0  0  0  0  0  0  0  0  0  0
  1  2  1  0
  2  3  1  0
  3  4  1  0
  4  5  1  0
  5  6  1  0
  6  7  1  0
  7  8  1  0
  4  9  1  0
  4 10  1  0
 10 11  2  0
 10 12  1  0
  8  2  1  0
  9  2  1  0
M  END
>  <rName>  (517) 
6-amino-bicyclo411octane-1-CO2H

>  <PQ_SYMBOL>  (517) 
6-amino-bicyclo411octane-1-CO2H

>  <FULL_NAME>  (517) 
6-Aminobicyclo[4.1.1]octane-1-carboxylic acid

>  <IUPAC_CONDENSED>  (517) 
6-amino-bicyclo[4.1.1]octane-1-CO2H

>  <IUPAC>  (517) 
6-aminobicyclo[4.1.1]octane-1-carboxylic acid

>  <TYPE>  (517) 
Backbone

>  <CLASS>  (517) 
gamma

>  <ANALOG>  (517) 
Leu

>  <MOL_WT>  (517) 
169.22400000000002

>  <LOGP>  (517) 
1.1227

>  <TPSA>  (517) 
63.32000000000001

>  <POPULARITY>  (517) 
2.6

>  <PROTECTED>  (517) 
TRUE

>  <SMILES>  (517) 
NC12CC(CCCC1)(C2)C(=O)O

>  <INCHIKEY>  (517) 
WMYADXUGVVVSDO-UHFFFAOYSA-N

$$$$
6-amino-cyclohex-3-ene-1-CO2H_1R_6S
     RDKit          2D

 10 10  0  0  0  0  0  0  0  0999 V2000
   -0.4166   -2.3203    0.0000 N   0  0  0  0  0  0  0  0  0  0  0  0
    0.3975   -1.0604    0.0000 C   0  0  0  0  0  0  0  0  0  0  0  0
   -0.2866    0.2745    0.0000 C   0  0  0  0  0  0  0  0  0  0  0  0
    0.5274    1.5344    0.0000 C   0  0  0  0  0  0  0  0  0  0  0  0
    2.0255    1.4594    0.0000 C   0  0  0  0  0  0  0  0  0  0  0  0
    2.7096    0.1244    0.0000 C   0  0  0  0  0  0  0  0  0  0  0  0
    1.8956   -1.1355    0.0000 C   0  0  0  0  0  0  0  0  0  0  0  0
   -1.7848    0.3495    0.0000 C   0  0  0  0  0  0  0  0  0  0  0  0
   -2.5988   -0.9104    0.0000 O   0  0  0  0  0  0  0  0  0  0  0  0
   -2.4688    1.6844    0.0000 O   0  0  0  0  0  0  0  0  0  0  0  0
  2  1  1  6
  2  3  1  0
  3  4  1  0
  4  5  1  0
  5  6  2  0
  6  7  1  0
  3  8  1  6
  8  9  2  0
  8 10  1  0
  7  2  1  0
M  END
>  <rName>  (518) 
6-amino-cyclohex-3-ene-1-CO2H_1R_6S

>  <PQ_SYMBOL>  (518) 
6-amino-cyclohex-3-ene-1-CO2H_1R_6S

>  <FULL_NAME>  (518) 
cis-2-Amino-4-cyclohexene-1-carboxylic acid

>  <IUPAC_CONDENSED>  (518) 
6-amino-cyclohex-3-ene-1-CO2H(1R,6S)

>  <IUPAC>  (518) 
(1R,6S)-6-aminocyclohex-3-ene-1-carboxylic acid

>  <TYPE>  (518) 
Backbone

>  <CLASS>  (518) 
beta

>  <ANALOG>  (518) 
Leu

>  <MOL_WT>  (518) 
141.17

>  <LOGP>  (518) 
0.3645

>  <TPSA>  (518) 
63.32000000000001

>  <POPULARITY>  (518) 
2.2

>  <PROTECTED>  (518) 
TRUE

>  <SMILES>  (518) 
N[C@@H]1[C@@H](CC=CC1)C(=O)O

>  <INCHIKEY>  (518) 
CQINMZNDBYQHKR-RITPCOANSA-N

$$$$
6-amino-cyclohex-3-ene-1-CO2H_1S_6R
     RDKit          2D

 10 10  0  0  0  0  0  0  0  0999 V2000
   -0.4166   -2.3203    0.0000 N   0  0  0  0  0  0  0  0  0  0  0  0
    0.3975   -1.0604    0.0000 C   0  0  0  0  0  0  0  0  0  0  0  0
   -0.2866    0.2745    0.0000 C   0  0  0  0  0  0  0  0  0  0  0  0
    0.5274    1.5344    0.0000 C   0  0  0  0  0  0  0  0  0  0  0  0
    2.0255    1.4594    0.0000 C   0  0  0  0  0  0  0  0  0  0  0  0
    2.7096    0.1244    0.0000 C   0  0  0  0  0  0  0  0  0  0  0  0
    1.8956   -1.1355    0.0000 C   0  0  0  0  0  0  0  0  0  0  0  0
   -1.7848    0.3495    0.0000 C   0  0  0  0  0  0  0  0  0  0  0  0
   -2.5988   -0.9104    0.0000 O   0  0  0  0  0  0  0  0  0  0  0  0
   -2.4688    1.6844    0.0000 O   0  0  0  0  0  0  0  0  0  0  0  0
  2  1  1  1
  2  3  1  0
  3  4  1  0
  4  5  1  0
  5  6  2  0
  6  7  1  0
  3  8  1  1
  8  9  2  0
  8 10  1  0
  7  2  1  0
M  END
>  <rName>  (519) 
6-amino-cyclohex-3-ene-1-CO2H_1S_6R

>  <PQ_SYMBOL>  (519) 
6-amino-cyclohex-3-ene-1-CO2H_1S_6R

>  <FULL_NAME>  (519) 
(1S,6R)-6-Ammoniocyclohex-3-enecarboxylate

>  <IUPAC_CONDENSED>  (519) 
6-amino-cyclohex-3-ene-1-CO2H(1S,6R)

>  <IUPAC>  (519) 
(1S,6R)-6-azaniumylcyclohex-3-ene-1-carboxylate

>  <TYPE>  (519) 
Backbone

>  <CLASS>  (519) 
beta

>  <ANALOG>  (519) 
Leu

>  <MOL_WT>  (519) 
141.17

>  <LOGP>  (519) 
0.3645

>  <TPSA>  (519) 
63.32000000000001

>  <POPULARITY>  (519) 
3.5

>  <PROTECTED>  (519) 
TRUE

>  <SMILES>  (519) 
N[C@H]1[C@H](CC=CC1)C(=O)O

>  <INCHIKEY>  (519) 
CQINMZNDBYQHKR-NTSWFWBYSA-N

$$$$
6-amino-spiro33heptane-2-CO2H
     RDKit          2D

 11 12  0  0  0  0  0  0  0  0999 V2000
    4.4161    0.0000    0.0000 N   0  0  0  0  0  0  0  0  0  0  0  0
    2.9161    0.0000    0.0000 C   0  0  0  0  0  0  0  0  0  0  0  0
    1.8554   -1.0607    0.0000 C   0  0  0  0  0  0  0  0  0  0  0  0
    0.7948    0.0000    0.0000 C   0  0  0  0  0  0  0  0  0  0  0  0
    1.8554    1.0607    0.0000 C   0  0  0  0  0  0  0  0  0  0  0  0
   -0.2659    1.0607    0.0000 C   0  0  0  0  0  0  0  0  0  0  0  0
   -1.3265    0.0000    0.0000 C   0  0  0  0  0  0  0  0  0  0  0  0
   -0.2659   -1.0607    0.0000 C   0  0  0  0  0  0  0  0  0  0  0  0
   -2.8265   -0.0000    0.0000 C   0  0  0  0  0  0  0  0  0  0  0  0
   -3.5765   -1.2990    0.0000 O   0  0  0  0  0  0  0  0  0  0  0  0
   -3.5765    1.2990    0.0000 O   0  0  0  0  0  0  0  0  0  0  0  0
  1  2  1  0
  2  3  1  0
  3  4  1  0
  4  5  1  0
  4  6  1  0
  6  7  1  0
  7  8  1  0
  7  9  1  0
  9 10  2  0
  9 11  1  0
  8  4  1  0
  5  2  1  0
M  END
>  <rName>  (520) 
6-amino-spiro33heptane-2-CO2H

>  <PQ_SYMBOL>  (520) 
6-amino-spiro33heptane-2-CO2H

>  <FULL_NAME>  (520) 
6-Aminospiro[3.3]heptane-2-carboxylic acid

>  <IUPAC_CONDENSED>  (520) 
6-amino-spiro[3.3]heptane-2-CO2H

>  <IUPAC>  (520) 
2-aminospiro[3.3]heptane-6-carboxylic acid

>  <TYPE>  (520) 
Backbone

>  <CLASS>  (520) 
epsilon

>  <ANALOG>  (520) 
Ala

>  <MOL_WT>  (520) 
155.197

>  <LOGP>  (520) 
0.5884999999999998

>  <TPSA>  (520) 
63.32000000000001

>  <POPULARITY>  (520) 
4.9

>  <PROTECTED>  (520) 
TRUE

>  <SMILES>  (520) 
NC2CC1(C2)CC(C1)C(=O)O

>  <INCHIKEY>  (520) 
OJFMDXUWUKVTNA-UHFFFAOYSA-N

$$$$
6-aminomethyl-3-oxabicyclo310hexane-6-CO2H_1R_5S_6R
     RDKit          2D

 11 12  0  0  0  0  0  0  0  0999 V2000
    2.7503   -1.3279    0.0000 N   0  0  0  0  0  0  0  0  0  0  0  0
    1.2579   -1.4786    0.0000 C   0  0  0  0  0  0  0  0  0  0  0  0
    0.3812   -0.2615    0.0000 C   0  0  0  0  0  0  0  0  0  0  0  0
   -0.9697   -0.9135    0.0000 C   0  0  0  0  0  0  0  0  0  0  0  0
   -2.4266   -1.2704    0.0000 C   0  0  0  0  0  0  0  0  0  0  0  0
   -3.2162    0.0049    0.0000 O   0  0  0  0  0  0  0  0  0  0  0  0
   -2.2474    1.1500    0.0000 C   0  0  0  0  0  0  0  0  0  0  0  0
   -0.8589    0.5824    0.0000 C   0  0  0  0  0  0  0  0  0  0  0  0
    1.4276    0.8133    0.0000 C   0  0  0  0  0  0  0  0  0  0  0  0
    1.0201    2.2568    0.0000 O   0  0  0  0  0  0  0  0  0  0  0  0
    2.8816    0.4444    0.0000 O   0  0  0  0  0  0  0  0  0  0  0  0
  1  2  1  0
  3  2  1  6
  3  4  1  0
  4  5  1  6
  5  6  1  0
  6  7  1  0
  8  7  1  6
  3  9  1  0
  9 10  2  0
  9 11  1  0
  8  3  1  0
  8  4  1  0
M  END
>  <rName>  (521) 
6-aminomethyl-3-oxabicyclo310hexane-6-CO2H_1R_5S_6R

>  <PQ_SYMBOL>  (521) 
6-aminomethyl-3-oxabicyclo310hexane-6-CO2H_1R_5S_6R

>  <FULL_NAME>  (521) 
NC[C@]1(C(=O)O)[C@@H]2COC[C@@H]21

>  <IUPAC_CONDENSED>  (521) 
6-aminomethyl-3-oxabicyclo[3.1.0]hexane-6-CO2H(1R,5S,6R)

>  <IUPAC>  (521) 
6-(aminomethyl)-3-oxabicyclo[3.1.0]hexane-6-carboxylic acid

>  <TYPE>  (521) 
Backbone

>  <CLASS>  (521) 
beta

>  <ANALOG>  (521) 
Ser

>  <MOL_WT>  (521) 
157.16899999999998

>  <LOGP>  (521) 
-0.7077

>  <TPSA>  (521) 
72.55

>  <POPULARITY>  (521) 
2.7

>  <PROTECTED>  (521) 
TRUE

>  <SMILES>  (521) 
NC[C@@]1([C@@H]2(COC[C@H]12))C(=O)O

>  <INCHIKEY>  (521) 
CHDGHTWSZOEOIB-KCQQBQQISA-N

$$$$
6-aminomethyl-oxane-3-CO2H
     RDKit          2D

 11 11  0  0  0  0  0  0  0  0999 V2000
   -4.1862    0.7785    0.0000 N   0  0  0  0  0  0  0  0  0  0  0  0
   -3.3137   -0.4417    0.0000 C   0  0  0  0  0  0  0  0  0  0  0  0
   -1.8208   -0.2961    0.0000 C   0  0  0  0  0  0  0  0  0  0  0  0
   -1.2003    1.0695    0.0000 C   0  0  0  0  0  0  0  0  0  0  0  0
    0.2926    1.2151    0.0000 C   0  0  0  0  0  0  0  0  0  0  0  0
    1.1651   -0.0051    0.0000 C   0  0  0  0  0  0  0  0  0  0  0  0
    0.5446   -1.3708    0.0000 C   0  0  0  0  0  0  0  0  0  0  0  0
   -0.9483   -1.5163    0.0000 O   0  0  0  0  0  0  0  0  0  0  0  0
    2.6580    0.1404    0.0000 C   0  0  0  0  0  0  0  0  0  0  0  0
    3.2784    1.5061    0.0000 O   0  0  0  0  0  0  0  0  0  0  0  0
    3.5305   -1.0797    0.0000 O   0  0  0  0  0  0  0  0  0  0  0  0
  1  2  1  0
  2  3  1  0
  3  4  1  0
  4  5  1  0
  5  6  1  0
  6  7  1  0
  7  8  1  0
  6  9  1  0
  9 10  2  0
  9 11  1  0
  8  3  1  0
M  END
>  <rName>  (522) 
6-aminomethyl-oxane-3-CO2H

>  <PQ_SYMBOL>  (522) 
6-aminomethyl-oxane-3-CO2H

>  <FULL_NAME>  (522) 
6-(Aminomethyl)oxane-3-carboxylic acid

>  <IUPAC_CONDENSED>  (522) 
6-aminomethyl-oxane-3-CO2H

>  <IUPAC>  (522) 
6-(aminomethyl)oxane-3-carboxylic acid

>  <TYPE>  (522) 
Backbone

>  <CLASS>  (522) 
epsilon

>  <ANALOG>  (522) 
Ser

>  <MOL_WT>  (522) 
159.185

>  <LOGP>  (522) 
-0.17510000000000053

>  <TPSA>  (522) 
72.55

>  <POPULARITY>  (522) 
4.4

>  <PROTECTED>  (522) 
TRUE

>  <SMILES>  (522) 
NCC1CCC(CO1)C(=O)O

>  <INCHIKEY>  (522) 
DOUGGARWNOAFBW-UHFFFAOYSA-N

$$$$
6-azabicyclo321octane-3-CO2H_1S_3S_5S
     RDKit          2D

 11 12  0  0  0  0  0  0  0  0999 V2000
    2.4566   -0.7100    0.0000 N   0  0  0  0  0  0  0  0  0  0  0  0
    1.3464   -1.5954    0.0000 C   0  0  0  0  0  0  0  0  0  0  0  0
   -0.0380   -1.2794    0.0000 C   0  0  0  0  0  0  0  0  0  0  0  0
   -0.6541    0.0000    0.0000 C   0  0  0  0  0  0  0  0  0  0  0  0
   -0.0380    1.2794    0.0000 C   0  0  0  0  0  0  0  0  0  0  0  0
    1.3464    1.5954    0.0000 C   0  0  0  0  0  0  0  0  0  0  0  0
    2.4566    0.7100    0.0000 C   0  0  0  0  0  0  0  0  0  0  0  0
    0.8464    0.0000    0.0000 C   0  0  0  0  0  0  0  0  0  0  0  0
   -2.0741   -0.0000    0.0000 C   0  0  0  0  0  0  0  0  0  0  0  0
   -2.8241   -1.2990    0.0000 O   0  0  0  0  0  0  0  0  0  0  0  0
   -2.8241    1.2990    0.0000 O   0  0  0  0  0  0  0  0  0  0  0  0
  1  2  1  0
  2  3  1  6
  3  4  1  0
  4  5  1  0
  6  5  1  6
  6  7  1  0
  6  8  1  0
  4  9  1  1
  9 10  2  0
  9 11  1  0
  7  1  1  0
  8  2  1  0
M  END
>  <rName>  (523) 
6-azabicyclo321octane-3-CO2H_1S_3S_5S

>  <PQ_SYMBOL>  (523) 
6-azabicyclo321octane-3-CO2H_1S_3S_5S

>  <FULL_NAME>  (523) 
O=C(O)[C@H]1C[C@@H]2CN[C@@H](C2)C1

>  <IUPAC_CONDENSED>  (523) 
6-azabicyclo[3.2.1]octane-3-CO2H(1S,3S,5S)

>  <IUPAC>  (523) 
(1S,3S,5S)-6-azabicyclo[3.2.1]octane-3-carboxylic acid

>  <TYPE>  (523) 
Backbone

>  <CLASS>  (523) 
gamma

>  <ANALOG>  (523) 
Pro

>  <MOL_WT>  (523) 
155.197

>  <LOGP>  (523) 
0.4591

>  <TPSA>  (523) 
49.33

>  <POPULARITY>  (523) 
2.9

>  <PROTECTED>  (523) 
TRUE

>  <SMILES>  (523) 
N1[C@@H]2C[C@H](C[C@H](C1)C2)C(=O)O

>  <INCHIKEY>  (523) 
UCGSUGYIUGQBFQ-ACZMJKKPSA-N

$$$$
6-azabicyclo321octane-5-CO2H_1R_5S
     RDKit          2D

 11 12  0  0  0  0  0  0  0  0999 V2000
    0.6012    0.6922    0.0000 N   0  0  0  0  0  0  0  0  0  0  0  0
    0.6156   -0.7277    0.0000 C   0  0  0  0  0  0  0  0  0  0  0  0
   -0.4856   -1.6243    0.0000 C   0  0  0  0  0  0  0  0  0  0  0  0
   -1.8732   -1.3223    0.0000 C   0  0  0  0  0  0  0  0  0  0  0  0
   -2.5022   -0.0492    0.0000 C   0  0  0  0  0  0  0  0  0  0  0  0
   -1.8990    1.2363    0.0000 C   0  0  0  0  0  0  0  0  0  0  0  0
   -0.5179    1.5663    0.0000 C   0  0  0  0  0  0  0  0  0  0  0  0
   -0.9495   -0.1397    0.0000 C   0  0  0  0  0  0  0  0  0  0  0  0
    1.8886   -0.0987    0.0000 C   0  0  0  0  0  0  0  0  0  0  0  0
    1.9856    1.3982    0.0000 O   0  0  0  0  0  0  0  0  0  0  0  0
    3.1365   -0.9311    0.0000 O   0  0  0  0  0  0  0  0  0  0  0  0
  1  2  1  0
  2  3  1  0
  3  4  1  0
  4  5  1  0
  6  5  1  1
  6  7  1  0
  6  8  1  0
  2  9  1  6
  9 10  2  0
  9 11  1  0
  7  1  1  0
  8  2  1  0
M  END
>  <rName>  (524) 
6-azabicyclo321octane-5-CO2H_1R_5S

>  <PQ_SYMBOL>  (524) 
6-azabicyclo321octane-5-CO2H_1R_5S

>  <FULL_NAME>  (524) 
(1R,5S)-6-Azabicyclo[3.2.1]octane-5-carboxylic acid

>  <IUPAC_CONDENSED>  (524) 
6-azabicyclo[3.2.1]octane-5-CO2H(1R,5S)

>  <IUPAC>  (524) 
(1R,5S)-6-azabicyclo[3.2.1]octane-5-carboxylic acid

>  <TYPE>  (524) 
Backbone

>  <CLASS>  (524) 
alpha

>  <ANALOG>  (524) 
Pro

>  <MOL_WT>  (524) 
155.197

>  <LOGP>  (524) 
0.6032

>  <TPSA>  (524) 
49.33

>  <POPULARITY>  (524) 
3.0

>  <PROTECTED>  (524) 
TRUE

>  <SMILES>  (524) 
N1[C@]2(CCC[C@@H](C1)C2)C(=O)O

>  <INCHIKEY>  (524) 
JMZDITNNFGJZLT-SVRRBLITSA-N

$$$$
6-azaspiro25octane-1-CO2H
     RDKit          2D

 11 12  0  0  0  0  0  0  0  0999 V2000
    2.9944   -0.8741    0.0000 N   0  0  0  0  0  0  0  0  0  0  0  0
    1.7112   -1.6510    0.0000 C   0  0  0  0  0  0  0  0  0  0  0  0
    0.3969   -0.9282    0.0000 C   0  0  0  0  0  0  0  0  0  0  0  0
    0.3656    0.5715    0.0000 C   0  0  0  0  0  0  0  0  0  0  0  0
    1.6488    1.3483    0.0000 C   0  0  0  0  0  0  0  0  0  0  0  0
    2.9631    0.6256    0.0000 C   0  0  0  0  0  0  0  0  0  0  0  0
   -1.1340    0.5402    0.0000 C   0  0  0  0  0  0  0  0  0  0  0  0
   -0.4113    1.8546    0.0000 C   0  0  0  0  0  0  0  0  0  0  0  0
   -2.4172   -0.2367    0.0000 C   0  0  0  0  0  0  0  0  0  0  0  0
   -2.3860   -1.7363    0.0000 O   0  0  0  0  0  0  0  0  0  0  0  0
   -3.7316    0.4861    0.0000 O   0  0  0  0  0  0  0  0  0  0  0  0
  1  2  1  0
  2  3  1  0
  3  4  1  0
  4  5  1  0
  5  6  1  0
  4  7  1  0
  7  8  1  0
  7  9  1  0
  9 10  2  0
  9 11  1  0
  8  4  1  0
  6  1  1  0
M  END
>  <rName>  (525) 
6-azaspiro25octane-1-CO2H

>  <PQ_SYMBOL>  (525) 
6-azaspiro25octane-1-CO2H

>  <FULL_NAME>  (525) 
6-Azaspiro[2.5]octane-1-carboxylic acid

>  <IUPAC_CONDENSED>  (525) 
6-azaspiro[2.5]octane-1-CO2H

>  <IUPAC>  (525) 
6-azaspiro[2.5]octane-1-carboxylic acid

>  <TYPE>  (525) 
Backbone

>  <CLASS>  (525) 
delta

>  <ANALOG>  (525) 
Pro

>  <MOL_WT>  (525) 
155.197

>  <LOGP>  (525) 
0.46069999999999983

>  <TPSA>  (525) 
49.33

>  <POPULARITY>  (525) 
7.0

>  <PROTECTED>  (525) 
TRUE

>  <SMILES>  (525) 
N2CCC1(CC2)C(C1)C(=O)O

>  <INCHIKEY>  (525) 
IGWUPWROVTYRES-UHFFFAOYSA-N

$$$$
6-azaspiro25octane-1-CO2H_1S
     RDKit          2D

 11 12  0  0  0  0  0  0  0  0999 V2000
    2.9944   -0.8741    0.0000 N   0  0  0  0  0  0  0  0  0  0  0  0
    1.7112   -1.6510    0.0000 C   0  0  0  0  0  0  0  0  0  0  0  0
    0.3969   -0.9282    0.0000 C   0  0  0  0  0  0  0  0  0  0  0  0
    0.3656    0.5715    0.0000 C   0  0  0  0  0  0  0  0  0  0  0  0
    1.6488    1.3483    0.0000 C   0  0  0  0  0  0  0  0  0  0  0  0
    2.9631    0.6256    0.0000 C   0  0  0  0  0  0  0  0  0  0  0  0
   -1.1340    0.5402    0.0000 C   0  0  0  0  0  0  0  0  0  0  0  0
   -0.4113    1.8546    0.0000 C   0  0  0  0  0  0  0  0  0  0  0  0
   -2.4172   -0.2367    0.0000 C   0  0  0  0  0  0  0  0  0  0  0  0
   -2.3860   -1.7363    0.0000 O   0  0  0  0  0  0  0  0  0  0  0  0
   -3.7316    0.4861    0.0000 O   0  0  0  0  0  0  0  0  0  0  0  0
  1  2  1  0
  2  3  1  0
  3  4  1  0
  4  5  1  0
  5  6  1  0
  4  7  1  0
  7  8  1  0
  7  9  1  1
  9 10  2  0
  9 11  1  0
  8  4  1  0
  6  1  1  0
M  END
>  <rName>  (526) 
6-azaspiro25octane-1-CO2H_1S

>  <PQ_SYMBOL>  (526) 
6-azaspiro25octane-1-CO2H_1S

>  <FULL_NAME>  (526) 
(S)-6-Azaspiro[2.5]octane-1-carboxylic acid

>  <IUPAC_CONDENSED>  (526) 
6-azaspiro[2.5]octane-1-CO2H(1S)

>  <IUPAC>  (526) 
(2S)-6-azaspiro[2.5]octane-2-carboxylic acid

>  <TYPE>  (526) 
Backbone

>  <CLASS>  (526) 
delta

>  <ANALOG>  (526) 
Pro

>  <MOL_WT>  (526) 
155.197

>  <LOGP>  (526) 
0.46069999999999983

>  <TPSA>  (526) 
49.33

>  <POPULARITY>  (526) 
2.2

>  <PROTECTED>  (526) 
TRUE

>  <SMILES>  (526) 
N2CCC1(CC2)[C@H](C1)C(=O)O

>  <INCHIKEY>  (526) 
IGWUPWROVTYRES-ZCFIWIBFSA-N

$$$$
6-azaspiro25octane-1-CO2H_44diF
     RDKit          2D

 13 14  0  0  0  0  0  0  0  0999 V2000
    2.4376   -1.7814    0.0000 N   0  0  0  0  0  0  0  0  0  0  0  0
    1.0250   -2.2862    0.0000 C   0  0  0  0  0  0  0  0  0  0  0  0
   -0.1184   -1.3153    0.0000 C   0  0  0  0  0  0  0  0  0  0  0  0
    0.1507    0.1604    0.0000 C   0  0  0  0  0  0  0  0  0  0  0  0
    1.5633    0.6652    0.0000 C   0  0  0  0  0  0  0  0  0  0  0  0
    0.8209    1.9686    0.0000 F   0  0  0  0  0  0  0  0  0  0  0  0
    2.7180    1.6226    0.0000 F   0  0  0  0  0  0  0  0  0  0  0  0
    2.7067   -0.3057    0.0000 C   0  0  0  0  0  0  0  0  0  0  0  0
   -1.3249    0.4295    0.0000 C   0  0  0  0  0  0  0  0  0  0  0  0
   -0.3540    1.5729    0.0000 C   0  0  0  0  0  0  0  0  0  0  0  0
   -2.7374   -0.0753    0.0000 C   0  0  0  0  0  0  0  0  0  0  0  0
   -3.0065   -1.5509    0.0000 O   0  0  0  0  0  0  0  0  0  0  0  0
   -3.8808    0.8956    0.0000 O   0  0  0  0  0  0  0  0  0  0  0  0
  1  2  1  0
  2  3  1  0
  3  4  1  0
  4  5  1  0
  5  6  1  0
  5  7  1  0
  5  8  1  0
  4  9  1  0
  9 10  1  0
  9 11  1  0
 11 12  2  0
 11 13  1  0
 10  4  1  0
  8  1  1  0
M  END
>  <rName>  (527) 
6-azaspiro25octane-1-CO2H_44diF

>  <PQ_SYMBOL>  (527) 
6-azaspiro25octane-1-CO2H_44diF

>  <FULL_NAME>  (527) 
O=C(O)C1CC12CCNCC2(F)F

>  <IUPAC_CONDENSED>  (527) 
6-azaspiro[2.5]octane-1-CO2H(4,4-diF)

>  <IUPAC>  (527) 
4,4-difluoro-6-azaspiro[2.5]octane-1-carboxylic acid

>  <TYPE>  (527) 
Backbone

>  <CLASS>  (527) 
delta

>  <ANALOG>  (527) 
Pro

>  <MOL_WT>  (527) 
191.177

>  <LOGP>  (527) 
0.7059000000000002

>  <TPSA>  (527) 
49.33

>  <POPULARITY>  (527) 
2.6

>  <PROTECTED>  (527) 
TRUE

>  <SMILES>  (527) 
N2CCC1(C(F)(F)C2)C(C1)C(=O)O

>  <INCHIKEY>  (527) 
RLZKKNLSDYMCJF-UHFFFAOYSA-N

$$$$
6-azaspiro34octan-2-ylAc
     RDKit          2D

 12 13  0  0  0  0  0  0  0  0999 V2000
   -3.4208   -1.1256    0.0000 N   0  0  0  0  0  0  0  0  0  0  0  0
   -1.9262   -1.2521    0.0000 C   0  0  0  0  0  0  0  0  0  0  0  0
   -1.3440    0.1304    0.0000 C   0  0  0  0  0  0  0  0  0  0  0  0
   -2.4789    1.1112    0.0000 C   0  0  0  0  0  0  0  0  0  0  0  0
   -3.7624    0.3350    0.0000 C   0  0  0  0  0  0  0  0  0  0  0  0
   -0.0697   -0.6609    0.0000 C   0  0  0  0  0  0  0  0  0  0  0  0
    0.7216    0.6135    0.0000 C   0  0  0  0  0  0  0  0  0  0  0  0
   -0.5528    1.4047    0.0000 C   0  0  0  0  0  0  0  0  0  0  0  0
    2.1822    0.9551    0.0000 C   0  0  0  0  0  0  0  0  0  0  0  0
    3.2083   -0.1390    0.0000 C   0  0  0  0  0  0  0  0  0  0  0  0
    2.7738   -1.5747    0.0000 O   0  0  0  0  0  0  0  0  0  0  0  0
    4.6689    0.2026    0.0000 O   0  0  0  0  0  0  0  0  0  0  0  0
  1  2  1  0
  2  3  1  0
  3  4  1  0
  4  5  1  0
  3  6  1  0
  6  7  1  0
  7  8  1  0
  7  9  1  0
  9 10  1  0
 10 11  2  0
 10 12  1  0
  8  3  1  0
  5  1  1  0
M  END
>  <rName>  (528) 
6-azaspiro34octan-2-ylAc

>  <PQ_SYMBOL>  (528) 
6-azaspiro34octan-2-ylAc

>  <FULL_NAME>  (528) 
2-{6-Azaspiro[3.4]octan-2-yl}acetic acid

>  <IUPAC_CONDENSED>  (528) 
6-azaspiro[3.4]octan-2-ylAc

>  <IUPAC>  (528) 
2-(6-azaspiro[3.4]octan-2-yl)acetic acid

>  <TYPE>  (528) 
Backbone

>  <CLASS>  (528) 
epsilon

>  <ANALOG>  (528) 
Pro

>  <MOL_WT>  (528) 
169.224

>  <LOGP>  (528) 
0.8507999999999998

>  <TPSA>  (528) 
49.33

>  <POPULARITY>  (528) 
2.8

>  <PROTECTED>  (528) 
TRUE

>  <SMILES>  (528) 
N2CC1(CC2)CC(C1)CC(=O)O

>  <INCHIKEY>  (528) 
DPZAZLHFSRADKG-UHFFFAOYSA-N

$$$$
6-azaspiro34octane-2-CO2H
     RDKit          2D

 11 12  0  0  0  0  0  0  0  0999 V2000
   -3.2380   -0.7500    0.0000 N   0  0  0  0  0  0  0  0  0  0  0  0
   -1.8114   -1.2135    0.0000 C   0  0  0  0  0  0  0  0  0  0  0  0
   -0.9297    0.0000    0.0000 C   0  0  0  0  0  0  0  0  0  0  0  0
   -1.8114    1.2135    0.0000 C   0  0  0  0  0  0  0  0  0  0  0  0
   -3.2380    0.7500    0.0000 C   0  0  0  0  0  0  0  0  0  0  0  0
    0.1310   -1.0607    0.0000 C   0  0  0  0  0  0  0  0  0  0  0  0
    1.1916   -0.0000    0.0000 C   0  0  0  0  0  0  0  0  0  0  0  0
    0.1310    1.0607    0.0000 C   0  0  0  0  0  0  0  0  0  0  0  0
    2.6916    0.0000    0.0000 C   0  0  0  0  0  0  0  0  0  0  0  0
    3.4416    1.2990    0.0000 O   0  0  0  0  0  0  0  0  0  0  0  0
    3.4416   -1.2990    0.0000 O   0  0  0  0  0  0  0  0  0  0  0  0
  1  2  1  0
  2  3  1  0
  3  4  1  0
  4  5  1  0
  3  6  1  0
  6  7  1  0
  7  8  1  0
  7  9  1  0
  9 10  2  0
  9 11  1  0
  8  3  1  0
  5  1  1  0
M  END
>  <rName>  (529) 
6-azaspiro34octane-2-CO2H

>  <PQ_SYMBOL>  (529) 
6-azaspiro34octane-2-CO2H

>  <FULL_NAME>  (529) 
6-Azaspiro[3.4]octane-2-carboxylic acid

>  <IUPAC_CONDENSED>  (529) 
6-azaspiro[3.4]octane-2-CO2H

>  <IUPAC>  (529) 
6-azaspiro[3.4]octane-2-carboxylic acid

>  <TYPE>  (529) 
Backbone

>  <CLASS>  (529) 
delta

>  <ANALOG>  (529) 
Pro

>  <MOL_WT>  (529) 
155.197

>  <LOGP>  (529) 
0.46069999999999983

>  <TPSA>  (529) 
49.33

>  <POPULARITY>  (529) 
4.0

>  <PROTECTED>  (529) 
TRUE

>  <SMILES>  (529) 
N2CC1(CC2)CC(C1)C(=O)O

>  <INCHIKEY>  (529) 
JQCRUNOOEZBCLL-UHFFFAOYSA-N

$$$$
6-azaspiro34octane-2-CO2H_2OH
     RDKit          2D

 12 13  0  0  0  0  0  0  0  0999 V2000
   -3.3987   -0.4823    0.0000 N   0  0  0  0  0  0  0  0  0  0  0  0
   -2.0637   -1.1662    0.0000 C   0  0  0  0  0  0  0  0  0  0  0  0
   -1.0007   -0.1078    0.0000 C   0  0  0  0  0  0  0  0  0  0  0  0
   -1.6788    1.2302    0.0000 C   0  0  0  0  0  0  0  0  0  0  0  0
   -3.1608    0.9987    0.0000 C   0  0  0  0  0  0  0  0  0  0  0  0
   -0.1217   -1.3233    0.0000 C   0  0  0  0  0  0  0  0  0  0  0  0
    1.0938   -0.4442    0.0000 C   0  0  0  0  0  0  0  0  0  0  0  0
    1.9728   -1.6597    0.0000 O   0  0  0  0  0  0  0  0  0  0  0  0
    0.2147    0.7712    0.0000 C   0  0  0  0  0  0  0  0  0  0  0  0
    2.3092    0.4348    0.0000 C   0  0  0  0  0  0  0  0  0  0  0  0
    2.1557    1.9269    0.0000 O   0  0  0  0  0  0  0  0  0  0  0  0
    3.6782   -0.1783    0.0000 O   0  0  0  0  0  0  0  0  0  0  0  0
  1  2  1  0
  2  3  1  0
  3  4  1  0
  4  5  1  0
  3  6  1  0
  6  7  1  0
  7  8  1  0
  7  9  1  0
  7 10  1  0
 10 11  2  0
 10 12  1  0
  9  3  1  0
  5  1  1  0
M  END
>  <rName>  (530) 
6-azaspiro34octane-2-CO2H_2OH

>  <PQ_SYMBOL>  (530) 
6-azaspiro34octane-2-CO2H_2OH

>  <FULL_NAME>  (530) 
2-Hydroxy-6-azaspiro[3.4]octane-2-carboxylic acid

>  <IUPAC_CONDENSED>  (530) 
6-azaspiro[3.4]octane-2-CO2H(2-OH)

>  <IUPAC>  (530) 
2-hydroxy-6-azaspiro[3.4]octane-2-carboxylic acid

>  <TYPE>  (530) 
Backbone

>  <CLASS>  (530) 
delta

>  <ANALOG>  (530) 
Pro

>  <MOL_WT>  (530) 
171.196

>  <LOGP>  (530) 
-0.4244000000000004

>  <TPSA>  (530) 
69.56

>  <POPULARITY>  (530) 
2.6

>  <PROTECTED>  (530) 
TRUE

>  <SMILES>  (530) 
N2CC1(CC2)CC(O)(C1)C(=O)O

>  <INCHIKEY>  (530) 
MMPRUSXCBHIFFB-UHFFFAOYSA-N

$$$$
6-azaspiro34octane-2-CO2H_8CN
     RDKit          2D

 13 14  0  0  0  0  0  0  0  0999 V2000
   -2.8022   -1.7755    0.0000 N   0  0  0  0  0  0  0  0  0  0  0  0
   -1.3170   -1.9862    0.0000 C   0  0  0  0  0  0  0  0  0  0  0  0
   -0.6577   -0.6388    0.0000 C   0  0  0  0  0  0  0  0  0  0  0  0
   -1.7354    0.4045    0.0000 C   0  0  0  0  0  0  0  0  0  0  0  0
   -1.5247    1.8897    0.0000 C   0  0  0  0  0  0  0  0  0  0  0  0
   -1.3140    3.3748    0.0000 N   0  0  0  0  0  0  0  0  0  0  0  0
   -3.0607   -0.2979    0.0000 C   0  0  0  0  0  0  0  0  0  0  0  0
    0.5699   -1.5008    0.0000 C   0  0  0  0  0  0  0  0  0  0  0  0
    1.4318   -0.2732    0.0000 C   0  0  0  0  0  0  0  0  0  0  0  0
    0.2042    0.5888    0.0000 C   0  0  0  0  0  0  0  0  0  0  0  0
    2.9094   -0.0146    0.0000 C   0  0  0  0  0  0  0  0  0  0  0  0
    3.4243    1.3942    0.0000 O   0  0  0  0  0  0  0  0  0  0  0  0
    3.8721   -1.1650    0.0000 O   0  0  0  0  0  0  0  0  0  0  0  0
  1  2  1  0
  2  3  1  0
  3  4  1  0
  4  5  1  0
  5  6  3  0
  4  7  1  0
  3  8  1  0
  8  9  1  0
  9 10  1  0
  9 11  1  0
 11 12  2  0
 11 13  1  0
 10  3  1  0
  7  1  1  0
M  END
>  <rName>  (531) 
6-azaspiro34octane-2-CO2H_8CN

>  <PQ_SYMBOL>  (531) 
6-azaspiro34octane-2-CO2H_8CN

>  <FULL_NAME>  (531) 
8-Cyano-6-azaspiro[3.4]octane-2-carboxylic acid

>  <IUPAC_CONDENSED>  (531) 
6-azaspiro[3.4]octane-2-CO2H(8-CN)

>  <IUPAC>  (531) 
8-cyano-6-azaspiro[3.4]octane-2-carboxylic acid

>  <TYPE>  (531) 
Backbone

>  <CLASS>  (531) 
delta

>  <ANALOG>  (531) 
Pro

>  <MOL_WT>  (531) 
180.207

>  <LOGP>  (531) 
0.21037999999999973

>  <TPSA>  (531) 
73.12

>  <POPULARITY>  (531) 
2.7

>  <PROTECTED>  (531) 
TRUE

>  <SMILES>  (531) 
N2CC1(C(C#N)C2)CC(C1)C(=O)O

>  <INCHIKEY>  (531) 
BLMGNDGADNHVHS-UHFFFAOYSA-N

$$$$
6-azaspiro34octane-8-CO2H
     RDKit          2D

 11 12  0  0  0  0  0  0  0  0999 V2000
    1.3312    2.2264    0.0000 N   0  0  0  0  0  0  0  0  0  0  0  0
   -0.1570    2.0385    0.0000 C   0  0  0  0  0  0  0  0  0  0  0  0
   -0.4381    0.5650    0.0000 C   0  0  0  0  0  0  0  0  0  0  0  0
    0.8764   -0.1576    0.0000 C   0  0  0  0  0  0  0  0  0  0  0  0
   -0.0430   -1.3428    0.0000 C   0  0  0  0  0  0  0  0  0  0  0  0
    1.1422   -2.2622    0.0000 C   0  0  0  0  0  0  0  0  0  0  0  0
    2.0616   -1.0770    0.0000 C   0  0  0  0  0  0  0  0  0  0  0  0
    1.9698    0.8692    0.0000 C   0  0  0  0  0  0  0  0  0  0  0  0
   -1.7953   -0.0736    0.0000 C   0  0  0  0  0  0  0  0  0  0  0  0
   -1.9209   -1.5684    0.0000 O   0  0  0  0  0  0  0  0  0  0  0  0
   -3.0270    0.7825    0.0000 O   0  0  0  0  0  0  0  0  0  0  0  0
  1  2  1  0
  2  3  1  0
  3  4  1  0
  4  5  1  0
  5  6  1  0
  6  7  1  0
  4  8  1  0
  3  9  1  0
  9 10  2  0
  9 11  1  0
  7  4  1  0
  8  1  1  0
M  END
>  <rName>  (532) 
6-azaspiro34octane-8-CO2H

>  <PQ_SYMBOL>  (532) 
6-azaspiro34octane-8-CO2H

>  <FULL_NAME>  (532) 
6-Azaspiro[3.4]octane-8-carboxylic acid

>  <IUPAC_CONDENSED>  (532) 
6-azaspiro[3.4]octane-8-CO2H

>  <IUPAC>  (532) 
6-azaspiro[3.4]octane-8-carboxylic acid

>  <TYPE>  (532) 
Backbone

>  <CLASS>  (532) 
beta

>  <ANALOG>  (532) 
Pro

>  <MOL_WT>  (532) 
155.197

>  <LOGP>  (532) 
0.46069999999999983

>  <TPSA>  (532) 
49.33

>  <POPULARITY>  (532) 
4.2

>  <PROTECTED>  (532) 
TRUE

>  <SMILES>  (532) 
N2CC(C1(CCC1)C2)C(=O)O

>  <INCHIKEY>  (532) 
AJTKZEFIABHKGM-UHFFFAOYSA-N

$$$$
6-azaspiro34octane-8-CO2H_8F
     RDKit          2D

 12 13  0  0  0  0  0  0  0  0999 V2000
   -2.7133   -0.0713    0.0000 N   0  0  0  0  0  0  0  0  0  0  0  0
   -1.8264   -1.2810    0.0000 C   0  0  0  0  0  0  0  0  0  0  0  0
   -0.4018   -0.8113    0.0000 C   0  0  0  0  0  0  0  0  0  0  0  0
   -0.0836   -2.2772    0.0000 F   0  0  0  0  0  0  0  0  0  0  0  0
   -0.4082    0.6886    0.0000 C   0  0  0  0  0  0  0  0  0  0  0  0
    1.0743    0.4604    0.0000 C   0  0  0  0  0  0  0  0  0  0  0  0
    1.3026    1.9429    0.0000 C   0  0  0  0  0  0  0  0  0  0  0  0
   -0.1800    2.1712    0.0000 C   0  0  0  0  0  0  0  0  0  0  0  0
   -1.8368    1.1460    0.0000 C   0  0  0  0  0  0  0  0  0  0  0  0
    1.0893   -0.6482    0.0000 C   0  0  0  0  0  0  0  0  0  0  0  0
    1.9762   -1.8579    0.0000 O   0  0  0  0  0  0  0  0  0  0  0  0
    2.0078    0.5378    0.0000 O   0  0  0  0  0  0  0  0  0  0  0  0
  1  2  1  0
  2  3  1  0
  3  4  1  0
  3  5  1  0
  5  6  1  0
  6  7  1  0
  7  8  1  0
  5  9  1  0
  3 10  1  0
 10 11  2  0
 10 12  1  0
  8  5  1  0
  9  1  1  0
M  END
>  <rName>  (533) 
6-azaspiro34octane-8-CO2H_8F

>  <PQ_SYMBOL>  (533) 
6-azaspiro34octane-8-CO2H_8F

>  <FULL_NAME>  (533) 
8-Fluoro-6-azaspiro[3.4]octane-8-carboxylic acid

>  <IUPAC_CONDENSED>  (533) 
6-azaspiro[3.4]octane-8-CO2H(8-F)

>  <IUPAC>  (533) 
8-fluoro-6-azaspiro[3.4]octane-8-carboxylic acid

>  <TYPE>  (533) 
Backbone

>  <CLASS>  (533) 
beta

>  <ANALOG>  (533) 
Pro

>  <MOL_WT>  (533) 
173.18699999999998

>  <LOGP>  (533) 
0.5528

>  <TPSA>  (533) 
49.33

>  <POPULARITY>  (533) 
2.8

>  <PROTECTED>  (533) 
TRUE

>  <SMILES>  (533) 
N2CC(F)(C1(CCC1)C2)C(=O)O

>  <INCHIKEY>  (533) 
GITCKFHFBDGNIW-UHFFFAOYSA-N

$$$$
6-azaspiro45decane-8-CO2H
     RDKit          2D

 13 14  0  0  0  0  0  0  0  0999 V2000
   -0.6054    1.2990    0.0000 N   0  0  0  0  0  0  0  0  0  0  0  0
    0.8946    1.2990    0.0000 C   0  0  0  0  0  0  0  0  0  0  0  0
    1.6446    0.0000    0.0000 C   0  0  0  0  0  0  0  0  0  0  0  0
    0.8946   -1.2990    0.0000 C   0  0  0  0  0  0  0  0  0  0  0  0
   -0.6054   -1.2990    0.0000 C   0  0  0  0  0  0  0  0  0  0  0  0
   -1.3554    0.0000    0.0000 C   0  0  0  0  0  0  0  0  0  0  0  0
   -2.2371   -1.2135    0.0000 C   0  0  0  0  0  0  0  0  0  0  0  0
   -3.6637   -0.7500    0.0000 C   0  0  0  0  0  0  0  0  0  0  0  0
   -3.6637    0.7500    0.0000 C   0  0  0  0  0  0  0  0  0  0  0  0
   -2.2371    1.2135    0.0000 C   0  0  0  0  0  0  0  0  0  0  0  0
    3.1446   -0.0000    0.0000 C   0  0  0  0  0  0  0  0  0  0  0  0
    3.8946    1.2990    0.0000 O   0  0  0  0  0  0  0  0  0  0  0  0
    3.8946   -1.2990    0.0000 O   0  0  0  0  0  0  0  0  0  0  0  0
  1  2  1  0
  2  3  1  0
  3  4  1  0
  4  5  1  0
  5  6  1  0
  6  7  1  0
  7  8  1  0
  8  9  1  0
  9 10  1  0
  3 11  1  0
 11 12  2  0
 11 13  1  0
  6  1  1  0
 10  6  1  0
M  END
>  <rName>  (534) 
6-azaspiro45decane-8-CO2H

>  <PQ_SYMBOL>  (534) 
6-azaspiro45decane-8-CO2H

>  <FULL_NAME>  (534) 
6-Azaspiro[4.5]decane-8-carboxylic acid

>  <IUPAC_CONDENSED>  (534) 
6-azaspiro[4.5]decane-8-CO2H

>  <IUPAC>  (534) 
6-azaspiro[4.5]decane-8-carboxylic acid

>  <TYPE>  (534) 
Backbone

>  <CLASS>  (534) 
beta

>  <ANALOG>  (534) 
Pro

>  <MOL_WT>  (534) 
183.251

>  <LOGP>  (534) 
1.3834

>  <TPSA>  (534) 
49.33

>  <POPULARITY>  (534) 
2.8

>  <PROTECTED>  (534) 
TRUE

>  <SMILES>  (534) 
N1CC(CCC12(CCCC2))C(=O)O

>  <INCHIKEY>  (534) 
SWIVZTMYMPZKOM-UHFFFAOYSA-N

$$$$
6-oxa-2-azaspiro34octan-7-ylAc
     RDKit          2D

 12 13  0  0  0  0  0  0  0  0999 V2000
    3.9270   -0.3746    0.0000 N   0  0  0  0  0  0  0  0  0  0  0  0
    2.6923   -1.2264    0.0000 C   0  0  0  0  0  0  0  0  0  0  0  0
    1.8406    0.0084    0.0000 C   0  0  0  0  0  0  0  0  0  0  0  0
    3.0753    0.8601    0.0000 C   0  0  0  0  0  0  0  0  0  0  0  0
    0.7543   -1.0260    0.0000 C   0  0  0  0  0  0  0  0  0  0  0  0
   -0.5652   -0.3126    0.0000 C   0  0  0  0  0  0  0  0  0  0  0  0
   -0.2944    1.1628    0.0000 O   0  0  0  0  0  0  0  0  0  0  0  0
    1.1925    1.3611    0.0000 C   0  0  0  0  0  0  0  0  0  0  0  0
   -1.9179   -0.9607    0.0000 C   0  0  0  0  0  0  0  0  0  0  0  0
   -3.1556   -0.1132    0.0000 C   0  0  0  0  0  0  0  0  0  0  0  0
   -3.0405    1.3824    0.0000 O   0  0  0  0  0  0  0  0  0  0  0  0
   -4.5084   -0.7613    0.0000 O   0  0  0  0  0  0  0  0  0  0  0  0
  1  2  1  0
  2  3  1  0
  3  4  1  0
  3  5  1  0
  5  6  1  0
  6  7  1  0
  7  8  1  0
  6  9  1  0
  9 10  1  0
 10 11  2  0
 10 12  1  0
  8  3  1  0
  4  1  1  0
M  END
>  <rName>  (535) 
6-oxa-2-azaspiro34octan-7-ylAc

>  <PQ_SYMBOL>  (535) 
6-oxa-2-azaspiro34octan-7-ylAc

>  <FULL_NAME>  (535) 
2-{6-Oxa-2-azaspiro[3.4]octan-7-yl}acetic acid

>  <IUPAC_CONDENSED>  (535) 
6-oxa-2-azaspiro[3.4]octan-7-ylAc

>  <IUPAC>  (535) 
2-(6-oxa-2-azaspiro[3.4]octan-7-yl)acetic acid

>  <TYPE>  (535) 
Backbone

>  <CLASS>  (535) 
epsilon

>  <ANALOG>  (535) 
Ser

>  <MOL_WT>  (535) 
171.196

>  <LOGP>  (535) 
-0.16040000000000038

>  <TPSA>  (535) 
58.56

>  <POPULARITY>  (535) 
2.7

>  <PROTECTED>  (535) 
TRUE

>  <SMILES>  (535) 
N2CC1(C2)CC(OC1)CC(=O)O

>  <INCHIKEY>  (535) 
ZLOVYXJQCRLAFV-UHFFFAOYSA-N

$$$$
6-oxa-2-azaspiro34octane-7-CO2H
     RDKit          2D

 11 12  0  0  0  0  0  0  0  0999 V2000
    3.3568   -0.6894    0.0000 N   0  0  0  0  0  0  0  0  0  0  0  0
    1.9927   -1.3134    0.0000 C   0  0  0  0  0  0  0  0  0  0  0  0
    1.3688    0.0507    0.0000 C   0  0  0  0  0  0  0  0  0  0  0  0
    2.7329    0.6747    0.0000 C   0  0  0  0  0  0  0  0  0  0  0  0
    0.1191   -0.7789    0.0000 C   0  0  0  0  0  0  0  0  0  0  0  0
   -1.0561    0.1533    0.0000 C   0  0  0  0  0  0  0  0  0  0  0  0
   -0.5327    1.5590    0.0000 O   0  0  0  0  0  0  0  0  0  0  0  0
    0.9660    1.4956    0.0000 C   0  0  0  0  0  0  0  0  0  0  0  0
   -2.5009   -0.2496    0.0000 C   0  0  0  0  0  0  0  0  0  0  0  0
   -2.8745   -1.7023    0.0000 O   0  0  0  0  0  0  0  0  0  0  0  0
   -3.5723    0.8003    0.0000 O   0  0  0  0  0  0  0  0  0  0  0  0
  1  2  1  0
  2  3  1  0
  3  4  1  0
  3  5  1  0
  5  6  1  0
  6  7  1  0
  7  8  1  0
  6  9  1  0
  9 10  2  0
  9 11  1  0
  8  3  1  0
  4  1  1  0
M  END
>  <rName>  (536) 
6-oxa-2-azaspiro34octane-7-CO2H

>  <PQ_SYMBOL>  (536) 
6-oxa-2-azaspiro34octane-7-CO2H

>  <FULL_NAME>  (536) 
6-Oxa-2-azaspiro[3.4]octane-7-carboxylic acid

>  <IUPAC_CONDENSED>  (536) 
6-oxa-2-azaspiro[3.4]octane-7-CO2H

>  <IUPAC>  (536) 
6-oxa-2-azaspiro[3.4]octane-7-carboxylic acid

>  <TYPE>  (536) 
Backbone

>  <CLASS>  (536) 
delta

>  <ANALOG>  (536) 
Ser

>  <MOL_WT>  (536) 
157.16899999999998

>  <LOGP>  (536) 
-0.5505000000000002

>  <TPSA>  (536) 
58.56

>  <POPULARITY>  (536) 
2.7

>  <PROTECTED>  (536) 
TRUE

>  <SMILES>  (536) 
N2CC1(C2)CC(OC1)C(=O)O

>  <INCHIKEY>  (536) 
PGUQEXSWRPZODJ-UHFFFAOYSA-N

$$$$
6-oxa-2-azaspiro34octane-7-CO2H_7Me
     RDKit          2D

 12 13  0  0  0  0  0  0  0  0999 V2000
    3.5937   -0.3013    0.0000 N   0  0  0  0  0  0  0  0  0  0  0  0
    2.3667   -1.1641    0.0000 C   0  0  0  0  0  0  0  0  0  0  0  0
    1.5039    0.0628    0.0000 C   0  0  0  0  0  0  0  0  0  0  0  0
    2.7308    0.9257    0.0000 C   0  0  0  0  0  0  0  0  0  0  0  0
    0.4270   -0.9814    0.0000 C   0  0  0  0  0  0  0  0  0  0  0  0
   -0.8989   -0.2799    0.0000 C   0  0  0  0  0  0  0  0  0  0  0  0
   -0.6414    1.1979    0.0000 O   0  0  0  0  0  0  0  0  0  0  0  0
    0.8436    1.4097    0.0000 C   0  0  0  0  0  0  0  0  0  0  0  0
   -1.4579   -1.6718    0.0000 C   0  0  0  0  0  0  0  0  0  0  0  0
   -2.3416    0.1306    0.0000 C   0  0  0  0  0  0  0  0  0  0  0  0
   -3.4185   -0.9136    0.0000 O   0  0  0  0  0  0  0  0  0  0  0  0
   -2.7075    1.5853    0.0000 O   0  0  0  0  0  0  0  0  0  0  0  0
  1  2  1  0
  2  3  1  0
  3  4  1  0
  3  5  1  0
  5  6  1  0
  6  7  1  0
  7  8  1  0
  6  9  1  0
  6 10  1  0
 10 11  2  0
 10 12  1  0
  8  3  1  0
  4  1  1  0
M  END
>  <rName>  (537) 
6-oxa-2-azaspiro34octane-7-CO2H_7Me

>  <PQ_SYMBOL>  (537) 
6-oxa-2-azaspiro34octane-7-CO2H_7Me

>  <FULL_NAME>  (537) 
CC1(C(=O)O)CC2(CNC2)CO1

>  <IUPAC_CONDENSED>  (537) 
6-oxa-2-azaspiro[3.4]octane-7-CO2H(7-Me)

>  <IUPAC>  (537) 
7-methyl-6-oxa-2-azaspiro[3.4]octane-7-carboxylic acid

>  <TYPE>  (537) 
Backbone

>  <CLASS>  (537) 
delta

>  <ANALOG>  (537) 
Ser

>  <MOL_WT>  (537) 
171.196

>  <LOGP>  (537) 
-0.16040000000000038

>  <TPSA>  (537) 
58.56

>  <POPULARITY>  (537) 
2.4

>  <PROTECTED>  (537) 
TRUE

>  <SMILES>  (537) 
N2CC1(C2)CC(OC1)(C)C(=O)O

>  <INCHIKEY>  (537) 
MPBOOIZIUJLCDQ-UHFFFAOYSA-N

$$$$
6-oxa-2-azaspiro35nonane-7-CO2H
     RDKit          2D

 12 13  0  0  0  0  0  0  0  0999 V2000
    3.7678    0.0000    0.0000 N   0  0  0  0  0  0  0  0  0  0  0  0
    2.7071   -1.0607    0.0000 C   0  0  0  0  0  0  0  0  0  0  0  0
    1.6464    0.0000    0.0000 C   0  0  0  0  0  0  0  0  0  0  0  0
    2.7071    1.0607    0.0000 C   0  0  0  0  0  0  0  0  0  0  0  0
    0.8964    1.2990    0.0000 C   0  0  0  0  0  0  0  0  0  0  0  0
   -0.6036    1.2990    0.0000 C   0  0  0  0  0  0  0  0  0  0  0  0
   -1.3536   -0.0000    0.0000 C   0  0  0  0  0  0  0  0  0  0  0  0
   -0.6036   -1.2990    0.0000 O   0  0  0  0  0  0  0  0  0  0  0  0
    0.8964   -1.2990    0.0000 C   0  0  0  0  0  0  0  0  0  0  0  0
   -2.8536   -0.0000    0.0000 C   0  0  0  0  0  0  0  0  0  0  0  0
   -3.6036   -1.2990    0.0000 O   0  0  0  0  0  0  0  0  0  0  0  0
   -3.6036    1.2990    0.0000 O   0  0  0  0  0  0  0  0  0  0  0  0
  1  2  1  0
  2  3  1  0
  3  4  1  0
  3  5  1  0
  5  6  1  0
  6  7  1  0
  7  8  1  0
  8  9  1  0
  7 10  1  0
 10 11  2  0
 10 12  1  0
  9  3  1  0
  4  1  1  0
M  END
>  <rName>  (538) 
6-oxa-2-azaspiro35nonane-7-CO2H

>  <PQ_SYMBOL>  (538) 
6-oxa-2-azaspiro35nonane-7-CO2H

>  <FULL_NAME>  (538) 
6-Oxa-2-azaspiro[3.5]nonane-7-carboxylic acid

>  <IUPAC_CONDENSED>  (538) 
6-oxa-2-azaspiro[3.5]nonane-7-CO2H

>  <IUPAC>  (538) 
6-oxa-2-azaspiro[3.5]nonane-7-carboxylic acid

>  <TYPE>  (538) 
Backbone

>  <CLASS>  (538) 
epsilon

>  <ANALOG>  (538) 
Ser

>  <MOL_WT>  (538) 
171.196

>  <LOGP>  (538) 
-0.16040000000000038

>  <TPSA>  (538) 
58.56

>  <POPULARITY>  (538) 
2.6

>  <PROTECTED>  (538) 
TRUE

>  <SMILES>  (538) 
N2CC1(C2)CCC(OC1)C(=O)O

>  <INCHIKEY>  (538) 
FGUOFKVAYNSWKY-UHFFFAOYSA-N

$$$$
6-oxa-3-azabicyclo321octane-1-CO2H
     RDKit          2D

 11 12  0  0  0  0  0  0  0  0999 V2000
   -1.8732   -1.3223    0.0000 N   0  0  0  0  0  0  0  0  0  0  0  0
   -0.4856   -1.6243    0.0000 C   0  0  0  0  0  0  0  0  0  0  0  0
    0.6156   -0.7277    0.0000 C   0  0  0  0  0  0  0  0  0  0  0  0
    0.6012    0.6922    0.0000 C   0  0  0  0  0  0  0  0  0  0  0  0
   -0.5179    1.5663    0.0000 O   0  0  0  0  0  0  0  0  0  0  0  0
   -1.8990    1.2363    0.0000 C   0  0  0  0  0  0  0  0  0  0  0  0
   -2.5022   -0.0492    0.0000 C   0  0  0  0  0  0  0  0  0  0  0  0
   -0.9495   -0.1397    0.0000 C   0  0  0  0  0  0  0  0  0  0  0  0
    1.8886   -0.0987    0.0000 C   0  0  0  0  0  0  0  0  0  0  0  0
    1.9856    1.3982    0.0000 O   0  0  0  0  0  0  0  0  0  0  0  0
    3.1365   -0.9311    0.0000 O   0  0  0  0  0  0  0  0  0  0  0  0
  1  2  1  0
  2  3  1  0
  3  4  1  0
  4  5  1  0
  5  6  1  0
  6  7  1  0
  6  8  1  0
  3  9  1  0
  9 10  2  0
  9 11  1  0
  7  1  1  0
  8  3  1  0
M  END
>  <rName>  (539) 
6-oxa-3-azabicyclo321octane-1-CO2H

>  <PQ_SYMBOL>  (539) 
6-oxa-3-azabicyclo321octane-1-CO2H

>  <FULL_NAME>  (539) 
6-Oxa-3-azabicyclo[3.2.1]octane-1-carboxylic acid

>  <IUPAC_CONDENSED>  (539) 
6-oxa-3-azabicyclo[3.2.1]octane-1-CO2H

>  <IUPAC>  (539) 
6-oxa-3-azabicyclo[3.2.1]octane-1-carboxylic acid

>  <TYPE>  (539) 
Backbone

>  <CLASS>  (539) 
beta

>  <ANALOG>  (539) 
Pro

>  <MOL_WT>  (539) 
157.16899999999998

>  <LOGP>  (539) 
-0.5505000000000002

>  <TPSA>  (539) 
58.56

>  <POPULARITY>  (539) 
2.6

>  <PROTECTED>  (539) 
TRUE

>  <SMILES>  (539) 
N1CC2(COC(C1)C2)C(=O)O

>  <INCHIKEY>  (539) 
ZXPALALWDNPHGB-UHFFFAOYSA-N

$$$$
6-oxa-3-azabicyclo321octane-7-CO2H
     RDKit          2D

 11 12  0  0  0  0  0  0  0  0999 V2000
   -2.4349   -0.6984    0.0000 N   0  0  0  0  0  0  0  0  0  0  0  0
   -1.3270   -1.5866    0.0000 C   0  0  0  0  0  0  0  0  0  0  0  0
    0.0582   -1.2742    0.0000 C   0  0  0  0  0  0  0  0  0  0  0  0
    0.6776    0.0036    0.0000 C   0  0  0  0  0  0  0  0  0  0  0  0
    0.0648    1.2846    0.0000 O   0  0  0  0  0  0  0  0  0  0  0  0
   -1.3188    1.6041    0.0000 C   0  0  0  0  0  0  0  0  0  0  0  0
   -2.4313    0.7216    0.0000 C   0  0  0  0  0  0  0  0  0  0  0  0
   -1.0813   -0.0508    0.0000 C   0  0  0  0  0  0  0  0  0  0  0  0
    2.0976   -0.0000    0.0000 C   0  0  0  0  0  0  0  0  0  0  0  0
    2.8509    1.2971    0.0000 O   0  0  0  0  0  0  0  0  0  0  0  0
    2.8443   -1.3010    0.0000 O   0  0  0  0  0  0  0  0  0  0  0  0
  1  2  1  0
  2  3  1  0
  3  4  1  0
  4  5  1  0
  5  6  1  0
  6  7  1  0
  6  8  1  0
  4  9  1  0
  9 10  2  0
  9 11  1  0
  7  1  1  0
  8  3  1  0
M  END
>  <rName>  (540) 
6-oxa-3-azabicyclo321octane-7-CO2H

>  <PQ_SYMBOL>  (540) 
6-oxa-3-azabicyclo321octane-7-CO2H

>  <FULL_NAME>  (540) 
6-Oxa-3-azabicyclo[3.2.1]octane-7-carboxylic acid

>  <IUPAC_CONDENSED>  (540) 
6-oxa-3-azabicyclo[3.2.1]octane-7-CO2H

>  <IUPAC>  (540) 
6-oxa-3-azabicyclo[3.2.1]octane-7-carboxylic acid

>  <TYPE>  (540) 
Backbone

>  <CLASS>  (540) 
gamma

>  <ANALOG>  (540) 
Pro

>  <MOL_WT>  (540) 
157.169

>  <LOGP>  (540) 
-0.5521000000000005

>  <TPSA>  (540) 
58.56

>  <POPULARITY>  (540) 
2.7

>  <PROTECTED>  (540) 
TRUE

>  <SMILES>  (540) 
N1CC2C(OC(C1)C2)C(=O)O

>  <INCHIKEY>  (540) 
VOYAUZVEXGUYCL-UHFFFAOYSA-N

$$$$
7-Cl-THIQ-4-CO2H
     RDKit          2D

 14 15  0  0  0  0  0  0  0  0999 V2000
   -1.2441   -2.6725    0.0000 N   0  0  0  0  0  0  0  0  0  0  0  0
   -2.1435   -1.4720    0.0000 C   0  0  0  0  0  0  0  0  0  0  0  0
   -1.5536   -0.0929    0.0000 C   0  0  0  0  0  0  0  0  0  0  0  0
   -0.0642    0.0857    0.0000 C   0  0  0  0  0  0  0  0  0  0  0  0
    0.5257    1.4649    0.0000 C   0  0  0  0  0  0  0  0  0  0  0  0
    2.0150    1.6435    0.0000 C   0  0  0  0  0  0  0  0  0  0  0  0
    2.9144    0.4430    0.0000 C   0  0  0  0  0  0  0  0  0  0  0  0
    4.4037    0.6217    0.0000 Cl  0  0  0  0  0  0  0  0  0  0  0  0
    2.3245   -0.9361    0.0000 C   0  0  0  0  0  0  0  0  0  0  0  0
    0.8351   -1.1147    0.0000 C   0  0  0  0  0  0  0  0  0  0  0  0
    0.2452   -2.4938    0.0000 C   0  0  0  0  0  0  0  0  0  0  0  0
   -2.4529    1.1076    0.0000 C   0  0  0  0  0  0  0  0  0  0  0  0
   -1.8630    2.4867    0.0000 O   0  0  0  0  0  0  0  0  0  0  0  0
   -3.9423    0.9289    0.0000 O   0  0  0  0  0  0  0  0  0  0  0  0
  1  2  1  0
  2  3  1  0
  3  4  1  0
  4  5  1  0
  5  6  2  0
  6  7  1  0
  7  8  1  0
  7  9  2  0
  9 10  1  0
 10 11  1  0
  3 12  1  0
 12 13  2  0
 12 14  1  0
 10  4  2  0
 11  1  1  0
M  END
>  <rName>  (541) 
7-Cl-THIQ-4-CO2H

>  <PQ_SYMBOL>  (541) 
7-Cl-THIQ-4-CO2H

>  <FULL_NAME>  (541) 
7-Chloro-1,2,3,4-tetrahydroisoquinoline-4-carboxylic acid

>  <IUPAC_CONDENSED>  (541) 
7-Cl-THIQ-4-CO2H

>  <IUPAC>  (541) 
9-chloro-3-azabicyclo[4.4.0]deca-1(10),6,8-triene-5-carboxylic acid

>  <TYPE>  (541) 
Backbone

>  <CLASS>  (541) 
beta

>  <ANALOG>  (541) 
Pro

>  <MOL_WT>  (541) 
211.64799999999997

>  <LOGP>  (541) 
1.6114000000000002

>  <TPSA>  (541) 
49.33

>  <POPULARITY>  (541) 
4.4

>  <PROTECTED>  (541) 
TRUE

>  <SMILES>  (541) 
N2CC(c1(ccc(Cl)cc1C2))C(=O)O

>  <INCHIKEY>  (541) 
YVHHAPJAMFOUCT-UHFFFAOYSA-N

$$$$
7-amino-2-oxabicyclo420octane-7-CO2H_1R_6S_7S
     RDKit          2D

 12 13  0  0  0  0  0  0  0  0999 V2000
   -2.4149   -1.3661    0.0000 N   0  0  0  0  0  0  0  0  0  0  0  0
   -1.1093   -0.6275    0.0000 C   0  0  0  0  0  0  0  0  0  0  0  0
   -0.3707   -1.9331    0.0000 C   0  0  0  0  0  0  0  0  0  0  0  0
    0.9348   -1.1945    0.0000 C   0  0  0  0  0  0  0  0  0  0  0  0
    2.4348   -1.2077    0.0000 O   0  0  0  0  0  0  0  0  0  0  0  0
    3.1961    0.0847    0.0000 C   0  0  0  0  0  0  0  0  0  0  0  0
    2.4576    1.3903    0.0000 C   0  0  0  0  0  0  0  0  0  0  0  0
    0.9576    1.4034    0.0000 C   0  0  0  0  0  0  0  0  0  0  0  0
    0.1963    0.1110    0.0000 C   0  0  0  0  0  0  0  0  0  0  0  0
   -1.8479    0.6780    0.0000 C   0  0  0  0  0  0  0  0  0  0  0  0
   -1.0865    1.9704    0.0000 O   0  0  0  0  0  0  0  0  0  0  0  0
   -3.3478    0.6912    0.0000 O   0  0  0  0  0  0  0  0  0  0  0  0
  2  1  1  6
  2  3  1  0
  4  3  1  6
  4  5  1  0
  5  6  1  0
  6  7  1  0
  7  8  1  0
  9  8  1  6
  2 10  1  0
 10 11  2  0
 10 12  1  0
  9  2  1  0
  9  4  1  0
M  END
>  <rName>  (542) 
7-amino-2-oxabicyclo420octane-7-CO2H_1R_6S_7S

>  <PQ_SYMBOL>  (542) 
7-amino-2-oxabicyclo420octane-7-CO2H_1R_6S_7S

>  <FULL_NAME>  (542) 
N[C@@]1(C(=O)O)C[C@H]2OCCC[C@H]21

>  <IUPAC_CONDENSED>  (542) 
7-amino-2-oxabicyclo[4.2.0]octane-7-CO2H(1R,6S,7S)

>  <IUPAC>  (542) 
(1R,6S,7S)-7-amino-2-oxabicyclo[4.2.0]octane-7-carboxylic acid

>  <TYPE>  (542) 
Backbone

>  <CLASS>  (542) 
alpha

>  <ANALOG>  (542) 
Ser

>  <MOL_WT>  (542) 
171.196

>  <LOGP>  (542) 
-0.03260000000000046

>  <TPSA>  (542) 
72.55

>  <POPULARITY>  (542) 
3.4

>  <PROTECTED>  (542) 
TRUE

>  <SMILES>  (542) 
N[C@]1(C[C@H]2(OCCC[C@@H]12))C(=O)O

>  <INCHIKEY>  (542) 
KUXSBBNEAWKCAA-JKMUOGBPSA-N

$$$$
7-amino-5-oxaspiro34octane-2-CO2H
     RDKit          2D

 12 13  0  0  0  0  0  0  0  0999 V2000
   -4.2077   -1.0877    0.0000 N   0  0  0  0  0  0  0  0  0  0  0  0
   -2.9134   -0.3295    0.0000 C   0  0  0  0  0  0  0  0  0  0  0  0
   -1.5393   -0.9309    0.0000 C   0  0  0  0  0  0  0  0  0  0  0  0
   -0.5427    0.1902    0.0000 C   0  0  0  0  0  0  0  0  0  0  0  0
   -1.3009    1.4844    0.0000 O   0  0  0  0  0  0  0  0  0  0  0  0
   -2.7661    1.1632    0.0000 C   0  0  0  0  0  0  0  0  0  0  0  0
    0.4087   -0.9695    0.0000 C   0  0  0  0  0  0  0  0  0  0  0  0
    1.5684   -0.0181    0.0000 C   0  0  0  0  0  0  0  0  0  0  0  0
    0.6170    1.1416    0.0000 C   0  0  0  0  0  0  0  0  0  0  0  0
    3.0611   -0.1654    0.0000 C   0  0  0  0  0  0  0  0  0  0  0  0
    3.9351    1.0537    0.0000 O   0  0  0  0  0  0  0  0  0  0  0  0
    3.6799   -1.5319    0.0000 O   0  0  0  0  0  0  0  0  0  0  0  0
  1  2  1  0
  2  3  1  0
  3  4  1  0
  4  5  1  0
  5  6  1  0
  4  7  1  0
  7  8  1  0
  8  9  1  0
  8 10  1  0
 10 11  2  0
 10 12  1  0
  9  4  1  0
  6  2  1  0
M  END
>  <rName>  (543) 
7-amino-5-oxaspiro34octane-2-CO2H

>  <PQ_SYMBOL>  (543) 
7-amino-5-oxaspiro34octane-2-CO2H

>  <FULL_NAME>  (543) 
NC1COC2(C1)CC(C(=O)O)C2

>  <IUPAC_CONDENSED>  (543) 
7-amino-5-oxaspiro[3.4]octane-2-CO2H

>  <IUPAC>  (543) 
7-amino-5-oxaspiro[3.4]octane-2-carboxylic acid

>  <TYPE>  (543) 
Backbone

>  <CLASS>  (543) 
epsilon

>  <ANALOG>  (543) 
Ser

>  <MOL_WT>  (543) 
171.196

>  <LOGP>  (543) 
-0.03260000000000046

>  <TPSA>  (543) 
72.55

>  <POPULARITY>  (543) 
2.5

>  <PROTECTED>  (543) 
TRUE

>  <SMILES>  (543) 
NC2CC1(OC2)CC(C1)C(=O)O

>  <INCHIKEY>  (543) 
SQVCLXHGLZFJRY-UHFFFAOYSA-N

$$$$
7-amino-bicyclo320heptane-6-CO2H_1S_5R_6R_7R
     RDKit          2D

 11 12  0  0  0  0  0  0  0  0999 V2000
    0.7428    2.7278    0.0000 N   0  0  0  0  0  0  0  0  0  0  0  0
    0.1684    1.3421    0.0000 C   0  0  0  0  0  0  0  0  0  0  0  0
    0.7421   -0.0439    0.0000 C   0  0  0  0  0  0  0  0  0  0  0  0
   -0.6438   -0.6176    0.0000 C   0  0  0  0  0  0  0  0  0  0  0  0
   -1.7847   -1.5915    0.0000 C   0  0  0  0  0  0  0  0  0  0  0  0
   -3.0634   -0.8074    0.0000 C   0  0  0  0  0  0  0  0  0  0  0  0
   -2.7129    0.6510    0.0000 C   0  0  0  0  0  0  0  0  0  0  0  0
   -1.2175    0.7684    0.0000 C   0  0  0  0  0  0  0  0  0  0  0  0
    2.1278   -0.6182    0.0000 C   0  0  0  0  0  0  0  0  0  0  0  0
    3.3180    0.2947    0.0000 O   0  0  0  0  0  0  0  0  0  0  0  0
    2.3233   -2.1054    0.0000 O   0  0  0  0  0  0  0  0  0  0  0  0
  2  1  1  1
  2  3  1  0
  3  4  1  0
  4  5  1  6
  5  6  1  0
  6  7  1  0
  8  7  1  6
  3  9  1  6
  9 10  2  0
  9 11  1  0
  8  2  1  0
  8  4  1  0
M  END
>  <rName>  (544) 
7-amino-bicyclo320heptane-6-CO2H_1S_5R_6R_7R

>  <PQ_SYMBOL>  (544) 
7-amino-bicyclo320heptane-6-CO2H_1S_5R_6R_7R

>  <FULL_NAME>  (544) 
N[C@@H]1[C@H]2CCC[C@H]2[C@H]1C(=O)O

>  <IUPAC_CONDENSED>  (544) 
7-amino-bicyclo[3.2.0]heptane-6-CO2H(1S,5R,6R,7R)

>  <IUPAC>  (544) 
(1S,5R,6R,7R)-7-aminobicyclo[3.2.0]heptane-6-carboxylic acid

>  <TYPE>  (544) 
Backbone

>  <CLASS>  (544) 
beta

>  <ANALOG>  (544) 
X

>  <MOL_WT>  (544) 
155.197

>  <LOGP>  (544) 
0.44439999999999985

>  <TPSA>  (544) 
63.32000000000001

>  <POPULARITY>  (544) 
2.9

>  <PROTECTED>  (544) 
TRUE

>  <SMILES>  (544) 
N[C@H]1[C@@H]([C@@H]2(CCC[C@H]12))C(=O)O

>  <INCHIKEY>  (544) 
NGAOEHCAPJHEPT-XZBKPIIZSA-N

$$$$
7-aminomethyl-246-trioxabicyclo330octane-5-CO2H_33diMe_8OH_1S_5R_7S_8R
     RDKit          2D

 16 17  0  0  0  0  0  0  0  0999 V2000
    4.3346   -0.9183    0.0000 N   0  0  0  0  0  0  0  0  0  0  0  0
    3.5999    0.3894    0.0000 C   0  0  0  0  0  0  0  0  0  0  0  0
    2.1000    0.4071    0.0000 C   0  0  0  0  0  0  0  0  0  0  0  0
    1.2041   -0.7960    0.0000 O   0  0  0  0  0  0  0  0  0  0  0  0
   -0.2169   -0.3157    0.0000 C   0  0  0  0  0  0  0  0  0  0  0  0
   -1.6488   -0.7623    0.0000 O   0  0  0  0  0  0  0  0  0  0  0  0
   -2.5162    0.4615    0.0000 C   0  0  0  0  0  0  0  0  0  0  0  0
   -1.6203    1.6645    0.0000 O   0  0  0  0  0  0  0  0  0  0  0  0
   -0.1992    1.1842    0.0000 C   0  0  0  0  0  0  0  0  0  0  0  0
    1.2327    1.6309    0.0000 C   0  0  0  0  0  0  0  0  0  0  0  0
    1.7130    3.0520    0.0000 O   0  0  0  0  0  0  0  0  0  0  0  0
   -3.6426   -0.5290    0.0000 C   0  0  0  0  0  0  0  0  0  0  0  0
   -3.6190    1.4782    0.0000 C   0  0  0  0  0  0  0  0  0  0  0  0
   -0.2346   -1.8156    0.0000 C   0  0  0  0  0  0  0  0  0  0  0  0
   -1.5423   -2.5502    0.0000 O   0  0  0  0  0  0  0  0  0  0  0  0
    1.0555   -2.5808    0.0000 O   0  0  0  0  0  0  0  0  0  0  0  0
  1  2  1  0
  3  2  1  6
  3  4  1  0
  4  5  1  0
  5  6  1  0
  6  7  1  0
  7  8  1  0
  9  8  1  1
  9 10  1  0
 10 11  1  6
  7 12  1  0
  7 13  1  0
  5 14  1  6
 14 15  2  0
 14 16  1  0
  9  5  1  0
 10  3  1  0
M  END
>  <rName>  (545) 
7-aminomethyl-246-trioxabicyclo330octane-5-CO2H_33diMe_8OH_1S_5R_7S_8R

>  <PQ_SYMBOL>  (545) 
7-aminomethyl-246-trioxabicyclo330octane-5-CO2H_33diMe_8OH_1S_5R_7S_8R

>  <FULL_NAME>  (545) 
(3aR,5S,6R,6aS)-5-(aminomethyl)-6-hydroxy-2,2-dimethyl-6,6a-dihydro-5H-furo[2,3-d][1,3]dioxole-3a-carboxylic acid

>  <IUPAC_CONDENSED>  (545) 
7-aminomethyl-2,4,6-trioxabicyclo[3.3.0]octane-5-CO2H(3,3-diMe,8-OH,1S,5R,7S,8R)

>  <IUPAC>  (545) 
(3aR,5S,6R,6aS)-5-(aminomethyl)-6-hydroxy-2,2-dimethyl-6,6a-dihydro-5H-furo[2,3-d][1,3]dioxole-3a-carboxylic acid

>  <TYPE>  (545) 
Backbone

>  <CLASS>  (545) 
delta

>  <ANALOG>  (545) 
Thr

>  <MOL_WT>  (545) 
233.21999999999997

>  <LOGP>  (545) 
-1.362799999999999

>  <TPSA>  (545) 
111.24000000000002

>  <POPULARITY>  (545) 
2.2

>  <PROTECTED>  (545) 
TRUE

>  <SMILES>  (545) 
NC[C@@H]2O[C@]1(OC(O[C@H]1[C@@H]2O)(C)C)C(=O)O

>  <INCHIKEY>  (545) 
FMPPRCMMRRICCV-SOVPELCUSA-N

$$$$
7-azabicyclo221heptane-1-CO2H
     RDKit          2D

 10 11  0  0  0  0  0  0  0  0999 V2000
   -0.6443    0.3115    0.0000 N   0  0  0  0  0  0  0  0  0  0  0  0
    0.3411   -0.8266    0.0000 C   0  0  0  0  0  0  0  0  0  0  0  0
    0.3340    0.5934    0.0000 C   0  0  0  0  0  0  0  0  0  0  0  0
   -0.8993    1.2972    0.0000 C   0  0  0  0  0  0  0  0  0  0  0  0
   -2.1255    0.5810    0.0000 C   0  0  0  0  0  0  0  0  0  0  0  0
   -2.1183   -0.8389    0.0000 C   0  0  0  0  0  0  0  0  0  0  0  0
   -0.8850   -1.5428    0.0000 C   0  0  0  0  0  0  0  0  0  0  0  0
    1.5673   -0.1104    0.0000 C   0  0  0  0  0  0  0  0  0  0  0  0
    1.5598    1.3895    0.0000 O   0  0  0  0  0  0  0  0  0  0  0  0
    2.8701   -0.8539    0.0000 O   0  0  0  0  0  0  0  0  0  0  0  0
  1  2  1  0
  2  3  1  0
  3  4  1  0
  4  5  1  0
  5  6  1  0
  6  7  1  0
  2  8  1  0
  8  9  2  0
  8 10  1  0
  5  1  1  0
  7  2  1  0
M  END
>  <rName>  (546) 
7-azabicyclo221heptane-1-CO2H

>  <PQ_SYMBOL>  (546) 
7-azabicyclo221heptane-1-CO2H

>  <FULL_NAME>  (546) 
7-azabicyclo[2.2.1]heptane-1-carboxylic acid

>  <IUPAC_CONDENSED>  (546) 
7-azabicyclo[2.2.1]heptane-1-CO2H

>  <IUPAC>  (546) 
7-azabicyclo[2.2.1]heptane-1-carboxylic acid

>  <TYPE>  (546) 
Backbone

>  <CLASS>  (546) 
alpha

>  <ANALOG>  (546) 
Pro

>  <MOL_WT>  (546) 
141.17

>  <LOGP>  (546) 
0.35559999999999964

>  <TPSA>  (546) 
49.33

>  <POPULARITY>  (546) 
7.9

>  <PROTECTED>  (546) 
TRUE

>  <SMILES>  (546) 
N1C2(CCC1CC2)C(=O)O

>  <INCHIKEY>  (546) 
DXJLLSBTGVSGQP-UHFFFAOYSA-N

$$$$
7-azabicyclo221heptane-2-CO2H_1R_2S_4S
     RDKit          2D

 10 11  0  0  0  0  0  0  0  0999 V2000
   -0.6140    0.2202    0.0000 N   0  0  0  0  0  0  0  0  0  0  0  0
   -0.3255   -1.2573    0.0000 C   0  0  0  0  0  0  0  0  0  0  0  0
    0.3749   -0.0221    0.0000 C   0  0  0  0  0  0  0  0  0  0  0  0
   -0.3447    1.2021    0.0000 C   0  0  0  0  0  0  0  0  0  0  0  0
   -1.7646    1.1911    0.0000 C   0  0  0  0  0  0  0  0  0  0  0  0
   -2.4650   -0.0442    0.0000 C   0  0  0  0  0  0  0  0  0  0  0  0
   -1.7455   -1.2684    0.0000 C   0  0  0  0  0  0  0  0  0  0  0  0
    1.7948   -0.0110    0.0000 C   0  0  0  0  0  0  0  0  0  0  0  0
    2.5347    1.2938    0.0000 O   0  0  0  0  0  0  0  0  0  0  0  0
    2.5549   -1.3042    0.0000 O   0  0  0  0  0  0  0  0  0  0  0  0
  1  2  1  0
  2  3  1  0
  3  4  1  0
  5  4  1  1
  5  6  1  0
  6  7  1  0
  3  8  1  6
  8  9  2  0
  8 10  1  0
  5  1  1  0
  2  7  1  1
M  END
>  <rName>  (547) 
7-azabicyclo221heptane-2-CO2H_1R_2S_4S

>  <PQ_SYMBOL>  (547) 
7-azabicyclo221heptane-2-CO2H_1R_2S_4S

>  <FULL_NAME>  (547) 
rel-(1R,2S,4S)-7-Azabicyclo[2.2.1]heptane-2-carboxylic acid

>  <IUPAC_CONDENSED>  (547) 
7-azabicyclo[2.2.1]heptane-2-CO2H(1R,2S,4S)

>  <IUPAC>  (547) 
(1R,2S,4S)-7-azabicyclo[2.2.1]heptane-2-carboxylic acid

>  <TYPE>  (547) 
Backbone

>  <CLASS>  (547) 
beta

>  <ANALOG>  (547) 
Pro

>  <MOL_WT>  (547) 
141.17000000000002

>  <LOGP>  (547) 
0.21149999999999974

>  <TPSA>  (547) 
49.33

>  <POPULARITY>  (547) 
3.6

>  <PROTECTED>  (547) 
TRUE

>  <SMILES>  (547) 
N1[C@H]2[C@H](C[C@@H]1CC2)C(=O)O

>  <INCHIKEY>  (547) 
ABNBSYHDPQDEOA-HCWXCVPCSA-N

$$$$
7-azabicyclo221heptane-2-CO2H_1S_2R_4R
     RDKit          2D

 10 11  0  0  0  0  0  0  0  0999 V2000
   -0.6140    0.2202    0.0000 N   0  0  0  0  0  0  0  0  0  0  0  0
   -0.3255   -1.2573    0.0000 C   0  0  0  0  0  0  0  0  0  0  0  0
    0.3749   -0.0221    0.0000 C   0  0  0  0  0  0  0  0  0  0  0  0
   -0.3447    1.2021    0.0000 C   0  0  0  0  0  0  0  0  0  0  0  0
   -1.7646    1.1911    0.0000 C   0  0  0  0  0  0  0  0  0  0  0  0
   -2.4650   -0.0442    0.0000 C   0  0  0  0  0  0  0  0  0  0  0  0
   -1.7455   -1.2684    0.0000 C   0  0  0  0  0  0  0  0  0  0  0  0
    1.7948   -0.0110    0.0000 C   0  0  0  0  0  0  0  0  0  0  0  0
    2.5347    1.2938    0.0000 O   0  0  0  0  0  0  0  0  0  0  0  0
    2.5549   -1.3042    0.0000 O   0  0  0  0  0  0  0  0  0  0  0  0
  1  2  1  0
  2  3  1  0
  3  4  1  0
  5  4  1  6
  5  6  1  0
  6  7  1  0
  3  8  1  1
  8  9  2  0
  8 10  1  0
  5  1  1  0
  2  7  1  6
M  END
>  <rName>  (548) 
7-azabicyclo221heptane-2-CO2H_1S_2R_4R

>  <PQ_SYMBOL>  (548) 
7-azabicyclo221heptane-2-CO2H_1S_2R_4R

>  <FULL_NAME>  (548) 
(1S,2R,4R)-7-azabicyclo[2.2.1]heptane-2-carboxylic acid

>  <IUPAC_CONDENSED>  (548) 
7-azabicyclo[2.2.1]heptane-2-CO2H(1S,2R,4R)

>  <IUPAC>  (548) 
(1S,2R,4R)-7-azabicyclo[2.2.1]heptane-2-carboxylic acid

>  <TYPE>  (548) 
Backbone

>  <CLASS>  (548) 
beta

>  <ANALOG>  (548) 
Pro

>  <MOL_WT>  (548) 
141.17000000000002

>  <LOGP>  (548) 
0.21149999999999974

>  <TPSA>  (548) 
49.33

>  <POPULARITY>  (548) 
2.2

>  <PROTECTED>  (548) 
TRUE

>  <SMILES>  (548) 
N1[C@@H]2[C@@H](C[C@H]1CC2)C(=O)O

>  <INCHIKEY>  (548) 
ABNBSYHDPQDEOA-PBXRRBTRSA-N

$$$$
7-azabicyclo430nonane-2-CO2H_1R_2S_6S
     RDKit          2D

 12 13  0  0  0  0  0  0  0  0999 V2000
   -2.8326    0.4713    0.0000 N   0  0  0  0  0  0  0  0  0  0  0  0
   -1.6523   -0.4544    0.0000 C   0  0  0  0  0  0  0  0  0  0  0  0
   -0.4072    0.3820    0.0000 C   0  0  0  0  0  0  0  0  0  0  0  0
   -0.8179    1.8247    0.0000 C   0  0  0  0  0  0  0  0  0  0  0  0
   -2.3169    1.8799    0.0000 C   0  0  0  0  0  0  0  0  0  0  0  0
    0.9397   -0.2781    0.0000 C   0  0  0  0  0  0  0  0  0  0  0  0
    1.0415   -1.7747    0.0000 C   0  0  0  0  0  0  0  0  0  0  0  0
   -0.2036   -2.6111    0.0000 C   0  0  0  0  0  0  0  0  0  0  0  0
   -1.5506   -1.9510    0.0000 C   0  0  0  0  0  0  0  0  0  0  0  0
    2.1849    0.5583    0.0000 C   0  0  0  0  0  0  0  0  0  0  0  0
    2.0831    2.0548    0.0000 O   0  0  0  0  0  0  0  0  0  0  0  0
    3.5318   -0.1018    0.0000 O   0  0  0  0  0  0  0  0  0  0  0  0
  1  2  1  0
  2  3  1  0
  3  4  1  6
  4  5  1  0
  3  6  1  0
  6  7  1  0
  7  8  1  0
  8  9  1  0
  6 10  1  1
 10 11  2  0
 10 12  1  0
  2  9  1  6
  5  1  1  0
M  END
>  <rName>  (549) 
7-azabicyclo430nonane-2-CO2H_1R_2S_6S

>  <PQ_SYMBOL>  (549) 
7-azabicyclo430nonane-2-CO2H_1R_2S_6S

>  <FULL_NAME>  (549) 
O=C(O)[C@H]1CCC[C@@H]2NCC[C@@H]21

>  <IUPAC_CONDENSED>  (549) 
7-azabicyclo[4.3.0]nonane-2-CO2H(1R,2S,6S)

>  <IUPAC>  (549) 
(1R,2S,6S)-7-azabicyclo[4.3.0]nonane-2-carboxylic acid

>  <TYPE>  (549) 
Backbone

>  <CLASS>  (549) 
gamma

>  <ANALOG>  (549) 
Val

>  <MOL_WT>  (549) 
169.22400000000002

>  <LOGP>  (549) 
0.8492

>  <TPSA>  (549) 
49.33

>  <POPULARITY>  (549) 
4.3

>  <PROTECTED>  (549) 
TRUE

>  <SMILES>  (549) 
N2[C@@H]1[C@H](CC2)[C@H](CCC1)C(=O)O

>  <INCHIKEY>  (549) 
XGTPWTBFUVGSST-CSMHCCOUSA-N

$$$$
7-azabicyclo430nonane-3-CO2H
     RDKit          2D

 12 13  0  0  0  0  0  0  0  0999 V2000
   -3.0886   -0.7944    0.0000 N   0  0  0  0  0  0  0  0  0  0  0  0
   -1.5890   -0.7618    0.0000 C   0  0  0  0  0  0  0  0  0  0  0  0
   -0.5613   -1.8544    0.0000 C   0  0  0  0  0  0  0  0  0  0  0  0
    0.8988   -1.5107    0.0000 C   0  0  0  0  0  0  0  0  0  0  0  0
    1.3312   -0.0744    0.0000 C   0  0  0  0  0  0  0  0  0  0  0  0
    0.3035    1.0182    0.0000 C   0  0  0  0  0  0  0  0  0  0  0  0
   -1.1566    0.6746    0.0000 C   0  0  0  0  0  0  0  0  0  0  0  0
   -2.3890    1.5296    0.0000 C   0  0  0  0  0  0  0  0  0  0  0  0
   -3.5831    0.6218    0.0000 C   0  0  0  0  0  0  0  0  0  0  0  0
    2.7913    0.2693    0.0000 C   0  0  0  0  0  0  0  0  0  0  0  0
    3.2237    1.7056    0.0000 O   0  0  0  0  0  0  0  0  0  0  0  0
    3.8190   -0.8234    0.0000 O   0  0  0  0  0  0  0  0  0  0  0  0
  1  2  1  0
  2  3  1  0
  3  4  1  0
  4  5  1  0
  5  6  1  0
  6  7  1  0
  7  8  1  0
  8  9  1  0
  5 10  1  0
 10 11  2  0
 10 12  1  0
  7  2  1  0
  9  1  1  0
M  END
>  <rName>  (550) 
7-azabicyclo430nonane-3-CO2H

>  <PQ_SYMBOL>  (550) 
7-azabicyclo430nonane-3-CO2H

>  <FULL_NAME>  (550) 
octahydro-1H-indole-5-carboxylic acid

>  <IUPAC_CONDENSED>  (550) 
7-azabicyclo[4.3.0]nonane-3-CO2H

>  <IUPAC>  (550) 
7-azabicyclo[4.3.0]nonane-3-carboxylic acid

>  <TYPE>  (550) 
Backbone

>  <CLASS>  (550) 
delta

>  <ANALOG>  (550) 
Pro

>  <MOL_WT>  (550) 
169.224

>  <LOGP>  (550) 
0.8492

>  <TPSA>  (550) 
49.33

>  <POPULARITY>  (550) 
11.4

>  <PROTECTED>  (550) 
TRUE

>  <SMILES>  (550) 
N2C1CCC(CC1CC2)C(=O)O

>  <INCHIKEY>  (550) 
YJVHNQJSVDRBDM-UHFFFAOYSA-N

$$$$
7-azabicyclo430nonane-4-CO2H
     RDKit          2D

 12 13  0  0  0  0  0  0  0  0999 V2000
   -2.3890   -1.5296    0.0000 N   0  0  0  0  0  0  0  0  0  0  0  0
   -1.1566   -0.6746    0.0000 C   0  0  0  0  0  0  0  0  0  0  0  0
    0.3035   -1.0182    0.0000 C   0  0  0  0  0  0  0  0  0  0  0  0
    1.3312    0.0744    0.0000 C   0  0  0  0  0  0  0  0  0  0  0  0
    0.8988    1.5107    0.0000 C   0  0  0  0  0  0  0  0  0  0  0  0
   -0.5613    1.8544    0.0000 C   0  0  0  0  0  0  0  0  0  0  0  0
   -1.5890    0.7618    0.0000 C   0  0  0  0  0  0  0  0  0  0  0  0
   -3.0886    0.7944    0.0000 C   0  0  0  0  0  0  0  0  0  0  0  0
   -3.5831   -0.6218    0.0000 C   0  0  0  0  0  0  0  0  0  0  0  0
    2.7913   -0.2693    0.0000 C   0  0  0  0  0  0  0  0  0  0  0  0
    3.8190    0.8234    0.0000 O   0  0  0  0  0  0  0  0  0  0  0  0
    3.2237   -1.7056    0.0000 O   0  0  0  0  0  0  0  0  0  0  0  0
  1  2  1  0
  2  3  1  0
  3  4  1  0
  4  5  1  0
  5  6  1  0
  6  7  1  0
  7  8  1  0
  8  9  1  0
  4 10  1  0
 10 11  2  0
 10 12  1  0
  7  2  1  0
  9  1  1  0
M  END
>  <rName>  (551) 
7-azabicyclo430nonane-4-CO2H

>  <PQ_SYMBOL>  (551) 
7-azabicyclo430nonane-4-CO2H

>  <FULL_NAME>  (551) 
octahydro-1H-indole-6-carboxylic acid

>  <IUPAC_CONDENSED>  (551) 
7-azabicyclo[4.3.0]nonane-4-CO2H

>  <IUPAC>  (551) 
7-azabicyclo[4.3.0]nonane-4-carboxylic acid

>  <TYPE>  (551) 
Backbone

>  <CLASS>  (551) 
gamma

>  <ANALOG>  (551) 
Pro

>  <MOL_WT>  (551) 
169.22400000000002

>  <LOGP>  (551) 
0.8492

>  <TPSA>  (551) 
49.33

>  <POPULARITY>  (551) 
5.3

>  <PROTECTED>  (551) 
TRUE

>  <SMILES>  (551) 
N2C1CC(CCC1CC2)C(=O)O

>  <INCHIKEY>  (551) 
SAMCFWIKVXNHLF-UHFFFAOYSA-N

$$$$
7-azaspiro35nonane-2-CO2H
     RDKit          2D

 12 13  0  0  0  0  0  0  0  0999 V2000
    3.6339   -0.0000    0.0000 N   0  0  0  0  0  0  0  0  0  0  0  0
    2.8839   -1.2990    0.0000 C   0  0  0  0  0  0  0  0  0  0  0  0
    1.3839   -1.2990    0.0000 C   0  0  0  0  0  0  0  0  0  0  0  0
    0.6339    0.0000    0.0000 C   0  0  0  0  0  0  0  0  0  0  0  0
    1.3839    1.2990    0.0000 C   0  0  0  0  0  0  0  0  0  0  0  0
    2.8839    1.2990    0.0000 C   0  0  0  0  0  0  0  0  0  0  0  0
   -0.4268    1.0607    0.0000 C   0  0  0  0  0  0  0  0  0  0  0  0
   -1.4874    0.0000    0.0000 C   0  0  0  0  0  0  0  0  0  0  0  0
   -0.4268   -1.0607    0.0000 C   0  0  0  0  0  0  0  0  0  0  0  0
   -2.9874   -0.0000    0.0000 C   0  0  0  0  0  0  0  0  0  0  0  0
   -3.7374   -1.2990    0.0000 O   0  0  0  0  0  0  0  0  0  0  0  0
   -3.7374    1.2990    0.0000 O   0  0  0  0  0  0  0  0  0  0  0  0
  1  2  1  0
  2  3  1  0
  3  4  1  0
  4  5  1  0
  5  6  1  0
  4  7  1  0
  7  8  1  0
  8  9  1  0
  8 10  1  0
 10 11  2  0
 10 12  1  0
  9  4  1  0
  6  1  1  0
M  END
>  <rName>  (552) 
7-azaspiro35nonane-2-CO2H

>  <PQ_SYMBOL>  (552) 
7-azaspiro35nonane-2-CO2H

>  <FULL_NAME>  (552) 
7-Azaspiro[3.5]nonane-2-carboxylic acid

>  <IUPAC_CONDENSED>  (552) 
7-azaspiro[3.5]nonane-2-CO2H

>  <IUPAC>  (552) 
7-azaspiro[3.5]nonane-2-carboxylic acid

>  <TYPE>  (552) 
Backbone

>  <CLASS>  (552) 
epsilon

>  <ANALOG>  (552) 
Pro

>  <MOL_WT>  (552) 
169.224

>  <LOGP>  (552) 
0.8507999999999998

>  <TPSA>  (552) 
49.33

>  <POPULARITY>  (552) 
5.6

>  <PROTECTED>  (552) 
TRUE

>  <SMILES>  (552) 
N2CCC1(CC2)CC(C1)C(=O)O

>  <INCHIKEY>  (552) 
AIUURUPEPJRTSD-UHFFFAOYSA-N

$$$$
7-azaspiro35nonane-2-CO2H_2OH
     RDKit          2D

 13 14  0  0  0  0  0  0  0  0999 V2000
    3.6913   -0.2920    0.0000 N   0  0  0  0  0  0  0  0  0  0  0  0
    2.7613   -1.4690    0.0000 C   0  0  0  0  0  0  0  0  0  0  0  0
    1.2771   -1.2521    0.0000 C   0  0  0  0  0  0  0  0  0  0  0  0
    0.7228    0.1417    0.0000 C   0  0  0  0  0  0  0  0  0  0  0  0
    1.6527    1.3187    0.0000 C   0  0  0  0  0  0  0  0  0  0  0  0
    3.1370    1.1018    0.0000 C   0  0  0  0  0  0  0  0  0  0  0  0
   -0.1734    1.3446    0.0000 C   0  0  0  0  0  0  0  0  0  0  0  0
   -1.3762    0.4485    0.0000 C   0  0  0  0  0  0  0  0  0  0  0  0
   -2.2724    1.6513    0.0000 O   0  0  0  0  0  0  0  0  0  0  0  0
   -0.4801   -0.7544    0.0000 C   0  0  0  0  0  0  0  0  0  0  0  0
   -2.5791   -0.4477    0.0000 C   0  0  0  0  0  0  0  0  0  0  0  0
   -2.4045   -1.9375    0.0000 O   0  0  0  0  0  0  0  0  0  0  0  0
   -3.9566    0.1460    0.0000 O   0  0  0  0  0  0  0  0  0  0  0  0
  1  2  1  0
  2  3  1  0
  3  4  1  0
  4  5  1  0
  5  6  1  0
  4  7  1  0
  7  8  1  0
  8  9  1  0
  8 10  1  0
  8 11  1  0
 11 12  2  0
 11 13  1  0
 10  4  1  0
  6  1  1  0
M  END
>  <rName>  (553) 
7-azaspiro35nonane-2-CO2H_2OH

>  <PQ_SYMBOL>  (553) 
7-azaspiro35nonane-2-CO2H_2OH

>  <FULL_NAME>  (553) 
2-Hydroxy-7-azaspiro[3.5]nonane-2-carboxylic acid

>  <IUPAC_CONDENSED>  (553) 
7-azaspiro[3.5]nonane-2-CO2H(2-OH)

>  <IUPAC>  (553) 
2-hydroxy-7-azaspiro[3.5]nonane-2-carboxylic acid

>  <TYPE>  (553) 
Backbone

>  <CLASS>  (553) 
epsilon

>  <ANALOG>  (553) 
Pro

>  <MOL_WT>  (553) 
185.22299999999998

>  <LOGP>  (553) 
-0.0343000000000005

>  <TPSA>  (553) 
69.56

>  <POPULARITY>  (553) 
2.5

>  <PROTECTED>  (553) 
TRUE

>  <SMILES>  (553) 
N2CCC1(CC2)CC(O)(C1)C(=O)O

>  <INCHIKEY>  (553) 
RTAHZPYIIYGUCA-UHFFFAOYSA-N

$$$$
7-azaspiro35nonane-2-CO2H_2OMe
     RDKit          2D

 14 15  0  0  0  0  0  0  0  0999 V2000
    3.8421   -0.1468    0.0000 N   0  0  0  0  0  0  0  0  0  0  0  0
    3.0273   -1.4062    0.0000 C   0  0  0  0  0  0  0  0  0  0  0  0
    1.5292   -1.3302    0.0000 C   0  0  0  0  0  0  0  0  0  0  0  0
    0.8460    0.0052    0.0000 C   0  0  0  0  0  0  0  0  0  0  0  0
    1.6608    1.2645    0.0000 C   0  0  0  0  0  0  0  0  0  0  0  0
    3.1589    1.1885    0.0000 C   0  0  0  0  0  0  0  0  0  0  0  0
   -0.1596    1.1182    0.0000 C   0  0  0  0  0  0  0  0  0  0  0  0
   -1.2726    0.1127    0.0000 C   0  0  0  0  0  0  0  0  0  0  0  0
   -2.2782    1.2257    0.0000 O   0  0  0  0  0  0  0  0  0  0  0  0
   -1.8170    2.6531    0.0000 C   0  0  0  0  0  0  0  0  0  0  0  0
   -0.2671   -1.0004    0.0000 C   0  0  0  0  0  0  0  0  0  0  0  0
   -2.3856   -0.8929    0.0000 C   0  0  0  0  0  0  0  0  0  0  0  0
   -2.0713   -2.3596    0.0000 O   0  0  0  0  0  0  0  0  0  0  0  0
   -3.8130   -0.4317    0.0000 O   0  0  0  0  0  0  0  0  0  0  0  0
  1  2  1  0
  2  3  1  0
  3  4  1  0
  4  5  1  0
  5  6  1  0
  4  7  1  0
  7  8  1  0
  8  9  1  0
  9 10  1  0
  8 11  1  0
  8 12  1  0
 12 13  2  0
 12 14  1  0
 11  4  1  0
  6  1  1  0
M  END
>  <rName>  (554) 
7-azaspiro35nonane-2-CO2H_2OMe

>  <PQ_SYMBOL>  (554) 
7-azaspiro35nonane-2-CO2H_2OMe

>  <FULL_NAME>  (554) 
COC1(C(=O)O)CC2(CCNCC2)C1

>  <IUPAC_CONDENSED>  (554) 
7-azaspiro[3.5]nonane-2-CO2H(2-OMe)

>  <IUPAC>  (554) 
2-methoxy-7-azaspiro[3.5]nonane-2-carboxylic acid

>  <TYPE>  (554) 
Backbone

>  <CLASS>  (554) 
epsilon

>  <ANALOG>  (554) 
Pro

>  <MOL_WT>  (554) 
199.24999999999997

>  <LOGP>  (554) 
0.6197999999999999

>  <TPSA>  (554) 
58.56

>  <POPULARITY>  (554) 
2.3

>  <PROTECTED>  (554) 
TRUE

>  <SMILES>  (554) 
N2CCC1(CC2)CC(OC)(C1)C(=O)O

>  <INCHIKEY>  (554) 
YHHDGFGJXVJHGW-UHFFFAOYSA-N

$$$$
7-azaspiro35nonane-5-CO2H
     RDKit          2D

 12 13  0  0  0  0  0  0  0  0999 V2000
   -2.2075    1.6760    0.0000 N   0  0  0  0  0  0  0  0  0  0  0  0
   -0.7184    1.8569    0.0000 C   0  0  0  0  0  0  0  0  0  0  0  0
    0.1827    0.6578    0.0000 C   0  0  0  0  0  0  0  0  0  0  0  0
   -0.4051   -0.7222    0.0000 C   0  0  0  0  0  0  0  0  0  0  0  0
   -0.6158   -2.2074    0.0000 C   0  0  0  0  0  0  0  0  0  0  0  0
    0.8693   -2.4180    0.0000 C   0  0  0  0  0  0  0  0  0  0  0  0
    1.0800   -0.9329    0.0000 C   0  0  0  0  0  0  0  0  0  0  0  0
   -1.8942   -0.9031    0.0000 C   0  0  0  0  0  0  0  0  0  0  0  0
   -2.7954    0.2960    0.0000 C   0  0  0  0  0  0  0  0  0  0  0  0
    1.6718    0.8387    0.0000 C   0  0  0  0  0  0  0  0  0  0  0  0
    2.5730   -0.3604    0.0000 O   0  0  0  0  0  0  0  0  0  0  0  0
    2.2597    2.2187    0.0000 O   0  0  0  0  0  0  0  0  0  0  0  0
  1  2  1  0
  2  3  1  0
  3  4  1  0
  4  5  1  0
  5  6  1  0
  6  7  1  0
  4  8  1  0
  8  9  1  0
  3 10  1  0
 10 11  2  0
 10 12  1  0
  7  4  1  0
  9  1  1  0
M  END
>  <rName>  (555) 
7-azaspiro35nonane-5-CO2H

>  <PQ_SYMBOL>  (555) 
7-azaspiro35nonane-5-CO2H

>  <FULL_NAME>  (555) 
7-Azaspiro[3.5]nonane-5-carboxylic acid

>  <IUPAC_CONDENSED>  (555) 
7-azaspiro[3.5]nonane-5-CO2H

>  <IUPAC>  (555) 
7-azaspiro[3.5]nonane-5-carboxylic acid

>  <TYPE>  (555) 
Backbone

>  <CLASS>  (555) 
beta

>  <ANALOG>  (555) 
Pro

>  <MOL_WT>  (555) 
169.22400000000002

>  <LOGP>  (555) 
0.8507999999999998

>  <TPSA>  (555) 
49.33

>  <POPULARITY>  (555) 
3.3

>  <PROTECTED>  (555) 
TRUE

>  <SMILES>  (555) 
N2CC(C1(CCC1)CC2)C(=O)O

>  <INCHIKEY>  (555) 
XCDVWEBCBQJRKC-UHFFFAOYSA-N

$$$$
7-oxa-2-azabicyclo430nonane-3-CO2H_1R_3R_6R
     RDKit          2D

 12 13  0  0  0  0  0  0  0  0999 V2000
    0.3035    1.0182    0.0000 N   0  0  0  0  0  0  0  0  0  0  0  0
    1.3312   -0.0744    0.0000 C   0  0  0  0  0  0  0  0  0  0  0  0
    0.8988   -1.5107    0.0000 C   0  0  0  0  0  0  0  0  0  0  0  0
   -0.5613   -1.8544    0.0000 C   0  0  0  0  0  0  0  0  0  0  0  0
   -1.5890   -0.7618    0.0000 C   0  0  0  0  0  0  0  0  0  0  0  0
   -3.0886   -0.7944    0.0000 O   0  0  0  0  0  0  0  0  0  0  0  0
   -3.5831    0.6218    0.0000 C   0  0  0  0  0  0  0  0  0  0  0  0
   -2.3890    1.5296    0.0000 C   0  0  0  0  0  0  0  0  0  0  0  0
   -1.1566    0.6746    0.0000 C   0  0  0  0  0  0  0  0  0  0  0  0
    2.7913    0.2693    0.0000 C   0  0  0  0  0  0  0  0  0  0  0  0
    3.2237    1.7056    0.0000 O   0  0  0  0  0  0  0  0  0  0  0  0
    3.8190   -0.8234    0.0000 O   0  0  0  0  0  0  0  0  0  0  0  0
  1  2  1  0
  2  3  1  0
  3  4  1  0
  5  4  1  1
  5  6  1  0
  6  7  1  0
  7  8  1  0
  9  8  1  1
  2 10  1  1
 10 11  2  0
 10 12  1  0
  9  1  1  0
  9  5  1  0
M  END
>  <rName>  (556) 
7-oxa-2-azabicyclo430nonane-3-CO2H_1R_3R_6R

>  <PQ_SYMBOL>  (556) 
7-oxa-2-azabicyclo430nonane-3-CO2H_1R_3R_6R

>  <FULL_NAME>  (556) 
O=C(O)[C@H]1CC[C@H]2OCC[C@H]2N1

>  <IUPAC_CONDENSED>  (556) 
7-oxa-2-azabicyclo[4.3.0]nonane-3-CO2H(1R,3R,6R)

>  <IUPAC>  (556) 
(1R,3R,6R)-7-oxa-2-azabicyclo[4.3.0]nonane-3-carboxylic acid

>  <TYPE>  (556) 
Backbone

>  <CLASS>  (556) 
alpha

>  <ANALOG>  (556) 
Pro

>  <MOL_WT>  (556) 
171.196

>  <LOGP>  (556) 
-0.01950000000000013

>  <TPSA>  (556) 
58.56

>  <POPULARITY>  (556) 
2.7

>  <PROTECTED>  (556) 
TRUE

>  <SMILES>  (556) 
N1[C@H](CC[C@H]2(OCC[C@@H]12))C(=O)O

>  <INCHIKEY>  (556) 
KHHWESLRJYAYNS-FSDSQADBSA-N

$$$$
7-oxa-2-azaspiro45decane-4-CO2H
     RDKit          2D

 13 14  0  0  0  0  0  0  0  0999 V2000
   -0.9281    2.7008    0.0000 N   0  0  0  0  0  0  0  0  0  0  0  0
   -1.8938    1.5530    0.0000 C   0  0  0  0  0  0  0  0  0  0  0  0
   -1.1007    0.2798    0.0000 C   0  0  0  0  0  0  0  0  0  0  0  0
    0.3552    0.6407    0.0000 C   0  0  0  0  0  0  0  0  0  0  0  0
    0.0928   -0.8361    0.0000 C   0  0  0  0  0  0  0  0  0  0  0  0
    1.2405   -1.8019    0.0000 C   0  0  0  0  0  0  0  0  0  0  0  0
    2.6507   -1.2908    0.0000 C   0  0  0  0  0  0  0  0  0  0  0  0
    2.9132    0.1861    0.0000 O   0  0  0  0  0  0  0  0  0  0  0  0
    1.7655    1.1518    0.0000 C   0  0  0  0  0  0  0  0  0  0  0  0
    0.4619    2.1369    0.0000 C   0  0  0  0  0  0  0  0  0  0  0  0
   -1.6645   -1.1102    0.0000 C   0  0  0  0  0  0  0  0  0  0  0  0
   -0.7426   -2.2934    0.0000 O   0  0  0  0  0  0  0  0  0  0  0  0
   -3.1502   -1.3169    0.0000 O   0  0  0  0  0  0  0  0  0  0  0  0
  1  2  1  0
  2  3  1  0
  3  4  1  0
  4  5  1  0
  5  6  1  0
  6  7  1  0
  7  8  1  0
  8  9  1  0
  4 10  1  0
  3 11  1  0
 11 12  2  0
 11 13  1  0
  9  4  1  0
 10  1  1  0
M  END
>  <rName>  (557) 
7-oxa-2-azaspiro45decane-4-CO2H

>  <PQ_SYMBOL>  (557) 
7-oxa-2-azaspiro45decane-4-CO2H

>  <FULL_NAME>  (557) 
7-Oxa-2-azaspiro[4.5]decane-4-carboxylic acid

>  <IUPAC_CONDENSED>  (557) 
7-oxa-2-azaspiro[4.5]decane-4-CO2H

>  <IUPAC>  (557) 
7-oxa-2-azaspiro[4.5]decane-4-carboxylic acid

>  <TYPE>  (557) 
Backbone

>  <CLASS>  (557) 
beta

>  <ANALOG>  (557) 
Pro

>  <MOL_WT>  (557) 
185.22299999999998

>  <LOGP>  (557) 
0.08719999999999989

>  <TPSA>  (557) 
58.56

>  <POPULARITY>  (557) 
3.0

>  <PROTECTED>  (557) 
TRUE

>  <SMILES>  (557) 
N2CC(C1(CCCOC1)(C2))C(=O)O

>  <INCHIKEY>  (557) 
TUDRLUPSXJFMFN-UHFFFAOYSA-N

$$$$
7-piperazino-1-oxoisoquinolin-2-acetyl
     RDKit          2D

 21 23  0  0  0  0  0  0  0  0999 V2000
   -6.3081   -1.1177    0.0000 N   0  0  0  0  0  0  0  0  0  0  0  0
   -6.0781    0.3646    0.0000 C   0  0  0  0  0  0  0  0  0  0  0  0
   -4.6795    0.9066    0.0000 C   0  0  0  0  0  0  0  0  0  0  0  0
   -3.5108   -0.0337    0.0000 N   0  0  0  0  0  0  0  0  0  0  0  0
   -3.7407   -1.5159    0.0000 C   0  0  0  0  0  0  0  0  0  0  0  0
   -5.1393   -2.0579    0.0000 C   0  0  0  0  0  0  0  0  0  0  0  0
   -2.1121    0.5084    0.0000 C   0  0  0  0  0  0  0  0  0  0  0  0
   -0.9434   -0.4319    0.0000 C   0  0  0  0  0  0  0  0  0  0  0  0
    0.4553    0.1101    0.0000 C   0  0  0  0  0  0  0  0  0  0  0  0
    1.6240   -0.8302    0.0000 C   0  0  0  0  0  0  0  0  0  0  0  0
    1.3940   -2.3125    0.0000 O   0  0  0  0  0  0  0  0  0  0  0  0
    3.0226   -0.2882    0.0000 N   0  0  0  0  0  0  0  0  0  0  0  0
    3.2526    1.1941    0.0000 C   0  0  0  0  0  0  0  0  0  0  0  0
    2.0839    2.1344    0.0000 C   0  0  0  0  0  0  0  0  0  0  0  0
    0.6852    1.5924    0.0000 C   0  0  0  0  0  0  0  0  0  0  0  0
   -0.4835    2.5326    0.0000 C   0  0  0  0  0  0  0  0  0  0  0  0
   -1.8822    1.9906    0.0000 C   0  0  0  0  0  0  0  0  0  0  0  0
    4.1914   -1.2285    0.0000 C   0  0  0  0  0  0  0  0  0  0  0  0
    5.5900   -0.6865    0.0000 C   0  0  0  0  0  0  0  0  0  0  0  0
    5.8199    0.7958    0.0000 O   0  0  0  0  0  0  0  0  0  0  0  0
    6.7587   -1.6267    0.0000 O   0  0  0  0  0  0  0  0  0  0  0  0
  1  2  1  0
  2  3  1  0
  3  4  1  0
  4  5  1  0
  5  6  1  0
  4  7  1  0
  7  8  2  0
  8  9  1  0
  9 10  1  0
 10 11  2  0
 10 12  1  0
 12 13  1  0
 13 14  2  0
 14 15  1  0
 15 16  1  0
 16 17  2  0
 12 18  1  0
 18 19  1  0
 19 20  2  0
 19 21  1  0
 15  9  2  0
 17  7  1  0
  6  1  1  0
M  END
>  <rName>  (558) 
7-piperazino-1-oxoisoquinolin-2-acetyl

>  <PQ_SYMBOL>  (558) 
7-piperazino-1-oxoisoquinolin-2-acetyl

>  <FULL_NAME>  (558) 
2-[1-oxo-7-(piperazin-1-yl)-1,2-dihydroisoquinolin-2-yl]acetic acid

>  <IUPAC_CONDENSED>  (558) 
7-piperazino-1-oxoisoquinolin-2-acetyl

>  <IUPAC>  (558) 
2-(2-oxo-9-(piperazin-1-yl)-3-azabicyclo[4.4.0]deca-1(6),4,7,9-tetraen-3-yl)acetic acid

>  <TYPE>  (558) 
Backbone

>  <CLASS>  (558) 
unknown

>  <ANALOG>  (558) 
X

>  <MOL_WT>  (558) 
287.319

>  <LOGP>  (558) 
0.49569999999999953

>  <TPSA>  (558) 
74.57000000000001

>  <POPULARITY>  (558) 
0.8

>  <PROTECTED>  (558) 
FALSE

>  <SMILES>  (558) 
N3CCN(CC3)c2cc1c(=O)n(ccc1cc2)CC(=O)O

>  <INCHIKEY>  (558) 
GSBQFRXLCFVVOM-UHFFFAOYSA-N

$$$$
8-amino-14-dioxaspiro45decane-8-CO2H
     RDKit          2D

 14 15  0  0  0  0  0  0  0  0999 V2000
    2.5384   -1.4789    0.0000 N   0  0  0  0  0  0  0  0  0  0  0  0
    1.5104   -0.3865    0.0000 C   0  0  0  0  0  0  0  0  0  0  0  0
    0.6132   -1.5886    0.0000 C   0  0  0  0  0  0  0  0  0  0  0  0
   -0.8765   -1.4126    0.0000 C   0  0  0  0  0  0  0  0  0  0  0  0
   -1.4689   -0.0345    0.0000 C   0  0  0  0  0  0  0  0  0  0  0  0
   -2.4869   -1.1362    0.0000 O   0  0  0  0  0  0  0  0  0  0  0  0
   -3.8492   -0.5085    0.0000 C   0  0  0  0  0  0  0  0  0  0  0  0
   -3.6732    0.9812    0.0000 C   0  0  0  0  0  0  0  0  0  0  0  0
   -2.2021    1.2741    0.0000 O   0  0  0  0  0  0  0  0  0  0  0  0
   -0.5716    1.1676    0.0000 C   0  0  0  0  0  0  0  0  0  0  0  0
    0.9180    0.9916    0.0000 C   0  0  0  0  0  0  0  0  0  0  0  0
    2.7647    0.4362    0.0000 C   0  0  0  0  0  0  0  0  0  0  0  0
    2.6793    1.9337    0.0000 O   0  0  0  0  0  0  0  0  0  0  0  0
    4.1043   -0.2387    0.0000 O   0  0  0  0  0  0  0  0  0  0  0  0
  1  2  1  0
  2  3  1  0
  3  4  1  0
  4  5  1  0
  5  6  1  0
  6  7  1  0
  7  8  1  0
  8  9  1  0
  5 10  1  0
 10 11  1  0
  2 12  1  0
 12 13  2  0
 12 14  1  0
  9  5  1  0
 11  2  1  0
M  END
>  <rName>  (559) 
8-amino-14-dioxaspiro45decane-8-CO2H

>  <PQ_SYMBOL>  (559) 
8-amino-14-dioxaspiro45decane-8-CO2H

>  <FULL_NAME>  (559) 
8-amino-1,4-dioxaspiro[4.5]decane-8-carboxylic acid

>  <IUPAC_CONDENSED>  (559) 
8-amino-1,4-dioxaspiro[4.5]decane-8-CO2H

>  <IUPAC>  (559) 
8-amino-1,4-dioxaspiro[4.5]decane-8-carboxylic acid

>  <TYPE>  (559) 
Backbone

>  <CLASS>  (559) 
alpha

>  <ANALOG>  (559) 
X

>  <MOL_WT>  (559) 
201.22199999999998

>  <LOGP>  (559) 
0.0855999999999994

>  <TPSA>  (559) 
81.78

>  <POPULARITY>  (559) 
6.1

>  <PROTECTED>  (559) 
TRUE

>  <SMILES>  (559) 
NC2(CCC1(OCCO1)CC2)C(=O)O

>  <INCHIKEY>  (559) 
HIIFALCQUKTUHB-UHFFFAOYSA-N

$$$$
8-amino-5-oxaspiro35nonane-2-CO2H
     RDKit          2D

 13 14  0  0  0  0  0  0  0  0999 V2000
    3.6313   -1.9537    0.0000 N   0  0  0  0  0  0  0  0  0  0  0  0
    2.7227   -0.7602    0.0000 C   0  0  0  0  0  0  0  0  0  0  0  0
    1.2348   -0.9504    0.0000 C   0  0  0  0  0  0  0  0  0  0  0  0
    0.3262    0.2432    0.0000 C   0  0  0  0  0  0  0  0  0  0  0  0
    0.9055    1.6268    0.0000 O   0  0  0  0  0  0  0  0  0  0  0  0
    2.3934    1.8169    0.0000 C   0  0  0  0  0  0  0  0  0  0  0  0
    3.3020    0.6234    0.0000 C   0  0  0  0  0  0  0  0  0  0  0  0
   -0.8604    1.1608    0.0000 C   0  0  0  0  0  0  0  0  0  0  0  0
   -1.7780   -0.0257    0.0000 C   0  0  0  0  0  0  0  0  0  0  0  0
   -0.5915   -0.9434    0.0000 C   0  0  0  0  0  0  0  0  0  0  0  0
   -3.2660   -0.2158    0.0000 C   0  0  0  0  0  0  0  0  0  0  0  0
   -3.8453   -1.5994    0.0000 O   0  0  0  0  0  0  0  0  0  0  0  0
   -4.1745    0.9777    0.0000 O   0  0  0  0  0  0  0  0  0  0  0  0
  1  2  1  0
  2  3  1  0
  3  4  1  0
  4  5  1  0
  5  6  1  0
  6  7  1  0
  4  8  1  0
  8  9  1  0
  9 10  1  0
  9 11  1  0
 11 12  2  0
 11 13  1  0
 10  4  1  0
  7  2  1  0
M  END
>  <rName>  (560) 
8-amino-5-oxaspiro35nonane-2-CO2H

>  <PQ_SYMBOL>  (560) 
8-amino-5-oxaspiro35nonane-2-CO2H

>  <FULL_NAME>  (560) 
8-Amino-5-oxaspiro[3.5]nonane-2-carboxylic acid

>  <IUPAC_CONDENSED>  (560) 
8-amino-5-oxaspiro[3.5]nonane-2-CO2H

>  <IUPAC>  (560) 
8-amino-5-oxaspiro[3.5]nonane-2-carboxylic acid

>  <TYPE>  (560) 
Backbone

>  <CLASS>  (560) 
epsilon

>  <ANALOG>  (560) 
Ser

>  <MOL_WT>  (560) 
185.22299999999998

>  <LOGP>  (560) 
0.35749999999999943

>  <TPSA>  (560) 
72.55

>  <POPULARITY>  (560) 
4.4

>  <PROTECTED>  (560) 
TRUE

>  <SMILES>  (560) 
NC2CC1(OCC2)CC(C1)C(=O)O

>  <INCHIKEY>  (560) 
WVZLYRVFQBHWEO-UHFFFAOYSA-N

$$$$
8-amino-bicyclo321octane-3-CO2H
     RDKit          2D

 12 13  0  0  0  0  0  0  0  0999 V2000
    3.4200    0.0000    0.0000 N   0  0  0  0  0  0  0  0  0  0  0  0
    2.0000    0.0000    0.0000 C   0  0  0  0  0  0  0  0  0  0  0  0
    1.2900   -1.2298    0.0000 C   0  0  0  0  0  0  0  0  0  0  0  0
   -0.1300   -1.2298    0.0000 C   0  0  0  0  0  0  0  0  0  0  0  0
   -0.8400   -0.0000    0.0000 C   0  0  0  0  0  0  0  0  0  0  0  0
   -0.1300    1.2298    0.0000 C   0  0  0  0  0  0  0  0  0  0  0  0
    1.2900    1.2298    0.0000 C   0  0  0  0  0  0  0  0  0  0  0  0
    0.6900    0.4099    0.0000 C   0  0  0  0  0  0  0  0  0  0  0  0
    0.6900   -0.4099    0.0000 C   0  0  0  0  0  0  0  0  0  0  0  0
   -2.2600   -0.0000    0.0000 C   0  0  0  0  0  0  0  0  0  0  0  0
   -3.0100   -1.2990    0.0000 O   0  0  0  0  0  0  0  0  0  0  0  0
   -3.0100    1.2990    0.0000 O   0  0  0  0  0  0  0  0  0  0  0  0
  1  2  1  0
  2  3  1  0
  3  4  1  0
  4  5  1  0
  5  6  1  0
  6  7  1  0
  7  8  1  0
  8  9  1  0
  5 10  1  0
 10 11  2  0
 10 12  1  0
  7  2  1  0
  9  3  1  0
M  END
>  <rName>  (561) 
8-amino-bicyclo321octane-3-CO2H

>  <PQ_SYMBOL>  (561) 
8-amino-bicyclo321octane-3-CO2H

>  <FULL_NAME>  (561) 
8-Aminobicyclo[3.2.1]octane-3-carboxylic acid

>  <IUPAC_CONDENSED>  (561) 
8-amino-bicyclo[3.2.1]octane-3-CO2H

>  <IUPAC>  (561) 
8-aminobicyclo[3.2.1]octane-3-carboxylic acid

>  <TYPE>  (561) 
Backbone

>  <CLASS>  (561) 
delta

>  <ANALOG>  (561) 
Ile

>  <MOL_WT>  (561) 
169.224

>  <LOGP>  (561) 
0.8344999999999998

>  <TPSA>  (561) 
63.32000000000001

>  <POPULARITY>  (561) 
4.8

>  <PROTECTED>  (561) 
TRUE

>  <SMILES>  (561) 
NC1C2CC(CC1CC2)C(=O)O

>  <INCHIKEY>  (561) 
DJEQLHGDLSGBEQ-UHFFFAOYSA-N

$$$$
8-amino-bicyclo430nonane-8-CO2H_1S_6S
     RDKit          2D

 13 14  0  0  0  0  0  0  0  0999 V2000
   -2.2976    1.5588    0.0000 N   0  0  0  0  0  0  0  0  0  0  0  0
   -1.3281    0.4142    0.0000 C   0  0  0  0  0  0  0  0  0  0  0  0
   -0.6179   -0.9070    0.0000 C   0  0  0  0  0  0  0  0  0  0  0  0
    0.8581   -0.6397    0.0000 C   0  0  0  0  0  0  0  0  0  0  0  0
    2.0444   -1.5578    0.0000 C   0  0  0  0  0  0  0  0  0  0  0  0
    3.4326   -0.9895    0.0000 C   0  0  0  0  0  0  0  0  0  0  0  0
    3.6345    0.4969    0.0000 C   0  0  0  0  0  0  0  0  0  0  0  0
    2.4482    1.4149    0.0000 C   0  0  0  0  0  0  0  0  0  0  0  0
    1.0601    0.8466    0.0000 C   0  0  0  0  0  0  0  0  0  0  0  0
   -0.2911    1.4980    0.0000 C   0  0  0  0  0  0  0  0  0  0  0  0
   -2.5678   -0.4303    0.0000 C   0  0  0  0  0  0  0  0  0  0  0  0
   -2.4563   -1.9262    0.0000 O   0  0  0  0  0  0  0  0  0  0  0  0
   -3.9190    0.2210    0.0000 O   0  0  0  0  0  0  0  0  0  0  0  0
  1  2  1  0
  2  3  1  0
  4  3  1  1
  4  5  1  0
  5  6  1  0
  6  7  1  0
  7  8  1  0
  9  8  1  6
  9 10  1  0
  2 11  1  0
 11 12  2  0
 11 13  1  0
  9  4  1  0
 10  2  1  0
M  END
>  <rName>  (562) 
8-amino-bicyclo430nonane-8-CO2H_1S_6S

>  <PQ_SYMBOL>  (562) 
8-amino-bicyclo430nonane-8-CO2H_1S_6S

>  <FULL_NAME>  (562) 
NC1(C(=O)O)C[C@@H]2CCCC[C@H]2C1

>  <IUPAC_CONDENSED>  (562) 
8-amino-bicyclo[4.3.0]nonane-8-CO2H(1S,6S)

>  <IUPAC>  (562) 
(1S,6S)-8-aminobicyclo[4.3.0]nonane-8-carboxylic acid

>  <TYPE>  (562) 
Backbone

>  <CLASS>  (562) 
alpha

>  <ANALOG>  (562) 
X

>  <MOL_WT>  (562) 
183.251

>  <LOGP>  (562) 
1.3687

>  <TPSA>  (562) 
63.32000000000001

>  <POPULARITY>  (562) 
2.8

>  <PROTECTED>  (562) 
TRUE

>  <SMILES>  (562) 
NC2(C[C@@H]1(CCCC[C@H]1C2))C(=O)O

>  <INCHIKEY>  (562) 
OVDPRTRQRNDWFQ-YUMQZZPRSA-N

$$$$
8-amino-cyclooct-4-ene-1-CO2H_1S_8R
     RDKit          2D

 12 12  0  0  0  0  0  0  0  0999 V2000
    1.4910   -2.0917    0.0000 N   0  0  0  0  0  0  0  0  0  0  0  0
    0.3205   -1.1538    0.0000 C   0  0  0  0  0  0  0  0  0  0  0  0
   -0.9941   -1.8763    0.0000 C   0  0  0  0  0  0  0  0  0  0  0  0
   -2.4345   -1.4577    0.0000 C   0  0  0  0  0  0  0  0  0  0  0  0
   -3.1570   -0.1432    0.0000 C   0  0  0  0  0  0  0  0  0  0  0  0
   -2.7384    1.2972    0.0000 C   0  0  0  0  0  0  0  0  0  0  0  0
   -1.4239    2.0197    0.0000 C   0  0  0  0  0  0  0  0  0  0  0  0
    0.0165    1.6012    0.0000 C   0  0  0  0  0  0  0  0  0  0  0  0
    0.7390    0.2867    0.0000 C   0  0  0  0  0  0  0  0  0  0  0  0
    2.2300    0.4512    0.0000 C   0  0  0  0  0  0  0  0  0  0  0  0
    2.8330    1.8246    0.0000 O   0  0  0  0  0  0  0  0  0  0  0  0
    3.1179   -0.7578    0.0000 O   0  0  0  0  0  0  0  0  0  0  0  0
  2  1  1  6
  2  3  1  0
  3  4  1  0
  4  5  1  0
  5  6  2  0
  6  7  1  0
  7  8  1  0
  8  9  1  0
  9 10  1  6
 10 11  2  0
 10 12  1  0
  9  2  1  0
M  END
>  <rName>  (563) 
8-amino-cyclooct-4-ene-1-CO2H_1S_8R

>  <PQ_SYMBOL>  (563) 
8-amino-cyclooct-4-ene-1-CO2H_1S_8R

>  <FULL_NAME>  (563) 
(1S,4Z,8R)-8-Aminocyclooct-4-ene-1-carboxylic acid

>  <IUPAC_CONDENSED>  (563) 
8-amino-cyclooct-4-ene-1-CO2H(1S,8R)

>  <IUPAC>  (563) 
(1S,4Z,8R)-8-aminocyclooct-4-ene-1-carboxylic acid

>  <TYPE>  (563) 
Backbone

>  <CLASS>  (563) 
beta

>  <ANALOG>  (563) 
Leu

>  <MOL_WT>  (563) 
169.224

>  <LOGP>  (563) 
1.1446999999999998

>  <TPSA>  (563) 
63.32000000000001

>  <POPULARITY>  (563) 
3.5

>  <PROTECTED>  (563) 
TRUE

>  <SMILES>  (563) 
N[C@@H]1CC/C=C\CC[C@@H]1C(=O)O

>  <INCHIKEY>  (563) 
UPJMACBYICUIDP-WFWQCHFMSA-N

$$$$
8-azabicyclo321octan-3-ylAc
     RDKit          2D

 12 13  0  0  0  0  0  0  0  0999 V2000
    1.2228   -0.0387    0.0000 N   0  0  0  0  0  0  0  0  0  0  0  0
    2.2130   -1.3858    0.0000 C   0  0  0  0  0  0  0  0  0  0  0  0
    0.8009   -1.5357    0.0000 C   0  0  0  0  0  0  0  0  0  0  0  0
   -0.1967   -0.5251    0.0000 C   0  0  0  0  0  0  0  0  0  0  0  0
   -0.0286    0.8849    0.0000 C   0  0  0  0  0  0  0  0  0  0  0  0
    1.1786    1.6326    0.0000 C   0  0  0  0  0  0  0  0  0  0  0  0
    2.5159    1.1549    0.0000 C   0  0  0  0  0  0  0  0  0  0  0  0
    2.9762   -0.1884    0.0000 C   0  0  0  0  0  0  0  0  0  0  0  0
   -1.5400   -0.9854    0.0000 C   0  0  0  0  0  0  0  0  0  0  0  0
   -2.6706    0.0003    0.0000 C   0  0  0  0  0  0  0  0  0  0  0  0
   -2.3822    1.4723    0.0000 O   0  0  0  0  0  0  0  0  0  0  0  0
   -4.0896   -0.4860    0.0000 O   0  0  0  0  0  0  0  0  0  0  0  0
  1  2  1  0
  2  3  1  0
  3  4  1  0
  4  5  1  0
  5  6  1  0
  6  7  1  0
  7  8  1  0
  4  9  1  0
  9 10  1  0
 10 11  2  0
 10 12  1  0
  6  1  1  0
  8  2  1  0
M  END
>  <rName>  (564) 
8-azabicyclo321octan-3-ylAc

>  <PQ_SYMBOL>  (564) 
8-azabicyclo321octan-3-ylAc

>  <FULL_NAME>  (564) 
2-(8-Azabicyclo[3.2.1]octan-3-yl)acetic acid

>  <IUPAC_CONDENSED>  (564) 
8-azabicyclo[3.2.1]octan-3-ylAc

>  <IUPAC>  (564) 
2-(8-azabicyclo[3.2.1]octan-3-yl)acetic acid

>  <TYPE>  (564) 
Backbone

>  <CLASS>  (564) 
delta

>  <ANALOG>  (564) 
Pro

>  <MOL_WT>  (564) 
169.22400000000002

>  <LOGP>  (564) 
0.9917

>  <TPSA>  (564) 
49.33

>  <POPULARITY>  (564) 
5.9

>  <PROTECTED>  (564) 
TRUE

>  <SMILES>  (564) 
N1C2CC(CC1CC2)CC(=O)O

>  <INCHIKEY>  (564) 
NONWVHGVOWJDBN-UHFFFAOYSA-N

$$$$
8-azabicyclo321octan-3-ylAc_2F
     RDKit          2D

 13 14  0  0  0  0  0  0  0  0999 V2000
    1.3717    0.0115    0.0000 N   0  0  0  0  0  0  0  0  0  0  0  0
    2.2203   -1.4290    0.0000 C   0  0  0  0  0  0  0  0  0  0  0  0
    0.8003   -1.4351    0.0000 C   0  0  0  0  0  0  0  0  0  0  0  0
   -0.0898   -0.3287    0.0000 C   0  0  0  0  0  0  0  0  0  0  0  0
    0.2203    1.0571    0.0000 C   0  0  0  0  0  0  0  0  0  0  0  0
    1.4970    1.6786    0.0000 C   0  0  0  0  0  0  0  0  0  0  0  0
    2.7790    1.0680    0.0000 C   0  0  0  0  0  0  0  0  0  0  0  0
    3.1009   -0.3150    0.0000 C   0  0  0  0  0  0  0  0  0  0  0  0
   -1.4728   -0.6506    0.0000 C   0  0  0  0  0  0  0  0  0  0  0  0
   -1.9088   -2.0858    0.0000 F   0  0  0  0  0  0  0  0  0  0  0  0
   -2.4978    0.4446    0.0000 C   0  0  0  0  0  0  0  0  0  0  0  0
   -2.0618    1.8799    0.0000 O   0  0  0  0  0  0  0  0  0  0  0  0
   -3.9587    0.1046    0.0000 O   0  0  0  0  0  0  0  0  0  0  0  0
  1  2  1  0
  2  3  1  0
  3  4  1  0
  4  5  1  0
  5  6  1  0
  6  7  1  0
  7  8  1  0
  4  9  1  0
  9 10  1  0
  9 11  1  0
 11 12  2  0
 11 13  1  0
  6  1  1  0
  8  2  1  0
M  END
>  <rName>  (565) 
8-azabicyclo321octan-3-ylAc_2F

>  <PQ_SYMBOL>  (565) 
8-azabicyclo321octan-3-ylAc_2F

>  <FULL_NAME>  (565) 
2-(8-Azabicyclo[3.2.1]octan-3-yl)-2-fluoroacetic acid

>  <IUPAC_CONDENSED>  (565) 
8-azabicyclo[3.2.1]octan-3-ylAc(2-F)

>  <IUPAC>  (565) 
2-(8-azabicyclo[3.2.1]octan-3-yl)-2-fluoroacetic acid

>  <TYPE>  (565) 
Backbone

>  <CLASS>  (565) 
delta

>  <ANALOG>  (565) 
Pro

>  <MOL_WT>  (565) 
187.214

>  <LOGP>  (565) 
0.9396999999999998

>  <TPSA>  (565) 
49.33

>  <POPULARITY>  (565) 
2.6

>  <PROTECTED>  (565) 
TRUE

>  <SMILES>  (565) 
N1C2CC(CC1CC2)C(F)C(=O)O

>  <INCHIKEY>  (565) 
TYKLXWISXOWUMV-UHFFFAOYSA-N

$$$$
8-azabicyclo321octane-3-CO2H
     RDKit          2D

 11 12  0  0  0  0  0  0  0  0999 V2000
    0.8464    0.0000    0.0000 N   0  0  0  0  0  0  0  0  0  0  0  0
    1.3464   -1.5954    0.0000 C   0  0  0  0  0  0  0  0  0  0  0  0
   -0.0380   -1.2794    0.0000 C   0  0  0  0  0  0  0  0  0  0  0  0
   -0.6541    0.0000    0.0000 C   0  0  0  0  0  0  0  0  0  0  0  0
   -0.0380    1.2794    0.0000 C   0  0  0  0  0  0  0  0  0  0  0  0
    1.3464    1.5954    0.0000 C   0  0  0  0  0  0  0  0  0  0  0  0
    2.4566    0.7100    0.0000 C   0  0  0  0  0  0  0  0  0  0  0  0
    2.4566   -0.7100    0.0000 C   0  0  0  0  0  0  0  0  0  0  0  0
   -2.0741   -0.0000    0.0000 C   0  0  0  0  0  0  0  0  0  0  0  0
   -2.8241   -1.2990    0.0000 O   0  0  0  0  0  0  0  0  0  0  0  0
   -2.8241    1.2990    0.0000 O   0  0  0  0  0  0  0  0  0  0  0  0
  1  2  1  0
  2  3  1  0
  3  4  1  0
  4  5  1  0
  5  6  1  0
  6  7  1  0
  7  8  1  0
  4  9  1  0
  9 10  2  0
  9 11  1  0
  6  1  1  0
  8  2  1  0
M  END
>  <rName>  (566) 
8-azabicyclo321octane-3-CO2H

>  <PQ_SYMBOL>  (566) 
8-azabicyclo321octane-3-CO2H

>  <FULL_NAME>  (566) 
8-Azabicyclo[3.2.1]octane-3-carboxylic acid

>  <IUPAC_CONDENSED>  (566) 
8-azabicyclo[3.2.1]octane-3-CO2H

>  <IUPAC>  (566) 
8-azabicyclo[3.2.1]octane-3-carboxylic acid

>  <TYPE>  (566) 
Backbone

>  <CLASS>  (566) 
gamma

>  <ANALOG>  (566) 
Pro

>  <MOL_WT>  (566) 
155.197

>  <LOGP>  (566) 
0.6015999999999997

>  <TPSA>  (566) 
49.33

>  <POPULARITY>  (566) 
6.5

>  <PROTECTED>  (566) 
TRUE

>  <SMILES>  (566) 
N1C2CC(CC1CC2)C(=O)O

>  <INCHIKEY>  (566) 
VVZNPWRETVLXPA-UHFFFAOYSA-N

$$$$
8-azabicyclo430nonane-1-CO2H_1S_6S
     RDKit          2D

 12 13  0  0  0  0  0  0  0  0999 V2000
   -1.6963    1.9285    0.0000 N   0  0  0  0  0  0  0  0  0  0  0  0
   -1.6231    0.4303    0.0000 C   0  0  0  0  0  0  0  0  0  0  0  0
   -0.1756    0.0369    0.0000 C   0  0  0  0  0  0  0  0  0  0  0  0
    0.5007   -1.3020    0.0000 C   0  0  0  0  0  0  0  0  0  0  0  0
    1.9984   -1.3857    0.0000 C   0  0  0  0  0  0  0  0  0  0  0  0
    2.8197   -0.1306    0.0000 C   0  0  0  0  0  0  0  0  0  0  0  0
    2.1435    1.2083    0.0000 C   0  0  0  0  0  0  0  0  0  0  0  0
    0.6458    1.2921    0.0000 C   0  0  0  0  0  0  0  0  0  0  0  0
   -0.2941    2.4611    0.0000 C   0  0  0  0  0  0  0  0  0  0  0  0
   -1.1237   -1.1255    0.0000 C   0  0  0  0  0  0  0  0  0  0  0  0
   -0.5910   -2.5277    0.0000 O   0  0  0  0  0  0  0  0  0  0  0  0
   -2.6044   -0.8856    0.0000 O   0  0  0  0  0  0  0  0  0  0  0  0
  1  2  1  0
  2  3  1  0
  3  4  1  0
  4  5  1  0
  5  6  1  0
  6  7  1  0
  8  7  1  1
  8  9  1  0
  3 10  1  6
 10 11  2  0
 10 12  1  0
  8  3  1  0
  9  1  1  0
M  END
>  <rName>  (567) 
8-azabicyclo430nonane-1-CO2H_1S_6S

>  <PQ_SYMBOL>  (567) 
8-azabicyclo430nonane-1-CO2H_1S_6S

>  <FULL_NAME>  (567) 
(3AS,7aS)-octahydro-3aH-isoindole-3a-carboxylic acid

>  <IUPAC_CONDENSED>  (567) 
8-azabicyclo[4.3.0]nonane-1-CO2H(1S,6S)

>  <IUPAC>  (567) 
(1S,6S)-8-azabicyclo[4.3.0]nonane-1-carboxylic acid

>  <TYPE>  (567) 
Backbone

>  <CLASS>  (567) 
beta

>  <ANALOG>  (567) 
Pro

>  <MOL_WT>  (567) 
169.224

>  <LOGP>  (567) 
0.8507999999999998

>  <TPSA>  (567) 
49.33

>  <POPULARITY>  (567) 
5.7

>  <PROTECTED>  (567) 
TRUE

>  <SMILES>  (567) 
N2C[C@@]1(CCCC[C@@H]1C2)C(=O)O

>  <INCHIKEY>  (567) 
OYGHXKZRQIOTKL-VXNVDRBHSA-N

$$$$
8-azabicyclo430nonane-2-CO2H
     RDKit          2D

 12 13  0  0  0  0  0  0  0  0999 V2000
   -2.3169   -1.8799    0.0000 N   0  0  0  0  0  0  0  0  0  0  0  0
   -0.8179   -1.8247    0.0000 C   0  0  0  0  0  0  0  0  0  0  0  0
   -0.4072   -0.3820    0.0000 C   0  0  0  0  0  0  0  0  0  0  0  0
    0.9397    0.2781    0.0000 C   0  0  0  0  0  0  0  0  0  0  0  0
    1.0415    1.7747    0.0000 C   0  0  0  0  0  0  0  0  0  0  0  0
   -0.2036    2.6111    0.0000 C   0  0  0  0  0  0  0  0  0  0  0  0
   -1.5506    1.9510    0.0000 C   0  0  0  0  0  0  0  0  0  0  0  0
   -1.6523    0.4544    0.0000 C   0  0  0  0  0  0  0  0  0  0  0  0
   -2.8326   -0.4713    0.0000 C   0  0  0  0  0  0  0  0  0  0  0  0
    2.1849   -0.5583    0.0000 C   0  0  0  0  0  0  0  0  0  0  0  0
    2.0831   -2.0548    0.0000 O   0  0  0  0  0  0  0  0  0  0  0  0
    3.5318    0.1018    0.0000 O   0  0  0  0  0  0  0  0  0  0  0  0
  1  2  1  0
  2  3  1  0
  3  4  1  0
  4  5  1  0
  5  6  1  0
  6  7  1  0
  7  8  1  0
  8  9  1  0
  4 10  1  0
 10 11  2  0
 10 12  1  0
  8  3  1  0
  9  1  1  0
M  END
>  <rName>  (568) 
8-azabicyclo430nonane-2-CO2H

>  <PQ_SYMBOL>  (568) 
8-azabicyclo430nonane-2-CO2H

>  <FULL_NAME>  (568) 
octahydro-1H-isoindole-4-carboxylic acid

>  <IUPAC_CONDENSED>  (568) 
8-azabicyclo[4.3.0]nonane-2-CO2H

>  <IUPAC>  (568) 
8-azabicyclo[4.3.0]nonane-2-carboxylic acid

>  <TYPE>  (568) 
Backbone

>  <CLASS>  (568) 
gamma

>  <ANALOG>  (568) 
Pro

>  <MOL_WT>  (568) 
169.22400000000002

>  <LOGP>  (568) 
0.7066999999999999

>  <TPSA>  (568) 
49.33

>  <POPULARITY>  (568) 
6.4

>  <PROTECTED>  (568) 
TRUE

>  <SMILES>  (568) 
N2CC1C(CCCC1C2)C(=O)O

>  <INCHIKEY>  (568) 
GZFWSYRJRFBXPZ-UHFFFAOYSA-N

$$$$
8-azabicyclo430nonane-7-CO2H_1R_6S_7S
     RDKit          2D

 12 13  0  0  0  0  0  0  0  0999 V2000
   -1.1360    1.8391    0.0000 N   0  0  0  0  0  0  0  0  0  0  0  0
   -1.1668    0.3395    0.0000 C   0  0  0  0  0  0  0  0  0  0  0  0
    0.2499   -0.1533    0.0000 C   0  0  0  0  0  0  0  0  0  0  0  0
    0.8318   -1.5358    0.0000 C   0  0  0  0  0  0  0  0  0  0  0  0
    2.3200   -1.7232    0.0000 C   0  0  0  0  0  0  0  0  0  0  0  0
    3.2264   -0.5281    0.0000 C   0  0  0  0  0  0  0  0  0  0  0  0
    2.6446    0.8545    0.0000 C   0  0  0  0  0  0  0  0  0  0  0  0
    1.1563    1.0419    0.0000 C   0  0  0  0  0  0  0  0  0  0  0  0
    0.2998    2.2733    0.0000 C   0  0  0  0  0  0  0  0  0  0  0  0
   -2.3982   -0.5171    0.0000 C   0  0  0  0  0  0  0  0  0  0  0  0
   -2.2721   -2.0118    0.0000 O   0  0  0  0  0  0  0  0  0  0  0  0
   -3.7557    0.1210    0.0000 O   0  0  0  0  0  0  0  0  0  0  0  0
  1  2  1  0
  2  3  1  0
  3  4  1  6
  4  5  1  0
  5  6  1  0
  6  7  1  0
  8  7  1  6
  8  9  1  0
  2 10  1  1
 10 11  2  0
 10 12  1  0
  8  3  1  0
  9  1  1  0
M  END
>  <rName>  (569) 
8-azabicyclo430nonane-7-CO2H_1R_6S_7S

>  <PQ_SYMBOL>  (569) 
8-azabicyclo430nonane-7-CO2H_1R_6S_7S

>  <FULL_NAME>  (569) 
O=C(O)[C@H]1NC[C@@H]2CCCC[C@@H]21

>  <IUPAC_CONDENSED>  (569) 
8-azabicyclo[4.3.0]nonane-7-CO2H(1R,6S,7S)

>  <IUPAC>  (569) 
(1R,6S,7S)-8-azabicyclo[4.3.0]nonane-7-carboxylic acid

>  <TYPE>  (569) 
Backbone

>  <CLASS>  (569) 
alpha

>  <ANALOG>  (569) 
Pro

>  <MOL_WT>  (569) 
169.22400000000002

>  <LOGP>  (569) 
0.8492

>  <TPSA>  (569) 
49.33

>  <POPULARITY>  (569) 
3.7

>  <PROTECTED>  (569) 
TRUE

>  <SMILES>  (569) 
N2[C@@H]([C@H]1(CCCC[C@H]1C2))C(=O)O

>  <INCHIKEY>  (569) 
WSMBEQKQQASPPL-FXQIFTODSA-N

$$$$
8-azabicyclo431decane-1-CO2H_1010diF
     RDKit          2D

 15 16  0  0  0  0  0  0  0  0999 V2000
    1.1084    1.7035    0.0000 N   0  0  0  0  0  0  0  0  0  0  0  0
    1.3292    0.2198    0.0000 C   0  0  0  0  0  0  0  0  0  0  0  0
    0.2198   -0.7952    0.0000 C   0  0  0  0  0  0  0  0  0  0  0  0
   -0.7176   -1.9662    0.0000 C   0  0  0  0  0  0  0  0  0  0  0  0
   -2.2176   -1.9633    0.0000 C   0  0  0  0  0  0  0  0  0  0  0  0
   -3.1506   -0.7888    0.0000 C   0  0  0  0  0  0  0  0  0  0  0  0
   -2.8141    0.6730    0.0000 C   0  0  0  0  0  0  0  0  0  0  0  0
   -1.4614    1.3212    0.0000 C   0  0  0  0  0  0  0  0  0  0  0  0
   -0.2868    2.2542    0.0000 C   0  0  0  0  0  0  0  0  0  0  0  0
   -0.1111    0.6678    0.0000 C   0  0  0  0  0  0  0  0  0  0  0  0
    0.2504    1.3782    0.0000 F   0  0  0  0  0  0  0  0  0  0  0  0
    1.3450    1.0280    0.0000 F   0  0  0  0  0  0  0  0  0  0  0  0
    1.6816   -1.1318    0.0000 C   0  0  0  0  0  0  0  0  0  0  0  0
    2.7039   -0.0342    0.0000 O   0  0  0  0  0  0  0  0  0  0  0  0
    2.1210   -2.5660    0.0000 O   0  0  0  0  0  0  0  0  0  0  0  0
  1  2  1  0
  2  3  1  0
  3  4  1  0
  4  5  1  0
  5  6  1  0
  6  7  1  0
  7  8  1  0
  8  9  1  0
  8 10  1  0
 10 11  1  0
 10 12  1  0
  3 13  1  0
 13 14  2  0
 13 15  1  0
  9  1  1  0
 10  3  1  0
M  END
>  <rName>  (570) 
8-azabicyclo431decane-1-CO2H_1010diF

>  <PQ_SYMBOL>  (570) 
8-azabicyclo431decane-1-CO2H_1010diF

>  <FULL_NAME>  (570) 
10,10-Difluoro-8-azabicyclo[4.3.1]decane-1-carboxylic acid

>  <IUPAC_CONDENSED>  (570) 
8-azabicyclo[4.3.1]decane-1-CO2H(10,10-diF)

>  <IUPAC>  (570) 
10,10-difluoro-8-azabicyclo[4.3.1]decane-1-carboxylic acid

>  <TYPE>  (570) 
Backbone

>  <CLASS>  (570) 
beta

>  <ANALOG>  (570) 
Pro

>  <MOL_WT>  (570) 
219.23099999999997

>  <LOGP>  (570) 
1.4861

>  <TPSA>  (570) 
49.33

>  <POPULARITY>  (570) 
2.6

>  <PROTECTED>  (570) 
TRUE

>  <SMILES>  (570) 
N1CC2(CCCCC(C1)C2(F)F)C(=O)O

>  <INCHIKEY>  (570) 
FGZGDMWMMUBMRQ-UHFFFAOYSA-N

$$$$
8-oxa-1-azaspiro45decan-3-ylAc
     RDKit          2D

 14 15  0  0  0  0  0  0  0  0999 V2000
    0.5575    1.4365    0.0000 N   0  0  0  0  0  0  0  0  0  0  0  0
   -0.9236    1.1989    0.0000 C   0  0  0  0  0  0  0  0  0  0  0  0
   -1.1553   -0.2831    0.0000 C   0  0  0  0  0  0  0  0  0  0  0  0
    0.1826   -0.9614    0.0000 C   0  0  0  0  0  0  0  0  0  0  0  0
    1.2411    0.1014    0.0000 C   0  0  0  0  0  0  0  0  0  0  0  0
    1.7815   -1.2979    0.0000 C   0  0  0  0  0  0  0  0  0  0  0  0
    3.2635   -1.5296    0.0000 C   0  0  0  0  0  0  0  0  0  0  0  0
    4.2051   -0.3620    0.0000 O   0  0  0  0  0  0  0  0  0  0  0  0
    3.6648    1.0373    0.0000 C   0  0  0  0  0  0  0  0  0  0  0  0
    2.1828    1.2690    0.0000 C   0  0  0  0  0  0  0  0  0  0  0  0
   -2.4904   -0.9667    0.0000 C   0  0  0  0  0  0  0  0  0  0  0  0
   -3.7500   -0.1523    0.0000 C   0  0  0  0  0  0  0  0  0  0  0  0
   -3.6745    1.3458    0.0000 O   0  0  0  0  0  0  0  0  0  0  0  0
   -5.0852   -0.8359    0.0000 O   0  0  0  0  0  0  0  0  0  0  0  0
  1  2  1  0
  2  3  1  0
  3  4  1  0
  4  5  1  0
  5  6  1  0
  6  7  1  0
  7  8  1  0
  8  9  1  0
  9 10  1  0
  3 11  1  0
 11 12  1  0
 12 13  2  0
 12 14  1  0
  5  1  1  0
 10  5  1  0
M  END
>  <rName>  (571) 
8-oxa-1-azaspiro45decan-3-ylAc

>  <PQ_SYMBOL>  (571) 
8-oxa-1-azaspiro45decan-3-ylAc

>  <FULL_NAME>  (571) 
2-{8-Oxa-1-azaspiro[4.5]decan-3-yl}acetic acid

>  <IUPAC_CONDENSED>  (571) 
8-oxa-1-azaspiro[4.5]decan-3-ylAc

>  <IUPAC>  (571) 
2-(8-oxa-1-azaspiro[4.5]decan-3-yl)acetic acid

>  <TYPE>  (571) 
Backbone

>  <CLASS>  (571) 
gamma

>  <ANALOG>  (571) 
Pro

>  <MOL_WT>  (571) 
199.24999999999997

>  <LOGP>  (571) 
0.6197999999999999

>  <TPSA>  (571) 
58.56

>  <POPULARITY>  (571) 
2.7

>  <PROTECTED>  (571) 
TRUE

>  <SMILES>  (571) 
N1CC(CC12(CCOCC2))CC(=O)O

>  <INCHIKEY>  (571) 
KVUFLCQNWQSWCG-UHFFFAOYSA-N

$$$$
8-oxa-1-azaspiro45decane-3-CO2H
     RDKit          2D

 13 14  0  0  0  0  0  0  0  0999 V2000
    0.3080    1.6386    0.0000 N   0  0  0  0  0  0  0  0  0  0  0  0
   -1.1917    1.6057    0.0000 C   0  0  0  0  0  0  0  0  0  0  0  0
   -1.6238    0.1693    0.0000 C   0  0  0  0  0  0  0  0  0  0  0  0
   -0.3912   -0.6855    0.0000 C   0  0  0  0  0  0  0  0  0  0  0  0
    0.8027    0.2226    0.0000 C   0  0  0  0  0  0  0  0  0  0  0  0
    1.1466   -1.2375    0.0000 C   0  0  0  0  0  0  0  0  0  0  0  0
    2.5830   -1.6696    0.0000 C   0  0  0  0  0  0  0  0  0  0  0  0
    3.6755   -0.6417    0.0000 O   0  0  0  0  0  0  0  0  0  0  0  0
    3.3315    0.8183    0.0000 C   0  0  0  0  0  0  0  0  0  0  0  0
    1.8951    1.2505    0.0000 C   0  0  0  0  0  0  0  0  0  0  0  0
   -3.0399   -0.3254    0.0000 C   0  0  0  0  0  0  0  0  0  0  0  0
   -3.3195   -1.7991    0.0000 O   0  0  0  0  0  0  0  0  0  0  0  0
   -4.1763    0.6537    0.0000 O   0  0  0  0  0  0  0  0  0  0  0  0
  1  2  1  0
  2  3  1  0
  3  4  1  0
  4  5  1  0
  5  6  1  0
  6  7  1  0
  7  8  1  0
  8  9  1  0
  9 10  1  0
  3 11  1  0
 11 12  2  0
 11 13  1  0
  5  1  1  0
 10  5  1  0
M  END
>  <rName>  (572) 
8-oxa-1-azaspiro45decane-3-CO2H

>  <PQ_SYMBOL>  (572) 
8-oxa-1-azaspiro45decane-3-CO2H

>  <FULL_NAME>  (572) 
8-Oxa-1-azaspiro[4.5]decane-3-carboxylic acid

>  <IUPAC_CONDENSED>  (572) 
8-oxa-1-azaspiro[4.5]decane-3-CO2H

>  <IUPAC>  (572) 
8-oxa-1-azaspiro[4.5]decane-3-carboxylic acid

>  <TYPE>  (572) 
Backbone

>  <CLASS>  (572) 
beta

>  <ANALOG>  (572) 
Pro

>  <MOL_WT>  (572) 
185.22299999999998

>  <LOGP>  (572) 
0.22969999999999996

>  <TPSA>  (572) 
58.56

>  <POPULARITY>  (572) 
2.8

>  <PROTECTED>  (572) 
TRUE

>  <SMILES>  (572) 
N1CC(CC12(CCOCC2))C(=O)O

>  <INCHIKEY>  (572) 
ITWKMEOIZXRHQD-UHFFFAOYSA-N

$$$$
8-oxa-2-azabicyclo430nonane-5-CO2H_1R_5S_6R
     RDKit          2D

 12 13  0  0  0  0  0  0  0  0999 V2000
   -1.5506    1.9510    0.0000 N   0  0  0  0  0  0  0  0  0  0  0  0
   -0.2036    2.6111    0.0000 C   0  0  0  0  0  0  0  0  0  0  0  0
    1.0415    1.7747    0.0000 C   0  0  0  0  0  0  0  0  0  0  0  0
    0.9397    0.2781    0.0000 C   0  0  0  0  0  0  0  0  0  0  0  0
   -0.4072   -0.3820    0.0000 C   0  0  0  0  0  0  0  0  0  0  0  0
   -0.8179   -1.8247    0.0000 C   0  0  0  0  0  0  0  0  0  0  0  0
   -2.3169   -1.8799    0.0000 O   0  0  0  0  0  0  0  0  0  0  0  0
   -2.8326   -0.4713    0.0000 C   0  0  0  0  0  0  0  0  0  0  0  0
   -1.6523    0.4544    0.0000 C   0  0  0  0  0  0  0  0  0  0  0  0
    2.1849   -0.5583    0.0000 C   0  0  0  0  0  0  0  0  0  0  0  0
    2.0831   -2.0548    0.0000 O   0  0  0  0  0  0  0  0  0  0  0  0
    3.5318    0.1018    0.0000 O   0  0  0  0  0  0  0  0  0  0  0  0
  1  2  1  0
  2  3  1  0
  3  4  1  0
  4  5  1  0
  5  6  1  1
  6  7  1  0
  7  8  1  0
  9  8  1  6
  4 10  1  6
 10 11  2  0
 10 12  1  0
  9  1  1  0
  9  5  1  0
M  END
>  <rName>  (573) 
8-oxa-2-azabicyclo430nonane-5-CO2H_1R_5S_6R

>  <PQ_SYMBOL>  (573) 
8-oxa-2-azabicyclo430nonane-5-CO2H_1R_5S_6R

>  <FULL_NAME>  (573) 
(4S,4aR,7aR)-1,2,3,4,4a,5,7,7a-octahydrofuro[3,4-b]pyridine-4-carboxylic acid

>  <IUPAC_CONDENSED>  (573) 
8-oxa-2-azabicyclo[4.3.0]nonane-5-CO2H(1R,5S,6R)

>  <IUPAC>  (573) 
(1R,5S,6R)-8-oxa-2-azabicyclo[4.3.0]nonane-5-carboxylic acid

>  <TYPE>  (573) 
Backbone

>  <CLASS>  (573) 
gamma

>  <ANALOG>  (573) 
Pro

>  <MOL_WT>  (573) 
171.196

>  <LOGP>  (573) 
-0.30450000000000027

>  <TPSA>  (573) 
58.56

>  <POPULARITY>  (573) 
2.8

>  <PROTECTED>  (573) 
TRUE

>  <SMILES>  (573) 
N1CC[C@@H]([C@H]2(COC[C@H]12))C(=O)O

>  <INCHIKEY>  (573) 
ZXJCHJKGAGJYCO-XVMARJQXSA-N

$$$$
8-oxa-2-azabicyclo430nonane-6-CO2H_1S_6R
     RDKit          2D

 12 13  0  0  0  0  0  0  0  0999 V2000
    2.1435   -1.2083    0.0000 N   0  0  0  0  0  0  0  0  0  0  0  0
    0.6458   -1.2921    0.0000 C   0  0  0  0  0  0  0  0  0  0  0  0
   -0.1756   -0.0369    0.0000 C   0  0  0  0  0  0  0  0  0  0  0  0
    0.5007    1.3020    0.0000 C   0  0  0  0  0  0  0  0  0  0  0  0
    1.9984    1.3857    0.0000 C   0  0  0  0  0  0  0  0  0  0  0  0
    2.8197    0.1306    0.0000 C   0  0  0  0  0  0  0  0  0  0  0  0
   -1.6231   -0.4303    0.0000 C   0  0  0  0  0  0  0  0  0  0  0  0
   -1.6963   -1.9285    0.0000 O   0  0  0  0  0  0  0  0  0  0  0  0
   -0.2941   -2.4611    0.0000 C   0  0  0  0  0  0  0  0  0  0  0  0
   -1.1237    1.1255    0.0000 C   0  0  0  0  0  0  0  0  0  0  0  0
   -2.6044    0.8856    0.0000 O   0  0  0  0  0  0  0  0  0  0  0  0
   -0.5910    2.5277    0.0000 O   0  0  0  0  0  0  0  0  0  0  0  0
  1  2  1  0
  2  3  1  0
  3  4  1  0
  4  5  1  0
  5  6  1  0
  3  7  1  0
  7  8  1  0
  8  9  1  0
  3 10  1  6
 10 11  2  0
 10 12  1  0
  6  1  1  0
  2  9  1  6
M  END
>  <rName>  (574) 
8-oxa-2-azabicyclo430nonane-6-CO2H_1S_6R

>  <PQ_SYMBOL>  (574) 
8-oxa-2-azabicyclo430nonane-6-CO2H_1S_6R

>  <FULL_NAME>  (574) 
O=C(O)[C@]12CCCN[C@@H]1COC2

>  <IUPAC_CONDENSED>  (574) 
8-oxa-2-azabicyclo[4.3.0]nonane-6-CO2H(1S,6R)

>  <IUPAC>  (574) 
(1S,6R)-8-oxa-2-azabicyclo[4.3.0]nonane-6-carboxylic acid

>  <TYPE>  (574) 
Backbone

>  <CLASS>  (574) 
beta

>  <ANALOG>  (574) 
Ser

>  <MOL_WT>  (574) 
171.196

>  <LOGP>  (574) 
-0.16040000000000038

>  <TPSA>  (574) 
58.56

>  <POPULARITY>  (574) 
2.8

>  <PROTECTED>  (574) 
TRUE

>  <SMILES>  (574) 
N1[C@H]2[C@](CCC1)(COC2)C(=O)O

>  <INCHIKEY>  (574) 
CLMPYMUQKMPYGD-SVRRBLITSA-N

$$$$
8-oxa-2-azaspiro45decane-4-CO2H
     RDKit          2D

 13 14  0  0  0  0  0  0  0  0999 V2000
   -0.9281    2.7008    0.0000 N   0  0  0  0  0  0  0  0  0  0  0  0
   -1.8938    1.5530    0.0000 C   0  0  0  0  0  0  0  0  0  0  0  0
   -1.1007    0.2798    0.0000 C   0  0  0  0  0  0  0  0  0  0  0  0
    0.3552    0.6407    0.0000 C   0  0  0  0  0  0  0  0  0  0  0  0
    0.0928   -0.8361    0.0000 C   0  0  0  0  0  0  0  0  0  0  0  0
    1.2405   -1.8019    0.0000 C   0  0  0  0  0  0  0  0  0  0  0  0
    2.6507   -1.2908    0.0000 O   0  0  0  0  0  0  0  0  0  0  0  0
    2.9132    0.1861    0.0000 C   0  0  0  0  0  0  0  0  0  0  0  0
    1.7655    1.1518    0.0000 C   0  0  0  0  0  0  0  0  0  0  0  0
    0.4619    2.1369    0.0000 C   0  0  0  0  0  0  0  0  0  0  0  0
   -1.6645   -1.1102    0.0000 C   0  0  0  0  0  0  0  0  0  0  0  0
   -0.7426   -2.2934    0.0000 O   0  0  0  0  0  0  0  0  0  0  0  0
   -3.1502   -1.3169    0.0000 O   0  0  0  0  0  0  0  0  0  0  0  0
  1  2  1  0
  2  3  1  0
  3  4  1  0
  4  5  1  0
  5  6  1  0
  6  7  1  0
  7  8  1  0
  8  9  1  0
  4 10  1  0
  3 11  1  0
 11 12  2  0
 11 13  1  0
  9  4  1  0
 10  1  1  0
M  END
>  <rName>  (575) 
8-oxa-2-azaspiro45decane-4-CO2H

>  <PQ_SYMBOL>  (575) 
8-oxa-2-azaspiro45decane-4-CO2H

>  <FULL_NAME>  (575) 
8-Oxa-2-azaspiro[4.5]decane-4-carboxylic acid

>  <IUPAC_CONDENSED>  (575) 
8-oxa-2-azaspiro[4.5]decane-4-CO2H

>  <IUPAC>  (575) 
8-oxa-2-azaspiro[4.5]decane-4-carboxylic acid

>  <TYPE>  (575) 
Backbone

>  <CLASS>  (575) 
beta

>  <ANALOG>  (575) 
Pro

>  <MOL_WT>  (575) 
185.22299999999998

>  <LOGP>  (575) 
0.08719999999999989

>  <TPSA>  (575) 
58.56

>  <POPULARITY>  (575) 
6.1

>  <PROTECTED>  (575) 
TRUE

>  <SMILES>  (575) 
N2CC(C1(CCOCC1)C2)C(=O)O

>  <INCHIKEY>  (575) 
BAZUNNGCEPFBGX-UHFFFAOYSA-N

$$$$
8-oxa-2-azaspiro45decane-4-CO2H_4F
     RDKit          2D

 14 15  0  0  0  0  0  0  0  0999 V2000
   -2.2030    1.9346    0.0000 N   0  0  0  0  0  0  0  0  0  0  0  0
   -2.5111    0.4666    0.0000 C   0  0  0  0  0  0  0  0  0  0  0  0
   -1.2101   -0.2800    0.0000 C   0  0  0  0  0  0  0  0  0  0  0  0
   -2.0886   -1.4959    0.0000 F   0  0  0  0  0  0  0  0  0  0  0  0
   -0.0980    0.7265    0.0000 C   0  0  0  0  0  0  0  0  0  0  0  0
    0.3692   -0.6988    0.0000 C   0  0  0  0  0  0  0  0  0  0  0  0
    1.8373   -1.0069    0.0000 C   0  0  0  0  0  0  0  0  0  0  0  0
    2.8381    0.1104    0.0000 O   0  0  0  0  0  0  0  0  0  0  0  0
    2.3708    1.5358    0.0000 C   0  0  0  0  0  0  0  0  0  0  0  0
    0.9028    1.8439    0.0000 C   0  0  0  0  0  0  0  0  0  0  0  0
   -0.7117    2.0953    0.0000 C   0  0  0  0  0  0  0  0  0  0  0  0
   -0.0928   -1.2808    0.0000 C   0  0  0  0  0  0  0  0  0  0  0  0
   -0.4008   -2.7489    0.0000 O   0  0  0  0  0  0  0  0  0  0  0  0
    0.9979   -1.2018    0.0000 O   0  0  0  0  0  0  0  0  0  0  0  0
  1  2  1  0
  2  3  1  0
  3  4  1  0
  3  5  1  0
  5  6  1  0
  6  7  1  0
  7  8  1  0
  8  9  1  0
  9 10  1  0
  5 11  1  0
  3 12  1  0
 12 13  2  0
 12 14  1  0
 10  5  1  0
 11  1  1  0
M  END
>  <rName>  (576) 
8-oxa-2-azaspiro45decane-4-CO2H_4F

>  <PQ_SYMBOL>  (576) 
8-oxa-2-azaspiro45decane-4-CO2H_4F

>  <FULL_NAME>  (576) 
4-Fluoro-8-oxa-2-azaspiro[4.5]decane-4-carboxylic acid

>  <IUPAC_CONDENSED>  (576) 
8-oxa-2-azaspiro[4.5]decane-4-CO2H(4-F)

>  <IUPAC>  (576) 
4-fluoro-8-oxa-2-azaspiro[4.5]decane-4-carboxylic acid

>  <TYPE>  (576) 
Backbone

>  <CLASS>  (576) 
beta

>  <ANALOG>  (576) 
Pro

>  <MOL_WT>  (576) 
203.21299999999997

>  <LOGP>  (576) 
0.17929999999999996

>  <TPSA>  (576) 
58.56

>  <POPULARITY>  (576) 
2.7

>  <PROTECTED>  (576) 
TRUE

>  <SMILES>  (576) 
N2CC(F)(C1(CCOCC1)C2)C(=O)O

>  <INCHIKEY>  (576) 
RJTUXHREULNKCO-UHFFFAOYSA-N

$$$$
8-oxa-3-azabicyclo321octane-1-CO2H
     RDKit          2D

 11 12  0  0  0  0  0  0  0  0999 V2000
   -1.8732   -1.3223    0.0000 N   0  0  0  0  0  0  0  0  0  0  0  0
   -0.4856   -1.6243    0.0000 C   0  0  0  0  0  0  0  0  0  0  0  0
    0.6156   -0.7277    0.0000 C   0  0  0  0  0  0  0  0  0  0  0  0
   -0.9495   -0.1397    0.0000 O   0  0  0  0  0  0  0  0  0  0  0  0
   -1.8990    1.2363    0.0000 C   0  0  0  0  0  0  0  0  0  0  0  0
   -0.5179    1.5663    0.0000 C   0  0  0  0  0  0  0  0  0  0  0  0
    0.6012    0.6922    0.0000 C   0  0  0  0  0  0  0  0  0  0  0  0
   -2.5022   -0.0492    0.0000 C   0  0  0  0  0  0  0  0  0  0  0  0
    1.8886   -0.0987    0.0000 C   0  0  0  0  0  0  0  0  0  0  0  0
    1.9856    1.3982    0.0000 O   0  0  0  0  0  0  0  0  0  0  0  0
    3.1365   -0.9311    0.0000 O   0  0  0  0  0  0  0  0  0  0  0  0
  1  2  1  0
  2  3  1  0
  3  4  1  0
  4  5  1  0
  5  6  1  0
  6  7  1  0
  5  8  1  0
  3  9  1  0
  9 10  2  0
  9 11  1  0
  7  3  1  0
  8  1  1  0
M  END
>  <rName>  (577) 
8-oxa-3-azabicyclo321octane-1-CO2H

>  <PQ_SYMBOL>  (577) 
8-oxa-3-azabicyclo321octane-1-CO2H

>  <FULL_NAME>  (577) 
8-Oxa-3-azabicyclo[3.2.1]octane-1-carboxylic acid

>  <IUPAC_CONDENSED>  (577) 
8-oxa-3-azabicyclo[3.2.1]octane-1-CO2H

>  <IUPAC>  (577) 
8-oxa-3-azabicyclo[3.2.1]octane-1-carboxylic acid

>  <TYPE>  (577) 
Backbone

>  <CLASS>  (577) 
beta

>  <ANALOG>  (577) 
Pro

>  <MOL_WT>  (577) 
157.169

>  <LOGP>  (577) 
-0.40800000000000064

>  <TPSA>  (577) 
58.56

>  <POPULARITY>  (577) 
2.7

>  <PROTECTED>  (577) 
TRUE

>  <SMILES>  (577) 
N2CC1(OC(CC1)C2)C(=O)O

>  <INCHIKEY>  (577) 
QTYWRWCXNZVWQT-UHFFFAOYSA-N

$$$$
8-oxa-5-azaspiro35nonan-7-ylAc
     RDKit          2D

 13 14  0  0  0  0  0  0  0  0999 V2000
    1.5709   -1.3907    0.0000 N   0  0  0  0  0  0  0  0  0  0  0  0
    0.1068   -1.7165    0.0000 C   0  0  0  0  0  0  0  0  0  0  0  0
   -0.9075   -0.6114    0.0000 C   0  0  0  0  0  0  0  0  0  0  0  0
   -0.4576    0.8195    0.0000 O   0  0  0  0  0  0  0  0  0  0  0  0
    1.0066    1.1453    0.0000 C   0  0  0  0  0  0  0  0  0  0  0  0
    2.0208    0.0402    0.0000 C   0  0  0  0  0  0  0  0  0  0  0  0
    3.2866   -0.7647    0.0000 C   0  0  0  0  0  0  0  0  0  0  0  0
    4.0915    0.5010    0.0000 C   0  0  0  0  0  0  0  0  0  0  0  0
    2.8258    1.3060    0.0000 C   0  0  0  0  0  0  0  0  0  0  0  0
   -2.3717   -0.9373    0.0000 C   0  0  0  0  0  0  0  0  0  0  0  0
   -3.3860    0.1678    0.0000 C   0  0  0  0  0  0  0  0  0  0  0  0
   -2.9361    1.5988    0.0000 O   0  0  0  0  0  0  0  0  0  0  0  0
   -4.8502   -0.1580    0.0000 O   0  0  0  0  0  0  0  0  0  0  0  0
  1  2  1  0
  2  3  1  0
  3  4  1  0
  4  5  1  0
  5  6  1  0
  6  7  1  0
  7  8  1  0
  8  9  1  0
  3 10  1  0
 10 11  1  0
 11 12  2  0
 11 13  1  0
  6  1  1  0
  9  6  1  0
M  END
>  <rName>  (578) 
8-oxa-5-azaspiro35nonan-7-ylAc

>  <PQ_SYMBOL>  (578) 
8-oxa-5-azaspiro35nonan-7-ylAc

>  <FULL_NAME>  (578) 
2-{8-Oxa-5-azaspiro[3.5]nonan-7-yl}acetic acid

>  <IUPAC_CONDENSED>  (578) 
8-oxa-5-azaspiro[3.5]nonan-7-ylAc

>  <IUPAC>  (578) 
2-(6-oxa-9-azaspiro[3.5]nonan-7-yl)acetic acid

>  <TYPE>  (578) 
Backbone

>  <CLASS>  (578) 
gamma

>  <ANALOG>  (578) 
Pro

>  <MOL_WT>  (578) 
185.22299999999998

>  <LOGP>  (578) 
0.37219999999999914

>  <TPSA>  (578) 
58.56

>  <POPULARITY>  (578) 
3.0

>  <PROTECTED>  (578) 
TRUE

>  <SMILES>  (578) 
N1CC(OCC12(CCC2))CC(=O)O

>  <INCHIKEY>  (578) 
XCQJLWKRSZNGJH-UHFFFAOYSA-N

$$$$
8-thia-2-azaspiro45decane-4-CO2H_88dioxide
     RDKit          2D

 15 16  0  0  0  0  0  0  0  0999 V2000
   -2.4156    2.2251    0.0000 N   0  0  0  0  0  0  0  0  0  0  0  0
   -2.8775    0.7979    0.0000 C   0  0  0  0  0  0  0  0  0  0  0  0
   -1.6630   -0.0823    0.0000 C   0  0  0  0  0  0  0  0  0  0  0  0
   -0.4505    0.8007    0.0000 C   0  0  0  0  0  0  0  0  0  0  0  0
   -0.1369   -0.6661    0.0000 C   0  0  0  0  0  0  0  0  0  0  0  0
    1.2902   -1.1280    0.0000 C   0  0  0  0  0  0  0  0  0  0  0  0
    2.4038   -0.1230    0.0000 S   0  0  0  0  0  0  0  0  0  0  0  0
    3.7939    0.4405    0.0000 O   0  0  0  0  0  0  0  0  0  0  0  0
    3.2001   -1.3942    0.0000 O   0  0  0  0  0  0  0  0  0  0  0  0
    2.0902    1.3438    0.0000 C   0  0  0  0  0  0  0  0  0  0  0  0
    0.6631    1.8057    0.0000 C   0  0  0  0  0  0  0  0  0  0  0  0
   -0.9156    2.2268    0.0000 C   0  0  0  0  0  0  0  0  0  0  0  0
   -1.6613   -1.5823    0.0000 C   0  0  0  0  0  0  0  0  0  0  0  0
   -0.3614   -2.3308    0.0000 O   0  0  0  0  0  0  0  0  0  0  0  0
   -2.9594   -2.3338    0.0000 O   0  0  0  0  0  0  0  0  0  0  0  0
  1  2  1  0
  2  3  1  0
  3  4  1  0
  4  5  1  0
  5  6  1  0
  6  7  1  0
  7  8  2  0
  7  9  2  0
  7 10  1  0
 10 11  1  0
  4 12  1  0
  3 13  1  0
 13 14  2  0
 13 15  1  0
 11  4  1  0
 12  1  1  0
M  END
>  <rName>  (579) 
8-thia-2-azaspiro45decane-4-CO2H_88dioxide

>  <PQ_SYMBOL>  (579) 
8-thia-2-azaspiro45decane-4-CO2H_88dioxide

>  <FULL_NAME>  (579) 
8-thia-2-azaspiro[4.5]decane-4-carboxylic acid 8,8-dioxide

>  <IUPAC_CONDENSED>  (579) 
8-thia-2-azaspiro[4.5]decane-4-CO2H(8,8-dioxide)

>  <IUPAC>  (579) 
8,8-dioxo-8lambda^6-thia-2-azaspiro[4.5]decane-4-carboxylic acid

>  <TYPE>  (579) 
Backbone

>  <CLASS>  (579) 
beta

>  <ANALOG>  (579) 
Pro

>  <MOL_WT>  (579) 
233.28899999999996

>  <LOGP>  (579) 
-0.5146000000000002

>  <TPSA>  (579) 
83.47

>  <POPULARITY>  (579) 
4.1

>  <PROTECTED>  (579) 
TRUE

>  <SMILES>  (579) 
N2CC(C1(CCS(=O)(=O)CC1)C2)C(=O)O

>  <INCHIKEY>  (579) 
GZJKRBAQHOEEME-UHFFFAOYSA-N

$$$$
9-amino-bicyclo520nonane-8-CO2H
     RDKit          2D

 13 14  0  0  0  0  0  0  0  0999 V2000
    1.5922    2.7318    0.0000 N   0  0  0  0  0  0  0  0  0  0  0  0
    0.8743    1.4147    0.0000 C   0  0  0  0  0  0  0  0  0  0  0  0
    1.2980   -0.0242    0.0000 C   0  0  0  0  0  0  0  0  0  0  0  0
   -0.1409   -0.4479    0.0000 C   0  0  0  0  0  0  0  0  0  0  0  0
   -1.0017   -1.6763    0.0000 C   0  0  0  0  0  0  0  0  0  0  0  0
   -2.4988   -1.7692    0.0000 C   0  0  0  0  0  0  0  0  0  0  0  0
   -3.5049   -0.6566    0.0000 C   0  0  0  0  0  0  0  0  0  0  0  0
   -3.2623    0.8237    0.0000 C   0  0  0  0  0  0  0  0  0  0  0  0
   -1.9537    1.5569    0.0000 C   0  0  0  0  0  0  0  0  0  0  0  0
   -0.5646    0.9910    0.0000 C   0  0  0  0  0  0  0  0  0  0  0  0
    2.6151   -0.7421    0.0000 C   0  0  0  0  0  0  0  0  0  0  0  0
    3.8953    0.0396    0.0000 O   0  0  0  0  0  0  0  0  0  0  0  0
    2.6519   -2.2416    0.0000 O   0  0  0  0  0  0  0  0  0  0  0  0
  1  2  1  0
  2  3  1  0
  3  4  1  0
  4  5  1  0
  5  6  1  0
  6  7  1  0
  7  8  1  0
  8  9  1  0
  9 10  1  0
  3 11  1  0
 11 12  2  0
 11 13  1  0
 10  2  1  0
 10  4  1  0
M  END
>  <rName>  (580) 
9-amino-bicyclo520nonane-8-CO2H

>  <PQ_SYMBOL>  (580) 
9-amino-bicyclo520nonane-8-CO2H

>  <FULL_NAME>  (580) 
9-Aminobicyclo[5.2.0]nonane-8-carboxylic acid

>  <IUPAC_CONDENSED>  (580) 
9-amino-bicyclo[5.2.0]nonane-8-CO2H

>  <IUPAC>  (580) 
9-aminobicyclo[5.2.0]nonane-8-carboxylic acid

>  <TYPE>  (580) 
Backbone

>  <CLASS>  (580) 
beta

>  <ANALOG>  (580) 
X

>  <MOL_WT>  (580) 
183.25100000000003

>  <LOGP>  (580) 
1.2245999999999997

>  <TPSA>  (580) 
63.32000000000001

>  <POPULARITY>  (580) 
4.2

>  <PROTECTED>  (580) 
TRUE

>  <SMILES>  (580) 
NC1C(C2(CCCCCC12))C(=O)O

>  <INCHIKEY>  (580) 
JUHYHWKKDUDCPI-UHFFFAOYSA-N

$$$$
9-oxa-1-azaspiro55undecane-3-CO2H
     RDKit          2D

 14 15  0  0  0  0  0  0  0  0999 V2000
    0.3214   -1.2990    0.0000 N   0  0  0  0  0  0  0  0  0  0  0  0
   -1.1786   -1.2990    0.0000 C   0  0  0  0  0  0  0  0  0  0  0  0
   -1.9286   -0.0000    0.0000 C   0  0  0  0  0  0  0  0  0  0  0  0
   -1.1786    1.2990    0.0000 C   0  0  0  0  0  0  0  0  0  0  0  0
    0.3214    1.2990    0.0000 C   0  0  0  0  0  0  0  0  0  0  0  0
    1.0714   -0.0000    0.0000 C   0  0  0  0  0  0  0  0  0  0  0  0
    1.8214   -1.2990    0.0000 C   0  0  0  0  0  0  0  0  0  0  0  0
    3.3214   -1.2990    0.0000 C   0  0  0  0  0  0  0  0  0  0  0  0
    4.0714    0.0000    0.0000 O   0  0  0  0  0  0  0  0  0  0  0  0
    3.3214    1.2990    0.0000 C   0  0  0  0  0  0  0  0  0  0  0  0
    1.8214    1.2990    0.0000 C   0  0  0  0  0  0  0  0  0  0  0  0
   -3.4286   -0.0000    0.0000 C   0  0  0  0  0  0  0  0  0  0  0  0
   -4.1786   -1.2990    0.0000 O   0  0  0  0  0  0  0  0  0  0  0  0
   -4.1786    1.2990    0.0000 O   0  0  0  0  0  0  0  0  0  0  0  0
  1  2  1  0
  2  3  1  0
  3  4  1  0
  4  5  1  0
  5  6  1  0
  6  7  1  0
  7  8  1  0
  8  9  1  0
  9 10  1  0
 10 11  1  0
  3 12  1  0
 12 13  2  0
 12 14  1  0
  6  1  1  0
 11  6  1  0
M  END
>  <rName>  (581) 
9-oxa-1-azaspiro55undecane-3-CO2H

>  <PQ_SYMBOL>  (581) 
9-oxa-1-azaspiro55undecane-3-CO2H

>  <FULL_NAME>  (581) 
9-Oxa-1-azaspiro[5.5]undecane-3-carboxylic acid

>  <IUPAC_CONDENSED>  (581) 
9-oxa-1-azaspiro[5.5]undecane-3-CO2H

>  <IUPAC>  (581) 
9-oxa-1-azaspiro[5.5]undecane-3-carboxylic acid

>  <TYPE>  (581) 
Backbone

>  <CLASS>  (581) 
beta

>  <ANALOG>  (581) 
Pro

>  <MOL_WT>  (581) 
199.24999999999997

>  <LOGP>  (581) 
0.6197999999999999

>  <TPSA>  (581) 
58.56

>  <POPULARITY>  (581) 
2.7

>  <PROTECTED>  (581) 
TRUE

>  <SMILES>  (581) 
N1CC(CCC12(CCOCC2))C(=O)O

>  <INCHIKEY>  (581) 
QOROYAYMNUCGQE-UHFFFAOYSA-N

$$$$
9-oxa-3-azabicyclo331nonane-1-CO2H
     RDKit          2D

 12 13  0  0  0  0  0  0  0  0999 V2000
    1.8380    0.0678    0.0000 N   0  0  0  0  0  0  0  0  0  0  0  0
    1.3062    1.3844    0.0000 C   0  0  0  0  0  0  0  0  0  0  0  0
   -0.0008    1.9394    0.0000 C   0  0  0  0  0  0  0  0  0  0  0  0
    0.4827    0.0798    0.0000 O   0  0  0  0  0  0  0  0  0  0  0  0
   -0.0337   -1.7711    0.0000 C   0  0  0  0  0  0  0  0  0  0  0  0
   -1.3407   -1.2161    0.0000 C   0  0  0  0  0  0  0  0  0  0  0  0
   -1.8725    0.1006    0.0000 C   0  0  0  0  0  0  0  0  0  0  0  0
   -1.3175    1.4076    0.0000 C   0  0  0  0  0  0  0  0  0  0  0  0
    1.2830   -1.2393    0.0000 C   0  0  0  0  0  0  0  0  0  0  0  0
   -0.0134    0.5195    0.0000 C   0  0  0  0  0  0  0  0  0  0  0  0
    0.7701   -0.7597    0.0000 O   0  0  0  0  0  0  0  0  0  0  0  0
   -1.1015   -0.5130    0.0000 O   0  0  0  0  0  0  0  0  0  0  0  0
  1  2  1  0
  2  3  1  0
  3  4  1  0
  4  5  1  0
  5  6  1  0
  6  7  1  0
  7  8  1  0
  5  9  1  0
  3 10  1  0
 10 11  2  0
 10 12  1  0
  8  3  1  0
  9  1  1  0
M  END
>  <rName>  (582) 
9-oxa-3-azabicyclo331nonane-1-CO2H

>  <PQ_SYMBOL>  (582) 
9-oxa-3-azabicyclo331nonane-1-CO2H

>  <FULL_NAME>  (582) 
O=C(O)C12CCCC(CNC1)O2

>  <IUPAC_CONDENSED>  (582) 
9-oxa-3-azabicyclo[3.3.1]nonane-1-CO2H

>  <IUPAC>  (582) 
9-oxa-3-azabicyclo[3.3.1]nonane-1-carboxylic acid

>  <TYPE>  (582) 
Backbone

>  <CLASS>  (582) 
beta

>  <ANALOG>  (582) 
Pro

>  <MOL_WT>  (582) 
171.196

>  <LOGP>  (582) 
-0.017900000000000305

>  <TPSA>  (582) 
58.56

>  <POPULARITY>  (582) 
2.2

>  <PROTECTED>  (582) 
TRUE

>  <SMILES>  (582) 
N2CC1(OC(CCC1)C2)C(=O)O

>  <INCHIKEY>  (582) 
YQGWAAJCIGEKKD-UHFFFAOYSA-N

$$$$
A
     RDKit          2D

  6  5  0  0  0  0  0  0  0  0999 V2000
    1.5000   -1.2990    0.0000 N   0  0  0  0  0  0  0  0  0  0  0  0
    0.7500    0.0000    0.0000 C   0  0  0  0  0  0  0  0  0  0  0  0
    1.5000    1.2990    0.0000 C   0  0  0  0  0  0  0  0  0  0  0  0
   -0.7500   -0.0000    0.0000 C   0  0  0  0  0  0  0  0  0  0  0  0
   -1.5000    1.2990    0.0000 O   0  0  0  0  0  0  0  0  0  0  0  0
   -1.5000   -1.2990    0.0000 O   0  0  0  0  0  0  0  0  0  0  0  0
  1  2  1  0
  2  3  1  6
  2  4  1  0
  4  5  2  0
  4  6  1  0
M  END
>  <rName>  (583) 
A

>  <PQ_SYMBOL>  (583) 
A

>  <FULL_NAME>  (583) 
L-Alanine

>  <IUPAC_CONDENSED>  (583) 
Ala

>  <IUPAC>  (583) 
(2S)-2-aminopropanoic acid

>  <TYPE>  (583) 
Backbone

>  <CLASS>  (583) 
alpha

>  <ANALOG>  (583) 
Ala

>  <MOL_WT>  (583) 
89.09399999999998

>  <LOGP>  (583) 
-0.5818000000000003

>  <TPSA>  (583) 
63.32000000000001

>  <POPULARITY>  (583) 
98.6

>  <PROTECTED>  (583) 
TRUE

>  <SMILES>  (583) 
N[C@@H](C)C(=O)O

>  <INCHIKEY>  (583) 
QNAYBMKLOCPYGJ-REOHCLBHSA-N

$$$$
Aad
     RDKit          2D

 11 10  0  0  0  0  0  0  0  0999 V2000
   -1.6269    1.8430    0.0000 N   0  0  0  0  0  0  0  0  0  0  0  0
   -1.7489    0.3480    0.0000 C   0  0  0  0  0  0  0  0  0  0  0  0
   -0.5152   -0.5052    0.0000 C   0  0  0  0  0  0  0  0  0  0  0  0
    0.8406    0.1366    0.0000 C   0  0  0  0  0  0  0  0  0  0  0  0
    2.0743   -0.7166    0.0000 C   0  0  0  0  0  0  0  0  0  0  0  0
    3.4300   -0.0748    0.0000 C   0  0  0  0  0  0  0  0  0  0  0  0
    3.5521    1.4203    0.0000 O   0  0  0  0  0  0  0  0  0  0  0  0
    4.6637   -0.9280    0.0000 O   0  0  0  0  0  0  0  0  0  0  0  0
   -3.1047   -0.2938    0.0000 C   0  0  0  0  0  0  0  0  0  0  0  0
   -3.2267   -1.7889    0.0000 O   0  0  0  0  0  0  0  0  0  0  0  0
   -4.3384    0.5594    0.0000 O   0  0  0  0  0  0  0  0  0  0  0  0
  2  1  1  1
  2  3  1  0
  3  4  1  0
  4  5  1  0
  5  6  1  0
  6  7  2  0
  6  8  1  0
  2  9  1  0
  9 10  2  0
  9 11  1  0
M  END
>  <rName>  (584) 
Aad

>  <PQ_SYMBOL>  (584) 
Aad

>  <FULL_NAME>  (584) 
(2S)-2-Aminohexanedioic acid

>  <IUPAC_CONDENSED>  (584) 
Aad

>  <IUPAC>  (584) 
(2S)-2-aminohexanedioic acid

>  <TYPE>  (584) 
Backbone

>  <CLASS>  (584) 
alpha

>  <ANALOG>  (584) 
X

>  <MOL_WT>  (584) 
161.15699999999998

>  <LOGP>  (584) 
-0.3468000000000003

>  <TPSA>  (584) 
100.62000000000002

>  <POPULARITY>  (584) 
33.1

>  <PROTECTED>  (584) 
TRUE

>  <SMILES>  (584) 
N[C@@H](CCCC(=O)O)C(=O)O

>  <INCHIKEY>  (584) 
OYIFNHCXNCRBQI-BYPYZUCNSA-N

$$$$
Aad-Oallyl
     RDKit          2D

 14 13  0  0  0  0  0  0  0  0999 V2000
   -0.1751    1.7810    0.0000 N   0  0  0  0  0  0  0  0  0  0  0  0
   -0.2623    0.2836    0.0000 C   0  0  0  0  0  0  0  0  0  0  0  0
   -1.6028   -0.3896    0.0000 C   0  0  0  0  0  0  0  0  0  0  0  0
   -1.6900   -1.8871    0.0000 O   0  0  0  0  0  0  0  0  0  0  0  0
   -2.8560    0.4346    0.0000 O   0  0  0  0  0  0  0  0  0  0  0  0
   -4.1964   -0.2386    0.0000 C   0  0  0  0  0  0  0  0  0  0  0  0
   -5.4497    0.5856    0.0000 C   0  0  0  0  0  0  0  0  0  0  0  0
   -6.7901   -0.0876    0.0000 C   0  0  0  0  0  0  0  0  0  0  0  0
    0.9909   -0.5407    0.0000 C   0  0  0  0  0  0  0  0  0  0  0  0
    2.3314    0.1326    0.0000 C   0  0  0  0  0  0  0  0  0  0  0  0
    3.5846   -0.6917    0.0000 C   0  0  0  0  0  0  0  0  0  0  0  0
    4.9250   -0.0185    0.0000 C   0  0  0  0  0  0  0  0  0  0  0  0
    5.0122    1.4790    0.0000 O   0  0  0  0  0  0  0  0  0  0  0  0
    6.1783   -0.8427    0.0000 O   0  0  0  0  0  0  0  0  0  0  0  0
  2  1  1  1
  2  3  1  0
  3  4  2  0
  3  5  1  0
  5  6  1  0
  6  7  1  0
  7  8  2  0
  2  9  1  0
  9 10  1  0
 10 11  1  0
 11 12  1  0
 12 13  2  0
 12 14  1  0
M  END
>  <rName>  (585) 
Aad-Oallyl

>  <PQ_SYMBOL>  (585) 
Aad-Oallyl

>  <FULL_NAME>  (585) 
(5S)-5-amino-6-oxo-6-prop-2-enoxyhexanoic acid

>  <IUPAC_CONDENSED>  (585) 
Aad-Oallyl

>  <IUPAC>  (585) 
(5S)-5-amino-5-(((prop-2-en-1-yl)oxy)carbonyl)pentanoic acid

>  <TYPE>  (585) 
Backbone

>  <CLASS>  (585) 
delta

>  <ANALOG>  (585) 
X

>  <MOL_WT>  (585) 
201.22199999999995

>  <LOGP>  (585) 
0.29779999999999957

>  <TPSA>  (585) 
89.62000000000002

>  <POPULARITY>  (585) 
3.2

>  <PROTECTED>  (585) 
TRUE

>  <SMILES>  (585) 
N[C@H](C(=O)OCC=C)CCCC(=O)O

>  <INCHIKEY>  (585) 
JMRZCPVPMQASQZ-ZETCQYMHSA-N

$$$$
Aad_CO2H
     RDKit          2D

 14 13  0  0  0  0  0  0  0  0999 V2000
    2.3797   -2.0877    0.0000 N   0  0  0  0  0  0  0  0  0  0  0  0
    2.2742   -0.5914    0.0000 C   0  0  0  0  0  0  0  0  0  0  0  0
    0.9256    0.0653    0.0000 C   0  0  0  0  0  0  0  0  0  0  0  0
   -0.3175   -0.7743    0.0000 C   0  0  0  0  0  0  0  0  0  0  0  0
   -1.6661   -0.1175    0.0000 C   0  0  0  0  0  0  0  0  0  0  0  0
   -2.9091   -0.9571    0.0000 C   0  0  0  0  0  0  0  0  0  0  0  0
   -2.8035   -2.4534    0.0000 O   0  0  0  0  0  0  0  0  0  0  0  0
   -4.2577   -0.3004    0.0000 O   0  0  0  0  0  0  0  0  0  0  0  0
   -1.7716    1.3787    0.0000 C   0  0  0  0  0  0  0  0  0  0  0  0
   -0.5286    2.2183    0.0000 O   0  0  0  0  0  0  0  0  0  0  0  0
   -3.1202    2.0355    0.0000 O   0  0  0  0  0  0  0  0  0  0  0  0
    3.5172    0.2481    0.0000 C   0  0  0  0  0  0  0  0  0  0  0  0
    3.4117    1.7444    0.0000 O   0  0  0  0  0  0  0  0  0  0  0  0
    4.8658   -0.4086    0.0000 O   0  0  0  0  0  0  0  0  0  0  0  0
  2  1  1  1
  2  3  1  0
  3  4  1  0
  4  5  1  0
  5  6  1  0
  6  7  2  0
  6  8  1  0
  5  9  1  0
  9 10  2  0
  9 11  1  0
  2 12  1  0
 12 13  2  0
 12 14  1  0
M  END
>  <rName>  (586) 
Aad_CO2H

>  <PQ_SYMBOL>  (586) 
Aad_CO2H

>  <FULL_NAME>  (586) 
(S)-4-aminobutane-1,1,4-tricarboxylic acid

>  <IUPAC_CONDENSED>  (586) 
Aad(CO2H)

>  <IUPAC>  (586) 
(2S)-2-amino-5-carboxyhexanedioic acid

>  <TYPE>  (586) 
Backbone

>  <CLASS>  (586) 
alpha

>  <ANALOG>  (586) 
X

>  <MOL_WT>  (586) 
205.16599999999997

>  <LOGP>  (586) 
-1.0360999999999987

>  <TPSA>  (586) 
137.92000000000002

>  <POPULARITY>  (586) 
5.4

>  <PROTECTED>  (586) 
TRUE

>  <SMILES>  (586) 
N[C@@H](CCC(C(=O)O)C(=O)O)C(=O)O

>  <INCHIKEY>  (586) 
BSEWAJVZTJXACR-BYPYZUCNSA-N

$$$$
Abu
     RDKit          2D

  7  6  0  0  0  0  0  0  0  0999 V2000
   -0.5797   -1.7367    0.0000 N   0  0  0  0  0  0  0  0  0  0  0  0
   -0.2514   -0.2730    0.0000 C   0  0  0  0  0  0  0  0  0  0  0  0
   -1.3548    0.7431    0.0000 C   0  0  0  0  0  0  0  0  0  0  0  0
   -2.7865    0.2956    0.0000 C   0  0  0  0  0  0  0  0  0  0  0  0
    1.1803    0.1745    0.0000 C   0  0  0  0  0  0  0  0  0  0  0  0
    1.5086    1.6381    0.0000 O   0  0  0  0  0  0  0  0  0  0  0  0
    2.2837   -0.8417    0.0000 O   0  0  0  0  0  0  0  0  0  0  0  0
  2  1  1  1
  2  3  1  0
  3  4  1  0
  2  5  1  0
  5  6  2  0
  5  7  1  0
M  END
>  <rName>  (587) 
Abu

>  <PQ_SYMBOL>  (587) 
Abu

>  <FULL_NAME>  (587) 
L-2-Aminobutyric acid

>  <IUPAC_CONDENSED>  (587) 
Abu

>  <IUPAC>  (587) 
(2S)-2-aminobutanoic acid

>  <TYPE>  (587) 
Backbone

>  <CLASS>  (587) 
alpha

>  <ANALOG>  (587) 
Ala

>  <MOL_WT>  (587) 
103.12099999999998

>  <LOGP>  (587) 
-0.19170000000000004

>  <TPSA>  (587) 
63.32000000000001

>  <POPULARITY>  (587) 
68.6

>  <PROTECTED>  (587) 
TRUE

>  <SMILES>  (587) 
N[C@@H](CC)C(=O)O

>  <INCHIKEY>  (587) 
QWCKQJZIFLGMSD-VKHMYHEASA-N

$$$$
Abu4R-1-guanidinopiperidin-3-yl-al
     RDKit          2D

 15 15  0  0  0  0  0  0  0  0999 V2000
   -2.2164    1.3592    0.0000 N   0  0  0  0  0  0  0  0  0  0  0  0
   -2.9508    0.0512    0.0000 C   0  0  0  0  0  0  0  0  0  0  0  0
   -4.4507    0.0333    0.0000 C   0  0  0  0  0  0  0  0  0  0  0  0
   -5.2162    1.3232    0.0000 O   0  0  0  0  0  0  0  0  0  0  0  0
   -2.1853   -1.2387    0.0000 C   0  0  0  0  0  0  0  0  0  0  0  0
   -0.6854   -1.2207    0.0000 C   0  0  0  0  0  0  0  0  0  0  0  0
    0.0490    0.0872    0.0000 C   0  0  0  0  0  0  0  0  0  0  0  0
    1.5489    0.1052    0.0000 N   0  0  0  0  0  0  0  0  0  0  0  0
    2.3144   -1.1848    0.0000 C   0  0  0  0  0  0  0  0  0  0  0  0
    1.5800   -2.4927    0.0000 C   0  0  0  0  0  0  0  0  0  0  0  0
    0.0801   -2.5107    0.0000 C   0  0  0  0  0  0  0  0  0  0  0  0
    2.2832    1.4131    0.0000 C   0  0  0  0  0  0  0  0  0  0  0  0
    1.5177    2.7031    0.0000 N   0  0  0  0  0  0  0  0  0  0  0  0
    3.7831    1.4311    0.0000 N   0  0  0  0  0  0  0  0  0  0  0  0
    4.5486    0.1411    0.0000 H   0  0  0  0  0  0  0  0  0  0  0  0
  2  1  1  1
  2  3  1  0
  3  4  2  0
  2  5  1  0
  6  5  1  6
  6  7  1  0
  7  8  1  0
  8  9  1  0
  9 10  1  0
 10 11  1  0
  8 12  1  0
 12 13  1  0
 12 14  2  0
 14 15  1  0
 11  6  1  0
M  END
>  <rName>  (588) 
Abu4R-1-guanidinopiperidin-3-yl-al

>  <PQ_SYMBOL>  (588) 
Abu4R-1-guanidinopiperidin-3-yl-al

>  <FULL_NAME>  (588) 
(3R)-3-[(2S)-2-amino-3-oxopropyl]piperidine-1-carboximidamide

>  <IUPAC_CONDENSED>  (588) 
Abu(4R-1-guanidinopiperidin-3-yl)-al

>  <IUPAC>  (588) 
(2S)-2-amino-3-((3R)-1-((1Z)-(amino)(imino)methyl)piperidin-3-yl)propanal

>  <TYPE>  (588) 
C-term cap

>  <CLASS>  (588) 
c_cap

>  <ANALOG>  (588) 
X

>  <MOL_WT>  (588) 
198.26999999999998

>  <LOGP>  (588) 
-0.4918299999999995

>  <TPSA>  (588) 
96.20000000000002

>  <POPULARITY>  (588) 
0.8

>  <PROTECTED>  (588) 
FALSE

>  <SMILES>  (588) 
N[C@H](C=O)C[C@@H]1CN(CCC1)/C(/N)=N\[H]

>  <INCHIKEY>  (588) 
IRUHYIZUOLOUAT-SFYZADRCSA-N

$$$$
Abu4S-1-guanidinopiperidin-3-yl-al
     RDKit          2D

 15 15  0  0  0  0  0  0  0  0999 V2000
    2.0217   -1.4909    0.0000 N   0  0  0  0  0  0  0  0  0  0  0  0
    2.9358   -0.3016    0.0000 C   0  0  0  0  0  0  0  0  0  0  0  0
    4.4228   -0.4986    0.0000 C   0  0  0  0  0  0  0  0  0  0  0  0
    4.9957   -1.8849    0.0000 O   0  0  0  0  0  0  0  0  0  0  0  0
    2.3629    1.0847    0.0000 C   0  0  0  0  0  0  0  0  0  0  0  0
    0.8759    1.2817    0.0000 C   0  0  0  0  0  0  0  0  0  0  0  0
   -0.0382    0.0924    0.0000 C   0  0  0  0  0  0  0  0  0  0  0  0
   -1.5252    0.2894    0.0000 N   0  0  0  0  0  0  0  0  0  0  0  0
   -2.0981    1.6757    0.0000 C   0  0  0  0  0  0  0  0  0  0  0  0
   -1.1840    2.8650    0.0000 C   0  0  0  0  0  0  0  0  0  0  0  0
    0.3031    2.6680    0.0000 C   0  0  0  0  0  0  0  0  0  0  0  0
   -2.4393   -0.8998    0.0000 C   0  0  0  0  0  0  0  0  0  0  0  0
   -1.8664   -2.2861    0.0000 N   0  0  0  0  0  0  0  0  0  0  0  0
   -3.9263   -0.7028    0.0000 N   0  0  0  0  0  0  0  0  0  0  0  0
   -4.8405   -1.8921    0.0000 H   0  0  0  0  0  0  0  0  0  0  0  0
  2  1  1  1
  2  3  1  0
  3  4  2  0
  2  5  1  0
  6  5  1  1
  6  7  1  0
  7  8  1  0
  8  9  1  0
  9 10  1  0
 10 11  1  0
  8 12  1  0
 12 13  1  0
 12 14  2  0
 14 15  1  0
 11  6  1  0
M  END
>  <rName>  (589) 
Abu4S-1-guanidinopiperidin-3-yl-al

>  <PQ_SYMBOL>  (589) 
Abu4S-1-guanidinopiperidin-3-yl-al

>  <FULL_NAME>  (589) 
(3S)-3-[(2S)-2-amino-3-oxopropyl]piperidine-1-carboximidamide

>  <IUPAC_CONDENSED>  (589) 
Abu(4S-1-guanidinopiperidin-3-yl)-al

>  <IUPAC>  (589) 
(2S)-2-amino-3-((3S)-1-((1E)-(amino)(imino)methyl)piperidin-3-yl)propanal

>  <TYPE>  (589) 
C-term cap

>  <CLASS>  (589) 
c_cap

>  <ANALOG>  (589) 
X

>  <MOL_WT>  (589) 
198.26999999999998

>  <LOGP>  (589) 
-0.4918299999999995

>  <TPSA>  (589) 
96.20000000000002

>  <POPULARITY>  (589) 
0.8

>  <PROTECTED>  (589) 
FALSE

>  <SMILES>  (589) 
N[C@H](C=O)C[C@H]1CN(CCC1)/C(/N)=N/[H]

>  <INCHIKEY>  (589) 
IRUHYIZUOLOUAT-YUMQZZPRSA-N

$$$$
Abu_1Acpiperidin4yl
     RDKit          2D

 16 16  0  0  0  0  0  0  0  0999 V2000
   -4.0381   -1.7977    0.0000 N   0  0  0  0  0  0  0  0  0  0  0  0
   -3.6368   -0.3524    0.0000 C   0  0  0  0  0  0  0  0  0  0  0  0
   -2.1845    0.0228    0.0000 C   0  0  0  0  0  0  0  0  0  0  0  0
   -1.1334   -1.0474    0.0000 C   0  0  0  0  0  0  0  0  0  0  0  0
    0.3189   -0.6723    0.0000 C   0  0  0  0  0  0  0  0  0  0  0  0
    0.7202    0.7730    0.0000 C   0  0  0  0  0  0  0  0  0  0  0  0
    2.1725    1.1481    0.0000 C   0  0  0  0  0  0  0  0  0  0  0  0
    3.2236    0.0779    0.0000 N   0  0  0  0  0  0  0  0  0  0  0  0
    2.8223   -1.3674    0.0000 C   0  0  0  0  0  0  0  0  0  0  0  0
    1.3699   -1.7425    0.0000 C   0  0  0  0  0  0  0  0  0  0  0  0
    4.6759    0.4530    0.0000 C   0  0  0  0  0  0  0  0  0  0  0  0
    5.0772    1.8984    0.0000 O   0  0  0  0  0  0  0  0  0  0  0  0
    5.7269   -0.6172    0.0000 C   0  0  0  0  0  0  0  0  0  0  0  0
   -4.6878    0.7178    0.0000 C   0  0  0  0  0  0  0  0  0  0  0  0
   -4.2865    2.1632    0.0000 O   0  0  0  0  0  0  0  0  0  0  0  0
   -6.1402    0.3427    0.0000 O   0  0  0  0  0  0  0  0  0  0  0  0
  2  1  1  6
  2  3  1  0
  3  4  1  0
  4  5  1  0
  5  6  1  0
  6  7  1  0
  7  8  1  0
  8  9  1  0
  9 10  1  0
  8 11  1  0
 11 12  2  0
 11 13  1  0
  2 14  1  0
 14 15  2  0
 14 16  1  0
 10  5  1  0
M  END
>  <rName>  (590) 
Abu_1Acpiperidin4yl

>  <PQ_SYMBOL>  (590) 
Abu_1Acpiperidin4yl

>  <FULL_NAME>  (590) 
Abu(1-Ac-piperidin-4-yl)

>  <IUPAC_CONDENSED>  (590) 
Abu(1-Ac-piperidin-4-yl)

>  <IUPAC>  (590) 
(2S)-4-(1-(acetyl)piperidin-4-yl)-2-aminobutanoic acid

>  <TYPE>  (590) 
Backbone

>  <CLASS>  (590) 
alpha

>  <ANALOG>  (590) 
Lys

>  <MOL_WT>  (590) 
228.29199999999997

>  <LOGP>  (590) 
0.437

>  <TPSA>  (590) 
83.63

>  <POPULARITY>  (590) 
2.2

>  <PROTECTED>  (590) 
TRUE

>  <SMILES>  (590) 
N[C@@H](CCC1(CCN(CC1)C(=O)C))C(=O)O

>  <INCHIKEY>  (590) 
SPYJPDZISDBHTG-JTQLQIEISA-N

$$$$
Abu_23dehydro_E
     RDKit          2D

  7  6  0  0  0  0  0  0  0  0999 V2000
   -0.7500   -2.0413    0.0000 N   0  0  0  0  0  0  0  0  0  0  0  0
   -0.0000   -0.7423    0.0000 C   0  0  0  0  0  0  0  0  0  0  0  0
    1.5000   -0.7423    0.0000 C   0  0  0  0  0  0  0  0  0  0  0  0
    2.2500    0.5567    0.0000 C   0  0  0  0  0  0  0  0  0  0  0  0
   -0.7500    0.5567    0.0000 C   0  0  0  0  0  0  0  0  0  0  0  0
    0.0000    1.8558    0.0000 O   0  0  0  0  0  0  0  0  0  0  0  0
   -2.2500    0.5567    0.0000 O   0  0  0  0  0  0  0  0  0  0  0  0
  1  2  1  0
  2  3  2  0
  3  4  1  0
  2  5  1  0
  5  6  2  0
  5  7  1  0
M  END
>  <rName>  (591) 
Abu_23dehydro_E

>  <PQ_SYMBOL>  (591) 
Abu_23dehydro_E

>  <FULL_NAME>  (591) 
(E)-2-aminobut-2-enoic acid

>  <IUPAC_CONDENSED>  (591) 
Abu(2,3-dehydro,E)

>  <IUPAC>  (591) 
(2E)-2-aminobut-2-enoic acid

>  <TYPE>  (591) 
Backbone

>  <CLASS>  (591) 
alpha

>  <ANALOG>  (591) 
Ala

>  <MOL_WT>  (591) 
101.10499999999999

>  <LOGP>  (591) 
-0.06650000000000006

>  <TPSA>  (591) 
63.32000000000001

>  <POPULARITY>  (591) 
6.7

>  <PROTECTED>  (591) 
TRUE

>  <SMILES>  (591) 
N/C(=C/C)C(=O)O

>  <INCHIKEY>  (591) 
PAWSVPVNIXFKOS-NSCUHMNNSA-N

$$$$
Abu_23dehydro_Z
     RDKit          2D

  7  6  0  0  0  0  0  0  0  0999 V2000
   -0.5797    1.7367    0.0000 N   0  0  0  0  0  0  0  0  0  0  0  0
   -0.2514    0.2730    0.0000 C   0  0  0  0  0  0  0  0  0  0  0  0
   -1.3548   -0.7431    0.0000 C   0  0  0  0  0  0  0  0  0  0  0  0
   -2.7865   -0.2956    0.0000 C   0  0  0  0  0  0  0  0  0  0  0  0
    1.1803   -0.1745    0.0000 C   0  0  0  0  0  0  0  0  0  0  0  0
    1.5086   -1.6381    0.0000 O   0  0  0  0  0  0  0  0  0  0  0  0
    2.2837    0.8417    0.0000 O   0  0  0  0  0  0  0  0  0  0  0  0
  1  2  1  0
  2  3  2  0
  3  4  1  0
  2  5  1  0
  5  6  2  0
  5  7  1  0
M  END
>  <rName>  (592) 
Abu_23dehydro_Z

>  <PQ_SYMBOL>  (592) 
Abu_23dehydro_Z

>  <FULL_NAME>  (592) 
(Z)-dehydrobutyrine

>  <IUPAC_CONDENSED>  (592) 
Abu(2,3-dehydro,Z)

>  <IUPAC>  (592) 
(2Z)-2-aminobut-2-enoic acid

>  <TYPE>  (592) 
Backbone

>  <CLASS>  (592) 
alpha

>  <ANALOG>  (592) 
Ala

>  <MOL_WT>  (592) 
101.10499999999999

>  <LOGP>  (592) 
-0.06650000000000006

>  <TPSA>  (592) 
63.32000000000001

>  <POPULARITY>  (592) 
25.8

>  <PROTECTED>  (592) 
TRUE

>  <SMILES>  (592) 
N/C(=C\C)C(=O)O

>  <INCHIKEY>  (592) 
PAWSVPVNIXFKOS-IHWYPQMZSA-N

$$$$
Abu_4piperidyl
     RDKit          2D

 13 13  0  0  0  0  0  0  0  0999 V2000
   -2.6715   -1.9340    0.0000 N   0  0  0  0  0  0  0  0  0  0  0  0
   -2.4130   -0.4565    0.0000 C   0  0  0  0  0  0  0  0  0  0  0  0
   -1.0042    0.0585    0.0000 C   0  0  0  0  0  0  0  0  0  0  0  0
    0.1462   -0.9041    0.0000 C   0  0  0  0  0  0  0  0  0  0  0  0
    1.5550   -0.3891    0.0000 C   0  0  0  0  0  0  0  0  0  0  0  0
    1.8135    1.0885    0.0000 C   0  0  0  0  0  0  0  0  0  0  0  0
    3.2223    1.6034    0.0000 C   0  0  0  0  0  0  0  0  0  0  0  0
    4.3727    0.6408    0.0000 N   0  0  0  0  0  0  0  0  0  0  0  0
    4.1143   -0.8367    0.0000 C   0  0  0  0  0  0  0  0  0  0  0  0
    2.7054   -1.3517    0.0000 C   0  0  0  0  0  0  0  0  0  0  0  0
   -3.5634    0.5061    0.0000 C   0  0  0  0  0  0  0  0  0  0  0  0
   -3.3050    1.9837    0.0000 O   0  0  0  0  0  0  0  0  0  0  0  0
   -4.9723   -0.0089    0.0000 O   0  0  0  0  0  0  0  0  0  0  0  0
  2  1  1  6
  2  3  1  0
  3  4  1  0
  4  5  1  0
  5  6  1  0
  6  7  1  0
  7  8  1  0
  8  9  1  0
  9 10  1  0
  2 11  1  0
 11 12  2  0
 11 13  1  0
 10  5  1  0
M  END
>  <rName>  (593) 
Abu_4piperidyl

>  <PQ_SYMBOL>  (593) 
Abu_4piperidyl

>  <FULL_NAME>  (593) 
(2S)-2-amino-4-piperidin-4-ylbutanoic acid

>  <IUPAC_CONDENSED>  (593) 
Abu(4-piperidyl)

>  <IUPAC>  (593) 
(2S)-2-amino-4-piperidin-4-ylbutanoic acid

>  <TYPE>  (593) 
Backbone

>  <CLASS>  (593) 
alpha

>  <ANALOG>  (593) 
Lys

>  <MOL_WT>  (593) 
186.255

>  <LOGP>  (593) 
0.17809999999999965

>  <TPSA>  (593) 
75.35

>  <POPULARITY>  (593) 
2.2

>  <PROTECTED>  (593) 
TRUE

>  <SMILES>  (593) 
N[C@@H](CCC1(CCNCC1))C(=O)O

>  <INCHIKEY>  (593) 
CYFQLLSFGZHOMC-QMMMGPOBSA-N

$$$$
Abu_Br
     RDKit          2D

  8  7  0  0  0  0  0  0  0  0999 V2000
   -0.2517   -1.8862    0.0000 N   0  0  0  0  0  0  0  0  0  0  0  0
   -0.3100   -0.3873    0.0000 C   0  0  0  0  0  0  0  0  0  0  0  0
    0.9590    0.4126    0.0000 C   0  0  0  0  0  0  0  0  0  0  0  0
    2.2862   -0.2864    0.0000 C   0  0  0  0  0  0  0  0  0  0  0  0
    3.5551    0.5134    0.0000 Br  0  0  0  0  0  0  0  0  0  0  0  0
   -1.6371    0.3117    0.0000 C   0  0  0  0  0  0  0  0  0  0  0  0
   -1.6954    1.8105    0.0000 O   0  0  0  0  0  0  0  0  0  0  0  0
   -2.9061   -0.4882    0.0000 O   0  0  0  0  0  0  0  0  0  0  0  0
  2  1  1  6
  2  3  1  0
  3  4  1  0
  4  5  1  0
  2  6  1  0
  6  7  2  0
  6  8  1  0
M  END
>  <rName>  (594) 
Abu_Br

>  <PQ_SYMBOL>  (594) 
Abu_Br

>  <FULL_NAME>  (594) 
(S)-2-amino-4-bromobutanoic acid

>  <IUPAC_CONDENSED>  (594) 
Abu(Br)

>  <IUPAC>  (594) 
(2S)-2-amino-4-bromobutanoic acid

>  <TYPE>  (594) 
Backbone

>  <CLASS>  (594) 
alpha

>  <ANALOG>  (594) 
X

>  <MOL_WT>  (594) 
182.017

>  <LOGP>  (594) 
0.18329999999999974

>  <TPSA>  (594) 
63.32000000000001

>  <POPULARITY>  (594) 
7.6

>  <PROTECTED>  (594) 
TRUE

>  <SMILES>  (594) 
N[C@@H](CCBr)C(=O)O

>  <INCHIKEY>  (594) 
LMYNKFDVIZBWDF-VKHMYHEASA-N

$$$$
Abu_CF3
     RDKit          2D

 11 10  0  0  0  0  0  0  0  0999 V2000
    1.5275   -1.9644    0.0000 N   0  0  0  0  0  0  0  0  0  0  0  0
    1.4450   -0.4666    0.0000 C   0  0  0  0  0  0  0  0  0  0  0  0
    0.1067    0.2107    0.0000 C   0  0  0  0  0  0  0  0  0  0  0  0
   -1.1491   -0.6096    0.0000 C   0  0  0  0  0  0  0  0  0  0  0  0
   -2.4875    0.0678    0.0000 C   0  0  0  0  0  0  0  0  0  0  0  0
   -3.8258    0.7452    0.0000 F   0  0  0  0  0  0  0  0  0  0  0  0
   -3.1649   -1.2706    0.0000 F   0  0  0  0  0  0  0  0  0  0  0  0
   -1.8101    1.4061    0.0000 F   0  0  0  0  0  0  0  0  0  0  0  0
    2.7008    0.3537    0.0000 C   0  0  0  0  0  0  0  0  0  0  0  0
    2.6183    1.8514    0.0000 O   0  0  0  0  0  0  0  0  0  0  0  0
    4.0391   -0.3237    0.0000 O   0  0  0  0  0  0  0  0  0  0  0  0
  2  1  1  1
  2  3  1  0
  3  4  1  0
  4  5  1  0
  5  6  1  0
  5  7  1  0
  5  8  1  0
  2  9  1  0
  9 10  2  0
  9 11  1  0
M  END
>  <rName>  (595) 
Abu_CF3

>  <PQ_SYMBOL>  (595) 
Abu_CF3

>  <FULL_NAME>  (595) 
(2S)-2-amino-5,5,5-trifluoropentanoic acid

>  <IUPAC_CONDENSED>  (595) 
Abu(CF3)

>  <IUPAC>  (595) 
(2S)-2-amino-5,5,5-trifluoropentanoic acid

>  <TYPE>  (595) 
Backbone

>  <CLASS>  (595) 
alpha

>  <ANALOG>  (595) 
X

>  <MOL_WT>  (595) 
171.11800000000002

>  <LOGP>  (595) 
0.7407999999999999

>  <TPSA>  (595) 
63.32000000000001

>  <POPULARITY>  (595) 
13.7

>  <PROTECTED>  (595) 
TRUE

>  <SMILES>  (595) 
N[C@@H](CCC(F)(F)F)C(=O)O

>  <INCHIKEY>  (595) 
KTZZIDWVKLDWBF-VKHMYHEASA-N

$$$$
Abu_CN
     RDKit          2D

  9  8  0  0  0  0  0  0  0  0999 V2000
    1.0341   -1.9185    0.0000 N   0  0  0  0  0  0  0  0  0  0  0  0
    0.9057   -0.4240    0.0000 C   0  0  0  0  0  0  0  0  0  0  0  0
   -0.4528    0.2120    0.0000 C   0  0  0  0  0  0  0  0  0  0  0  0
   -1.6829   -0.6465    0.0000 C   0  0  0  0  0  0  0  0  0  0  0  0
   -3.0414   -0.0105    0.0000 C   0  0  0  0  0  0  0  0  0  0  0  0
   -4.3999    0.6255    0.0000 N   0  0  0  0  0  0  0  0  0  0  0  0
    2.1357    0.4345    0.0000 C   0  0  0  0  0  0  0  0  0  0  0  0
    2.0072    1.9290    0.0000 O   0  0  0  0  0  0  0  0  0  0  0  0
    3.4942   -0.2015    0.0000 O   0  0  0  0  0  0  0  0  0  0  0  0
  2  1  1  1
  2  3  1  0
  3  4  1  0
  4  5  1  0
  5  6  3  0
  2  7  1  0
  7  8  2  0
  7  9  1  0
M  END
>  <rName>  (596) 
Abu_CN

>  <PQ_SYMBOL>  (596) 
Abu_CN

>  <FULL_NAME>  (596) 
(2S)-2-amino-4-cyanobutanoic acid

>  <IUPAC_CONDENSED>  (596) 
Abu(CN)

>  <IUPAC>  (596) 
(2S)-2-amino-4-cyanobutanoic acid

>  <TYPE>  (596) 
Backbone

>  <CLASS>  (596) 
alpha

>  <ANALOG>  (596) 
Lys

>  <MOL_WT>  (596) 
128.131

>  <LOGP>  (596) 
-0.29792000000000024

>  <TPSA>  (596) 
87.11

>  <POPULARITY>  (596) 
10.4

>  <PROTECTED>  (596) 
TRUE

>  <SMILES>  (596) 
N[C@@H](CCC#N)C(=O)O

>  <INCHIKEY>  (596) 
VZSTVUJXUYNIOQ-BYPYZUCNSA-N

$$$$
Abu_F
     RDKit          2D

  8  7  0  0  0  0  0  0  0  0999 V2000
   -0.2517   -1.8862    0.0000 N   0  0  0  0  0  0  0  0  0  0  0  0
   -0.3100   -0.3873    0.0000 C   0  0  0  0  0  0  0  0  0  0  0  0
    0.9590    0.4126    0.0000 C   0  0  0  0  0  0  0  0  0  0  0  0
    2.2862   -0.2864    0.0000 C   0  0  0  0  0  0  0  0  0  0  0  0
    3.5551    0.5134    0.0000 F   0  0  0  0  0  0  0  0  0  0  0  0
   -1.6371    0.3117    0.0000 C   0  0  0  0  0  0  0  0  0  0  0  0
   -1.6954    1.8105    0.0000 O   0  0  0  0  0  0  0  0  0  0  0  0
   -2.9061   -0.4882    0.0000 O   0  0  0  0  0  0  0  0  0  0  0  0
  2  1  1  6
  2  3  1  0
  3  4  1  0
  4  5  1  0
  2  6  1  0
  6  7  2  0
  6  8  1  0
M  END
>  <rName>  (597) 
Abu_F

>  <PQ_SYMBOL>  (597) 
Abu_F

>  <FULL_NAME>  (597) 
(S)-2-amino-4-fluorobutanoic acid

>  <IUPAC_CONDENSED>  (597) 
Abu(F)

>  <IUPAC>  (597) 
(2S)-2-amino-4-fluorobutanoic acid

>  <TYPE>  (597) 
Backbone

>  <CLASS>  (597) 
alpha

>  <ANALOG>  (597) 
X

>  <MOL_WT>  (597) 
121.11099999999998

>  <LOGP>  (597) 
-0.24210000000000004

>  <TPSA>  (597) 
63.32000000000001

>  <POPULARITY>  (597) 
15.2

>  <PROTECTED>  (597) 
TRUE

>  <SMILES>  (597) 
N[C@@H](CCF)C(=O)O

>  <INCHIKEY>  (597) 
LJYFXGDRJCHELF-VKHMYHEASA-N

$$$$
Abu_I
     RDKit          2D

  8  7  0  0  0  0  0  0  0  0999 V2000
   -0.2517   -1.8862    0.0000 N   0  0  0  0  0  0  0  0  0  0  0  0
   -0.3100   -0.3873    0.0000 C   0  0  0  0  0  0  0  0  0  0  0  0
    0.9590    0.4126    0.0000 C   0  0  0  0  0  0  0  0  0  0  0  0
    2.2862   -0.2864    0.0000 C   0  0  0  0  0  0  0  0  0  0  0  0
    3.5551    0.5134    0.0000 I   0  0  0  0  0  0  0  0  0  0  0  0
   -1.6371    0.3117    0.0000 C   0  0  0  0  0  0  0  0  0  0  0  0
   -1.6954    1.8105    0.0000 O   0  0  0  0  0  0  0  0  0  0  0  0
   -2.9061   -0.4882    0.0000 O   0  0  0  0  0  0  0  0  0  0  0  0
  2  1  1  6
  2  3  1  0
  3  4  1  0
  4  5  1  0
  2  6  1  0
  6  7  2  0
  6  8  1  0
M  END
>  <rName>  (598) 
Abu_I

>  <PQ_SYMBOL>  (598) 
Abu_I

>  <FULL_NAME>  (598) 
(S)-2-amino-4-iodobutanoic acid

>  <IUPAC_CONDENSED>  (598) 
Abu(I)

>  <IUPAC>  (598) 
(2S)-2-amino-4-iodobutanoic acid

>  <TYPE>  (598) 
Backbone

>  <CLASS>  (598) 
alpha

>  <ANALOG>  (598) 
X

>  <MOL_WT>  (598) 
229.017

>  <LOGP>  (598) 
0.2234

>  <TPSA>  (598) 
63.32000000000001

>  <POPULARITY>  (598) 
5.3

>  <PROTECTED>  (598) 
TRUE

>  <SMILES>  (598) 
N[C@@H](CCI)C(=O)O

>  <INCHIKEY>  (598) 
VXWWJFXFTVBJAH-VKHMYHEASA-N

$$$$
Abu_Mediazirinyl
     RDKit          2D

 11 11  0  0  0  0  0  0  0  0999 V2000
   -1.6091   -1.9703    0.0000 N   0  0  0  0  0  0  0  0  0  0  0  0
   -1.4758   -0.4762    0.0000 C   0  0  0  0  0  0  0  0  0  0  0  0
   -0.1153    0.1554    0.0000 C   0  0  0  0  0  0  0  0  0  0  0  0
    1.1120   -0.7070    0.0000 C   0  0  0  0  0  0  0  0  0  0  0  0
    2.4725   -0.0753    0.0000 C   0  0  0  0  0  0  0  0  0  0  0  0
    3.3308   -1.3055    0.0000 C   0  0  0  0  0  0  0  0  0  0  0  0
    3.5349    0.9836    0.0000 N   0  0  0  0  0  0  0  0  0  0  0  0
    2.0867    1.3742    0.0000 N   0  0  0  0  0  0  0  0  0  0  0  0
   -2.7031    0.3862    0.0000 C   0  0  0  0  0  0  0  0  0  0  0  0
   -2.5699    1.8803    0.0000 O   0  0  0  0  0  0  0  0  0  0  0  0
   -4.0636   -0.2454    0.0000 O   0  0  0  0  0  0  0  0  0  0  0  0
  2  1  1  6
  2  3  1  0
  3  4  1  0
  4  5  1  0
  5  6  1  0
  5  7  1  0
  7  8  2  0
  2  9  1  0
  9 10  2  0
  9 11  1  0
  8  5  1  0
M  END
>  <rName>  (599) 
Abu_Mediazirinyl

>  <PQ_SYMBOL>  (599) 
Abu_Mediazirinyl

>  <FULL_NAME>  (599) 
(2S)-2-amino-4-(3-methyl-3H-diazirin-3-yl)butanoicacid

>  <IUPAC_CONDENSED>  (599) 
Abu(Me-diazirinyl)

>  <IUPAC>  (599) 
(2S)-2-amino-4-(3-methyl-1,2-diazacycloprop-1-en-3-yl)butanoic acid

>  <TYPE>  (599) 
Backbone

>  <CLASS>  (599) 
alpha

>  <ANALOG>  (599) 
Lys

>  <MOL_WT>  (599) 
157.173

>  <LOGP>  (599) 
0.3605

>  <TPSA>  (599) 
88.04

>  <POPULARITY>  (599) 
5.2

>  <PROTECTED>  (599) 
TRUE

>  <SMILES>  (599) 
N[C@@H](CCC1(C)(N=N1))C(=O)O

>  <INCHIKEY>  (599) 
YHZILLMARKDNKF-BYPYZUCNSA-N

$$$$
Abu_PO3H2
     RDKit          2D

 11 10  0  0  0  0  0  0  0  0999 V2000
    1.5275    1.9644    0.0000 N   0  0  0  0  0  0  0  0  0  0  0  0
    1.4450    0.4666    0.0000 C   0  0  0  0  0  0  0  0  0  0  0  0
    0.1067   -0.2107    0.0000 C   0  0  0  0  0  0  0  0  0  0  0  0
   -1.1491    0.6096    0.0000 C   0  0  0  0  0  0  0  0  0  0  0  0
   -2.4875   -0.0678    0.0000 P   0  0  0  0  0  0  0  0  0  0  0  0
   -3.8258   -0.7452    0.0000 O   0  0  0  0  0  0  0  0  0  0  0  0
   -3.1649    1.2706    0.0000 O   0  0  0  0  0  0  0  0  0  0  0  0
   -1.8101   -1.4061    0.0000 O   0  0  0  0  0  0  0  0  0  0  0  0
    2.7008   -0.3537    0.0000 C   0  0  0  0  0  0  0  0  0  0  0  0
    2.6183   -1.8514    0.0000 O   0  0  0  0  0  0  0  0  0  0  0  0
    4.0391    0.3237    0.0000 O   0  0  0  0  0  0  0  0  0  0  0  0
  2  1  1  6
  2  3  1  0
  3  4  1  0
  4  5  1  0
  5  6  2  0
  5  7  1  0
  5  8  1  0
  2  9  1  0
  9 10  2  0
  9 11  1  0
M  END
>  <rName>  (600) 
Abu_PO3H2

>  <PQ_SYMBOL>  (600) 
Abu_PO3H2

>  <FULL_NAME>  (600) 
(2S)-2-amino-4-phosphonobutanoic acid

>  <IUPAC_CONDENSED>  (600) 
Abu(PO3H2)

>  <IUPAC>  (600) 
(2S)-2-amino-4-phosphonobutanoic acid

>  <TYPE>  (600) 
Backbone

>  <CLASS>  (600) 
alpha

>  <ANALOG>  (600) 
X

>  <MOL_WT>  (600) 
183.1

>  <LOGP>  (600) 
-1.0339000000000003

>  <TPSA>  (600) 
120.85000000000001

>  <POPULARITY>  (600) 
2.2

>  <PROTECTED>  (600) 
TRUE

>  <SMILES>  (600) 
N[C@@H](CCP(=O)(O)O)C(=O)O

>  <INCHIKEY>  (600) 
DDOQBQRIEWHWBT-VKHMYHEASA-N

$$$$
Abu_PhEt
     RDKit          2D

 16 17  0  0  0  0  0  0  0  0999 V2000
    3.7314    1.9652    0.0000 N   0  0  0  0  0  0  0  0  0  0  0  0
    3.5144    0.4809    0.0000 C   0  0  0  0  0  0  0  0  0  0  0  0
    2.1205   -0.0732    0.0000 C   0  0  0  0  0  0  0  0  0  0  0  0
    0.9436    0.8569    0.0000 C   0  0  0  0  0  0  0  0  0  0  0  0
   -0.4502    0.3027    0.0000 C   0  0  0  0  0  0  0  0  0  0  0  0
   -0.6673   -1.1815    0.0000 C   0  0  0  0  0  0  0  0  0  0  0  0
   -2.0612   -1.7357    0.0000 C   0  0  0  0  0  0  0  0  0  0  0  0
   -3.2380   -0.8056    0.0000 C   0  0  0  0  0  0  0  0  0  0  0  0
   -4.7167   -1.0578    0.0000 C   0  0  0  0  0  0  0  0  0  0  0  0
   -5.4135    0.2705    0.0000 C   0  0  0  0  0  0  0  0  0  0  0  0
   -4.3655    1.3437    0.0000 C   0  0  0  0  0  0  0  0  0  0  0  0
   -3.0210    0.6786    0.0000 C   0  0  0  0  0  0  0  0  0  0  0  0
   -1.6271    1.2328    0.0000 C   0  0  0  0  0  0  0  0  0  0  0  0
    4.6912   -0.4491    0.0000 C   0  0  0  0  0  0  0  0  0  0  0  0
    4.4742   -1.9333    0.0000 O   0  0  0  0  0  0  0  0  0  0  0  0
    6.0851    0.1050    0.0000 O   0  0  0  0  0  0  0  0  0  0  0  0
  2  1  1  6
  2  3  1  0
  3  4  1  0
  4  5  1  0
  5  6  1  0
  6  7  2  0
  7  8  1  0
  8  9  1  0
  9 10  1  0
 10 11  1  0
 11 12  1  0
 12 13  1  0
  2 14  1  0
 14 15  2  0
 14 16  1  0
 12  8  2  0
 13  5  2  0
M  END
>  <rName>  (601) 
Abu_PhEt

>  <PQ_SYMBOL>  (601) 
Abu_PhEt

>  <FULL_NAME>  (601) 
(S)-2-Amino-4-(indan-5-yl)butanoic acid

>  <IUPAC_CONDENSED>  (601) 
Abu(PhEt)

>  <IUPAC>  (601) 
(2S)-2-amino-4-(2,3-dihydro-1H-inden-5-yl)butanoic acid

>  <TYPE>  (601) 
Backbone

>  <CLASS>  (601) 
alpha

>  <ANALOG>  (601) 
Phe

>  <MOL_WT>  (601) 
219.28399999999996

>  <LOGP>  (601) 
1.5198

>  <TPSA>  (601) 
63.32000000000001

>  <POPULARITY>  (601) 
2.2

>  <PROTECTED>  (601) 
TRUE

>  <SMILES>  (601) 
N[C@@H](CCc2(ccc1(CCCc1c2)))C(=O)O

>  <INCHIKEY>  (601) 
CNZLOKLDQNMNMQ-LBPRGKRZSA-N

$$$$
Abu_cBu
     RDKit          2D

 11 11  0  0  0  0  0  0  0  0999 V2000
   -1.9040   -1.9368    0.0000 N   0  0  0  0  0  0  0  0  0  0  0  0
   -1.7069   -0.4498    0.0000 C   0  0  0  0  0  0  0  0  0  0  0  0
   -0.3206    0.1231    0.0000 C   0  0  0  0  0  0  0  0  0  0  0  0
    0.8686   -0.7911    0.0000 C   0  0  0  0  0  0  0  0  0  0  0  0
    2.2549   -0.2182    0.0000 C   0  0  0  0  0  0  0  0  0  0  0  0
    2.8301    1.1671    0.0000 C   0  0  0  0  0  0  0  0  0  0  0  0
    4.2155    0.5919    0.0000 C   0  0  0  0  0  0  0  0  0  0  0  0
    3.6403   -0.7934    0.0000 C   0  0  0  0  0  0  0  0  0  0  0  0
   -2.8962    0.4643    0.0000 C   0  0  0  0  0  0  0  0  0  0  0  0
   -2.6992    1.9513    0.0000 O   0  0  0  0  0  0  0  0  0  0  0  0
   -4.2825   -0.1085    0.0000 O   0  0  0  0  0  0  0  0  0  0  0  0
  2  1  1  6
  2  3  1  0
  3  4  1  0
  4  5  1  0
  5  6  1  0
  6  7  1  0
  7  8  1  0
  2  9  1  0
  9 10  2  0
  9 11  1  0
  8  5  1  0
M  END
>  <rName>  (602) 
Abu_cBu

>  <PQ_SYMBOL>  (602) 
Abu_cBu

>  <FULL_NAME>  (602) 
(2S)-2-Amino-4-cyclobutylbutanoic acid

>  <IUPAC_CONDENSED>  (602) 
Abu(cBu)

>  <IUPAC>  (602) 
(2S)-2-amino-4-cyclobutylbutanoic acid

>  <TYPE>  (602) 
Backbone

>  <CLASS>  (602) 
alpha

>  <ANALOG>  (602) 
Ala

>  <MOL_WT>  (602) 
157.213

>  <LOGP>  (602) 
0.9785999999999997

>  <TPSA>  (602) 
63.32000000000001

>  <POPULARITY>  (602) 
2.2

>  <PROTECTED>  (602) 
TRUE

>  <SMILES>  (602) 
N[C@@H](CCC1(CCC1))C(=O)O

>  <INCHIKEY>  (602) 
IHESYJFOPIMOGO-ZETCQYMHSA-N

$$$$
Abu_cHept
     RDKit          2D

 14 14  0  0  0  0  0  0  0  0999 V2000
   -3.0239   -1.9309    0.0000 N   0  0  0  0  0  0  0  0  0  0  0  0
   -2.7403   -0.4579    0.0000 C   0  0  0  0  0  0  0  0  0  0  0  0
   -1.3229    0.0329    0.0000 C   0  0  0  0  0  0  0  0  0  0  0  0
   -0.1891   -0.9492    0.0000 C   0  0  0  0  0  0  0  0  0  0  0  0
    1.2283   -0.4584    0.0000 C   0  0  0  0  0  0  0  0  0  0  0  0
    2.2855   -1.5225    0.0000 C   0  0  0  0  0  0  0  0  0  0  0  0
    3.7767   -1.3594    0.0000 C   0  0  0  0  0  0  0  0  0  0  0  0
    4.5788   -0.0919    0.0000 C   0  0  0  0  0  0  0  0  0  0  0  0
    4.0880    1.3255    0.0000 C   0  0  0  0  0  0  0  0  0  0  0  0
    2.6738    1.8255    0.0000 C   0  0  0  0  0  0  0  0  0  0  0  0
    1.4011    1.0316    0.0000 C   0  0  0  0  0  0  0  0  0  0  0  0
   -3.8741    0.5242    0.0000 C   0  0  0  0  0  0  0  0  0  0  0  0
   -3.5904    1.9971    0.0000 O   0  0  0  0  0  0  0  0  0  0  0  0
   -5.2915    0.0333    0.0000 O   0  0  0  0  0  0  0  0  0  0  0  0
  2  1  1  6
  2  3  1  0
  3  4  1  0
  4  5  1  0
  5  6  1  0
  6  7  1  0
  7  8  1  0
  8  9  1  0
  9 10  1  0
 10 11  1  0
  2 12  1  0
 12 13  2  0
 12 14  1  0
 11  5  1  0
M  END
>  <rName>  (603) 
Abu_cHept

>  <PQ_SYMBOL>  (603) 
Abu_cHept

>  <FULL_NAME>  (603) 
(S)-alpha-Aminocycloheptanebutanoic Acid

>  <IUPAC_CONDENSED>  (603) 
Abu(cHept)

>  <IUPAC>  (603) 
(2S)-2-amino-4-cycloheptylbutanoic acid

>  <TYPE>  (603) 
Backbone

>  <CLASS>  (603) 
alpha

>  <ANALOG>  (603) 
Ala

>  <MOL_WT>  (603) 
199.29399999999998

>  <LOGP>  (603) 
2.1489

>  <TPSA>  (603) 
63.32000000000001

>  <POPULARITY>  (603) 
2.2

>  <PROTECTED>  (603) 
TRUE

>  <SMILES>  (603) 
N[C@@H](CCC1(CCCCCC1))C(=O)O

>  <INCHIKEY>  (603) 
OASPPYPXIGAQIO-JTQLQIEISA-N

$$$$
Abu_cHex
     RDKit          2D

 13 13  0  0  0  0  0  0  0  0999 V2000
   -2.6715   -1.9340    0.0000 N   0  0  0  0  0  0  0  0  0  0  0  0
   -2.4130   -0.4565    0.0000 C   0  0  0  0  0  0  0  0  0  0  0  0
   -1.0042    0.0585    0.0000 C   0  0  0  0  0  0  0  0  0  0  0  0
    0.1462   -0.9041    0.0000 C   0  0  0  0  0  0  0  0  0  0  0  0
    1.5550   -0.3891    0.0000 C   0  0  0  0  0  0  0  0  0  0  0  0
    1.8135    1.0885    0.0000 C   0  0  0  0  0  0  0  0  0  0  0  0
    3.2223    1.6034    0.0000 C   0  0  0  0  0  0  0  0  0  0  0  0
    4.3727    0.6408    0.0000 C   0  0  0  0  0  0  0  0  0  0  0  0
    4.1143   -0.8367    0.0000 C   0  0  0  0  0  0  0  0  0  0  0  0
    2.7054   -1.3517    0.0000 C   0  0  0  0  0  0  0  0  0  0  0  0
   -3.5634    0.5061    0.0000 C   0  0  0  0  0  0  0  0  0  0  0  0
   -3.3050    1.9837    0.0000 O   0  0  0  0  0  0  0  0  0  0  0  0
   -4.9723   -0.0089    0.0000 O   0  0  0  0  0  0  0  0  0  0  0  0
  2  1  1  6
  2  3  1  0
  3  4  1  0
  4  5  1  0
  5  6  1  0
  6  7  1  0
  7  8  1  0
  8  9  1  0
  9 10  1  0
  2 11  1  0
 11 12  2  0
 11 13  1  0
 10  5  1  0
M  END
>  <rName>  (604) 
Abu_cHex

>  <PQ_SYMBOL>  (604) 
Abu_cHex

>  <FULL_NAME>  (604) 
Cyclohexyl-Homo-L-Alanine

>  <IUPAC_CONDENSED>  (604) 
Abu(cHex)

>  <IUPAC>  (604) 
(2S)-2-amino-4-cyclohexylbutanoic acid

>  <TYPE>  (604) 
Backbone

>  <CLASS>  (604) 
alpha

>  <ANALOG>  (604) 
Ala

>  <MOL_WT>  (604) 
185.267

>  <LOGP>  (604) 
1.7588

>  <TPSA>  (604) 
63.32000000000001

>  <POPULARITY>  (604) 
18.6

>  <PROTECTED>  (604) 
TRUE

>  <SMILES>  (604) 
N[C@@H](CCC1(CCCCC1))C(=O)O

>  <INCHIKEY>  (604) 
MXHKOHWUQAULOV-VIFPVBQESA-N

$$$$
Abu_cHex_44diF
     RDKit          2D

 15 15  0  0  0  0  0  0  0  0999 V2000
   -3.5152   -1.8671    0.0000 N   0  0  0  0  0  0  0  0  0  0  0  0
   -3.1697   -0.4075    0.0000 C   0  0  0  0  0  0  0  0  0  0  0  0
   -1.7328    0.0231    0.0000 C   0  0  0  0  0  0  0  0  0  0  0  0
   -0.6414   -1.0059    0.0000 C   0  0  0  0  0  0  0  0  0  0  0  0
    0.7954   -0.5753    0.0000 C   0  0  0  0  0  0  0  0  0  0  0  0
    1.1409    0.8844    0.0000 C   0  0  0  0  0  0  0  0  0  0  0  0
    2.5778    1.3150    0.0000 C   0  0  0  0  0  0  0  0  0  0  0  0
    3.6691    0.2859    0.0000 C   0  0  0  0  0  0  0  0  0  0  0  0
    4.4931    1.5394    0.0000 F   0  0  0  0  0  0  0  0  0  0  0  0
    5.0466   -0.3078    0.0000 F   0  0  0  0  0  0  0  0  0  0  0  0
    3.3236   -1.1737    0.0000 C   0  0  0  0  0  0  0  0  0  0  0  0
    1.8868   -1.6043    0.0000 C   0  0  0  0  0  0  0  0  0  0  0  0
   -4.2610    0.6216    0.0000 C   0  0  0  0  0  0  0  0  0  0  0  0
   -3.9155    2.0812    0.0000 O   0  0  0  0  0  0  0  0  0  0  0  0
   -5.6979    0.1910    0.0000 O   0  0  0  0  0  0  0  0  0  0  0  0
  2  1  1  6
  2  3  1  0
  3  4  1  0
  4  5  1  0
  5  6  1  0
  6  7  1  0
  7  8  1  0
  8  9  1  0
  8 10  1  0
  8 11  1  0
 11 12  1  0
  2 13  1  0
 13 14  2  0
 13 15  1  0
 12  5  1  0
M  END
>  <rName>  (605) 
Abu_cHex_44diF

>  <PQ_SYMBOL>  (605) 
Abu_cHex_44diF

>  <FULL_NAME>  (605) 
(S)-alpha-Amino-4,4-difluorocyclohexanebutanoic Acid

>  <IUPAC_CONDENSED>  (605) 
Abu(cHex(4,4-diF))

>  <IUPAC>  (605) 
(2S)-2-amino-4-(4,4-difluorocyclohexyl)butanoic acid

>  <TYPE>  (605) 
Backbone

>  <CLASS>  (605) 
alpha

>  <ANALOG>  (605) 
X

>  <MOL_WT>  (605) 
221.24699999999996

>  <LOGP>  (605) 
2.004

>  <TPSA>  (605) 
63.32000000000001

>  <POPULARITY>  (605) 
2.2

>  <PROTECTED>  (605) 
TRUE

>  <SMILES>  (605) 
N[C@@H](CCC1(CCC(F)(F)CC1))C(=O)O

>  <INCHIKEY>  (605) 
WBGBYVXXALRPSU-QMMMGPOBSA-N

$$$$
Abu_cPent
     RDKit          2D

 12 12  0  0  0  0  0  0  0  0999 V2000
   -2.2999   -1.9362    0.0000 N   0  0  0  0  0  0  0  0  0  0  0  0
   -2.0700   -0.4539    0.0000 C   0  0  0  0  0  0  0  0  0  0  0  0
   -0.6714    0.0881    0.0000 C   0  0  0  0  0  0  0  0  0  0  0  0
    0.4974   -0.8521    0.0000 C   0  0  0  0  0  0  0  0  0  0  0  0
    1.8960   -0.3101    0.0000 C   0  0  0  0  0  0  0  0  0  0  0  0
    3.1566   -1.1230    0.0000 C   0  0  0  0  0  0  0  0  0  0  0  0
    4.3193   -0.1753    0.0000 C   0  0  0  0  0  0  0  0  0  0  0  0
    3.7773    1.2234    0.0000 C   0  0  0  0  0  0  0  0  0  0  0  0
    2.2796    1.1400    0.0000 C   0  0  0  0  0  0  0  0  0  0  0  0
   -3.2387    0.4863    0.0000 C   0  0  0  0  0  0  0  0  0  0  0  0
   -3.0088    1.9686    0.0000 O   0  0  0  0  0  0  0  0  0  0  0  0
   -4.6374   -0.0557    0.0000 O   0  0  0  0  0  0  0  0  0  0  0  0
  2  1  1  6
  2  3  1  0
  3  4  1  0
  4  5  1  0
  5  6  1  0
  6  7  1  0
  7  8  1  0
  8  9  1  0
  2 10  1  0
 10 11  2  0
 10 12  1  0
  9  5  1  0
M  END
>  <rName>  (606) 
Abu_cPent

>  <PQ_SYMBOL>  (606) 
Abu_cPent

>  <FULL_NAME>  (606) 
(S)-2-Amino-4-cyclopentylbutanoic acid

>  <IUPAC_CONDENSED>  (606) 
Abu(cPent)

>  <IUPAC>  (606) 
(2S)-2-amino-4-cyclopentylbutanoic acid

>  <TYPE>  (606) 
Backbone

>  <CLASS>  (606) 
alpha

>  <ANALOG>  (606) 
Ala

>  <MOL_WT>  (606) 
171.24

>  <LOGP>  (606) 
1.3687

>  <TPSA>  (606) 
63.32000000000001

>  <POPULARITY>  (606) 
2.2

>  <PROTECTED>  (606) 
TRUE

>  <SMILES>  (606) 
N[C@@H](CCC1(CCCC1))C(=O)O

>  <INCHIKEY>  (606) 
LKXHGSLJBHXRFI-QMMMGPOBSA-N

$$$$
Abu_cPr
     RDKit          2D

 10 10  0  0  0  0  0  0  0  0999 V2000
   -1.4768   -1.9348    0.0000 N   0  0  0  0  0  0  0  0  0  0  0  0
   -1.3184   -0.4432    0.0000 C   0  0  0  0  0  0  0  0  0  0  0  0
    0.0526    0.1655    0.0000 C   0  0  0  0  0  0  0  0  0  0  0  0
    1.2652   -0.7175    0.0000 C   0  0  0  0  0  0  0  0  0  0  0  0
    2.6361   -0.1088    0.0000 C   0  0  0  0  0  0  0  0  0  0  0  0
    4.1277   -0.2672    0.0000 C   0  0  0  0  0  0  0  0  0  0  0  0
    3.5191    1.1037    0.0000 C   0  0  0  0  0  0  0  0  0  0  0  0
   -2.5310    0.4398    0.0000 C   0  0  0  0  0  0  0  0  0  0  0  0
   -2.3726    1.9314    0.0000 O   0  0  0  0  0  0  0  0  0  0  0  0
   -3.9019   -0.1689    0.0000 O   0  0  0  0  0  0  0  0  0  0  0  0
  2  1  1  6
  2  3  1  0
  3  4  1  0
  4  5  1  0
  5  6  1  0
  6  7  1  0
  2  8  1  0
  8  9  2  0
  8 10  1  0
  7  5  1  0
M  END
>  <rName>  (607) 
Abu_cPr

>  <PQ_SYMBOL>  (607) 
Abu_cPr

>  <FULL_NAME>  (607) 
(S)-2-amino-4-cyclopropylbutanoic acid

>  <IUPAC_CONDENSED>  (607) 
Abu(cPr)

>  <IUPAC>  (607) 
(2S)-2-amino-4-cyclopropylbutanoic acid

>  <TYPE>  (607) 
Backbone

>  <CLASS>  (607) 
alpha

>  <ANALOG>  (607) 
Ala

>  <MOL_WT>  (607) 
143.186

>  <LOGP>  (607) 
0.5884999999999998

>  <TPSA>  (607) 
63.32000000000001

>  <POPULARITY>  (607) 
8.4

>  <PROTECTED>  (607) 
TRUE

>  <SMILES>  (607) 
N[C@@H](CCC1(CC1))C(=O)O

>  <INCHIKEY>  (607) 
XQBROTNHOLWMJR-LURJTMIESA-N

$$$$
Abu_cPr_1Me
     RDKit          2D

 11 11  0  0  0  0  0  0  0  0999 V2000
   -1.6091   -1.9703    0.0000 N   0  0  0  0  0  0  0  0  0  0  0  0
   -1.4758   -0.4762    0.0000 C   0  0  0  0  0  0  0  0  0  0  0  0
   -0.1153    0.1554    0.0000 C   0  0  0  0  0  0  0  0  0  0  0  0
    1.1120   -0.7070    0.0000 C   0  0  0  0  0  0  0  0  0  0  0  0
    2.4725   -0.0753    0.0000 C   0  0  0  0  0  0  0  0  0  0  0  0
    3.3308   -1.3055    0.0000 C   0  0  0  0  0  0  0  0  0  0  0  0
    3.5349    0.9836    0.0000 C   0  0  0  0  0  0  0  0  0  0  0  0
    2.0867    1.3742    0.0000 C   0  0  0  0  0  0  0  0  0  0  0  0
   -2.7031    0.3862    0.0000 C   0  0  0  0  0  0  0  0  0  0  0  0
   -2.5699    1.8803    0.0000 O   0  0  0  0  0  0  0  0  0  0  0  0
   -4.0636   -0.2454    0.0000 O   0  0  0  0  0  0  0  0  0  0  0  0
  2  1  1  6
  2  3  1  0
  3  4  1  0
  4  5  1  0
  5  6  1  0
  5  7  1  0
  7  8  1  0
  2  9  1  0
  9 10  2  0
  9 11  1  0
  8  5  1  0
M  END
>  <rName>  (608) 
Abu_cPr_1Me

>  <PQ_SYMBOL>  (608) 
Abu_cPr_1Me

>  <FULL_NAME>  (608) 
Abu(cPr(1-Me))

>  <IUPAC_CONDENSED>  (608) 
Abu(cPr(1-Me))

>  <IUPAC>  (608) 
(2S)-2-amino-4-(1-methylcyclopropyl)butanoic acid

>  <TYPE>  (608) 
Backbone

>  <CLASS>  (608) 
alpha

>  <ANALOG>  (608) 
Ala

>  <MOL_WT>  (608) 
157.213

>  <LOGP>  (608) 
0.9785999999999997

>  <TPSA>  (608) 
63.32000000000001

>  <POPULARITY>  (608) 
2.2

>  <PROTECTED>  (608) 
TRUE

>  <SMILES>  (608) 
N[C@@H](CCC1(C)(CC1))C(=O)O

>  <INCHIKEY>  (608) 
CPCIKQJLGDCEQQ-LURJTMIESA-N

$$$$
Abu_cyclohex1en1yl
     RDKit          2D

 13 13  0  0  0  0  0  0  0  0999 V2000
   -2.6715   -1.9340    0.0000 N   0  0  0  0  0  0  0  0  0  0  0  0
   -2.4130   -0.4565    0.0000 C   0  0  0  0  0  0  0  0  0  0  0  0
   -1.0042    0.0585    0.0000 C   0  0  0  0  0  0  0  0  0  0  0  0
    0.1462   -0.9041    0.0000 C   0  0  0  0  0  0  0  0  0  0  0  0
    1.5550   -0.3891    0.0000 C   0  0  0  0  0  0  0  0  0  0  0  0
    1.8135    1.0885    0.0000 C   0  0  0  0  0  0  0  0  0  0  0  0
    3.2223    1.6034    0.0000 C   0  0  0  0  0  0  0  0  0  0  0  0
    4.3727    0.6408    0.0000 C   0  0  0  0  0  0  0  0  0  0  0  0
    4.1143   -0.8367    0.0000 C   0  0  0  0  0  0  0  0  0  0  0  0
    2.7054   -1.3517    0.0000 C   0  0  0  0  0  0  0  0  0  0  0  0
   -3.5634    0.5061    0.0000 C   0  0  0  0  0  0  0  0  0  0  0  0
   -3.3050    1.9837    0.0000 O   0  0  0  0  0  0  0  0  0  0  0  0
   -4.9723   -0.0089    0.0000 O   0  0  0  0  0  0  0  0  0  0  0  0
  2  1  1  6
  2  3  1  0
  3  4  1  0
  4  5  1  0
  5  6  2  0
  6  7  1  0
  7  8  1  0
  8  9  1  0
  9 10  1  0
  2 11  1  0
 11 12  2  0
 11 13  1  0
 10  5  1  0
M  END
>  <rName>  (609) 
Abu_cyclohex1en1yl

>  <PQ_SYMBOL>  (609) 
Abu_cyclohex1en1yl

>  <FULL_NAME>  (609) 
(2S)-2-amino-4-(cyclohex-1-en-1-yl)butanoic acid

>  <IUPAC_CONDENSED>  (609) 
Abu(cyclohex-1-en-1-yl)

>  <IUPAC>  (609) 
(2S)-2-amino-4-(cyclohexen-1-yl)butanoic acid

>  <TYPE>  (609) 
Backbone

>  <CLASS>  (609) 
alpha

>  <ANALOG>  (609) 
Ala

>  <MOL_WT>  (609) 
183.25099999999998

>  <LOGP>  (609) 
1.6788999999999998

>  <TPSA>  (609) 
63.32000000000001

>  <POPULARITY>  (609) 
2.2

>  <PROTECTED>  (609) 
TRUE

>  <SMILES>  (609) 
N[C@@H](CCC1(=CCCCC1))C(=O)O

>  <INCHIKEY>  (609) 
XGJWGVMXIXMIQX-VIFPVBQESA-N

$$$$
Abu_ethynyl
     RDKit          2D

  9  8  0  0  0  0  0  0  0  0999 V2000
   -1.0341    1.9185    0.0000 N   0  0  0  0  0  0  0  0  0  0  0  0
   -0.9057    0.4240    0.0000 C   0  0  0  0  0  0  0  0  0  0  0  0
    0.4528   -0.2120    0.0000 C   0  0  0  0  0  0  0  0  0  0  0  0
    1.6829    0.6465    0.0000 C   0  0  0  0  0  0  0  0  0  0  0  0
    3.0414    0.0105    0.0000 C   0  0  0  0  0  0  0  0  0  0  0  0
    4.3999   -0.6255    0.0000 C   0  0  0  0  0  0  0  0  0  0  0  0
   -2.1357   -0.4345    0.0000 C   0  0  0  0  0  0  0  0  0  0  0  0
   -2.0072   -1.9290    0.0000 O   0  0  0  0  0  0  0  0  0  0  0  0
   -3.4942    0.2015    0.0000 O   0  0  0  0  0  0  0  0  0  0  0  0
  2  1  1  1
  2  3  1  0
  3  4  1  0
  4  5  1  0
  5  6  3  0
  2  7  1  0
  7  8  2  0
  7  9  1  0
M  END
>  <rName>  (610) 
Abu_ethynyl

>  <PQ_SYMBOL>  (610) 
Abu_ethynyl

>  <FULL_NAME>  (610) 
L-Homopropargylglycine

>  <IUPAC_CONDENSED>  (610) 
Abu(ethynyl)

>  <IUPAC>  (610) 
(2S)-2-aminohex-5-ynoic acid

>  <TYPE>  (610) 
Backbone

>  <CLASS>  (610) 
alpha

>  <ANALOG>  (610) 
Leu

>  <MOL_WT>  (610) 
127.14299999999997

>  <LOGP>  (610) 
-0.18829999999999997

>  <TPSA>  (610) 
63.32000000000001

>  <POPULARITY>  (610) 
9.1

>  <PROTECTED>  (610) 
TRUE

>  <SMILES>  (610) 
N[C@@H](CCC#C)C(=O)O

>  <INCHIKEY>  (610) 
SCGJGNWMYSYORS-YFKPBYRVSA-N

$$$$
Abu_gcarbonyl_gnaphth2yl
     RDKit          2D

 21 22  0  0  0  0  0  0  0  0999 V2000
   -5.1783   -1.6293    0.0000 N   0  0  0  0  0  0  0  0  0  0  0  0
   -4.8528   -0.1651    0.0000 C   0  0  0  0  0  0  0  0  0  0  0  0
   -3.4219    0.2851    0.0000 C   0  0  0  0  0  0  0  0  0  0  0  0
   -2.3166   -0.7289    0.0000 C   0  0  0  0  0  0  0  0  0  0  0  0
   -2.6421   -2.1932    0.0000 O   0  0  0  0  0  0  0  0  0  0  0  0
   -0.8858   -0.2787    0.0000 C   0  0  0  0  0  0  0  0  0  0  0  0
   -0.5602    1.1855    0.0000 C   0  0  0  0  0  0  0  0  0  0  0  0
    0.8706    1.6358    0.0000 C   0  0  0  0  0  0  0  0  0  0  0  0
    1.9759    0.6217    0.0000 C   0  0  0  0  0  0  0  0  0  0  0  0
    3.4068    1.0719    0.0000 C   0  0  0  0  0  0  0  0  0  0  0  0
    4.5121    0.0579    0.0000 C   0  0  0  0  0  0  0  0  0  0  0  0
    4.1866   -1.4064    0.0000 C   0  0  0  0  0  0  0  0  0  0  0  0
    2.7557   -1.8566    0.0000 C   0  0  0  0  0  0  0  0  0  0  0  0
    1.6504   -0.8425    0.0000 C   0  0  0  0  0  0  0  0  0  0  0  0
    0.2196   -1.2927    0.0000 C   0  0  0  0  0  0  0  0  0  0  0  0
    5.9429    0.5081    0.0000 N   0  0  0  0  0  0  0  0  0  0  0  0
    7.0482   -0.5059    0.0000 C   0  0  0  0  0  0  0  0  0  0  0  0
    6.2684    1.9724    0.0000 C   0  0  0  0  0  0  0  0  0  0  0  0
   -5.9581    0.8489    0.0000 C   0  0  0  0  0  0  0  0  0  0  0  0
   -5.6326    2.3132    0.0000 O   0  0  0  0  0  0  0  0  0  0  0  0
   -7.3889    0.3987    0.0000 O   0  0  0  0  0  0  0  0  0  0  0  0
  2  1  1  6
  2  3  1  0
  3  4  1  0
  4  5  2  0
  4  6  1  0
  6  7  1  0
  7  8  2  0
  8  9  1  0
  9 10  2  0
 10 11  1  0
 11 12  2  0
 12 13  1  0
 13 14  2  0
 14 15  1  0
 11 16  1  0
 16 17  1  0
 16 18  1  0
  2 19  1  0
 19 20  2  0
 19 21  1  0
 14  9  1  0
 15  6  2  0
M  END
>  <rName>  (611) 
Abu_gcarbonyl_gnaphth2yl

>  <PQ_SYMBOL>  (611) 
Abu_gcarbonyl_gnaphth2yl

>  <FULL_NAME>  (611) 
6-Dimethylamino-2-naphthoyl-alanine

>  <IUPAC_CONDENSED>  (611) 
Abu(g-carbonyl,g-naphth-2-yl)

>  <IUPAC>  (611) 
(2S)-2-amino-4-[6-(dimethylamino)naphthalen-2-yl]-4-oxobutanoic acid

>  <TYPE>  (611) 
Backbone

>  <CLASS>  (611) 
alpha

>  <ANALOG>  (611) 
Phe

>  <MOL_WT>  (611) 
286.331

>  <LOGP>  (611) 
1.8905000000000003

>  <TPSA>  (611) 
83.63000000000001

>  <POPULARITY>  (611) 
2.2

>  <PROTECTED>  (611) 
TRUE

>  <SMILES>  (611) 
N[C@@H](CC(=O)c2(ccc1(cc(ccc1c2)N(C)C)))C(=O)O

>  <INCHIKEY>  (611) 
CBXJSYVOJHNVQJ-AWEZNQCLSA-N

$$$$
Abu_gcarbonyl_gpyrrolidino
     RDKit          2D

 13 13  0  0  0  0  0  0  0  0999 V2000
   -2.3085   -1.7723    0.0000 N   0  0  0  0  0  0  0  0  0  0  0  0
   -2.0887   -0.2885    0.0000 C   0  0  0  0  0  0  0  0  0  0  0  0
   -0.6937    0.2630    0.0000 C   0  0  0  0  0  0  0  0  0  0  0  0
    0.4814   -0.6693    0.0000 C   0  0  0  0  0  0  0  0  0  0  0  0
    0.2615   -2.1531    0.0000 O   0  0  0  0  0  0  0  0  0  0  0  0
    1.8763   -0.1178    0.0000 N   0  0  0  0  0  0  0  0  0  0  0  0
    3.1424   -0.9222    0.0000 C   0  0  0  0  0  0  0  0  0  0  0  0
    4.2986    0.0334    0.0000 C   0  0  0  0  0  0  0  0  0  0  0  0
    3.7471    1.4284    0.0000 C   0  0  0  0  0  0  0  0  0  0  0  0
    2.2500    1.3349    0.0000 C   0  0  0  0  0  0  0  0  0  0  0  0
   -3.2638    0.6438    0.0000 C   0  0  0  0  0  0  0  0  0  0  0  0
   -3.0439    2.1276    0.0000 O   0  0  0  0  0  0  0  0  0  0  0  0
   -4.6587    0.0923    0.0000 O   0  0  0  0  0  0  0  0  0  0  0  0
  2  1  1  6
  2  3  1  0
  3  4  1  0
  4  5  2  0
  4  6  1  0
  6  7  1  0
  7  8  1  0
  8  9  1  0
  9 10  1  0
  2 11  1  0
 11 12  2  0
 11 13  1  0
 10  6  1  0
M  END
>  <rName>  (612) 
Abu_gcarbonyl_gpyrrolidino

>  <PQ_SYMBOL>  (612) 
Abu_gcarbonyl_gpyrrolidino

>  <FULL_NAME>  (612) 
(S)-2-amino-4-oxo-4-(pyrrolidin-1-yl)butanoic acid

>  <IUPAC_CONDENSED>  (612) 
Abu(g-carbonyl,g-pyrrolidino)

>  <IUPAC>  (612) 
(2S)-2-amino-4-oxo-4-(pyrrolidin-1-yl)butanoic acid

>  <TYPE>  (612) 
Backbone

>  <CLASS>  (612) 
alpha

>  <ANALOG>  (612) 
X

>  <MOL_WT>  (612) 
186.21099999999998

>  <LOGP>  (612) 
-0.5892000000000004

>  <TPSA>  (612) 
83.63000000000001

>  <POPULARITY>  (612) 
8.6

>  <PROTECTED>  (612) 
TRUE

>  <SMILES>  (612) 
N[C@@H](CC(=O)N1(CCCC1))C(=O)O

>  <INCHIKEY>  (612) 
DAGPZPSRHYOWMZ-LURJTMIESA-N

$$$$
Abu_imidazo1_2apyridin2yl
     RDKit          2D

 16 17  0  0  0  0  0  0  0  0999 V2000
   -3.9851   -1.8262    0.0000 N   0  0  0  0  0  0  0  0  0  0  0  0
   -3.5975   -0.3772    0.0000 C   0  0  0  0  0  0  0  0  0  0  0  0
   -2.1488    0.0117    0.0000 C   0  0  0  0  0  0  0  0  0  0  0  0
   -1.0877   -1.0485    0.0000 C   0  0  0  0  0  0  0  0  0  0  0  0
    0.3610   -0.6597    0.0000 C   0  0  0  0  0  0  0  0  0  0  0  0
    1.5272   -1.6031    0.0000 C   0  0  0  0  0  0  0  0  0  0  0  0
    2.7848   -0.7856    0.0000 N   0  0  0  0  0  0  0  0  0  0  0  0
    4.2339   -1.1732    0.0000 C   0  0  0  0  0  0  0  0  0  0  0  0
    5.2941   -0.1121    0.0000 C   0  0  0  0  0  0  0  0  0  0  0  0
    4.9052    1.3366    0.0000 C   0  0  0  0  0  0  0  0  0  0  0  0
    3.4562    1.7242    0.0000 C   0  0  0  0  0  0  0  0  0  0  0  0
    2.3960    0.6631    0.0000 C   0  0  0  0  0  0  0  0  0  0  0  0
    0.8980    0.7409    0.0000 N   0  0  0  0  0  0  0  0  0  0  0  0
   -4.6587    0.6830    0.0000 C   0  0  0  0  0  0  0  0  0  0  0  0
   -4.2711    2.1321    0.0000 O   0  0  0  0  0  0  0  0  0  0  0  0
   -6.1074    0.2942    0.0000 O   0  0  0  0  0  0  0  0  0  0  0  0
  2  1  1  6
  2  3  1  0
  3  4  1  0
  4  5  1  0
  5  6  2  0
  6  7  1  0
  7  8  1  0
  8  9  2  0
  9 10  1  0
 10 11  2  0
 11 12  1  0
 12 13  2  0
  2 14  1  0
 14 15  2  0
 14 16  1  0
 12  7  1  0
 13  5  1  0
M  END
>  <rName>  (613) 
Abu_imidazo1_2apyridin2yl

>  <PQ_SYMBOL>  (613) 
Abu_imidazo1_2apyridin2yl

>  <FULL_NAME>  (613) 
Abu(imidazo[1,2-a]pyridin-2-yl)

>  <IUPAC_CONDENSED>  (613) 
Abu(imidazo[1,2-a]pyridin-2-yl)

>  <IUPAC>  (613) 
(2S)-2-amino-4-(1,7-diazabicyclo[4.3.0]nona-2,4,6,8-tetraen-8-yl)butanoic acid

>  <TYPE>  (613) 
Backbone

>  <CLASS>  (613) 
alpha

>  <ANALOG>  (613) 
His

>  <MOL_WT>  (613) 
219.244

>  <LOGP>  (613) 
0.6787999999999994

>  <TPSA>  (613) 
80.62

>  <POPULARITY>  (613) 
2.2

>  <PROTECTED>  (613) 
TRUE

>  <SMILES>  (613) 
N[C@@H](CCc2(cn1(ccccc1n2)))C(=O)O

>  <INCHIKEY>  (613) 
IPCHAGRBNMJLCW-VIFPVBQESA-N

$$$$
Abu_indan2yl
     RDKit          2D

 16 17  0  0  0  0  0  0  0  0999 V2000
   -3.9851   -1.8262    0.0000 N   0  0  0  0  0  0  0  0  0  0  0  0
   -3.5975   -0.3772    0.0000 C   0  0  0  0  0  0  0  0  0  0  0  0
   -2.1488    0.0117    0.0000 C   0  0  0  0  0  0  0  0  0  0  0  0
   -1.0877   -1.0485    0.0000 C   0  0  0  0  0  0  0  0  0  0  0  0
    0.3610   -0.6597    0.0000 C   0  0  0  0  0  0  0  0  0  0  0  0
    1.5272   -1.6031    0.0000 C   0  0  0  0  0  0  0  0  0  0  0  0
    2.7848   -0.7856    0.0000 C   0  0  0  0  0  0  0  0  0  0  0  0
    4.2339   -1.1732    0.0000 C   0  0  0  0  0  0  0  0  0  0  0  0
    5.2941   -0.1121    0.0000 C   0  0  0  0  0  0  0  0  0  0  0  0
    4.9052    1.3366    0.0000 C   0  0  0  0  0  0  0  0  0  0  0  0
    3.4562    1.7242    0.0000 C   0  0  0  0  0  0  0  0  0  0  0  0
    2.3960    0.6631    0.0000 C   0  0  0  0  0  0  0  0  0  0  0  0
    0.8980    0.7409    0.0000 C   0  0  0  0  0  0  0  0  0  0  0  0
   -4.6587    0.6830    0.0000 C   0  0  0  0  0  0  0  0  0  0  0  0
   -4.2711    2.1321    0.0000 O   0  0  0  0  0  0  0  0  0  0  0  0
   -6.1074    0.2942    0.0000 O   0  0  0  0  0  0  0  0  0  0  0  0
  2  1  1  6
  2  3  1  0
  3  4  1  0
  4  5  1  0
  5  6  1  0
  6  7  1  0
  7  8  2  0
  8  9  1  0
  9 10  2  0
 10 11  1  0
 11 12  2  0
 12 13  1  0
  2 14  1  0
 14 15  2  0
 14 16  1  0
 12  7  1  0
 13  5  1  0
M  END
>  <rName>  (614) 
Abu_indan2yl

>  <PQ_SYMBOL>  (614) 
Abu_indan2yl

>  <FULL_NAME>  (614) 
(S)-alpha-Amino-2,3-dihydro-1H-indene-2-butanoic Acid

>  <IUPAC_CONDENSED>  (614) 
Abu(indan-2-yl)

>  <IUPAC>  (614) 
(2S)-2-amino-4-(2,3-dihydro-1H-inden-2-yl)butanoic acid

>  <TYPE>  (614) 
Backbone

>  <CLASS>  (614) 
alpha

>  <ANALOG>  (614) 
X

>  <MOL_WT>  (614) 
219.28399999999996

>  <LOGP>  (614) 
1.5935

>  <TPSA>  (614) 
63.32000000000001

>  <POPULARITY>  (614) 
2.2

>  <PROTECTED>  (614) 
TRUE

>  <SMILES>  (614) 
N[C@@H](CCC2(Cc1(ccccc1C2)))C(=O)O

>  <INCHIKEY>  (614) 
JEHTWXCHWXKPNA-LBPRGKRZSA-N

$$$$
Abu_isoquinolin7yl
     RDKit          2D

 17 18  0  0  0  0  0  0  0  0999 V2000
   -4.0561   -1.9727    0.0000 N   0  0  0  0  0  0  0  0  0  0  0  0
   -3.8486   -0.4871    0.0000 C   0  0  0  0  0  0  0  0  0  0  0  0
   -2.4584    0.0760    0.0000 C   0  0  0  0  0  0  0  0  0  0  0  0
   -1.2755   -0.8464    0.0000 C   0  0  0  0  0  0  0  0  0  0  0  0
    0.1147   -0.2833    0.0000 C   0  0  0  0  0  0  0  0  0  0  0  0
    1.2976   -1.2058    0.0000 C   0  0  0  0  0  0  0  0  0  0  0  0
    2.6879   -0.6426    0.0000 C   0  0  0  0  0  0  0  0  0  0  0  0
    3.8707   -1.5651    0.0000 C   0  0  0  0  0  0  0  0  0  0  0  0
    5.2610   -1.0020    0.0000 C   0  0  0  0  0  0  0  0  0  0  0  0
    5.4684    0.4836    0.0000 C   0  0  0  0  0  0  0  0  0  0  0  0
    4.2856    1.4061    0.0000 C   0  0  0  0  0  0  0  0  0  0  0  0
    2.8953    0.8430    0.0000 C   0  0  0  0  0  0  0  0  0  0  0  0
    1.7125    1.7654    0.0000 C   0  0  0  0  0  0  0  0  0  0  0  0
    0.3222    1.2023    0.0000 N   0  0  0  0  0  0  0  0  0  0  0  0
   -5.0315    0.4354    0.0000 C   0  0  0  0  0  0  0  0  0  0  0  0
   -4.8240    1.9210    0.0000 O   0  0  0  0  0  0  0  0  0  0  0  0
   -6.4217   -0.1278    0.0000 O   0  0  0  0  0  0  0  0  0  0  0  0
  2  1  1  6
  2  3  1  0
  3  4  1  0
  4  5  1  0
  5  6  2  0
  6  7  1  0
  7  8  2  0
  8  9  1  0
  9 10  2  0
 10 11  1  0
 11 12  2  0
 12 13  1  0
 13 14  2  0
  2 15  1  0
 15 16  2  0
 15 17  1  0
 12  7  1  0
 14  5  1  0
M  END
>  <rName>  (615) 
Abu_isoquinolin7yl

>  <PQ_SYMBOL>  (615) 
Abu_isoquinolin7yl

>  <FULL_NAME>  (615) 
Abu(isoquinolin-7-yl)

>  <IUPAC_CONDENSED>  (615) 
Abu(isoquinolin-7-yl)

>  <IUPAC>  (615) 
(2S)-2-amino-4-(isoquinolin-3-yl)butanoic acid

>  <TYPE>  (615) 
Backbone

>  <CLASS>  (615) 
alpha

>  <ANALOG>  (615) 
Phe

>  <MOL_WT>  (615) 
230.267

>  <LOGP>  (615) 
1.5793

>  <TPSA>  (615) 
76.21

>  <POPULARITY>  (615) 
2.2

>  <PROTECTED>  (615) 
TRUE

>  <SMILES>  (615) 
N[C@@H](CCc2(cc1(ccccc1cn2)))C(=O)O

>  <INCHIKEY>  (615) 
VVPQVRIILRBGGD-LBPRGKRZSA-N

$$$$
Abu_isoxazol5yl_3Me
     RDKit          2D

 13 13  0  0  0  0  0  0  0  0999 V2000
   -2.6961   -1.9604    0.0000 N   0  0  0  0  0  0  0  0  0  0  0  0
   -2.5029   -0.4729    0.0000 C   0  0  0  0  0  0  0  0  0  0  0  0
   -1.1181    0.1035    0.0000 C   0  0  0  0  0  0  0  0  0  0  0  0
    0.0735   -0.8076    0.0000 C   0  0  0  0  0  0  0  0  0  0  0  0
    1.4584   -0.2312    0.0000 C   0  0  0  0  0  0  0  0  0  0  0  0
    2.7387   -1.0127    0.0000 C   0  0  0  0  0  0  0  0  0  0  0  0
    3.8776   -0.0366    0.0000 C   0  0  0  0  0  0  0  0  0  0  0  0
    5.3368   -0.3842    0.0000 C   0  0  0  0  0  0  0  0  0  0  0  0
    3.3012    1.3483    0.0000 N   0  0  0  0  0  0  0  0  0  0  0  0
    1.8060    1.2280    0.0000 O   0  0  0  0  0  0  0  0  0  0  0  0
   -3.6945    0.4382    0.0000 C   0  0  0  0  0  0  0  0  0  0  0  0
   -3.5013    1.9257    0.0000 O   0  0  0  0  0  0  0  0  0  0  0  0
   -5.0793   -0.1382    0.0000 O   0  0  0  0  0  0  0  0  0  0  0  0
  2  1  1  6
  2  3  1  0
  3  4  1  0
  4  5  1  0
  5  6  2  0
  6  7  1  0
  7  8  1  0
  7  9  2  0
  9 10  1  0
  2 11  1  0
 11 12  2  0
 11 13  1  0
 10  5  1  0
M  END
>  <rName>  (616) 
Abu_isoxazol5yl_3Me

>  <PQ_SYMBOL>  (616) 
Abu_isoxazol5yl_3Me

>  <FULL_NAME>  (616) 
(2S)-2-amino-4-(3-methyl-1,2-oxazol-5-yl)butanoic acid

>  <IUPAC_CONDENSED>  (616) 
Abu(isoxazol-5-yl(3-Me))

>  <IUPAC>  (616) 
(2S)-2-amino-4-(3-methylisoxazol-5-yl)butanoic acid

>  <TYPE>  (616) 
Backbone

>  <CLASS>  (616) 
alpha

>  <ANALOG>  (616) 
Phe

>  <MOL_WT>  (616) 
184.195

>  <LOGP>  (616) 
0.32751999999999953

>  <TPSA>  (616) 
89.35000000000001

>  <POPULARITY>  (616) 
3.5

>  <PROTECTED>  (616) 
TRUE

>  <SMILES>  (616) 
N[C@@H](CCc1(cc(C)no1))C(=O)O

>  <INCHIKEY>  (616) 
KCFMHAKQHPNGBZ-ZETCQYMHSA-N

$$$$
Abu_morpholino
     RDKit          2D

 13 13  0  0  0  0  0  0  0  0999 V2000
   -2.6715   -1.9340    0.0000 N   0  0  0  0  0  0  0  0  0  0  0  0
   -2.4130   -0.4565    0.0000 C   0  0  0  0  0  0  0  0  0  0  0  0
   -1.0042    0.0585    0.0000 C   0  0  0  0  0  0  0  0  0  0  0  0
    0.1462   -0.9041    0.0000 C   0  0  0  0  0  0  0  0  0  0  0  0
    1.5550   -0.3891    0.0000 N   0  0  0  0  0  0  0  0  0  0  0  0
    1.8135    1.0885    0.0000 C   0  0  0  0  0  0  0  0  0  0  0  0
    3.2223    1.6034    0.0000 C   0  0  0  0  0  0  0  0  0  0  0  0
    4.3727    0.6408    0.0000 O   0  0  0  0  0  0  0  0  0  0  0  0
    4.1143   -0.8367    0.0000 C   0  0  0  0  0  0  0  0  0  0  0  0
    2.7054   -1.3517    0.0000 C   0  0  0  0  0  0  0  0  0  0  0  0
   -3.5634    0.5061    0.0000 C   0  0  0  0  0  0  0  0  0  0  0  0
   -3.3050    1.9837    0.0000 O   0  0  0  0  0  0  0  0  0  0  0  0
   -4.9723   -0.0089    0.0000 O   0  0  0  0  0  0  0  0  0  0  0  0
  2  1  1  6
  2  3  1  0
  3  4  1  0
  4  5  1  0
  5  6  1  0
  6  7  1  0
  7  8  1  0
  8  9  1  0
  9 10  1  0
  2 11  1  0
 11 12  2  0
 11 13  1  0
 10  5  1  0
M  END
>  <rName>  (617) 
Abu_morpholino

>  <PQ_SYMBOL>  (617) 
Abu_morpholino

>  <FULL_NAME>  (617) 
(2S)-2-Amino-4-morpholinebutanoic Acid Dihydrochloride

>  <IUPAC_CONDENSED>  (617) 
Abu(morpholino)

>  <IUPAC>  (617) 
(2S)-2-amino-4-morpholin-4-ylbutanoic acid

>  <TYPE>  (617) 
Backbone

>  <CLASS>  (617) 
alpha

>  <ANALOG>  (617) 
X

>  <MOL_WT>  (617) 
188.22699999999998

>  <LOGP>  (617) 
-0.8793999999999993

>  <TPSA>  (617) 
75.78999999999999

>  <POPULARITY>  (617) 
2.2

>  <PROTECTED>  (617) 
TRUE

>  <SMILES>  (617) 
N[C@@H](CCN1(CCOCC1))C(=O)O

>  <INCHIKEY>  (617) 
ONSDVFIYMCKDLR-ZETCQYMHSA-N

$$$$
Abu_naphth1yl
     RDKit          2D

 17 18  0  0  0  0  0  0  0  0999 V2000
   -3.2260    2.0811    0.0000 N   0  0  0  0  0  0  0  0  0  0  0  0
   -3.3297    0.5847    0.0000 C   0  0  0  0  0  0  0  0  0  0  0  0
   -2.0857   -0.2534    0.0000 C   0  0  0  0  0  0  0  0  0  0  0  0
   -0.7379    0.4050    0.0000 C   0  0  0  0  0  0  0  0  0  0  0  0
    0.5061   -0.4331    0.0000 C   0  0  0  0  0  0  0  0  0  0  0  0
    0.4024   -1.9295    0.0000 C   0  0  0  0  0  0  0  0  0  0  0  0
    1.6464   -2.7676    0.0000 C   0  0  0  0  0  0  0  0  0  0  0  0
    2.9942   -2.1092    0.0000 C   0  0  0  0  0  0  0  0  0  0  0  0
    3.0980   -0.6128    0.0000 C   0  0  0  0  0  0  0  0  0  0  0  0
    4.4458    0.0455    0.0000 C   0  0  0  0  0  0  0  0  0  0  0  0
    4.5496    1.5419    0.0000 C   0  0  0  0  0  0  0  0  0  0  0  0
    3.3055    2.3800    0.0000 C   0  0  0  0  0  0  0  0  0  0  0  0
    1.9577    1.7216    0.0000 C   0  0  0  0  0  0  0  0  0  0  0  0
    1.8540    0.2252    0.0000 C   0  0  0  0  0  0  0  0  0  0  0  0
   -4.6776   -0.0736    0.0000 C   0  0  0  0  0  0  0  0  0  0  0  0
   -4.7813   -1.5701    0.0000 O   0  0  0  0  0  0  0  0  0  0  0  0
   -5.9216    0.7644    0.0000 O   0  0  0  0  0  0  0  0  0  0  0  0
  2  1  1  1
  2  3  1  0
  3  4  1  0
  4  5  1  0
  5  6  2  0
  6  7  1  0
  7  8  2  0
  8  9  1  0
  9 10  2  0
 10 11  1  0
 11 12  2  0
 12 13  1  0
 13 14  2  0
  2 15  1  0
 15 16  2  0
 15 17  1  0
 14  5  1  0
 14  9  1  0
M  END
>  <rName>  (618) 
Abu_naphth1yl

>  <PQ_SYMBOL>  (618) 
Abu_naphth1yl

>  <FULL_NAME>  (618) 
(S)-2-Amino-4-(naphthalen-1-YL)butanoic acid

>  <IUPAC_CONDENSED>  (618) 
Abu(naphth-1-yl)

>  <IUPAC>  (618) 
(2S)-2-amino-4-naphthalen-1-ylbutanoic acid

>  <TYPE>  (618) 
Backbone

>  <CLASS>  (618) 
alpha

>  <ANALOG>  (618) 
Phe

>  <MOL_WT>  (618) 
229.279

>  <LOGP>  (618) 
2.1843

>  <TPSA>  (618) 
63.32000000000001

>  <POPULARITY>  (618) 
2.2

>  <PROTECTED>  (618) 
TRUE

>  <SMILES>  (618) 
N[C@@H](CCc1(cccc2(ccccc12)))C(=O)O

>  <INCHIKEY>  (618) 
OESPMGURVQOYRN-ZDUSSCGKSA-N

$$$$
Abu_oxetan3yl_3Me
     RDKit          2D

 12 12  0  0  0  0  0  0  0  0999 V2000
   -1.9829   -1.9603    0.0000 N   0  0  0  0  0  0  0  0  0  0  0  0
   -1.7600   -0.4770    0.0000 C   0  0  0  0  0  0  0  0  0  0  0  0
   -0.3639    0.0716    0.0000 C   0  0  0  0  0  0  0  0  0  0  0  0
    0.8092   -0.8631    0.0000 C   0  0  0  0  0  0  0  0  0  0  0  0
    2.2053   -0.3145    0.0000 C   0  0  0  0  0  0  0  0  0  0  0  0
    2.7539   -1.7105    0.0000 C   0  0  0  0  0  0  0  0  0  0  0  0
    1.6567    1.0816    0.0000 C   0  0  0  0  0  0  0  0  0  0  0  0
    3.0528    1.6302    0.0000 O   0  0  0  0  0  0  0  0  0  0  0  0
    3.6014    0.2342    0.0000 C   0  0  0  0  0  0  0  0  0  0  0  0
   -2.9331    0.4577    0.0000 C   0  0  0  0  0  0  0  0  0  0  0  0
   -2.7102    1.9411    0.0000 O   0  0  0  0  0  0  0  0  0  0  0  0
   -4.3292   -0.0909    0.0000 O   0  0  0  0  0  0  0  0  0  0  0  0
  2  1  1  6
  2  3  1  0
  3  4  1  0
  4  5  1  0
  5  6  1  0
  5  7  1  0
  7  8  1  0
  8  9  1  0
  2 10  1  0
 10 11  2  0
 10 12  1  0
  9  5  1  0
M  END
>  <rName>  (619) 
Abu_oxetan3yl_3Me

>  <PQ_SYMBOL>  (619) 
Abu_oxetan3yl_3Me

>  <FULL_NAME>  (619) 
Abu(oxetan-3-yl(3-Me))

>  <IUPAC_CONDENSED>  (619) 
Abu(oxetan-3-yl(3-Me))

>  <IUPAC>  (619) 
(2S)-2-amino-4-(3-methyl-1-oxacyclobutan-3-yl)butanoic acid

>  <TYPE>  (619) 
Backbone

>  <CLASS>  (619) 
alpha

>  <ANALOG>  (619) 
X

>  <MOL_WT>  (619) 
173.212

>  <LOGP>  (619) 
0.2149999999999998

>  <TPSA>  (619) 
72.55

>  <POPULARITY>  (619) 
2.2

>  <PROTECTED>  (619) 
TRUE

>  <SMILES>  (619) 
N[C@@H](CCC1(C)(COC1))C(=O)O

>  <INCHIKEY>  (619) 
BUCRVICPNSWZTJ-LURJTMIESA-N

$$$$
Abu_piperidino_44diF
     RDKit          2D

 15 15  0  0  0  0  0  0  0  0999 V2000
   -3.5152   -1.8671    0.0000 N   0  0  0  0  0  0  0  0  0  0  0  0
   -3.1697   -0.4075    0.0000 C   0  0  0  0  0  0  0  0  0  0  0  0
   -1.7328    0.0231    0.0000 C   0  0  0  0  0  0  0  0  0  0  0  0
   -0.6414   -1.0059    0.0000 C   0  0  0  0  0  0  0  0  0  0  0  0
    0.7954   -0.5753    0.0000 N   0  0  0  0  0  0  0  0  0  0  0  0
    1.1409    0.8844    0.0000 C   0  0  0  0  0  0  0  0  0  0  0  0
    2.5778    1.3150    0.0000 C   0  0  0  0  0  0  0  0  0  0  0  0
    3.6691    0.2859    0.0000 C   0  0  0  0  0  0  0  0  0  0  0  0
    4.4931    1.5394    0.0000 F   0  0  0  0  0  0  0  0  0  0  0  0
    5.0466   -0.3078    0.0000 F   0  0  0  0  0  0  0  0  0  0  0  0
    3.3236   -1.1737    0.0000 C   0  0  0  0  0  0  0  0  0  0  0  0
    1.8868   -1.6043    0.0000 C   0  0  0  0  0  0  0  0  0  0  0  0
   -4.2610    0.6216    0.0000 C   0  0  0  0  0  0  0  0  0  0  0  0
   -3.9155    2.0812    0.0000 O   0  0  0  0  0  0  0  0  0  0  0  0
   -5.6979    0.1910    0.0000 O   0  0  0  0  0  0  0  0  0  0  0  0
  2  1  1  6
  2  3  1  0
  3  4  1  0
  4  5  1  0
  5  6  1  0
  6  7  1  0
  7  8  1  0
  8  9  1  0
  8 10  1  0
  8 11  1  0
 11 12  1  0
  2 13  1  0
 13 14  2  0
 13 15  1  0
 12  5  1  0
M  END
>  <rName>  (620) 
Abu_piperidino_44diF

>  <PQ_SYMBOL>  (620) 
Abu_piperidino_44diF

>  <FULL_NAME>  (620) 
(2S)-2-amino-4-(4,4-difluoropiperidin-1-yl)butanoic acid

>  <IUPAC_CONDENSED>  (620) 
Abu(piperidino(4,4-diF))

>  <IUPAC>  (620) 
(2S)-2-amino-4-(4,4-difluoropiperidin-1-yl)butanoic acid

>  <TYPE>  (620) 
Backbone

>  <CLASS>  (620) 
alpha

>  <ANALOG>  (620) 
X

>  <MOL_WT>  (620) 
222.23499999999996

>  <LOGP>  (620) 
0.5195000000000001

>  <TPSA>  (620) 
66.56

>  <POPULARITY>  (620) 
2.2

>  <PROTECTED>  (620) 
TRUE

>  <SMILES>  (620) 
N[C@@H](CCN1(CCC(F)(F)CC1))C(=O)O

>  <INCHIKEY>  (620) 
CQPWDCWBOWRMIJ-ZETCQYMHSA-N

$$$$
Abu_pyrid2yl
     RDKit          2D

 13 13  0  0  0  0  0  0  0  0999 V2000
   -2.6715   -1.9340    0.0000 N   0  0  0  0  0  0  0  0  0  0  0  0
   -2.4130   -0.4565    0.0000 C   0  0  0  0  0  0  0  0  0  0  0  0
   -1.0042    0.0585    0.0000 C   0  0  0  0  0  0  0  0  0  0  0  0
    0.1462   -0.9041    0.0000 C   0  0  0  0  0  0  0  0  0  0  0  0
    1.5550   -0.3891    0.0000 C   0  0  0  0  0  0  0  0  0  0  0  0
    1.8135    1.0885    0.0000 C   0  0  0  0  0  0  0  0  0  0  0  0
    3.2223    1.6034    0.0000 C   0  0  0  0  0  0  0  0  0  0  0  0
    4.3727    0.6408    0.0000 C   0  0  0  0  0  0  0  0  0  0  0  0
    4.1143   -0.8367    0.0000 C   0  0  0  0  0  0  0  0  0  0  0  0
    2.7054   -1.3517    0.0000 N   0  0  0  0  0  0  0  0  0  0  0  0
   -3.5634    0.5061    0.0000 C   0  0  0  0  0  0  0  0  0  0  0  0
   -3.3050    1.9837    0.0000 O   0  0  0  0  0  0  0  0  0  0  0  0
   -4.9723   -0.0089    0.0000 O   0  0  0  0  0  0  0  0  0  0  0  0
  2  1  1  6
  2  3  1  0
  3  4  1  0
  4  5  1  0
  5  6  2  0
  6  7  1  0
  7  8  2  0
  8  9  1  0
  9 10  2  0
  2 11  1  0
 11 12  2  0
 11 13  1  0
 10  5  1  0
M  END
>  <rName>  (621) 
Abu_pyrid2yl

>  <PQ_SYMBOL>  (621) 
Abu_pyrid2yl

>  <FULL_NAME>  (621) 
(2S)-2-Amino-4-(pyridin-2-YL)butanoic acid

>  <IUPAC_CONDENSED>  (621) 
Abu(pyrid-2-yl)

>  <IUPAC>  (621) 
(2S)-2-amino-4-pyridin-2-ylbutanoic acid

>  <TYPE>  (621) 
Backbone

>  <CLASS>  (621) 
alpha

>  <ANALOG>  (621) 
Phe

>  <MOL_WT>  (621) 
180.20699999999997

>  <LOGP>  (621) 
0.42609999999999965

>  <TPSA>  (621) 
76.21

>  <POPULARITY>  (621) 
2.2

>  <PROTECTED>  (621) 
TRUE

>  <SMILES>  (621) 
N[C@@H](CCc1(ccccn1))C(=O)O

>  <INCHIKEY>  (621) 
SJRUMPBLRJLYRM-QMMMGPOBSA-N

$$$$
Abu_pyrid3yl
     RDKit          2D

 13 13  0  0  0  0  0  0  0  0999 V2000
   -2.6715   -1.9340    0.0000 N   0  0  0  0  0  0  0  0  0  0  0  0
   -2.4130   -0.4565    0.0000 C   0  0  0  0  0  0  0  0  0  0  0  0
   -1.0042    0.0585    0.0000 C   0  0  0  0  0  0  0  0  0  0  0  0
    0.1462   -0.9041    0.0000 C   0  0  0  0  0  0  0  0  0  0  0  0
    1.5550   -0.3891    0.0000 C   0  0  0  0  0  0  0  0  0  0  0  0
    1.8135    1.0885    0.0000 C   0  0  0  0  0  0  0  0  0  0  0  0
    3.2223    1.6034    0.0000 C   0  0  0  0  0  0  0  0  0  0  0  0
    4.3727    0.6408    0.0000 C   0  0  0  0  0  0  0  0  0  0  0  0
    4.1143   -0.8367    0.0000 N   0  0  0  0  0  0  0  0  0  0  0  0
    2.7054   -1.3517    0.0000 C   0  0  0  0  0  0  0  0  0  0  0  0
   -3.5634    0.5061    0.0000 C   0  0  0  0  0  0  0  0  0  0  0  0
   -3.3050    1.9837    0.0000 O   0  0  0  0  0  0  0  0  0  0  0  0
   -4.9723   -0.0089    0.0000 O   0  0  0  0  0  0  0  0  0  0  0  0
  2  1  1  6
  2  3  1  0
  3  4  1  0
  4  5  1  0
  5  6  2  0
  6  7  1  0
  7  8  2  0
  8  9  1  0
  9 10  2  0
  2 11  1  0
 11 12  2  0
 11 13  1  0
 10  5  1  0
M  END
>  <rName>  (622) 
Abu_pyrid3yl

>  <PQ_SYMBOL>  (622) 
Abu_pyrid3yl

>  <FULL_NAME>  (622) 
(S)-2-amino-4-(pyridin-3-yl)butanoic acid

>  <IUPAC_CONDENSED>  (622) 
Abu(pyrid-3-yl)

>  <IUPAC>  (622) 
(2S)-2-amino-4-(pyridin-3-yl)butanoic acid

>  <TYPE>  (622) 
Backbone

>  <CLASS>  (622) 
alpha

>  <ANALOG>  (622) 
Phe

>  <MOL_WT>  (622) 
180.207

>  <LOGP>  (622) 
0.42609999999999965

>  <TPSA>  (622) 
76.21

>  <POPULARITY>  (622) 
7.2

>  <PROTECTED>  (622) 
TRUE

>  <SMILES>  (622) 
N[C@@H](CCc1(cccnc1))C(=O)O

>  <INCHIKEY>  (622) 
DKDFDEKVGHBVIX-QMMMGPOBSA-N

$$$$
Abu_pyrid3yl_2Me
     RDKit          2D

 14 14  0  0  0  0  0  0  0  0999 V2000
   -2.7345   -1.9034    0.0000 N   0  0  0  0  0  0  0  0  0  0  0  0
   -2.5673   -0.4128    0.0000 C   0  0  0  0  0  0  0  0  0  0  0  0
   -1.1928    0.1877    0.0000 C   0  0  0  0  0  0  0  0  0  0  0  0
    0.0146   -0.7024    0.0000 C   0  0  0  0  0  0  0  0  0  0  0  0
    1.3891   -0.1019    0.0000 C   0  0  0  0  0  0  0  0  0  0  0  0
    1.5563    1.3887    0.0000 C   0  0  0  0  0  0  0  0  0  0  0  0
    2.9309    1.9892    0.0000 C   0  0  0  0  0  0  0  0  0  0  0  0
    4.1382    1.0991    0.0000 C   0  0  0  0  0  0  0  0  0  0  0  0
    3.9710   -0.3916    0.0000 N   0  0  0  0  0  0  0  0  0  0  0  0
    2.5965   -0.9921    0.0000 C   0  0  0  0  0  0  0  0  0  0  0  0
    2.4292   -2.4827    0.0000 C   0  0  0  0  0  0  0  0  0  0  0  0
   -3.7746    0.4773    0.0000 C   0  0  0  0  0  0  0  0  0  0  0  0
   -3.6074    1.9680    0.0000 O   0  0  0  0  0  0  0  0  0  0  0  0
   -5.1492   -0.1232    0.0000 O   0  0  0  0  0  0  0  0  0  0  0  0
  2  1  1  6
  2  3  1  0
  3  4  1  0
  4  5  1  0
  5  6  2  0
  6  7  1  0
  7  8  2  0
  8  9  1  0
  9 10  2  0
 10 11  1  0
  2 12  1  0
 12 13  2  0
 12 14  1  0
 10  5  1  0
M  END
>  <rName>  (623) 
Abu_pyrid3yl_2Me

>  <PQ_SYMBOL>  (623) 
Abu_pyrid3yl_2Me

>  <FULL_NAME>  (623) 
Abu(pyrid-3-yl(2-Me))

>  <IUPAC_CONDENSED>  (623) 
Abu(pyrid-3-yl(2-Me))

>  <IUPAC>  (623) 
(2S)-2-amino-4-(2-methylpyridin-3-yl)butanoic acid

>  <TYPE>  (623) 
Backbone

>  <CLASS>  (623) 
alpha

>  <ANALOG>  (623) 
Phe

>  <MOL_WT>  (623) 
194.23399999999998

>  <LOGP>  (623) 
0.7345199999999996

>  <TPSA>  (623) 
76.21

>  <POPULARITY>  (623) 
2.2

>  <PROTECTED>  (623) 
TRUE

>  <SMILES>  (623) 
N[C@@H](CCc1(cccnc1C))C(=O)O

>  <INCHIKEY>  (623) 
HBTMTFOBFCYBTJ-VIFPVBQESA-N

$$$$
Abu_pyrid3yl_2OMe
     RDKit          2D

 15 15  0  0  0  0  0  0  0  0999 V2000
   -2.7831   -1.9835    0.0000 N   0  0  0  0  0  0  0  0  0  0  0  0
   -2.7742   -0.4835    0.0000 C   0  0  0  0  0  0  0  0  0  0  0  0
   -1.4707    0.2588    0.0000 C   0  0  0  0  0  0  0  0  0  0  0  0
   -0.1762   -0.4990    0.0000 C   0  0  0  0  0  0  0  0  0  0  0  0
    1.1273    0.2433    0.0000 C   0  0  0  0  0  0  0  0  0  0  0  0
    1.1362    1.7433    0.0000 C   0  0  0  0  0  0  0  0  0  0  0  0
    2.4397    2.4855    0.0000 C   0  0  0  0  0  0  0  0  0  0  0  0
    3.7343    1.7278    0.0000 C   0  0  0  0  0  0  0  0  0  0  0  0
    3.7253    0.2278    0.0000 N   0  0  0  0  0  0  0  0  0  0  0  0
    2.4219   -0.5144    0.0000 C   0  0  0  0  0  0  0  0  0  0  0  0
    2.4129   -2.0144    0.0000 O   0  0  0  0  0  0  0  0  0  0  0  0
    3.7075   -2.7721    0.0000 C   0  0  0  0  0  0  0  0  0  0  0  0
   -4.0688    0.2742    0.0000 C   0  0  0  0  0  0  0  0  0  0  0  0
   -4.0598    1.7742    0.0000 O   0  0  0  0  0  0  0  0  0  0  0  0
   -5.3722   -0.4680    0.0000 O   0  0  0  0  0  0  0  0  0  0  0  0
  2  1  1  6
  2  3  1  0
  3  4  1  0
  4  5  1  0
  5  6  2  0
  6  7  1  0
  7  8  2  0
  8  9  1  0
  9 10  2  0
 10 11  1  0
 11 12  1  0
  2 13  1  0
 13 14  2  0
 13 15  1  0
 10  5  1  0
M  END
>  <rName>  (624) 
Abu_pyrid3yl_2OMe

>  <PQ_SYMBOL>  (624) 
Abu_pyrid3yl_2OMe

>  <FULL_NAME>  (624) 
Abu(pyrid-3-yl(2-OMe))

>  <IUPAC_CONDENSED>  (624) 
Abu(pyrid-3-yl(2-OMe))

>  <IUPAC>  (624) 
(2S)-2-amino-4-(2-methoxypyridin-3-yl)butanoic acid

>  <TYPE>  (624) 
Backbone

>  <CLASS>  (624) 
alpha

>  <ANALOG>  (624) 
Phe

>  <MOL_WT>  (624) 
210.23299999999998

>  <LOGP>  (624) 
0.4346999999999996

>  <TPSA>  (624) 
85.44000000000001

>  <POPULARITY>  (624) 
2.2

>  <PROTECTED>  (624) 
TRUE

>  <SMILES>  (624) 
N[C@@H](CCc1(cccnc1OC))C(=O)O

>  <INCHIKEY>  (624) 
GOKHTHMSJMNGIV-QMMMGPOBSA-N

$$$$
Abu_pyrid3yl_2OMe_5F
     RDKit          2D

 16 16  0  0  0  0  0  0  0  0999 V2000
   -3.1263   -1.9575    0.0000 N   0  0  0  0  0  0  0  0  0  0  0  0
   -2.9816   -0.4645    0.0000 C   0  0  0  0  0  0  0  0  0  0  0  0
   -1.6162    0.1567    0.0000 C   0  0  0  0  0  0  0  0  0  0  0  0
   -0.3956   -0.7152    0.0000 C   0  0  0  0  0  0  0  0  0  0  0  0
    0.9697   -0.0940    0.0000 C   0  0  0  0  0  0  0  0  0  0  0  0
    1.1145    1.3990    0.0000 C   0  0  0  0  0  0  0  0  0  0  0  0
    2.4798    2.0202    0.0000 C   0  0  0  0  0  0  0  0  0  0  0  0
    2.6245    3.5132    0.0000 F   0  0  0  0  0  0  0  0  0  0  0  0
    3.7004    1.1483    0.0000 C   0  0  0  0  0  0  0  0  0  0  0  0
    3.5557   -0.3447    0.0000 N   0  0  0  0  0  0  0  0  0  0  0  0
    2.1903   -0.9658    0.0000 C   0  0  0  0  0  0  0  0  0  0  0  0
    2.0456   -2.4588    0.0000 O   0  0  0  0  0  0  0  0  0  0  0  0
    3.2662   -3.3307    0.0000 C   0  0  0  0  0  0  0  0  0  0  0  0
   -4.2022    0.4073    0.0000 C   0  0  0  0  0  0  0  0  0  0  0  0
   -4.0575    1.9003    0.0000 O   0  0  0  0  0  0  0  0  0  0  0  0
   -5.5675   -0.2138    0.0000 O   0  0  0  0  0  0  0  0  0  0  0  0
  2  1  1  6
  2  3  1  0
  3  4  1  0
  4  5  1  0
  5  6  1  0
  6  7  2  0
  7  8  1  0
  7  9  1  0
  9 10  2  0
 10 11  1  0
 11 12  1  0
 12 13  1  0
  2 14  1  0
 14 15  2  0
 14 16  1  0
 11  5  2  0
M  END
>  <rName>  (625) 
Abu_pyrid3yl_2OMe_5F

>  <PQ_SYMBOL>  (625) 
Abu_pyrid3yl_2OMe_5F

>  <FULL_NAME>  (625) 
Abu(pyrid-3-yl(2-OMe,5-F))

>  <IUPAC_CONDENSED>  (625) 
Abu(pyrid-3-yl(2-OMe,5-F))

>  <IUPAC>  (625) 
(2S)-2-amino-4-(5-fluoro-2-methoxypyridin-3-yl)butanoic acid

>  <TYPE>  (625) 
Backbone

>  <CLASS>  (625) 
alpha

>  <ANALOG>  (625) 
Phe

>  <MOL_WT>  (625) 
228.22299999999996

>  <LOGP>  (625) 
0.5737999999999999

>  <TPSA>  (625) 
85.44000000000001

>  <POPULARITY>  (625) 
2.2

>  <PROTECTED>  (625) 
TRUE

>  <SMILES>  (625) 
N[C@@H](CCc1(cc(F)cnc1OC))C(=O)O

>  <INCHIKEY>  (625) 
IOSLDMNHJMZVBW-QMMMGPOBSA-N

$$$$
Abu_pyrid3yl_5F
     RDKit          2D

 14 14  0  0  0  0  0  0  0  0999 V2000
   -2.9179   -2.0082    0.0000 N   0  0  0  0  0  0  0  0  0  0  0  0
   -2.7604   -0.5165    0.0000 C   0  0  0  0  0  0  0  0  0  0  0  0
   -1.3898    0.0929    0.0000 C   0  0  0  0  0  0  0  0  0  0  0  0
   -0.1767   -0.7894    0.0000 C   0  0  0  0  0  0  0  0  0  0  0  0
    1.1939   -0.1800    0.0000 C   0  0  0  0  0  0  0  0  0  0  0  0
    1.3515    1.3117    0.0000 C   0  0  0  0  0  0  0  0  0  0  0  0
    2.7221    1.9211    0.0000 N   0  0  0  0  0  0  0  0  0  0  0  0
    3.9352    1.0388    0.0000 C   0  0  0  0  0  0  0  0  0  0  0  0
    3.7777   -0.4529    0.0000 C   0  0  0  0  0  0  0  0  0  0  0  0
    4.9907   -1.3352    0.0000 F   0  0  0  0  0  0  0  0  0  0  0  0
    2.4070   -1.0623    0.0000 C   0  0  0  0  0  0  0  0  0  0  0  0
   -3.9735    0.3658    0.0000 C   0  0  0  0  0  0  0  0  0  0  0  0
   -3.8159    1.8575    0.0000 O   0  0  0  0  0  0  0  0  0  0  0  0
   -5.3441   -0.2436    0.0000 O   0  0  0  0  0  0  0  0  0  0  0  0
  2  1  1  6
  2  3  1  0
  3  4  1  0
  4  5  1  0
  5  6  2  0
  6  7  1  0
  7  8  2  0
  8  9  1  0
  9 10  1  0
  9 11  2  0
  2 12  1  0
 12 13  2  0
 12 14  1  0
 11  5  1  0
M  END
>  <rName>  (626) 
Abu_pyrid3yl_5F

>  <PQ_SYMBOL>  (626) 
Abu_pyrid3yl_5F

>  <FULL_NAME>  (626) 
Abu(pyrid-3-yl(5-F))

>  <IUPAC_CONDENSED>  (626) 
Abu(pyrid-3-yl(5-F))

>  <IUPAC>  (626) 
(2S)-2-amino-4-(5-fluoropyridin-3-yl)butanoic acid

>  <TYPE>  (626) 
Backbone

>  <CLASS>  (626) 
alpha

>  <ANALOG>  (626) 
Phe

>  <MOL_WT>  (626) 
198.19699999999997

>  <LOGP>  (626) 
0.5651999999999995

>  <TPSA>  (626) 
76.21

>  <POPULARITY>  (626) 
2.2

>  <PROTECTED>  (626) 
TRUE

>  <SMILES>  (626) 
N[C@@H](CCc1(cncc(F)c1))C(=O)O

>  <INCHIKEY>  (626) 
SQTRNNSMJWDPBI-QMMMGPOBSA-N

$$$$
Abu_pyrid3yl_6Me
     RDKit          2D

 14 14  0  0  0  0  0  0  0  0999 V2000
   -3.1731   -1.8740    0.0000 N   0  0  0  0  0  0  0  0  0  0  0  0
   -2.8476   -0.4097    0.0000 C   0  0  0  0  0  0  0  0  0  0  0  0
   -1.4168    0.0405    0.0000 C   0  0  0  0  0  0  0  0  0  0  0  0
   -0.3114   -0.9735    0.0000 C   0  0  0  0  0  0  0  0  0  0  0  0
    1.1194   -0.5232    0.0000 C   0  0  0  0  0  0  0  0  0  0  0  0
    1.4449    0.9411    0.0000 C   0  0  0  0  0  0  0  0  0  0  0  0
    2.8757    1.3913    0.0000 C   0  0  0  0  0  0  0  0  0  0  0  0
    3.9810    0.3773    0.0000 C   0  0  0  0  0  0  0  0  0  0  0  0
    5.4119    0.8276    0.0000 C   0  0  0  0  0  0  0  0  0  0  0  0
    3.6556   -1.0870    0.0000 N   0  0  0  0  0  0  0  0  0  0  0  0
    2.2247   -1.5372    0.0000 C   0  0  0  0  0  0  0  0  0  0  0  0
   -3.9530    0.6043    0.0000 C   0  0  0  0  0  0  0  0  0  0  0  0
   -3.6275    2.0685    0.0000 O   0  0  0  0  0  0  0  0  0  0  0  0
   -5.3838    0.1540    0.0000 O   0  0  0  0  0  0  0  0  0  0  0  0
  2  1  1  6
  2  3  1  0
  3  4  1  0
  4  5  1  0
  5  6  1  0
  6  7  2  0
  7  8  1  0
  8  9  1  0
  8 10  2  0
 10 11  1  0
  2 12  1  0
 12 13  2  0
 12 14  1  0
 11  5  2  0
M  END
>  <rName>  (627) 
Abu_pyrid3yl_6Me

>  <PQ_SYMBOL>  (627) 
Abu_pyrid3yl_6Me

>  <FULL_NAME>  (627) 
Abu(pyrid-3-yl(6-Me))

>  <IUPAC_CONDENSED>  (627) 
Abu(pyrid-3-yl(6-Me))

>  <IUPAC>  (627) 
(2S)-2-amino-4-(6-methylpyridin-3-yl)butanoic acid

>  <TYPE>  (627) 
Backbone

>  <CLASS>  (627) 
alpha

>  <ANALOG>  (627) 
Phe

>  <MOL_WT>  (627) 
194.23399999999998

>  <LOGP>  (627) 
0.7345199999999996

>  <TPSA>  (627) 
76.21

>  <POPULARITY>  (627) 
2.2

>  <PROTECTED>  (627) 
TRUE

>  <SMILES>  (627) 
N[C@@H](CCc1(ccc(C)nc1))C(=O)O

>  <INCHIKEY>  (627) 
SHHRTQMONDXOGM-VIFPVBQESA-N

$$$$
Abu_pyrid3yl_6OMe
     RDKit          2D

 15 15  0  0  0  0  0  0  0  0999 V2000
   -3.5955   -1.8848    0.0000 N   0  0  0  0  0  0  0  0  0  0  0  0
   -3.2795   -0.4184    0.0000 C   0  0  0  0  0  0  0  0  0  0  0  0
   -1.8516    0.0410    0.0000 C   0  0  0  0  0  0  0  0  0  0  0  0
   -0.7397   -0.9658    0.0000 C   0  0  0  0  0  0  0  0  0  0  0  0
    0.6882   -0.5064    0.0000 C   0  0  0  0  0  0  0  0  0  0  0  0
    1.0042    0.9600    0.0000 C   0  0  0  0  0  0  0  0  0  0  0  0
    2.4321    1.4194    0.0000 C   0  0  0  0  0  0  0  0  0  0  0  0
    3.5440    0.4126    0.0000 C   0  0  0  0  0  0  0  0  0  0  0  0
    4.9719    0.8721    0.0000 O   0  0  0  0  0  0  0  0  0  0  0  0
    6.0837   -0.1348    0.0000 C   0  0  0  0  0  0  0  0  0  0  0  0
    3.2279   -1.0537    0.0000 N   0  0  0  0  0  0  0  0  0  0  0  0
    1.8000   -1.5132    0.0000 C   0  0  0  0  0  0  0  0  0  0  0  0
   -4.3913    0.5884    0.0000 C   0  0  0  0  0  0  0  0  0  0  0  0
   -4.0753    2.0547    0.0000 O   0  0  0  0  0  0  0  0  0  0  0  0
   -5.8192    0.1289    0.0000 O   0  0  0  0  0  0  0  0  0  0  0  0
  2  1  1  6
  2  3  1  0
  3  4  1  0
  4  5  1  0
  5  6  1  0
  6  7  2  0
  7  8  1  0
  8  9  1  0
  9 10  1  0
  8 11  2  0
 11 12  1  0
  2 13  1  0
 13 14  2  0
 13 15  1  0
 12  5  2  0
M  END
>  <rName>  (628) 
Abu_pyrid3yl_6OMe

>  <PQ_SYMBOL>  (628) 
Abu_pyrid3yl_6OMe

>  <FULL_NAME>  (628) 
(2S)-2-amino-4-(6-methoxy-3-pyridinyl)butanoic acid

>  <IUPAC_CONDENSED>  (628) 
Abu(pyrid-3-yl(6-OMe))

>  <IUPAC>  (628) 
(2S)-2-amino-4-(6-methoxy-3-pyridinyl)butanoic acid

>  <TYPE>  (628) 
Backbone

>  <CLASS>  (628) 
alpha

>  <ANALOG>  (628) 
Phe

>  <MOL_WT>  (628) 
210.23299999999998

>  <LOGP>  (628) 
0.4346999999999996

>  <TPSA>  (628) 
85.44000000000001

>  <POPULARITY>  (628) 
2.2

>  <PROTECTED>  (628) 
TRUE

>  <SMILES>  (628) 
N[C@@H](CCc1(ccc(OC)nc1))C(=O)O

>  <INCHIKEY>  (628) 
MFDZXYXAFGLHQS-QMMMGPOBSA-N

$$$$
Abu_pyrid4yl
     RDKit          2D

 13 13  0  0  0  0  0  0  0  0999 V2000
   -2.6715   -1.9340    0.0000 N   0  0  0  0  0  0  0  0  0  0  0  0
   -2.4130   -0.4565    0.0000 C   0  0  0  0  0  0  0  0  0  0  0  0
   -1.0042    0.0585    0.0000 C   0  0  0  0  0  0  0  0  0  0  0  0
    0.1462   -0.9041    0.0000 C   0  0  0  0  0  0  0  0  0  0  0  0
    1.5550   -0.3891    0.0000 C   0  0  0  0  0  0  0  0  0  0  0  0
    1.8135    1.0885    0.0000 C   0  0  0  0  0  0  0  0  0  0  0  0
    3.2223    1.6034    0.0000 C   0  0  0  0  0  0  0  0  0  0  0  0
    4.3727    0.6408    0.0000 N   0  0  0  0  0  0  0  0  0  0  0  0
    4.1143   -0.8367    0.0000 C   0  0  0  0  0  0  0  0  0  0  0  0
    2.7054   -1.3517    0.0000 C   0  0  0  0  0  0  0  0  0  0  0  0
   -3.5634    0.5061    0.0000 C   0  0  0  0  0  0  0  0  0  0  0  0
   -3.3050    1.9837    0.0000 O   0  0  0  0  0  0  0  0  0  0  0  0
   -4.9723   -0.0089    0.0000 O   0  0  0  0  0  0  0  0  0  0  0  0
  2  1  1  6
  2  3  1  0
  3  4  1  0
  4  5  1  0
  5  6  1  0
  6  7  2  0
  7  8  1  0
  8  9  2  0
  9 10  1  0
  2 11  1  0
 11 12  2  0
 11 13  1  0
 10  5  2  0
M  END
>  <rName>  (629) 
Abu_pyrid4yl

>  <PQ_SYMBOL>  (629) 
Abu_pyrid4yl

>  <FULL_NAME>  (629) 
(S)-2-amino-4-(pyridin-4-yl)butanoic acid

>  <IUPAC_CONDENSED>  (629) 
Abu(pyrid-4-yl)

>  <IUPAC>  (629) 
(2S)-2-amino-4-(pyridin-4-yl)butanoic acid

>  <TYPE>  (629) 
Backbone

>  <CLASS>  (629) 
alpha

>  <ANALOG>  (629) 
Phe

>  <MOL_WT>  (629) 
180.207

>  <LOGP>  (629) 
0.42609999999999965

>  <TPSA>  (629) 
76.21

>  <POPULARITY>  (629) 
8.8

>  <PROTECTED>  (629) 
TRUE

>  <SMILES>  (629) 
N[C@@H](CCc1(ccncc1))C(=O)O

>  <INCHIKEY>  (629) 
WHCQVPISOOTNON-QMMMGPOBSA-N

$$$$
Abu_pyrid4yl_23diF
     RDKit          2D

 15 15  0  0  0  0  0  0  0  0999 V2000
   -2.9888   -1.9640    0.0000 N   0  0  0  0  0  0  0  0  0  0  0  0
   -2.8934   -0.4670    0.0000 C   0  0  0  0  0  0  0  0  0  0  0  0
   -1.5493    0.1989    0.0000 C   0  0  0  0  0  0  0  0  0  0  0  0
   -0.3006   -0.6322    0.0000 C   0  0  0  0  0  0  0  0  0  0  0  0
    1.0435    0.0337    0.0000 C   0  0  0  0  0  0  0  0  0  0  0  0
    1.1388    1.5307    0.0000 C   0  0  0  0  0  0  0  0  0  0  0  0
    2.4829    2.1966    0.0000 C   0  0  0  0  0  0  0  0  0  0  0  0
    3.7317    1.3655    0.0000 N   0  0  0  0  0  0  0  0  0  0  0  0
    3.6363   -0.1314    0.0000 C   0  0  0  0  0  0  0  0  0  0  0  0
    4.8850   -0.9625    0.0000 F   0  0  0  0  0  0  0  0  0  0  0  0
    2.2922   -0.7973    0.0000 C   0  0  0  0  0  0  0  0  0  0  0  0
    2.1969   -2.2943    0.0000 F   0  0  0  0  0  0  0  0  0  0  0  0
   -4.1422    0.3641    0.0000 C   0  0  0  0  0  0  0  0  0  0  0  0
   -4.0468    1.8610    0.0000 O   0  0  0  0  0  0  0  0  0  0  0  0
   -5.4862   -0.3018    0.0000 O   0  0  0  0  0  0  0  0  0  0  0  0
  2  1  1  6
  2  3  1  0
  3  4  1  0
  4  5  1  0
  5  6  1  0
  6  7  2  0
  7  8  1  0
  8  9  2  0
  9 10  1  0
  9 11  1  0
 11 12  1  0
  2 13  1  0
 13 14  2  0
 13 15  1  0
 11  5  2  0
M  END
>  <rName>  (630) 
Abu_pyrid4yl_23diF

>  <PQ_SYMBOL>  (630) 
Abu_pyrid4yl_23diF

>  <FULL_NAME>  (630) 
Abu(pyrid-4-yl(2,3-diF))

>  <IUPAC_CONDENSED>  (630) 
Abu(pyrid-4-yl(2,3-diF))

>  <IUPAC>  (630) 
(2S)-2-amino-4-(2,3-difluoropyridin-4-yl)butanoic acid

>  <TYPE>  (630) 
Backbone

>  <CLASS>  (630) 
alpha

>  <ANALOG>  (630) 
Phe

>  <MOL_WT>  (630) 
216.18699999999995

>  <LOGP>  (630) 
0.7042999999999999

>  <TPSA>  (630) 
76.21

>  <POPULARITY>  (630) 
2.2

>  <PROTECTED>  (630) 
TRUE

>  <SMILES>  (630) 
N[C@@H](CCc1(ccnc(F)c1F))C(=O)O

>  <INCHIKEY>  (630) 
WDFWBEKEYHIAHO-LURJTMIESA-N

$$$$
Abu_pyrid4yl_2F
     RDKit          2D

 14 14  0  0  0  0  0  0  0  0999 V2000
   -2.9179   -2.0082    0.0000 N   0  0  0  0  0  0  0  0  0  0  0  0
   -2.7604   -0.5165    0.0000 C   0  0  0  0  0  0  0  0  0  0  0  0
   -1.3898    0.0929    0.0000 C   0  0  0  0  0  0  0  0  0  0  0  0
   -0.1767   -0.7894    0.0000 C   0  0  0  0  0  0  0  0  0  0  0  0
    1.1939   -0.1800    0.0000 C   0  0  0  0  0  0  0  0  0  0  0  0
    1.3515    1.3117    0.0000 C   0  0  0  0  0  0  0  0  0  0  0  0
    2.7221    1.9211    0.0000 C   0  0  0  0  0  0  0  0  0  0  0  0
    3.9352    1.0388    0.0000 N   0  0  0  0  0  0  0  0  0  0  0  0
    3.7777   -0.4529    0.0000 C   0  0  0  0  0  0  0  0  0  0  0  0
    4.9907   -1.3352    0.0000 F   0  0  0  0  0  0  0  0  0  0  0  0
    2.4070   -1.0623    0.0000 C   0  0  0  0  0  0  0  0  0  0  0  0
   -3.9735    0.3658    0.0000 C   0  0  0  0  0  0  0  0  0  0  0  0
   -3.8159    1.8575    0.0000 O   0  0  0  0  0  0  0  0  0  0  0  0
   -5.3441   -0.2436    0.0000 O   0  0  0  0  0  0  0  0  0  0  0  0
  2  1  1  6
  2  3  1  0
  3  4  1  0
  4  5  1  0
  5  6  1  0
  6  7  2  0
  7  8  1  0
  8  9  2  0
  9 10  1  0
  9 11  1  0
  2 12  1  0
 12 13  2  0
 12 14  1  0
 11  5  2  0
M  END
>  <rName>  (631) 
Abu_pyrid4yl_2F

>  <PQ_SYMBOL>  (631) 
Abu_pyrid4yl_2F

>  <FULL_NAME>  (631) 
Abu(pyrid-4-yl(2-F))

>  <IUPAC_CONDENSED>  (631) 
Abu(pyrid-4-yl(2-F))

>  <IUPAC>  (631) 
(2S)-2-amino-4-(2-fluoropyridin-4-yl)butanoic acid

>  <TYPE>  (631) 
Backbone

>  <CLASS>  (631) 
alpha

>  <ANALOG>  (631) 
Phe

>  <MOL_WT>  (631) 
198.19699999999997

>  <LOGP>  (631) 
0.5651999999999999

>  <TPSA>  (631) 
76.21

>  <POPULARITY>  (631) 
2.2

>  <PROTECTED>  (631) 
TRUE

>  <SMILES>  (631) 
N[C@@H](CCc1(ccnc(F)c1))C(=O)O

>  <INCHIKEY>  (631) 
XXQMBVNIBDHUNH-ZETCQYMHSA-N

$$$$
Abu_pyrid4yl_2Me
     RDKit          2D

 14 14  0  0  0  0  0  0  0  0999 V2000
   -2.9179   -2.0082    0.0000 N   0  0  0  0  0  0  0  0  0  0  0  0
   -2.7604   -0.5165    0.0000 C   0  0  0  0  0  0  0  0  0  0  0  0
   -1.3898    0.0929    0.0000 C   0  0  0  0  0  0  0  0  0  0  0  0
   -0.1767   -0.7894    0.0000 C   0  0  0  0  0  0  0  0  0  0  0  0
    1.1939   -0.1800    0.0000 C   0  0  0  0  0  0  0  0  0  0  0  0
    1.3515    1.3117    0.0000 C   0  0  0  0  0  0  0  0  0  0  0  0
    2.7221    1.9211    0.0000 C   0  0  0  0  0  0  0  0  0  0  0  0
    3.9352    1.0388    0.0000 N   0  0  0  0  0  0  0  0  0  0  0  0
    3.7777   -0.4529    0.0000 C   0  0  0  0  0  0  0  0  0  0  0  0
    4.9907   -1.3352    0.0000 C   0  0  0  0  0  0  0  0  0  0  0  0
    2.4070   -1.0623    0.0000 C   0  0  0  0  0  0  0  0  0  0  0  0
   -3.9735    0.3658    0.0000 C   0  0  0  0  0  0  0  0  0  0  0  0
   -3.8159    1.8575    0.0000 O   0  0  0  0  0  0  0  0  0  0  0  0
   -5.3441   -0.2436    0.0000 O   0  0  0  0  0  0  0  0  0  0  0  0
  2  1  1  6
  2  3  1  0
  3  4  1  0
  4  5  1  0
  5  6  1  0
  6  7  2  0
  7  8  1  0
  8  9  2  0
  9 10  1  0
  9 11  1  0
  2 12  1  0
 12 13  2  0
 12 14  1  0
 11  5  2  0
M  END
>  <rName>  (632) 
Abu_pyrid4yl_2Me

>  <PQ_SYMBOL>  (632) 
Abu_pyrid4yl_2Me

>  <FULL_NAME>  (632) 
(2S)-2-amino-4-(2-methyl-4-pyridinyl)butanoic acid

>  <IUPAC_CONDENSED>  (632) 
Abu(pyrid-4-yl(2-Me))

>  <IUPAC>  (632) 
(2S)-2-amino-4-(2-methyl-4-pyridinyl)butanoic acid

>  <TYPE>  (632) 
Backbone

>  <CLASS>  (632) 
alpha

>  <ANALOG>  (632) 
Phe

>  <MOL_WT>  (632) 
194.23399999999998

>  <LOGP>  (632) 
0.7345200000000001

>  <TPSA>  (632) 
76.21

>  <POPULARITY>  (632) 
2.2

>  <PROTECTED>  (632) 
TRUE

>  <SMILES>  (632) 
N[C@@H](CCc1(ccnc(C)c1))C(=O)O

>  <INCHIKEY>  (632) 
FKLQIBFHZPZZII-VIFPVBQESA-N

$$$$
Abu_pyrid4yl_2OMe
     RDKit          2D

 15 15  0  0  0  0  0  0  0  0999 V2000
   -3.0687   -2.0959    0.0000 N   0  0  0  0  0  0  0  0  0  0  0  0
   -3.0421   -0.5961    0.0000 C   0  0  0  0  0  0  0  0  0  0  0  0
   -1.7300    0.1307    0.0000 C   0  0  0  0  0  0  0  0  0  0  0  0
   -0.4445   -0.6422    0.0000 C   0  0  0  0  0  0  0  0  0  0  0  0
    0.8677    0.0846    0.0000 C   0  0  0  0  0  0  0  0  0  0  0  0
    0.8943    1.5844    0.0000 C   0  0  0  0  0  0  0  0  0  0  0  0
    2.2064    2.3112    0.0000 C   0  0  0  0  0  0  0  0  0  0  0  0
    3.4919    1.5383    0.0000 N   0  0  0  0  0  0  0  0  0  0  0  0
    3.4653    0.0385    0.0000 C   0  0  0  0  0  0  0  0  0  0  0  0
    4.7509   -0.7344    0.0000 O   0  0  0  0  0  0  0  0  0  0  0  0
    4.7243   -2.2342    0.0000 C   0  0  0  0  0  0  0  0  0  0  0  0
    2.1532   -0.6883    0.0000 C   0  0  0  0  0  0  0  0  0  0  0  0
   -4.3277    0.1768    0.0000 C   0  0  0  0  0  0  0  0  0  0  0  0
   -4.3011    1.6766    0.0000 O   0  0  0  0  0  0  0  0  0  0  0  0
   -5.6398   -0.5500    0.0000 O   0  0  0  0  0  0  0  0  0  0  0  0
  2  1  1  6
  2  3  1  0
  3  4  1  0
  4  5  1  0
  5  6  1  0
  6  7  2  0
  7  8  1  0
  8  9  2  0
  9 10  1  0
 10 11  1  0
  9 12  1  0
  2 13  1  0
 13 14  2  0
 13 15  1  0
 12  5  2  0
M  END
>  <rName>  (633) 
Abu_pyrid4yl_2OMe

>  <PQ_SYMBOL>  (633) 
Abu_pyrid4yl_2OMe

>  <FULL_NAME>  (633) 
Abu(pyrid-4-yl(2-OMe))

>  <IUPAC_CONDENSED>  (633) 
Abu(pyrid-4-yl(2-OMe))

>  <IUPAC>  (633) 
(2S)-2-amino-4-(2-methoxypyridin-4-yl)butanoic acid

>  <TYPE>  (633) 
Backbone

>  <CLASS>  (633) 
alpha

>  <ANALOG>  (633) 
Phe

>  <MOL_WT>  (633) 
210.23299999999998

>  <LOGP>  (633) 
0.43470000000000003

>  <TPSA>  (633) 
85.44000000000001

>  <POPULARITY>  (633) 
2.2

>  <PROTECTED>  (633) 
TRUE

>  <SMILES>  (633) 
N[C@@H](CCc1(ccnc(OC)c1))C(=O)O

>  <INCHIKEY>  (633) 
GYLAJMKIZCDRIM-QMMMGPOBSA-N

$$$$
Abu_pyrid4yl_3F
     RDKit          2D

 14 14  0  0  0  0  0  0  0  0999 V2000
   -2.7345   -1.9034    0.0000 N   0  0  0  0  0  0  0  0  0  0  0  0
   -2.5673   -0.4128    0.0000 C   0  0  0  0  0  0  0  0  0  0  0  0
   -1.1928    0.1877    0.0000 C   0  0  0  0  0  0  0  0  0  0  0  0
    0.0146   -0.7024    0.0000 C   0  0  0  0  0  0  0  0  0  0  0  0
    1.3891   -0.1019    0.0000 C   0  0  0  0  0  0  0  0  0  0  0  0
    1.5563    1.3887    0.0000 C   0  0  0  0  0  0  0  0  0  0  0  0
    2.9309    1.9892    0.0000 C   0  0  0  0  0  0  0  0  0  0  0  0
    4.1382    1.0991    0.0000 N   0  0  0  0  0  0  0  0  0  0  0  0
    3.9710   -0.3916    0.0000 C   0  0  0  0  0  0  0  0  0  0  0  0
    2.5965   -0.9921    0.0000 C   0  0  0  0  0  0  0  0  0  0  0  0
    2.4292   -2.4827    0.0000 F   0  0  0  0  0  0  0  0  0  0  0  0
   -3.7746    0.4773    0.0000 C   0  0  0  0  0  0  0  0  0  0  0  0
   -3.6074    1.9680    0.0000 O   0  0  0  0  0  0  0  0  0  0  0  0
   -5.1492   -0.1232    0.0000 O   0  0  0  0  0  0  0  0  0  0  0  0
  2  1  1  6
  2  3  1  0
  3  4  1  0
  4  5  1  0
  5  6  1  0
  6  7  2  0
  7  8  1  0
  8  9  2  0
  9 10  1  0
 10 11  1  0
  2 12  1  0
 12 13  2  0
 12 14  1  0
 10  5  2  0
M  END
>  <rName>  (634) 
Abu_pyrid4yl_3F

>  <PQ_SYMBOL>  (634) 
Abu_pyrid4yl_3F

>  <FULL_NAME>  (634) 
Abu(pyrid-4-yl(3-F))

>  <IUPAC_CONDENSED>  (634) 
Abu(pyrid-4-yl(3-F))

>  <IUPAC>  (634) 
(2S)-2-amino-4-(3-fluoropyridin-4-yl)butanoic acid

>  <TYPE>  (634) 
Backbone

>  <CLASS>  (634) 
alpha

>  <ANALOG>  (634) 
Phe

>  <MOL_WT>  (634) 
198.19699999999997

>  <LOGP>  (634) 
0.5651999999999999

>  <TPSA>  (634) 
76.21

>  <POPULARITY>  (634) 
2.2

>  <PROTECTED>  (634) 
TRUE

>  <SMILES>  (634) 
N[C@@H](CCc1(ccncc1F))C(=O)O

>  <INCHIKEY>  (634) 
ZGAFPDPQRQHYHB-QMMMGPOBSA-N

$$$$
Abu_pyrid4yl_3Me
     RDKit          2D

 14 14  0  0  0  0  0  0  0  0999 V2000
   -2.7345   -1.9034    0.0000 N   0  0  0  0  0  0  0  0  0  0  0  0
   -2.5673   -0.4128    0.0000 C   0  0  0  0  0  0  0  0  0  0  0  0
   -1.1928    0.1877    0.0000 C   0  0  0  0  0  0  0  0  0  0  0  0
    0.0146   -0.7024    0.0000 C   0  0  0  0  0  0  0  0  0  0  0  0
    1.3891   -0.1019    0.0000 C   0  0  0  0  0  0  0  0  0  0  0  0
    1.5563    1.3887    0.0000 C   0  0  0  0  0  0  0  0  0  0  0  0
    2.9309    1.9892    0.0000 C   0  0  0  0  0  0  0  0  0  0  0  0
    4.1382    1.0991    0.0000 N   0  0  0  0  0  0  0  0  0  0  0  0
    3.9710   -0.3916    0.0000 C   0  0  0  0  0  0  0  0  0  0  0  0
    2.5965   -0.9921    0.0000 C   0  0  0  0  0  0  0  0  0  0  0  0
    2.4292   -2.4827    0.0000 C   0  0  0  0  0  0  0  0  0  0  0  0
   -3.7746    0.4773    0.0000 C   0  0  0  0  0  0  0  0  0  0  0  0
   -3.6074    1.9680    0.0000 O   0  0  0  0  0  0  0  0  0  0  0  0
   -5.1492   -0.1232    0.0000 O   0  0  0  0  0  0  0  0  0  0  0  0
  2  1  1  6
  2  3  1  0
  3  4  1  0
  4  5  1  0
  5  6  1  0
  6  7  2  0
  7  8  1  0
  8  9  2  0
  9 10  1  0
 10 11  1  0
  2 12  1  0
 12 13  2  0
 12 14  1  0
 10  5  2  0
M  END
>  <rName>  (635) 
Abu_pyrid4yl_3Me

>  <PQ_SYMBOL>  (635) 
Abu_pyrid4yl_3Me

>  <FULL_NAME>  (635) 
Abu(pyrid-4-yl(3-Me))

>  <IUPAC_CONDENSED>  (635) 
Abu(pyrid-4-yl(3-Me))

>  <IUPAC>  (635) 
(2S)-2-amino-4-(3-methylpyridin-4-yl)butanoic acid

>  <TYPE>  (635) 
Backbone

>  <CLASS>  (635) 
alpha

>  <ANALOG>  (635) 
Phe

>  <MOL_WT>  (635) 
194.23399999999998

>  <LOGP>  (635) 
0.7345200000000001

>  <TPSA>  (635) 
76.21

>  <POPULARITY>  (635) 
2.2

>  <PROTECTED>  (635) 
TRUE

>  <SMILES>  (635) 
N[C@@H](CCc1(ccncc1C))C(=O)O

>  <INCHIKEY>  (635) 
AXANTUWBACEVSB-VIFPVBQESA-N

$$$$
Abu_pyrid4yl_3OMe
     RDKit          2D

 15 15  0  0  0  0  0  0  0  0999 V2000
   -2.7831   -1.9835    0.0000 N   0  0  0  0  0  0  0  0  0  0  0  0
   -2.7742   -0.4835    0.0000 C   0  0  0  0  0  0  0  0  0  0  0  0
   -1.4707    0.2588    0.0000 C   0  0  0  0  0  0  0  0  0  0  0  0
   -0.1762   -0.4990    0.0000 C   0  0  0  0  0  0  0  0  0  0  0  0
    1.1273    0.2433    0.0000 C   0  0  0  0  0  0  0  0  0  0  0  0
    1.1362    1.7433    0.0000 C   0  0  0  0  0  0  0  0  0  0  0  0
    2.4397    2.4855    0.0000 C   0  0  0  0  0  0  0  0  0  0  0  0
    3.7343    1.7278    0.0000 N   0  0  0  0  0  0  0  0  0  0  0  0
    3.7253    0.2278    0.0000 C   0  0  0  0  0  0  0  0  0  0  0  0
    2.4219   -0.5144    0.0000 C   0  0  0  0  0  0  0  0  0  0  0  0
    2.4129   -2.0144    0.0000 O   0  0  0  0  0  0  0  0  0  0  0  0
    3.7075   -2.7721    0.0000 C   0  0  0  0  0  0  0  0  0  0  0  0
   -4.0688    0.2742    0.0000 C   0  0  0  0  0  0  0  0  0  0  0  0
   -4.0598    1.7742    0.0000 O   0  0  0  0  0  0  0  0  0  0  0  0
   -5.3722   -0.4680    0.0000 O   0  0  0  0  0  0  0  0  0  0  0  0
  2  1  1  6
  2  3  1  0
  3  4  1  0
  4  5  1  0
  5  6  1  0
  6  7  2  0
  7  8  1  0
  8  9  2  0
  9 10  1  0
 10 11  1  0
 11 12  1  0
  2 13  1  0
 13 14  2  0
 13 15  1  0
 10  5  2  0
M  END
>  <rName>  (636) 
Abu_pyrid4yl_3OMe

>  <PQ_SYMBOL>  (636) 
Abu_pyrid4yl_3OMe

>  <FULL_NAME>  (636) 
Abu(pyrid-4-yl(3-OMe))

>  <IUPAC_CONDENSED>  (636) 
Abu(pyrid-4-yl(3-OMe))

>  <IUPAC>  (636) 
(2S)-2-amino-4-(3-methoxypyridin-4-yl)butanoic acid

>  <TYPE>  (636) 
Backbone

>  <CLASS>  (636) 
alpha

>  <ANALOG>  (636) 
Phe

>  <MOL_WT>  (636) 
210.23299999999998

>  <LOGP>  (636) 
0.4346999999999996

>  <TPSA>  (636) 
85.44000000000001

>  <POPULARITY>  (636) 
2.2

>  <PROTECTED>  (636) 
TRUE

>  <SMILES>  (636) 
N[C@@H](CCc1(ccncc1OC))C(=O)O

>  <INCHIKEY>  (636) 
FVOGZHOGGBQXKZ-QMMMGPOBSA-N

$$$$
Abu_pyrimid4yl
     RDKit          2D

 13 13  0  0  0  0  0  0  0  0999 V2000
   -2.6715   -1.9340    0.0000 N   0  0  0  0  0  0  0  0  0  0  0  0
   -2.4130   -0.4565    0.0000 C   0  0  0  0  0  0  0  0  0  0  0  0
   -1.0042    0.0585    0.0000 C   0  0  0  0  0  0  0  0  0  0  0  0
    0.1462   -0.9041    0.0000 C   0  0  0  0  0  0  0  0  0  0  0  0
    1.5550   -0.3891    0.0000 C   0  0  0  0  0  0  0  0  0  0  0  0
    1.8135    1.0885    0.0000 C   0  0  0  0  0  0  0  0  0  0  0  0
    3.2223    1.6034    0.0000 C   0  0  0  0  0  0  0  0  0  0  0  0
    4.3727    0.6408    0.0000 N   0  0  0  0  0  0  0  0  0  0  0  0
    4.1143   -0.8367    0.0000 C   0  0  0  0  0  0  0  0  0  0  0  0
    2.7054   -1.3517    0.0000 N   0  0  0  0  0  0  0  0  0  0  0  0
   -3.5634    0.5061    0.0000 C   0  0  0  0  0  0  0  0  0  0  0  0
   -3.3050    1.9837    0.0000 O   0  0  0  0  0  0  0  0  0  0  0  0
   -4.9723   -0.0089    0.0000 O   0  0  0  0  0  0  0  0  0  0  0  0
  2  1  1  6
  2  3  1  0
  3  4  1  0
  4  5  1  0
  5  6  1  0
  6  7  2  0
  7  8  1  0
  8  9  2  0
  9 10  1  0
  2 11  1  0
 11 12  2  0
 11 13  1  0
 10  5  2  0
M  END
>  <rName>  (637) 
Abu_pyrimid4yl

>  <PQ_SYMBOL>  (637) 
Abu_pyrimid4yl

>  <FULL_NAME>  (637) 
N[C@@H](CCc1ccncn1)C(=O)O

>  <IUPAC_CONDENSED>  (637) 
Abu(pyrimid-4-yl)

>  <IUPAC>  (637) 
(2S)-2-amino-4-(pyrimidin-4-yl)butanoic acid

>  <TYPE>  (637) 
Backbone

>  <CLASS>  (637) 
alpha

>  <ANALOG>  (637) 
Phe

>  <MOL_WT>  (637) 
181.19499999999996

>  <LOGP>  (637) 
-0.17890000000000011

>  <TPSA>  (637) 
89.10000000000001

>  <POPULARITY>  (637) 
3.1

>  <PROTECTED>  (637) 
TRUE

>  <SMILES>  (637) 
N[C@@H](CCc1(ccncn1))C(=O)O

>  <INCHIKEY>  (637) 
OUVVNKJDSQAXCO-ZETCQYMHSA-N

$$$$
Abu_quinolin2yl
     RDKit          2D

 17 18  0  0  0  0  0  0  0  0999 V2000
   -4.3221   -1.6475    0.0000 N   0  0  0  0  0  0  0  0  0  0  0  0
   -3.7479   -0.2617    0.0000 C   0  0  0  0  0  0  0  0  0  0  0  0
   -2.2607   -0.0661    0.0000 C   0  0  0  0  0  0  0  0  0  0  0  0
   -1.3477   -1.2563    0.0000 C   0  0  0  0  0  0  0  0  0  0  0  0
    0.1395   -1.0607    0.0000 C   0  0  0  0  0  0  0  0  0  0  0  0
    1.0525   -2.2508    0.0000 C   0  0  0  0  0  0  0  0  0  0  0  0
    2.5397   -2.0552    0.0000 C   0  0  0  0  0  0  0  0  0  0  0  0
    3.1139   -0.6695    0.0000 C   0  0  0  0  0  0  0  0  0  0  0  0
    4.6011   -0.4739    0.0000 C   0  0  0  0  0  0  0  0  0  0  0  0
    5.1753    0.9119    0.0000 C   0  0  0  0  0  0  0  0  0  0  0  0
    4.2623    2.1020    0.0000 C   0  0  0  0  0  0  0  0  0  0  0  0
    2.7751    1.9064    0.0000 C   0  0  0  0  0  0  0  0  0  0  0  0
    2.2009    0.5207    0.0000 C   0  0  0  0  0  0  0  0  0  0  0  0
    0.7137    0.3251    0.0000 N   0  0  0  0  0  0  0  0  0  0  0  0
   -4.6609    0.9284    0.0000 C   0  0  0  0  0  0  0  0  0  0  0  0
   -4.0867    2.3142    0.0000 O   0  0  0  0  0  0  0  0  0  0  0  0
   -6.1481    0.7328    0.0000 O   0  0  0  0  0  0  0  0  0  0  0  0
  2  1  1  6
  2  3  1  0
  3  4  1  0
  4  5  1  0
  5  6  1  0
  6  7  2  0
  7  8  1  0
  8  9  2  0
  9 10  1  0
 10 11  2  0
 11 12  1  0
 12 13  2  0
 13 14  1  0
  2 15  1  0
 15 16  2  0
 15 17  1  0
 13  8  1  0
 14  5  2  0
M  END
>  <rName>  (638) 
Abu_quinolin2yl

>  <PQ_SYMBOL>  (638) 
Abu_quinolin2yl

>  <FULL_NAME>  (638) 
Abu(quinolin-2-yl)

>  <IUPAC_CONDENSED>  (638) 
Abu(quinolin-2-yl)

>  <IUPAC>  (638) 
(2S)-2-amino-4-(2-azabicyclo[4.4.0]deca-1,3,5,7,9-pentaen-3-yl)butanoic acid

>  <TYPE>  (638) 
Backbone

>  <CLASS>  (638) 
alpha

>  <ANALOG>  (638) 
Phe

>  <MOL_WT>  (638) 
230.267

>  <LOGP>  (638) 
1.5793

>  <TPSA>  (638) 
76.21

>  <POPULARITY>  (638) 
2.2

>  <PROTECTED>  (638) 
TRUE

>  <SMILES>  (638) 
N[C@@H](CCc2(ccc1(ccccc1n2)))C(=O)O

>  <INCHIKEY>  (638) 
DLCCLDVWEOZKMD-NSHDSACASA-N

$$$$
Abu_quinolin3yl
     RDKit          2D

 17 18  0  0  0  0  0  0  0  0999 V2000
   -4.3221   -1.6475    0.0000 N   0  0  0  0  0  0  0  0  0  0  0  0
   -3.7479   -0.2617    0.0000 C   0  0  0  0  0  0  0  0  0  0  0  0
   -2.2607   -0.0661    0.0000 C   0  0  0  0  0  0  0  0  0  0  0  0
   -1.3477   -1.2563    0.0000 C   0  0  0  0  0  0  0  0  0  0  0  0
    0.1395   -1.0607    0.0000 C   0  0  0  0  0  0  0  0  0  0  0  0
    1.0525   -2.2508    0.0000 C   0  0  0  0  0  0  0  0  0  0  0  0
    2.5397   -2.0552    0.0000 N   0  0  0  0  0  0  0  0  0  0  0  0
    3.1139   -0.6695    0.0000 C   0  0  0  0  0  0  0  0  0  0  0  0
    4.6011   -0.4739    0.0000 C   0  0  0  0  0  0  0  0  0  0  0  0
    5.1753    0.9119    0.0000 C   0  0  0  0  0  0  0  0  0  0  0  0
    4.2623    2.1020    0.0000 C   0  0  0  0  0  0  0  0  0  0  0  0
    2.7751    1.9064    0.0000 C   0  0  0  0  0  0  0  0  0  0  0  0
    2.2009    0.5207    0.0000 C   0  0  0  0  0  0  0  0  0  0  0  0
    0.7137    0.3251    0.0000 C   0  0  0  0  0  0  0  0  0  0  0  0
   -4.6609    0.9284    0.0000 C   0  0  0  0  0  0  0  0  0  0  0  0
   -4.0867    2.3142    0.0000 O   0  0  0  0  0  0  0  0  0  0  0  0
   -6.1481    0.7328    0.0000 O   0  0  0  0  0  0  0  0  0  0  0  0
  2  1  1  6
  2  3  1  0
  3  4  1  0
  4  5  1  0
  5  6  1  0
  6  7  2  0
  7  8  1  0
  8  9  2  0
  9 10  1  0
 10 11  2  0
 11 12  1  0
 12 13  2  0
 13 14  1  0
  2 15  1  0
 15 16  2  0
 15 17  1  0
 13  8  1  0
 14  5  2  0
M  END
>  <rName>  (639) 
Abu_quinolin3yl

>  <PQ_SYMBOL>  (639) 
Abu_quinolin3yl

>  <FULL_NAME>  (639) 
Abu(quinolin-3-yl)

>  <IUPAC_CONDENSED>  (639) 
Abu(quinolin-3-yl)

>  <IUPAC>  (639) 
(2S)-2-amino-4-(2-azabicyclo[4.4.0]deca-1,3,5,7,9-pentaen-4-yl)butanoic acid

>  <TYPE>  (639) 
Backbone

>  <CLASS>  (639) 
alpha

>  <ANALOG>  (639) 
Phe

>  <MOL_WT>  (639) 
230.267

>  <LOGP>  (639) 
1.5793

>  <TPSA>  (639) 
76.21

>  <POPULARITY>  (639) 
2.2

>  <PROTECTED>  (639) 
TRUE

>  <SMILES>  (639) 
N[C@@H](CCc2(cnc1(ccccc1c2)))C(=O)O

>  <INCHIKEY>  (639) 
GCMTZTHTCVOVLV-NSHDSACASA-N

$$$$
Abu_tetrahydropyran4yl
     RDKit          2D

 13 13  0  0  0  0  0  0  0  0999 V2000
   -2.6715   -1.9340    0.0000 N   0  0  0  0  0  0  0  0  0  0  0  0
   -2.4130   -0.4565    0.0000 C   0  0  0  0  0  0  0  0  0  0  0  0
   -1.0042    0.0585    0.0000 C   0  0  0  0  0  0  0  0  0  0  0  0
    0.1462   -0.9041    0.0000 C   0  0  0  0  0  0  0  0  0  0  0  0
    1.5550   -0.3891    0.0000 C   0  0  0  0  0  0  0  0  0  0  0  0
    1.8135    1.0885    0.0000 C   0  0  0  0  0  0  0  0  0  0  0  0
    3.2223    1.6034    0.0000 C   0  0  0  0  0  0  0  0  0  0  0  0
    4.3727    0.6408    0.0000 O   0  0  0  0  0  0  0  0  0  0  0  0
    4.1143   -0.8367    0.0000 C   0  0  0  0  0  0  0  0  0  0  0  0
    2.7054   -1.3517    0.0000 C   0  0  0  0  0  0  0  0  0  0  0  0
   -3.5634    0.5061    0.0000 C   0  0  0  0  0  0  0  0  0  0  0  0
   -3.3050    1.9837    0.0000 O   0  0  0  0  0  0  0  0  0  0  0  0
   -4.9723   -0.0089    0.0000 O   0  0  0  0  0  0  0  0  0  0  0  0
  2  1  1  6
  2  3  1  0
  3  4  1  0
  4  5  1  0
  5  6  1  0
  6  7  1  0
  7  8  1  0
  8  9  1  0
  9 10  1  0
  2 11  1  0
 11 12  2  0
 11 13  1  0
 10  5  1  0
M  END
>  <rName>  (640) 
Abu_tetrahydropyran4yl

>  <PQ_SYMBOL>  (640) 
Abu_tetrahydropyran4yl

>  <FULL_NAME>  (640) 
(2S)-2-amino-4-(oxan-4-yl)butanoic acid

>  <IUPAC_CONDENSED>  (640) 
Abu(tetrahydropyran-4-yl)

>  <IUPAC>  (640) 
(2S)-2-amino-4-(oxan-4-yl)butanoic acid

>  <TYPE>  (640) 
Backbone

>  <CLASS>  (640) 
alpha

>  <ANALOG>  (640) 
X

>  <MOL_WT>  (640) 
187.23899999999998

>  <LOGP>  (640) 
0.6050999999999997

>  <TPSA>  (640) 
72.55

>  <POPULARITY>  (640) 
2.2

>  <PROTECTED>  (640) 
TRUE

>  <SMILES>  (640) 
N[C@@H](CCC1(CCOCC1))C(=O)O

>  <INCHIKEY>  (640) 
RLGSXGFIKYTMPV-QMMMGPOBSA-N

$$$$
Abu_tetrazol5yl
     RDKit          2D

 12 12  0  0  0  0  0  0  0  0999 V2000
   -2.2999   -1.9362    0.0000 N   0  0  0  0  0  0  0  0  0  0  0  0
   -2.0700   -0.4539    0.0000 C   0  0  0  0  0  0  0  0  0  0  0  0
   -0.6714    0.0881    0.0000 C   0  0  0  0  0  0  0  0  0  0  0  0
    0.4974   -0.8521    0.0000 C   0  0  0  0  0  0  0  0  0  0  0  0
    1.8960   -0.3101    0.0000 C   0  0  0  0  0  0  0  0  0  0  0  0
    3.1566   -1.1230    0.0000 N   0  0  0  0  0  0  0  0  0  0  0  0
    4.3193   -0.1753    0.0000 N   0  0  0  0  0  0  0  0  0  0  0  0
    3.7773    1.2234    0.0000 N   0  0  0  0  0  0  0  0  0  0  0  0
    2.2796    1.1400    0.0000 N   0  0  0  0  0  0  0  0  0  0  0  0
   -3.2387    0.4863    0.0000 C   0  0  0  0  0  0  0  0  0  0  0  0
   -3.0088    1.9686    0.0000 O   0  0  0  0  0  0  0  0  0  0  0  0
   -4.6374   -0.0557    0.0000 O   0  0  0  0  0  0  0  0  0  0  0  0
  2  1  1  6
  2  3  1  0
  3  4  1  0
  4  5  1  0
  5  6  2  0
  6  7  1  0
  7  8  2  0
  8  9  1  0
  2 10  1  0
 10 11  2  0
 10 12  1  0
  9  5  1  0
M  END
>  <rName>  (641) 
Abu_tetrazol5yl

>  <PQ_SYMBOL>  (641) 
Abu_tetrazol5yl

>  <FULL_NAME>  (641) 
(2S)-2-amino-4-(2H-tetrazol-5-yl)butanoic acid

>  <IUPAC_CONDENSED>  (641) 
Abu(tetrazol-5-yl)

>  <IUPAC>  (641) 
(2S)-2-amino-4-(1H-tetrazol-5-yl)butanoic acid

>  <TYPE>  (641) 
Backbone

>  <CLASS>  (641) 
alpha

>  <ANALOG>  (641) 
Phe

>  <MOL_WT>  (641) 
171.16000000000003

>  <LOGP>  (641) 
-1.4558000000000002

>  <TPSA>  (641) 
117.77999999999999

>  <POPULARITY>  (641) 
11.2

>  <PROTECTED>  (641) 
TRUE

>  <SMILES>  (641) 
N[C@@H](CCc1(nnn[nH]1))C(=O)O

>  <INCHIKEY>  (641) 
DXFDIQNGJWQJGA-VKHMYHEASA-N

$$$$
Abu_thiazol5yl_2Me
     RDKit          2D

 13 13  0  0  0  0  0  0  0  0999 V2000
   -2.8522   -1.8516    0.0000 N   0  0  0  0  0  0  0  0  0  0  0  0
   -2.4754   -0.3997    0.0000 C   0  0  0  0  0  0  0  0  0  0  0  0
   -1.0296   -0.0001    0.0000 C   0  0  0  0  0  0  0  0  0  0  0  0
    0.0393   -1.0524    0.0000 C   0  0  0  0  0  0  0  0  0  0  0  0
    1.4851   -0.6528    0.0000 C   0  0  0  0  0  0  0  0  0  0  0  0
    2.6582   -1.5876    0.0000 C   0  0  0  0  0  0  0  0  0  0  0  0
    3.9098   -0.7608    0.0000 N   0  0  0  0  0  0  0  0  0  0  0  0
    3.5102    0.6850    0.0000 C   0  0  0  0  0  0  0  0  0  0  0  0
    4.4450    1.8581    0.0000 C   0  0  0  0  0  0  0  0  0  0  0  0
    2.0117    0.7518    0.0000 S   0  0  0  0  0  0  0  0  0  0  0  0
   -3.5444    0.6526    0.0000 C   0  0  0  0  0  0  0  0  0  0  0  0
   -3.1675    2.1045    0.0000 O   0  0  0  0  0  0  0  0  0  0  0  0
   -4.9902    0.2530    0.0000 O   0  0  0  0  0  0  0  0  0  0  0  0
  2  1  1  6
  2  3  1  0
  3  4  1  0
  4  5  1  0
  5  6  2  0
  6  7  1  0
  7  8  2  0
  8  9  1  0
  8 10  1  0
  2 11  1  0
 11 12  2  0
 11 13  1  0
 10  5  1  0
M  END
>  <rName>  (642) 
Abu_thiazol5yl_2Me

>  <PQ_SYMBOL>  (642) 
Abu_thiazol5yl_2Me

>  <FULL_NAME>  (642) 
Cc1ncc(CC[C@H](N)C(=O)O)s1

>  <IUPAC_CONDENSED>  (642) 
Abu(thiazol-5-yl(2-Me))

>  <IUPAC>  (642) 
(2S)-2-amino-4-(2-methylthiazol-5-yl)butanoic acid

>  <TYPE>  (642) 
Backbone

>  <CLASS>  (642) 
alpha

>  <ANALOG>  (642) 
Phe

>  <MOL_WT>  (642) 
200.26299999999998

>  <LOGP>  (642) 
0.7960199999999997

>  <TPSA>  (642) 
76.21

>  <POPULARITY>  (642) 
4.0

>  <PROTECTED>  (642) 
TRUE

>  <SMILES>  (642) 
N[C@@H](CCc1(cnc(C)s1))C(=O)O

>  <INCHIKEY>  (642) 
LUJWPZIEQORZNT-ZETCQYMHSA-N

$$$$
Abu_vinyl
     RDKit          2D

  9  8  0  0  0  0  0  0  0  0999 V2000
    0.7616   -1.8791    0.0000 N   0  0  0  0  0  0  0  0  0  0  0  0
    0.8459   -0.3815    0.0000 C   0  0  0  0  0  0  0  0  0  0  0  0
   -0.4089    0.4403    0.0000 C   0  0  0  0  0  0  0  0  0  0  0  0
   -1.7480   -0.2354    0.0000 C   0  0  0  0  0  0  0  0  0  0  0  0
   -3.0029    0.5864    0.0000 C   0  0  0  0  0  0  0  0  0  0  0  0
   -4.3420   -0.0894    0.0000 C   0  0  0  0  0  0  0  0  0  0  0  0
    2.1851    0.2943    0.0000 C   0  0  0  0  0  0  0  0  0  0  0  0
    2.2694    1.7919    0.0000 O   0  0  0  0  0  0  0  0  0  0  0  0
    3.4399   -0.5275    0.0000 O   0  0  0  0  0  0  0  0  0  0  0  0
  2  1  1  1
  2  3  1  0
  3  4  1  0
  4  5  1  0
  5  6  2  0
  2  7  1  0
  7  8  2  0
  7  9  1  0
M  END
>  <rName>  (643) 
Abu_vinyl

>  <PQ_SYMBOL>  (643) 
Abu_vinyl

>  <FULL_NAME>  (643) 
(S)-2-aminohex-5-enoic acid

>  <IUPAC_CONDENSED>  (643) 
Abu(vinyl)

>  <IUPAC>  (643) 
(2S)-2-aminohex-5-enoic acid

>  <TYPE>  (643) 
Backbone

>  <CLASS>  (643) 
alpha

>  <ANALOG>  (643) 
Leu

>  <MOL_WT>  (643) 
129.159

>  <LOGP>  (643) 
0.3645

>  <TPSA>  (643) 
63.32000000000001

>  <POPULARITY>  (643) 
13.5

>  <PROTECTED>  (643) 
TRUE

>  <SMILES>  (643) 
N[C@@H](CCC=C)C(=O)O

>  <INCHIKEY>  (643) 
NPSWHDAHNWWMEG-YFKPBYRVSA-N

$$$$
Ac
     RDKit          2D

  4  3  0  0  0  0  0  0  0  0999 V2000
    0.0000    1.5000    0.0000 O   0  0  0  0  0  0  0  0  0  0  0  0
    0.0000    0.0000    0.0000 C   0  0  0  0  0  0  0  0  0  0  0  0
   -1.2990   -0.7500    0.0000 C   0  0  0  0  0  0  0  0  0  0  0  0
    1.2990   -0.7500    0.0000 O   0  0  0  0  0  0  0  0  0  0  0  0
  1  2  2  0
  2  3  1  0
  2  4  1  0
M  END
>  <rName>  (644) 
Ac

>  <PQ_SYMBOL>  (644) 
Ac

>  <FULL_NAME>  (644) 
Acetyl, acetic acid

>  <IUPAC_CONDENSED>  (644) 
Ac

>  <IUPAC>  (644) 
acetic acid

>  <TYPE>  (644) 
N-term cap

>  <CLASS>  (644) 
n_cap

>  <ANALOG>  (644) 
X

>  <MOL_WT>  (644) 
60.05200000000001

>  <LOGP>  (644) 
0.09089999999999993

>  <TPSA>  (644) 
37.3

>  <POPULARITY>  (644) 
25.0

>  <PROTECTED>  (644) 
FALSE

>  <SMILES>  (644) 
O=C(C)O

>  <INCHIKEY>  (644) 
QTBSBXVTEAMEQO-UHFFFAOYSA-N

$$$$
Ac-D-Pro
     RDKit          2D

 11 11  0  0  0  0  0  0  0  0999 V2000
   -1.0216   -2.1705    0.0000 O   0  0  0  0  0  0  0  0  0  0  0  0
   -1.6317   -0.8002    0.0000 C   0  0  0  0  0  0  0  0  0  0  0  0
   -3.1235   -0.6434    0.0000 C   0  0  0  0  0  0  0  0  0  0  0  0
   -0.7500    0.4133    0.0000 N   0  0  0  0  0  0  0  0  0  0  0  0
    0.7500    0.4133    0.0000 C   0  0  0  0  0  0  0  0  0  0  0  0
    1.2135    1.8399    0.0000 C   0  0  0  0  0  0  0  0  0  0  0  0
   -0.0000    2.7216    0.0000 C   0  0  0  0  0  0  0  0  0  0  0  0
   -1.2135    1.8399    0.0000 C   0  0  0  0  0  0  0  0  0  0  0  0
    1.6317   -0.8002    0.0000 C   0  0  0  0  0  0  0  0  0  0  0  0
    3.1235   -0.6434    0.0000 O   0  0  0  0  0  0  0  0  0  0  0  0
    1.0216   -2.1705    0.0000 O   0  0  0  0  0  0  0  0  0  0  0  0
  1  2  2  0
  2  3  1  0
  2  4  1  0
  4  5  1  0
  5  6  1  0
  6  7  1  0
  7  8  1  0
  5  9  1  6
  9 10  2  0
  9 11  1  0
  8  4  1  0
M  END
>  <rName>  (645) 
Ac-D-Pro

>  <PQ_SYMBOL>  (645) 
Ac-D-Pro

>  <FULL_NAME>  (645) 
N-ACETYL-D-PROLINE

>  <IUPAC_CONDENSED>  (645) 
Ac-D-Pro

>  <IUPAC>  (645) 
(2R)-1-(acetyl)pyrrolidine-2-carboxylic acid

>  <TYPE>  (645) 
N-term cap

>  <CLASS>  (645) 
n_cap

>  <ANALOG>  (645) 
X

>  <MOL_WT>  (645) 
157.169

>  <LOGP>  (645) 
0.08190000000000003

>  <TPSA>  (645) 
57.61

>  <POPULARITY>  (645) 
12.3

>  <PROTECTED>  (645) 
FALSE

>  <SMILES>  (645) 
O=C(C)N1[C@H](CCC1)C(=O)O

>  <INCHIKEY>  (645) 
GNMSLDIYJOSUSW-ZCFIWIBFSA-N

$$$$
Ac-Glu_OPO3H2
     RDKit          2D

 17 16  0  0  0  0  0  0  0  0999 V2000
   -4.3375   -0.7418    0.0000 O   0  0  0  0  0  0  0  0  0  0  0  0
   -4.1796    0.7498    0.0000 P   0  0  0  0  0  0  0  0  0  0  0  0
   -4.0217    2.2415    0.0000 O   0  0  0  0  0  0  0  0  0  0  0  0
   -5.6712    0.9078    0.0000 O   0  0  0  0  0  0  0  0  0  0  0  0
   -2.6879    0.5919    0.0000 O   0  0  0  0  0  0  0  0  0  0  0  0
   -2.0788   -0.7789    0.0000 C   0  0  0  0  0  0  0  0  0  0  0  0
   -2.9614   -1.9917    0.0000 O   0  0  0  0  0  0  0  0  0  0  0  0
   -0.5872   -0.9368    0.0000 C   0  0  0  0  0  0  0  0  0  0  0  0
    0.2954    0.2761    0.0000 C   0  0  0  0  0  0  0  0  0  0  0  0
    1.7871    0.1182    0.0000 C   0  0  0  0  0  0  0  0  0  0  0  0
    2.6697    1.3310    0.0000 N   0  0  0  0  0  0  0  0  0  0  0  0
    4.1613    1.1731    0.0000 C   0  0  0  0  0  0  0  0  0  0  0  0
    4.7704   -0.1977    0.0000 O   0  0  0  0  0  0  0  0  0  0  0  0
    5.0439    2.3860    0.0000 C   0  0  0  0  0  0  0  0  0  0  0  0
    2.3961   -1.2526    0.0000 C   0  0  0  0  0  0  0  0  0  0  0  0
    3.8878   -1.4105    0.0000 O   0  0  0  0  0  0  0  0  0  0  0  0
    1.5136   -2.4655    0.0000 O   0  0  0  0  0  0  0  0  0  0  0  0
  1  2  1  0
  2  3  2  0
  2  4  1  0
  2  5  1  0
  5  6  1  0
  6  7  2  0
  6  8  1  0
  8  9  1  0
 10  9  1  6
 10 11  1  0
 11 12  1  0
 12 13  2  0
 12 14  1  0
 10 15  1  0
 15 16  2  0
 15 17  1  0
M  END
>  <rName>  (646) 
Ac-Glu_OPO3H2

>  <PQ_SYMBOL>  (646) 
Ac-Glu_OPO3H2

>  <FULL_NAME>  (646) 
N-ACETYL-L-GLUTAMYL 5-PHOSPHATE

>  <IUPAC_CONDENSED>  (646) 
Ac-Glu(OPO3H2)

>  <IUPAC>  (646) 
(4S)-5-hydroxy-4-methylcarbonylamino-1,5-dioxopentyl dihydrogen phosphate

>  <TYPE>  (646) 
N-term cap

>  <CLASS>  (646) 
n_cap

>  <ANALOG>  (646) 
X

>  <MOL_WT>  (646) 
269.14599999999996

>  <LOGP>  (646) 
-1.0081999999999995

>  <TPSA>  (646) 
150.23

>  <POPULARITY>  (646) 
5.3

>  <PROTECTED>  (646) 
FALSE

>  <SMILES>  (646) 
OP(=O)(O)OC(=O)CC[C@H](NC(=O)C)C(=O)O

>  <INCHIKEY>  (646) 
FCVIHFVSXHOPSW-YFKPBYRVSA-N

$$$$
Ac-Hyp_hexyl
     RDKit          2D

 18 18  0  0  0  0  0  0  0  0999 V2000
   -8.6263    0.2433    0.0000 C   0  0  0  0  0  0  0  0  0  0  0  0
   -7.2076    0.7303    0.0000 C   0  0  0  0  0  0  0  0  0  0  0  0
   -6.0764   -0.2548    0.0000 C   0  0  0  0  0  0  0  0  0  0  0  0
   -4.6577    0.2323    0.0000 C   0  0  0  0  0  0  0  0  0  0  0  0
   -3.5265   -0.7529    0.0000 C   0  0  0  0  0  0  0  0  0  0  0  0
   -2.1078   -0.2658    0.0000 C   0  0  0  0  0  0  0  0  0  0  0  0
   -0.9766   -1.2509    0.0000 O   0  0  0  0  0  0  0  0  0  0  0  0
    0.4421   -0.7639    0.0000 C   0  0  0  0  0  0  0  0  0  0  0  0
    1.6701   -1.6253    0.0000 C   0  0  0  0  0  0  0  0  0  0  0  0
    2.8688   -0.7237    0.0000 C   0  0  0  0  0  0  0  0  0  0  0  0
    2.3818    0.6950    0.0000 N   0  0  0  0  0  0  0  0  0  0  0  0
    0.8820    0.6702    0.0000 C   0  0  0  0  0  0  0  0  0  0  0  0
    3.2433    1.9230    0.0000 C   0  0  0  0  0  0  0  0  0  0  0  0
    4.7374    1.7909    0.0000 O   0  0  0  0  0  0  0  0  0  0  0  0
    2.6106    3.2830    0.0000 C   0  0  0  0  0  0  0  0  0  0  0  0
    4.3029   -1.1636    0.0000 C   0  0  0  0  0  0  0  0  0  0  0  0
    5.4009   -0.1416    0.0000 O   0  0  0  0  0  0  0  0  0  0  0  0
    4.6390   -2.6254    0.0000 O   0  0  0  0  0  0  0  0  0  0  0  0
  1  2  1  0
  2  3  1  0
  3  4  1  0
  4  5  1  0
  5  6  1  0
  6  7  1  0
  8  7  1  1
  8  9  1  0
  9 10  1  0
 10 11  1  0
 11 12  1  0
 11 13  1  0
 13 14  2  0
 13 15  1  0
 10 16  1  6
 16 17  2  0
 16 18  1  0
 12  8  1  0
M  END
>  <rName>  (647) 
Ac-Hyp_hexyl

>  <PQ_SYMBOL>  (647) 
Ac-Hyp_hexyl

>  <FULL_NAME>  (647) 
(4R)-1-acetyl-4-(hexyloxy)-L-proline

>  <IUPAC_CONDENSED>  (647) 
Ac-Hyp(hexyl)

>  <IUPAC>  (647) 
(2S,4R)-1-(acetyl)-4-(hexyloxy)pyrrolidine-2-carboxylic acid

>  <TYPE>  (647) 
N-term cap

>  <CLASS>  (647) 
n_cap

>  <ANALOG>  (647) 
X

>  <MOL_WT>  (647) 
257.3299999999999

>  <LOGP>  (647) 
1.6573000000000002

>  <TPSA>  (647) 
66.84

>  <POPULARITY>  (647) 
5.8

>  <PROTECTED>  (647) 
FALSE

>  <SMILES>  (647) 
CCCCCCO[C@@H]1C[C@H](N(C1)C(=O)C)C(=O)O

>  <INCHIKEY>  (647) 
BVWGMAOUTMUKFR-NEPJUHHUSA-N

$$$$
Ac-Hyp_oct7enyl
     RDKit          2D

 20 20  0  0  0  0  0  0  0  0999 V2000
  -10.1463    0.2684    0.0000 C   0  0  0  0  0  0  0  0  0  0  0  0
   -8.7465    0.8076    0.0000 C   0  0  0  0  0  0  0  0  0  0  0  0
   -7.5798   -0.1351    0.0000 C   0  0  0  0  0  0  0  0  0  0  0  0
   -6.1800    0.4040    0.0000 C   0  0  0  0  0  0  0  0  0  0  0  0
   -5.0132   -0.5387    0.0000 C   0  0  0  0  0  0  0  0  0  0  0  0
   -3.6135    0.0004    0.0000 C   0  0  0  0  0  0  0  0  0  0  0  0
   -2.4467   -0.9423    0.0000 C   0  0  0  0  0  0  0  0  0  0  0  0
   -1.0469   -0.4032    0.0000 C   0  0  0  0  0  0  0  0  0  0  0  0
    0.1198   -1.3459    0.0000 O   0  0  0  0  0  0  0  0  0  0  0  0
    1.5196   -0.8068    0.0000 C   0  0  0  0  0  0  0  0  0  0  0  0
    2.7785   -1.6224    0.0000 C   0  0  0  0  0  0  0  0  0  0  0  0
    3.9432   -0.6771    0.0000 C   0  0  0  0  0  0  0  0  0  0  0  0
    3.4041    0.7227    0.0000 N   0  0  0  0  0  0  0  0  0  0  0  0
    1.9062    0.6425    0.0000 C   0  0  0  0  0  0  0  0  0  0  0  0
    4.2197    1.9816    0.0000 C   0  0  0  0  0  0  0  0  0  0  0  0
    5.7177    1.9048    0.0000 O   0  0  0  0  0  0  0  0  0  0  0  0
    3.5372    3.3174    0.0000 C   0  0  0  0  0  0  0  0  0  0  0  0
    5.3925   -1.0637    0.0000 C   0  0  0  0  0  0  0  0  0  0  0  0
    6.4520   -0.0019    0.0000 O   0  0  0  0  0  0  0  0  0  0  0  0
    5.7824   -2.5122    0.0000 O   0  0  0  0  0  0  0  0  0  0  0  0
  1  2  2  0
  2  3  1  0
  3  4  1  0
  4  5  1  0
  5  6  1  0
  6  7  1  0
  7  8  1  0
  8  9  1  0
 10  9  1  1
 10 11  1  0
 11 12  1  0
 12 13  1  0
 13 14  1  0
 13 15  1  0
 15 16  2  0
 15 17  1  0
 12 18  1  6
 18 19  2  0
 18 20  1  0
 14 10  1  0
M  END
>  <rName>  (648) 
Ac-Hyp_oct7enyl

>  <PQ_SYMBOL>  (648) 
Ac-Hyp_oct7enyl

>  <FULL_NAME>  (648) 
(4R)-1-acetyl-4-(oct-7-en-1-yloxy)-L-proline

>  <IUPAC_CONDENSED>  (648) 
Ac-Hyp(oct-7-enyl)

>  <IUPAC>  (648) 
(2S,4R)-1-(acetyl)-4-((oct-7-en-1-yl)oxy)pyrrolidine-2-carboxylic acid

>  <TYPE>  (648) 
N-term cap

>  <CLASS>  (648) 
n_cap

>  <ANALOG>  (648) 
X

>  <MOL_WT>  (648) 
283.368

>  <LOGP>  (648) 
2.2135

>  <TPSA>  (648) 
66.84

>  <POPULARITY>  (648) 
4.6

>  <PROTECTED>  (648) 
FALSE

>  <SMILES>  (648) 
C=CCCCCCCO[C@@H]1C[C@H](N(C1)C(=O)C)C(=O)O

>  <INCHIKEY>  (648) 
AGAQQODVIZZKQQ-KGLIPLIRSA-N

$$$$
Ac-Pip
     RDKit          2D

 12 12  0  0  0  0  0  0  0  0999 V2000
    2.8146   -0.7500    0.0000 C   0  0  0  0  0  0  0  0  0  0  0  0
    1.5155   -1.5000    0.0000 C   0  0  0  0  0  0  0  0  0  0  0  0
    0.2165   -0.7500    0.0000 N   0  0  0  0  0  0  0  0  0  0  0  0
   -1.0825   -1.5000    0.0000 C   0  0  0  0  0  0  0  0  0  0  0  0
   -2.3816   -0.7500    0.0000 O   0  0  0  0  0  0  0  0  0  0  0  0
   -1.0825   -3.0000    0.0000 C   0  0  0  0  0  0  0  0  0  0  0  0
    0.2165    0.7500    0.0000 C   0  0  0  0  0  0  0  0  0  0  0  0
    1.5155    1.5000    0.0000 C   0  0  0  0  0  0  0  0  0  0  0  0
    2.8146    0.7500    0.0000 C   0  0  0  0  0  0  0  0  0  0  0  0
   -1.0825    1.5000    0.0000 C   0  0  0  0  0  0  0  0  0  0  0  0
   -2.3816    0.7500    0.0000 O   0  0  0  0  0  0  0  0  0  0  0  0
   -1.0825    3.0000    0.0000 O   0  0  0  0  0  0  0  0  0  0  0  0
  1  2  1  0
  2  3  1  0
  3  4  1  0
  4  5  2  0
  4  6  1  0
  3  7  1  0
  7  8  1  0
  8  9  1  0
  7 10  1  6
 10 11  2  0
 10 12  1  0
  9  1  1  0
M  END
>  <rName>  (649) 
Ac-Pip

>  <PQ_SYMBOL>  (649) 
Ac-Pip

>  <FULL_NAME>  (649) 
1-ACETYL-2-CARBOXYPIPERIDINE

>  <IUPAC_CONDENSED>  (649) 
Ac-Pip

>  <IUPAC>  (649) 
(2S)-1-(acetyl)piperidine-2-carboxylic acid

>  <TYPE>  (649) 
N-term cap

>  <CLASS>  (649) 
n_cap

>  <ANALOG>  (649) 
X

>  <MOL_WT>  (649) 
171.19599999999997

>  <LOGP>  (649) 
0.4719999999999999

>  <TPSA>  (649) 
57.61

>  <POPULARITY>  (649) 
10.5

>  <PROTECTED>  (649) 
FALSE

>  <SMILES>  (649) 
C1CN(C(=O)C)[C@@H](CC1)C(=O)O

>  <INCHIKEY>  (649) 
JACZWLDAHFCGCC-ZETCQYMHSA-N

$$$$
Ac-Pro
     RDKit          2D

 11 11  0  0  0  0  0  0  0  0999 V2000
   -1.0216   -2.1705    0.0000 O   0  0  0  0  0  0  0  0  0  0  0  0
   -1.6317   -0.8002    0.0000 C   0  0  0  0  0  0  0  0  0  0  0  0
   -3.1235   -0.6434    0.0000 C   0  0  0  0  0  0  0  0  0  0  0  0
   -0.7500    0.4133    0.0000 N   0  0  0  0  0  0  0  0  0  0  0  0
    0.7500    0.4133    0.0000 C   0  0  0  0  0  0  0  0  0  0  0  0
    1.2135    1.8399    0.0000 C   0  0  0  0  0  0  0  0  0  0  0  0
   -0.0000    2.7216    0.0000 C   0  0  0  0  0  0  0  0  0  0  0  0
   -1.2135    1.8399    0.0000 C   0  0  0  0  0  0  0  0  0  0  0  0
    1.6317   -0.8002    0.0000 C   0  0  0  0  0  0  0  0  0  0  0  0
    3.1235   -0.6434    0.0000 O   0  0  0  0  0  0  0  0  0  0  0  0
    1.0216   -2.1705    0.0000 O   0  0  0  0  0  0  0  0  0  0  0  0
  1  2  2  0
  2  3  1  0
  2  4  1  0
  4  5  1  0
  5  6  1  0
  6  7  1  0
  7  8  1  0
  5  9  1  1
  9 10  2  0
  9 11  1  0
  8  4  1  0
M  END
>  <rName>  (650) 
Ac-Pro

>  <PQ_SYMBOL>  (650) 
Ac-Pro

>  <FULL_NAME>  (650) 
1-ACETYL-L-PROLINE

>  <IUPAC_CONDENSED>  (650) 
Ac-Pro

>  <IUPAC>  (650) 
(2S)-1-(acetyl)pyrrolidine-2-carboxylic acid

>  <TYPE>  (650) 
N-term cap

>  <CLASS>  (650) 
n_cap

>  <ANALOG>  (650) 
X

>  <MOL_WT>  (650) 
157.169

>  <LOGP>  (650) 
0.08190000000000003

>  <TPSA>  (650) 
57.61

>  <POPULARITY>  (650) 
25.7

>  <PROTECTED>  (650) 
FALSE

>  <SMILES>  (650) 
O=C(C)N1[C@@H](CCC1)C(=O)O

>  <INCHIKEY>  (650) 
GNMSLDIYJOSUSW-LURJTMIESA-N

$$$$
Ac-Thr
     RDKit          2D

 11 10  0  0  0  0  0  0  0  0999 V2000
    2.2541   -0.9714    0.0000 O   0  0  0  0  0  0  0  0  0  0  0  0
    2.0795    0.5184    0.0000 C   0  0  0  0  0  0  0  0  0  0  0  0
    3.2824    1.4145    0.0000 C   0  0  0  0  0  0  0  0  0  0  0  0
    0.7020    1.1120    0.0000 N   0  0  0  0  0  0  0  0  0  0  0  0
   -0.5009    0.2159    0.0000 C   0  0  0  0  0  0  0  0  0  0  0  0
   -1.8784    0.8095    0.0000 C   0  0  0  0  0  0  0  0  0  0  0  0
   -2.0531    2.2993    0.0000 O   0  0  0  0  0  0  0  0  0  0  0  0
   -3.0813   -0.0866    0.0000 C   0  0  0  0  0  0  0  0  0  0  0  0
   -0.3263   -1.2739    0.0000 C   0  0  0  0  0  0  0  0  0  0  0  0
    1.0513   -1.8676    0.0000 O   0  0  0  0  0  0  0  0  0  0  0  0
   -1.5291   -2.1701    0.0000 O   0  0  0  0  0  0  0  0  0  0  0  0
  1  2  2  0
  2  3  1  0
  2  4  1  0
  5  4  1  6
  5  6  1  0
  6  7  1  0
  6  8  1  1
  5  9  1  0
  9 10  2  0
  9 11  1  0
M  END
>  <rName>  (651) 
Ac-Thr

>  <PQ_SYMBOL>  (651) 
Ac-Thr

>  <FULL_NAME>  (651) 
N-METHYLCARBONYLTHREONINE

>  <IUPAC_CONDENSED>  (651) 
Ac-Thr

>  <IUPAC>  (651) 
(2S,3R)-3-hydroxy-2-methylcarbonylaminobutanoic acid

>  <TYPE>  (651) 
N-term cap

>  <CLASS>  (651) 
n_cap

>  <ANALOG>  (651) 
X

>  <MOL_WT>  (651) 
161.15699999999998

>  <LOGP>  (651) 
-1.0434999999999999

>  <TPSA>  (651) 
86.63000000000001

>  <POPULARITY>  (651) 
23.9

>  <PROTECTED>  (651) 
FALSE

>  <SMILES>  (651) 
O=C(C)N[C@@H]([C@H](O)C)C(=O)O

>  <INCHIKEY>  (651) 
PEDXUVCGOLSNLQ-WUJLRWPWSA-N

$$$$
Ac-Tyr
     RDKit          2D

 16 16  0  0  0  0  0  0  0  0999 V2000
   -5.2973   -1.0901    0.0000 O   0  0  0  0  0  0  0  0  0  0  0  0
   -3.9437   -0.4437    0.0000 C   0  0  0  0  0  0  0  0  0  0  0  0
   -3.8267    1.0517    0.0000 C   0  0  0  0  0  0  0  0  0  0  0  0
   -2.4731    1.6981    0.0000 C   0  0  0  0  0  0  0  0  0  0  0  0
   -1.2366    0.8491    0.0000 C   0  0  0  0  0  0  0  0  0  0  0  0
   -1.3536   -0.6464    0.0000 C   0  0  0  0  0  0  0  0  0  0  0  0
   -2.7072   -1.2928    0.0000 C   0  0  0  0  0  0  0  0  0  0  0  0
    0.1170    1.4954    0.0000 C   0  0  0  0  0  0  0  0  0  0  0  0
    1.3536    0.6464    0.0000 C   0  0  0  0  0  0  0  0  0  0  0  0
    1.2366   -0.8491    0.0000 N   0  0  0  0  0  0  0  0  0  0  0  0
    2.4731   -1.6981    0.0000 C   0  0  0  0  0  0  0  0  0  0  0  0
    3.8267   -1.0517    0.0000 O   0  0  0  0  0  0  0  0  0  0  0  0
    2.3561   -3.1935    0.0000 C   0  0  0  0  0  0  0  0  0  0  0  0
    2.7072    1.2928    0.0000 C   0  0  0  0  0  0  0  0  0  0  0  0
    2.8242    2.7882    0.0000 O   0  0  0  0  0  0  0  0  0  0  0  0
    3.9437    0.4437    0.0000 O   0  0  0  0  0  0  0  0  0  0  0  0
  1  2  1  0
  2  3  1  0
  3  4  2  0
  4  5  1  0
  5  6  2  0
  6  7  1  0
  5  8  1  0
  9  8  1  1
  9 10  1  0
 10 11  1  0
 11 12  2  0
 11 13  1  0
  9 14  1  0
 14 15  2  0
 14 16  1  0
  7  2  2  0
M  END
>  <rName>  (652) 
Ac-Tyr

>  <PQ_SYMBOL>  (652) 
Ac-Tyr

>  <FULL_NAME>  (652) 
N-acetyl-L-tyrosine

>  <IUPAC_CONDENSED>  (652) 
Ac-Tyr

>  <IUPAC>  (652) 
(2S)-3-(4-hydroxyphenyl)-2-methylcarbonylaminopropanoic acid

>  <TYPE>  (652) 
N-term cap

>  <CLASS>  (652) 
n_cap

>  <ANALOG>  (652) 
X

>  <MOL_WT>  (652) 
223.22799999999998

>  <LOGP>  (652) 
0.524

>  <TPSA>  (652) 
86.63000000000001

>  <POPULARITY>  (652) 
14.6

>  <PROTECTED>  (652) 
FALSE

>  <SMILES>  (652) 
Oc1ccc(cc1)C[C@H](NC(=O)C)C(=O)O

>  <INCHIKEY>  (652) 
CAHKINHBCWCHCF-JTQLQIEISA-N

$$$$
Ac3c
     RDKit          2D

  7  7  0  0  0  0  0  0  0  0999 V2000
   -0.4697   -1.7006    0.0000 N   0  0  0  0  0  0  0  0  0  0  0  0
   -0.5498   -0.2027    0.0000 C   0  0  0  0  0  0  0  0  0  0  0  0
   -1.1373    1.1774    0.0000 C   0  0  0  0  0  0  0  0  0  0  0  0
   -2.0388   -0.0215    0.0000 C   0  0  0  0  0  0  0  0  0  0  0  0
    0.9114    0.1362    0.0000 C   0  0  0  0  0  0  0  0  0  0  0  0
    1.3485    1.5711    0.0000 O   0  0  0  0  0  0  0  0  0  0  0  0
    1.9356   -0.9598    0.0000 O   0  0  0  0  0  0  0  0  0  0  0  0
  1  2  1  0
  2  3  1  0
  3  4  1  0
  2  5  1  0
  5  6  2  0
  5  7  1  0
  4  2  1  0
M  END
>  <rName>  (653) 
Ac3c

>  <PQ_SYMBOL>  (653) 
Ac3c

>  <FULL_NAME>  (653) 
1-aminocyclopropane-1-carboxylic acid

>  <IUPAC_CONDENSED>  (653) 
Ac3c

>  <IUPAC>  (653) 
1-aminocyclopropanecarboxylic acid

>  <TYPE>  (653) 
Backbone

>  <CLASS>  (653) 
alpha

>  <ANALOG>  (653) 
X

>  <MOL_WT>  (653) 
101.10499999999999

>  <LOGP>  (653) 
-0.43770000000000003

>  <TPSA>  (653) 
63.32000000000001

>  <POPULARITY>  (653) 
35.0

>  <PROTECTED>  (653) 
TRUE

>  <SMILES>  (653) 
NC1(CC1)C(=O)O

>  <INCHIKEY>  (653) 
PAJPWUMXBYXFCZ-UHFFFAOYSA-N

$$$$
Ac3c-Gly
     RDKit          2D

 11 11  0  0  0  0  0  0  0  0999 V2000
    0.4220   -0.2050    0.0000 N   0  0  0  0  0  0  0  0  0  0  0  0
   -0.9122    0.4806    0.0000 C   0  0  0  0  0  0  0  0  0  0  0  0
   -0.9856    1.9788    0.0000 O   0  0  0  0  0  0  0  0  0  0  0  0
   -2.1729   -0.3321    0.0000 C   0  0  0  0  0  0  0  0  0  0  0  0
   -1.5915   -1.7149    0.0000 N   0  0  0  0  0  0  0  0  0  0  0  0
   -3.1922    0.7684    0.0000 C   0  0  0  0  0  0  0  0  0  0  0  0
   -3.6356   -0.6646    0.0000 C   0  0  0  0  0  0  0  0  0  0  0  0
    1.6828    0.6077    0.0000 C   0  0  0  0  0  0  0  0  0  0  0  0
    3.0170   -0.0778    0.0000 C   0  0  0  0  0  0  0  0  0  0  0  0
    3.0904   -1.5760    0.0000 O   0  0  0  0  0  0  0  0  0  0  0  0
    4.2778    0.7349    0.0000 O   0  0  0  0  0  0  0  0  0  0  0  0
  1  2  1  0
  2  3  2  0
  2  4  1  0
  4  5  1  0
  4  6  1  0
  6  7  1  0
  1  8  1  0
  8  9  1  0
  9 10  2  0
  9 11  1  0
  7  4  1  0
M  END
>  <rName>  (654) 
Ac3c-Gly

>  <PQ_SYMBOL>  (654) 
Ac3c-Gly

>  <FULL_NAME>  (654) 
2-[(1-Aminocyclopropyl)formamido]acetic acid

>  <IUPAC_CONDENSED>  (654) 
Ac3c-Gly

>  <IUPAC>  (654) 
2-(1-aminocyclopropylcarbonylamino)acetic acid

>  <TYPE>  (654) 
Backbone

>  <CLASS>  (654) 
alpha

>  <ANALOG>  (654) 
Gly

>  <MOL_WT>  (654) 
158.157

>  <LOGP>  (654) 
-1.3215000000000003

>  <TPSA>  (654) 
92.42

>  <POPULARITY>  (654) 
6.1

>  <PROTECTED>  (654) 
TRUE

>  <SMILES>  (654) 
N(C(=O)C1(N)(CC1))CC(=O)O

>  <INCHIKEY>  (654) 
IHWOSPXXJKHTPE-UHFFFAOYSA-N

$$$$
Ac3c-OMe
     RDKit          2D

  8  8  0  0  0  0  0  0  0  0999 V2000
   -0.6842   -1.7222    0.0000 N   0  0  0  0  0  0  0  0  0  0  0  0
   -0.9510   -0.2461    0.0000 C   0  0  0  0  0  0  0  0  0  0  0  0
   -1.7066    1.0497    0.0000 C   0  0  0  0  0  0  0  0  0  0  0  0
   -2.4510   -0.2525    0.0000 C   0  0  0  0  0  0  0  0  0  0  0  0
    0.4563    0.2730    0.0000 C   0  0  0  0  0  0  0  0  0  0  0  0
    0.7104    1.7513    0.0000 O   0  0  0  0  0  0  0  0  0  0  0  0
    1.6095   -0.6862    0.0000 O   0  0  0  0  0  0  0  0  0  0  0  0
    3.0168   -0.1671    0.0000 C   0  0  0  0  0  0  0  0  0  0  0  0
  1  2  1  0
  2  3  1  0
  3  4  1  0
  2  5  1  0
  5  6  2  0
  5  7  1  0
  7  8  1  0
  4  2  1  0
M  END
>  <rName>  (655) 
Ac3c-OMe

>  <PQ_SYMBOL>  (655) 
Ac3c-OMe

>  <FULL_NAME>  (655) 
methyl 1-aminocyclopropane-1-carboxylate

>  <IUPAC_CONDENSED>  (655) 
Ac3c-OMe

>  <IUPAC>  (655) 
methyl 1-aminocyclopropanecarboxylate

>  <TYPE>  (655) 
C-term cap

>  <CLASS>  (655) 
c_cap

>  <ANALOG>  (655) 
X

>  <MOL_WT>  (655) 
115.13199999999999

>  <LOGP>  (655) 
-0.34930000000000017

>  <TPSA>  (655) 
52.32000000000001

>  <POPULARITY>  (655) 
8.2

>  <PROTECTED>  (655) 
TRUE

>  <SMILES>  (655) 
NC1(CC1)C(=O)OC

>  <INCHIKEY>  (655) 
CSHMCEYIMFSLSS-UHFFFAOYSA-N

$$$$
Ac3c_2SEt
     RDKit          2D

  9  9  0  0  0  0  0  0  0  0999 V2000
   -2.3058    0.6435    0.0000 N   0  0  0  0  0  0  0  0  0  0  0  0
   -0.8074    0.5739    0.0000 C   0  0  0  0  0  0  0  0  0  0  0  0
   -0.6157   -0.9138    0.0000 C   0  0  0  0  0  0  0  0  0  0  0  0
    0.7685   -1.4916    0.0000 O   0  0  0  0  0  0  0  0  0  0  0  0
   -1.8082   -1.8236    0.0000 O   0  0  0  0  0  0  0  0  0  0  0  0
    0.6244    1.0211    0.0000 C   0  0  0  0  0  0  0  0  0  0  0  0
   -0.4787    2.0375    0.0000 C   0  0  0  0  0  0  0  0  0  0  0  0
    2.0879    0.6924    0.0000 C   0  0  0  0  0  0  0  0  0  0  0  0
    2.5351   -0.7394    0.0000 C   0  0  0  0  0  0  0  0  0  0  0  0
  2  1  1  1
  2  3  1  0
  3  4  2  0
  3  5  1  0
  2  6  1  0
  6  7  1  0
  6  8  1  6
  8  9  1  0
  7  2  1  0
M  END
>  <rName>  (656) 
Ac3c_2SEt

>  <PQ_SYMBOL>  (656) 
Ac3c_2SEt

>  <FULL_NAME>  (656) 
(1S,2S)-1-amino-2-ethylcyclopropane-1-carboxylic acid

>  <IUPAC_CONDENSED>  (656) 
Ac3c(2S-Et)

>  <IUPAC>  (656) 
(1S,2S)-1-amino-2-ethylcyclopropanecarboxylic acid

>  <TYPE>  (656) 
C-term cap

>  <CLASS>  (656) 
c_cap

>  <ANALOG>  (656) 
X

>  <MOL_WT>  (656) 
129.159

>  <LOGP>  (656) 
0.19839999999999947

>  <TPSA>  (656) 
63.32000000000001

>  <POPULARITY>  (656) 
6.9

>  <PROTECTED>  (656) 
TRUE

>  <SMILES>  (656) 
N[C@]1(C(=O)O)[C@H](C1)CC

>  <INCHIKEY>  (656) 
RLHIWMRQDUCBDO-NJGYIYPDSA-N

$$$$
Ac4c
     RDKit          2D

  8  8  0  0  0  0  0  0  0  0999 V2000
    0.2785   -1.7061    0.0000 N   0  0  0  0  0  0  0  0  0  0  0  0
   -0.2785   -0.3134    0.0000 C   0  0  0  0  0  0  0  0  0  0  0  0
   -1.6713   -0.8704    0.0000 C   0  0  0  0  0  0  0  0  0  0  0  0
   -2.2283    0.5223    0.0000 C   0  0  0  0  0  0  0  0  0  0  0  0
   -0.8356    1.0794    0.0000 C   0  0  0  0  0  0  0  0  0  0  0  0
    1.1142    0.2437    0.0000 C   0  0  0  0  0  0  0  0  0  0  0  0
    1.3281    1.7284    0.0000 O   0  0  0  0  0  0  0  0  0  0  0  0
    2.2930   -0.6839    0.0000 O   0  0  0  0  0  0  0  0  0  0  0  0
  1  2  1  0
  2  3  1  0
  3  4  1  0
  4  5  1  0
  2  6  1  0
  6  7  2  0
  6  8  1  0
  5  2  1  0
M  END
>  <rName>  (657) 
Ac4c

>  <PQ_SYMBOL>  (657) 
Ac4c

>  <FULL_NAME>  (657) 
1-Aminocyclobutanecarboxylic acid

>  <IUPAC_CONDENSED>  (657) 
Ac4c

>  <IUPAC>  (657) 
1-aminocyclobutanecarboxylic acid

>  <TYPE>  (657) 
Backbone

>  <CLASS>  (657) 
alpha

>  <ANALOG>  (657) 
X

>  <MOL_WT>  (657) 
115.13199999999999

>  <LOGP>  (657) 
-0.04760000000000014

>  <TPSA>  (657) 
63.32000000000001

>  <POPULARITY>  (657) 
23.8

>  <PROTECTED>  (657) 
TRUE

>  <SMILES>  (657) 
NC1(CCC1)C(=O)O

>  <INCHIKEY>  (657) 
FVTVMQPGKVHSEY-UHFFFAOYSA-N

$$$$
Ac4c-OMe
     RDKit          2D

  9  9  0  0  0  0  0  0  0  0999 V2000
   -0.0962   -1.6943    0.0000 N   0  0  0  0  0  0  0  0  0  0  0  0
   -0.6818   -0.3133    0.0000 C   0  0  0  0  0  0  0  0  0  0  0  0
   -2.0628   -0.8989    0.0000 C   0  0  0  0  0  0  0  0  0  0  0  0
   -2.6483    0.4821    0.0000 C   0  0  0  0  0  0  0  0  0  0  0  0
   -1.2673    1.0676    0.0000 C   0  0  0  0  0  0  0  0  0  0  0  0
    0.6992    0.2722    0.0000 C   0  0  0  0  0  0  0  0  0  0  0  0
    0.8826    1.7610    0.0000 O   0  0  0  0  0  0  0  0  0  0  0  0
    1.8968   -0.6310    0.0000 O   0  0  0  0  0  0  0  0  0  0  0  0
    3.2778   -0.0454    0.0000 C   0  0  0  0  0  0  0  0  0  0  0  0
  1  2  1  0
  2  3  1  0
  3  4  1  0
  4  5  1  0
  2  6  1  0
  6  7  2  0
  6  8  1  0
  8  9  1  0
  5  2  1  0
M  END
>  <rName>  (658) 
Ac4c-OMe

>  <PQ_SYMBOL>  (658) 
Ac4c-OMe

>  <FULL_NAME>  (658) 
methyl 1-aminocyclobutane-1-carboxylate

>  <IUPAC_CONDENSED>  (658) 
Ac4c-OMe

>  <IUPAC>  (658) 
methyl 1-aminocyclobutanecarboxylate

>  <TYPE>  (658) 
C-term cap

>  <CLASS>  (658) 
c_cap

>  <ANALOG>  (658) 
X

>  <MOL_WT>  (658) 
129.159

>  <LOGP>  (658) 
0.040799999999999725

>  <TPSA>  (658) 
52.32000000000001

>  <POPULARITY>  (658) 
7.2

>  <PROTECTED>  (658) 
TRUE

>  <SMILES>  (658) 
NC1(CCC1)C(=O)OC

>  <INCHIKEY>  (658) 
SGXOPTPGZBLQAY-UHFFFAOYSA-N

$$$$
Ac4c_33F
     RDKit          2D

 10 10  0  0  0  0  0  0  0  0999 V2000
    1.2391   -1.7021    0.0000 N   0  0  0  0  0  0  0  0  0  0  0  0
    0.4449   -0.4296    0.0000 C   0  0  0  0  0  0  0  0  0  0  0  0
   -0.8276   -1.2238    0.0000 C   0  0  0  0  0  0  0  0  0  0  0  0
   -1.6218    0.0488    0.0000 C   0  0  0  0  0  0  0  0  0  0  0  0
   -2.8943   -0.7454    0.0000 F   0  0  0  0  0  0  0  0  0  0  0  0
   -2.4159    1.3213    0.0000 F   0  0  0  0  0  0  0  0  0  0  0  0
   -0.3492    0.8429    0.0000 C   0  0  0  0  0  0  0  0  0  0  0  0
    1.7174    0.3646    0.0000 C   0  0  0  0  0  0  0  0  0  0  0  0
    1.6659    1.8637    0.0000 O   0  0  0  0  0  0  0  0  0  0  0  0
    3.0415   -0.3404    0.0000 O   0  0  0  0  0  0  0  0  0  0  0  0
  1  2  1  0
  2  3  1  0
  3  4  1  0
  4  5  1  0
  4  6  1  0
  4  7  1  0
  2  8  1  0
  8  9  2  0
  8 10  1  0
  7  2  1  0
M  END
>  <rName>  (659) 
Ac4c_33F

>  <PQ_SYMBOL>  (659) 
Ac4c_33F

>  <FULL_NAME>  (659) 
1-amino-3,3-difluorocyclobutane-1-carboxylic acid

>  <IUPAC_CONDENSED>  (659) 
Ac4c(3,3-F)

>  <IUPAC>  (659) 
1-amino-3,3-difluorocyclobutanecarboxylic acid

>  <TYPE>  (659) 
Backbone

>  <CLASS>  (659) 
alpha

>  <ANALOG>  (659) 
X

>  <MOL_WT>  (659) 
151.11200000000002

>  <LOGP>  (659) 
0.19759999999999994

>  <TPSA>  (659) 
63.32000000000001

>  <POPULARITY>  (659) 
8.2

>  <PROTECTED>  (659) 
TRUE

>  <SMILES>  (659) 
NC1(CC(F)(F)C1)C(=O)O

>  <INCHIKEY>  (659) 
KSCVQJSNYDFHOT-UHFFFAOYSA-N

$$$$
Ac4c_3F
     RDKit          2D

  9  9  0  0  0  0  0  0  0  0999 V2000
    1.0010   -1.6755    0.0000 N   0  0  0  0  0  0  0  0  0  0  0  0
    0.1997   -0.4075    0.0000 C   0  0  0  0  0  0  0  0  0  0  0  0
   -1.0683   -1.2088    0.0000 C   0  0  0  0  0  0  0  0  0  0  0  0
   -1.8696    0.0593    0.0000 C   0  0  0  0  0  0  0  0  0  0  0  0
   -3.3328    0.3893    0.0000 F   0  0  0  0  0  0  0  0  0  0  0  0
   -0.6015    0.8606    0.0000 C   0  0  0  0  0  0  0  0  0  0  0  0
    1.4678    0.3938    0.0000 C   0  0  0  0  0  0  0  0  0  0  0  0
    1.4079    1.8926    0.0000 O   0  0  0  0  0  0  0  0  0  0  0  0
    2.7958   -0.3037    0.0000 O   0  0  0  0  0  0  0  0  0  0  0  0
  1  2  1  0
  2  3  1  0
  3  4  1  0
  4  5  1  0
  4  6  1  0
  2  7  1  0
  7  8  2  0
  7  9  1  0
  6  2  1  0
M  END
>  <rName>  (660) 
Ac4c_3F

>  <PQ_SYMBOL>  (660) 
Ac4c_3F

>  <FULL_NAME>  (660) 
Fluciclovine

>  <IUPAC_CONDENSED>  (660) 
Ac4c(3-F)

>  <IUPAC>  (660) 
1-amino-3-fluorocyclobutanecarboxylic acid

>  <TYPE>  (660) 
Backbone

>  <CLASS>  (660) 
alpha

>  <ANALOG>  (660) 
X

>  <MOL_WT>  (660) 
133.122

>  <LOGP>  (660) 
-0.09960000000000041

>  <TPSA>  (660) 
63.32000000000001

>  <POPULARITY>  (660) 
8.4

>  <PROTECTED>  (660) 
TRUE

>  <SMILES>  (660) 
NC1(CC(F)C1)C(=O)O

>  <INCHIKEY>  (660) 
NTEDWGYJNHZKQW-UHFFFAOYSA-N

$$$$
Ac4c_3MeOH
     RDKit          2D

 10 10  0  0  0  0  0  0  0  0999 V2000
    1.7158   -1.5519    0.0000 N   0  0  0  0  0  0  0  0  0  0  0  0
    0.6818   -0.4652    0.0000 C   0  0  0  0  0  0  0  0  0  0  0  0
   -0.4049   -1.4992    0.0000 C   0  0  0  0  0  0  0  0  0  0  0  0
   -1.4388   -0.4124    0.0000 C   0  0  0  0  0  0  0  0  0  0  0  0
   -2.9384   -0.3751    0.0000 C   0  0  0  0  0  0  0  0  0  0  0  0
   -3.6558    0.9422    0.0000 O   0  0  0  0  0  0  0  0  0  0  0  0
   -0.3521    0.6215    0.0000 C   0  0  0  0  0  0  0  0  0  0  0  0
    1.7686    0.5687    0.0000 C   0  0  0  0  0  0  0  0  0  0  0  0
    1.4165    2.0268    0.0000 O   0  0  0  0  0  0  0  0  0  0  0  0
    3.2073    0.1446    0.0000 O   0  0  0  0  0  0  0  0  0  0  0  0
  1  2  1  0
  2  3  1  0
  3  4  1  0
  4  5  1  0
  5  6  1  0
  4  7  1  0
  2  8  1  0
  8  9  2  0
  8 10  1  0
  7  2  1  0
M  END
>  <rName>  (661) 
Ac4c_3MeOH

>  <PQ_SYMBOL>  (661) 
Ac4c_3MeOH

>  <FULL_NAME>  (661) 
1-Amino-3-(hydroxymethyl)cyclobutane-1-carboxylic acid

>  <IUPAC_CONDENSED>  (661) 
Ac4c(3-MeOH)

>  <IUPAC>  (661) 
1-amino-3-(hydroxymethyl)cyclobutanecarboxylic acid

>  <TYPE>  (661) 
Backbone

>  <CLASS>  (661) 
alpha

>  <ANALOG>  (661) 
X

>  <MOL_WT>  (661) 
145.15800000000002

>  <LOGP>  (661) 
-0.8292000000000004

>  <TPSA>  (661) 
83.55

>  <POPULARITY>  (661) 
5.4

>  <PROTECTED>  (661) 
TRUE

>  <SMILES>  (661) 
NC1(CC(CO)C1)C(=O)O

>  <INCHIKEY>  (661) 
URCBHRLIPUAWTF-UHFFFAOYSA-N

$$$$
Ac4c_3OMe
     RDKit          2D

 10 10  0  0  0  0  0  0  0  0999 V2000
    1.7158   -1.5519    0.0000 N   0  0  0  0  0  0  0  0  0  0  0  0
    0.6818   -0.4652    0.0000 C   0  0  0  0  0  0  0  0  0  0  0  0
   -0.4049   -1.4992    0.0000 C   0  0  0  0  0  0  0  0  0  0  0  0
   -1.4388   -0.4124    0.0000 C   0  0  0  0  0  0  0  0  0  0  0  0
   -2.9384   -0.3751    0.0000 O   0  0  0  0  0  0  0  0  0  0  0  0
   -3.6558    0.9422    0.0000 C   0  0  0  0  0  0  0  0  0  0  0  0
   -0.3521    0.6215    0.0000 C   0  0  0  0  0  0  0  0  0  0  0  0
    1.7686    0.5687    0.0000 C   0  0  0  0  0  0  0  0  0  0  0  0
    1.4165    2.0268    0.0000 O   0  0  0  0  0  0  0  0  0  0  0  0
    3.2073    0.1446    0.0000 O   0  0  0  0  0  0  0  0  0  0  0  0
  1  2  1  0
  2  3  1  0
  3  4  1  0
  4  5  1  0
  5  6  1  0
  4  7  1  0
  2  8  1  0
  8  9  2  0
  8 10  1  0
  7  2  1  0
M  END
>  <rName>  (662) 
Ac4c_3OMe

>  <PQ_SYMBOL>  (662) 
Ac4c_3OMe

>  <FULL_NAME>  (662) 
1-amino-3-methoxycyclobutane-1-carboxylic acid

>  <IUPAC_CONDENSED>  (662) 
Ac4c(3-OMe)

>  <IUPAC>  (662) 
1-amino-3-methoxycyclobutanecarboxylic acid

>  <TYPE>  (662) 
Backbone

>  <CLASS>  (662) 
alpha

>  <ANALOG>  (662) 
Ser

>  <MOL_WT>  (662) 
145.15800000000002

>  <LOGP>  (662) 
-0.42270000000000035

>  <TPSA>  (662) 
72.55

>  <POPULARITY>  (662) 
6.3

>  <PROTECTED>  (662) 
TRUE

>  <SMILES>  (662) 
NC1(CC(OC)C1)C(=O)O

>  <INCHIKEY>  (662) 
CGIAXGVVNPJGHH-UHFFFAOYSA-N

$$$$
Ac4c_3Ph
     RDKit          2D

 14 15  0  0  0  0  0  0  0  0999 V2000
   -3.0351    1.5993    0.0000 N   0  0  0  0  0  0  0  0  0  0  0  0
   -2.0858    0.4379    0.0000 C   0  0  0  0  0  0  0  0  0  0  0  0
   -0.9244    1.3873    0.0000 C   0  0  0  0  0  0  0  0  0  0  0  0
    0.0249    0.2259    0.0000 C   0  0  0  0  0  0  0  0  0  0  0  0
   -1.1364   -0.7234    0.0000 C   0  0  0  0  0  0  0  0  0  0  0  0
    1.5174    0.0760    0.0000 C   0  0  0  0  0  0  0  0  0  0  0  0
    2.1339   -1.2915    0.0000 C   0  0  0  0  0  0  0  0  0  0  0  0
    3.6263   -1.4414    0.0000 C   0  0  0  0  0  0  0  0  0  0  0  0
    4.5024   -0.2238    0.0000 C   0  0  0  0  0  0  0  0  0  0  0  0
    3.8860    1.1437    0.0000 C   0  0  0  0  0  0  0  0  0  0  0  0
    2.3935    1.2936    0.0000 C   0  0  0  0  0  0  0  0  0  0  0  0
   -3.2471   -0.5114    0.0000 C   0  0  0  0  0  0  0  0  0  0  0  0
   -3.0056   -1.9919    0.0000 O   0  0  0  0  0  0  0  0  0  0  0  0
   -4.6500    0.0196    0.0000 O   0  0  0  0  0  0  0  0  0  0  0  0
  1  2  1  0
  2  3  1  0
  3  4  1  0
  4  5  1  0
  4  6  1  0
  6  7  2  0
  7  8  1  0
  8  9  2  0
  9 10  1  0
 10 11  2  0
  2 12  1  0
 12 13  2  0
 12 14  1  0
  5  2  1  0
 11  6  1  0
M  END
>  <rName>  (663) 
Ac4c_3Ph

>  <PQ_SYMBOL>  (663) 
Ac4c_3Ph

>  <FULL_NAME>  (663) 
1-Amino-3-phenylcyclobutane-1-carboxylic acid

>  <IUPAC_CONDENSED>  (663) 
Ac4c(3-Ph)

>  <IUPAC>  (663) 
1-amino-3-phenylcyclobutanecarboxylic acid

>  <TYPE>  (663) 
Backbone

>  <CLASS>  (663) 
alpha

>  <ANALOG>  (663) 
Phe

>  <MOL_WT>  (663) 
191.23

>  <LOGP>  (663) 
1.3460999999999999

>  <TPSA>  (663) 
63.32000000000001

>  <POPULARITY>  (663) 
4.7

>  <PROTECTED>  (663) 
TRUE

>  <SMILES>  (663) 
NC1(CC(C1)c2(ccccc2))C(=O)O

>  <INCHIKEY>  (663) 
UDEFVMDARGSLMK-UHFFFAOYSA-N

$$$$
Ac4c_3cyclobutane
     RDKit          2D

 11 12  0  0  0  0  0  0  0  0999 V2000
   -1.6601    1.6690    0.0000 N   0  0  0  0  0  0  0  0  0  0  0  0
   -0.8032    0.4378    0.0000 C   0  0  0  0  0  0  0  0  0  0  0  0
    0.4280    1.2947    0.0000 C   0  0  0  0  0  0  0  0  0  0  0  0
    1.2849    0.0636    0.0000 C   0  0  0  0  0  0  0  0  0  0  0  0
    2.1418   -1.1676    0.0000 C   0  0  0  0  0  0  0  0  0  0  0  0
    3.3729   -0.3107    0.0000 C   0  0  0  0  0  0  0  0  0  0  0  0
    2.5160    0.9205    0.0000 C   0  0  0  0  0  0  0  0  0  0  0  0
    0.0537   -0.7933    0.0000 C   0  0  0  0  0  0  0  0  0  0  0  0
   -2.0343   -0.4191    0.0000 C   0  0  0  0  0  0  0  0  0  0  0  0
   -1.9078   -1.9137    0.0000 O   0  0  0  0  0  0  0  0  0  0  0  0
   -3.3920    0.2187    0.0000 O   0  0  0  0  0  0  0  0  0  0  0  0
  1  2  1  0
  2  3  1  0
  3  4  1  0
  4  5  1  0
  5  6  1  0
  6  7  1  0
  4  8  1  0
  2  9  1  0
  9 10  2  0
  9 11  1  0
  7  4  1  0
  8  2  1  0
M  END
>  <rName>  (664) 
Ac4c_3cyclobutane

>  <PQ_SYMBOL>  (664) 
Ac4c_3cyclobutane

>  <FULL_NAME>  (664) 
2-Aminospiro[3.3]heptane-2-carboxylic acid

>  <IUPAC_CONDENSED>  (664) 
Ac4c(3-cyclobutane)

>  <IUPAC>  (664) 
2-aminospiro[3.3]heptane-2-carboxylic acid

>  <TYPE>  (664) 
Backbone

>  <CLASS>  (664) 
alpha

>  <ANALOG>  (664) 
X

>  <MOL_WT>  (664) 
155.197

>  <LOGP>  (664) 
0.7325999999999997

>  <TPSA>  (664) 
63.32000000000001

>  <POPULARITY>  (664) 
4.2

>  <PROTECTED>  (664) 
TRUE

>  <SMILES>  (664) 
NC2(CC1(CCC1)C2)C(=O)O

>  <INCHIKEY>  (664) 
JGPDMXRVYWPLNA-UHFFFAOYSA-N

$$$$
Ac4c_3diMe
     RDKit          2D

 10 10  0  0  0  0  0  0  0  0999 V2000
    1.2391   -1.7021    0.0000 N   0  0  0  0  0  0  0  0  0  0  0  0
    0.4449   -0.4296    0.0000 C   0  0  0  0  0  0  0  0  0  0  0  0
   -0.8276   -1.2238    0.0000 C   0  0  0  0  0  0  0  0  0  0  0  0
   -1.6218    0.0488    0.0000 C   0  0  0  0  0  0  0  0  0  0  0  0
   -2.8943   -0.7454    0.0000 C   0  0  0  0  0  0  0  0  0  0  0  0
   -2.4159    1.3213    0.0000 C   0  0  0  0  0  0  0  0  0  0  0  0
   -0.3492    0.8429    0.0000 C   0  0  0  0  0  0  0  0  0  0  0  0
    1.7174    0.3646    0.0000 C   0  0  0  0  0  0  0  0  0  0  0  0
    1.6659    1.8637    0.0000 O   0  0  0  0  0  0  0  0  0  0  0  0
    3.0415   -0.3404    0.0000 O   0  0  0  0  0  0  0  0  0  0  0  0
  1  2  1  0
  2  3  1  0
  3  4  1  0
  4  5  1  0
  4  6  1  0
  4  7  1  0
  2  8  1  0
  8  9  2  0
  8 10  1  0
  7  2  1  0
M  END
>  <rName>  (665) 
Ac4c_3diMe

>  <PQ_SYMBOL>  (665) 
Ac4c_3diMe

>  <FULL_NAME>  (665) 
1-amino-3,3-dimethylcyclobutane-1-carboxylic acid

>  <IUPAC_CONDENSED>  (665) 
Ac4c(3-diMe)

>  <IUPAC>  (665) 
1-amino-3,3-dimethylcyclobutanecarboxylic acid

>  <TYPE>  (665) 
Backbone

>  <CLASS>  (665) 
alpha

>  <ANALOG>  (665) 
X

>  <MOL_WT>  (665) 
143.186

>  <LOGP>  (665) 
0.5884999999999998

>  <TPSA>  (665) 
63.32000000000001

>  <POPULARITY>  (665) 
7.3

>  <PROTECTED>  (665) 
TRUE

>  <SMILES>  (665) 
NC1(CC(C)(C)C1)C(=O)O

>  <INCHIKEY>  (665) 
AOQFFBYJSPNMLB-UHFFFAOYSA-N

$$$$
Ac4c_3pyrid2yl
     RDKit          2D

 14 15  0  0  0  0  0  0  0  0999 V2000
   -3.0351    1.5993    0.0000 N   0  0  0  0  0  0  0  0  0  0  0  0
   -2.0858    0.4379    0.0000 C   0  0  0  0  0  0  0  0  0  0  0  0
   -0.9244    1.3873    0.0000 C   0  0  0  0  0  0  0  0  0  0  0  0
    0.0249    0.2259    0.0000 C   0  0  0  0  0  0  0  0  0  0  0  0
   -1.1364   -0.7234    0.0000 C   0  0  0  0  0  0  0  0  0  0  0  0
    1.5174    0.0760    0.0000 C   0  0  0  0  0  0  0  0  0  0  0  0
    2.1339   -1.2915    0.0000 C   0  0  0  0  0  0  0  0  0  0  0  0
    3.6263   -1.4414    0.0000 C   0  0  0  0  0  0  0  0  0  0  0  0
    4.5024   -0.2238    0.0000 C   0  0  0  0  0  0  0  0  0  0  0  0
    3.8860    1.1437    0.0000 C   0  0  0  0  0  0  0  0  0  0  0  0
    2.3935    1.2936    0.0000 N   0  0  0  0  0  0  0  0  0  0  0  0
   -3.2471   -0.5114    0.0000 C   0  0  0  0  0  0  0  0  0  0  0  0
   -3.0056   -1.9919    0.0000 O   0  0  0  0  0  0  0  0  0  0  0  0
   -4.6500    0.0196    0.0000 O   0  0  0  0  0  0  0  0  0  0  0  0
  1  2  1  0
  2  3  1  0
  3  4  1  0
  4  5  1  0
  4  6  1  0
  6  7  2  0
  7  8  1  0
  8  9  2  0
  9 10  1  0
 10 11  2  0
  2 12  1  0
 12 13  2  0
 12 14  1  0
  5  2  1  0
 11  6  1  0
M  END
>  <rName>  (666) 
Ac4c_3pyrid2yl

>  <PQ_SYMBOL>  (666) 
Ac4c_3pyrid2yl

>  <FULL_NAME>  (666) 
NC1(C(=O)O)CC(c2ccccn2)C1

>  <IUPAC_CONDENSED>  (666) 
Ac4c(3-pyrid-2-yl)

>  <IUPAC>  (666) 
1-amino-3-(pyridin-2-yl)cyclobutanecarboxylic acid

>  <TYPE>  (666) 
Backbone

>  <CLASS>  (666) 
alpha

>  <ANALOG>  (666) 
Phe

>  <MOL_WT>  (666) 
192.218

>  <LOGP>  (666) 
0.7410999999999996

>  <TPSA>  (666) 
76.21

>  <POPULARITY>  (666) 
2.4

>  <PROTECTED>  (666) 
TRUE

>  <SMILES>  (666) 
NC1(CC(C1)c2(ccccn2))C(=O)O

>  <INCHIKEY>  (666) 
XNSQPFVQRYQIAF-UHFFFAOYSA-N

$$$$
Ac4c_3tBu
     RDKit          2D

 13 13  0  0  0  0  0  0  0  0999 V2000
   -2.8885    1.4115    0.0000 N   0  0  0  0  0  0  0  0  0  0  0  0
   -1.6887    0.5112    0.0000 C   0  0  0  0  0  0  0  0  0  0  0  0
   -0.7884    1.7109    0.0000 C   0  0  0  0  0  0  0  0  0  0  0  0
    0.4114    0.8106    0.0000 C   0  0  0  0  0  0  0  0  0  0  0  0
    1.8963    1.0223    0.0000 C   0  0  0  0  0  0  0  0  0  0  0  0
    2.8222   -0.1579    0.0000 C   0  0  0  0  0  0  0  0  0  0  0  0
    4.0024    0.7679    0.0000 C   0  0  0  0  0  0  0  0  0  0  0  0
    1.6420   -1.0838    0.0000 C   0  0  0  0  0  0  0  0  0  0  0  0
    3.7480   -1.3381    0.0000 C   0  0  0  0  0  0  0  0  0  0  0  0
   -0.4890   -0.3892    0.0000 C   0  0  0  0  0  0  0  0  0  0  0  0
   -2.5891   -0.6885    0.0000 C   0  0  0  0  0  0  0  0  0  0  0  0
   -2.0003   -2.0681    0.0000 O   0  0  0  0  0  0  0  0  0  0  0  0
   -4.0783   -0.5087    0.0000 O   0  0  0  0  0  0  0  0  0  0  0  0
  1  2  1  0
  2  3  1  0
  3  4  1  0
  4  5  1  0
  5  6  1  0
  6  7  1  0
  6  8  1  0
  6  9  1  0
  4 10  1  0
  2 11  1  0
 11 12  2  0
 11 13  1  0
 10  2  1  0
M  END
>  <rName>  (667) 
Ac4c_3tBu

>  <PQ_SYMBOL>  (667) 
Ac4c_3tBu

>  <FULL_NAME>  (667) 
1-Amino-3-(2,2-dimethylpropyl)cyclobutane-1-carboxylic acid

>  <IUPAC_CONDENSED>  (667) 
Ac4c(3-tBu)

>  <IUPAC>  (667) 
1-amino-3-(2,2-dimethylpropyl)cyclobutanecarboxylic acid

>  <TYPE>  (667) 
Backbone

>  <CLASS>  (667) 
alpha

>  <ANALOG>  (667) 
X

>  <MOL_WT>  (667) 
185.267

>  <LOGP>  (667) 
1.6147

>  <TPSA>  (667) 
63.32000000000001

>  <POPULARITY>  (667) 
2.8

>  <PROTECTED>  (667) 
TRUE

>  <SMILES>  (667) 
NC1(CC(CC(C)(C)C)C1)C(=O)O

>  <INCHIKEY>  (667) 
RWKCANSGJUNEAY-UHFFFAOYSA-N

$$$$
Ac4c_dispiro3131decane8_8diF
     RDKit          2D

 16 18  0  0  0  0  0  0  0  0999 V2000
    3.5274   -1.5613    0.0000 N   0  0  0  0  0  0  0  0  0  0  0  0
    2.5595   -0.4153    0.0000 C   0  0  0  0  0  0  0  0  0  0  0  0
    1.4135   -1.3831    0.0000 C   0  0  0  0  0  0  0  0  0  0  0  0
    0.4457   -0.2371    0.0000 C   0  0  0  0  0  0  0  0  0  0  0  0
   -0.5221    0.9088    0.0000 C   0  0  0  0  0  0  0  0  0  0  0  0
   -1.6681   -0.0590    0.0000 C   0  0  0  0  0  0  0  0  0  0  0  0
   -2.6360    1.0870    0.0000 C   0  0  0  0  0  0  0  0  0  0  0  0
   -3.7820    0.1191    0.0000 C   0  0  0  0  0  0  0  0  0  0  0  0
   -4.9279   -0.8487    0.0000 F   0  0  0  0  0  0  0  0  0  0  0  0
   -4.7498    1.2651    0.0000 F   0  0  0  0  0  0  0  0  0  0  0  0
   -2.8141   -1.0268    0.0000 C   0  0  0  0  0  0  0  0  0  0  0  0
   -0.7003   -1.2050    0.0000 C   0  0  0  0  0  0  0  0  0  0  0  0
    1.5917    0.7307    0.0000 C   0  0  0  0  0  0  0  0  0  0  0  0
    3.7055    0.5526    0.0000 C   0  0  0  0  0  0  0  0  0  0  0  0
    3.4403    2.0289    0.0000 O   0  0  0  0  0  0  0  0  0  0  0  0
    5.1167    0.0440    0.0000 O   0  0  0  0  0  0  0  0  0  0  0  0
  1  2  1  0
  2  3  1  0
  3  4  1  0
  4  5  1  0
  5  6  1  0
  6  7  1  0
  7  8  1  0
  8  9  1  0
  8 10  1  0
  8 11  1  0
  6 12  1  0
  4 13  1  0
  2 14  1  0
 14 15  2  0
 14 16  1  0
 11  6  1  0
 12  4  1  0
 13  2  1  0
M  END
>  <rName>  (668) 
Ac4c_dispiro3131decane8_8diF

>  <PQ_SYMBOL>  (668) 
Ac4c_dispiro3131decane8_8diF

>  <FULL_NAME>  (668) 
2-Amino-8,8-difluorodispiro[3.1.36.14]decane-2-carboxylic acid

>  <IUPAC_CONDENSED>  (668) 
Ac4c(dispiro[3.1.3.1]decane-8,8-diF)

>  <IUPAC>  (668) 
2-amino-8,8-difluorodispiro[3.1.3.1]decane-2-carboxylic acid

>  <TYPE>  (668) 
Backbone

>  <CLASS>  (668) 
alpha

>  <ANALOG>  (668) 
X

>  <MOL_WT>  (668) 
231.24199999999996

>  <LOGP>  (668) 
1.758

>  <TPSA>  (668) 
63.32000000000001

>  <POPULARITY>  (668) 
2.6

>  <PROTECTED>  (668) 
TRUE

>  <SMILES>  (668) 
NC3(CC2(CC1(CC(F)(F)C1)C2)C3)C(=O)O

>  <INCHIKEY>  (668) 
VNTKRCFZZPHEBW-UHFFFAOYSA-N

$$$$
Ac4c_gOH_gMe
     RDKit          2D

 10 10  0  0  0  0  0  0  0  0999 V2000
    1.2391   -1.7021    0.0000 N   0  0  0  0  0  0  0  0  0  0  0  0
    0.4449   -0.4296    0.0000 C   0  0  0  0  0  0  0  0  0  0  0  0
   -0.8276   -1.2238    0.0000 C   0  0  0  0  0  0  0  0  0  0  0  0
   -1.6218    0.0488    0.0000 C   0  0  0  0  0  0  0  0  0  0  0  0
   -2.4159    1.3213    0.0000 O   0  0  0  0  0  0  0  0  0  0  0  0
   -2.8943   -0.7454    0.0000 C   0  0  0  0  0  0  0  0  0  0  0  0
   -0.3492    0.8429    0.0000 C   0  0  0  0  0  0  0  0  0  0  0  0
    1.7174    0.3646    0.0000 C   0  0  0  0  0  0  0  0  0  0  0  0
    1.6659    1.8637    0.0000 O   0  0  0  0  0  0  0  0  0  0  0  0
    3.0415   -0.3404    0.0000 O   0  0  0  0  0  0  0  0  0  0  0  0
  2  1  1  6
  2  3  1  0
  3  4  1  0
  4  5  1  0
  4  6  1  1
  4  7  1  0
  2  8  1  0
  8  9  2  0
  8 10  1  0
  7  2  1  0
M  END
>  <rName>  (669) 
Ac4c_gOH_gMe

>  <PQ_SYMBOL>  (669) 
Ac4c_gOH_gMe

>  <FULL_NAME>  (669) 
(1S,3r)-1-amino-3-hydroxy-3-methylcyclobutane-1-carboxylic acid

>  <IUPAC_CONDENSED>  (669) 
Ac4c(g-OH,g-Me)

>  <IUPAC>  (669) 
1-amino-3-hydroxy-3-methylcyclobutane-1-carboxylic acid

>  <TYPE>  (669) 
Backbone

>  <CLASS>  (669) 
alpha

>  <ANALOG>  (669) 
Ser

>  <MOL_WT>  (669) 
145.158

>  <LOGP>  (669) 
-0.6867000000000008

>  <TPSA>  (669) 
83.55

>  <POPULARITY>  (669) 
2.9

>  <PROTECTED>  (669) 
TRUE

>  <SMILES>  (669) 
N[C@@]1(C[C@@](O)(C)C1)C(=O)O

>  <INCHIKEY>  (669) 
FWDCYSRMGBFGKZ-OLQVQODUSA-N

$$$$
Ac5c
     RDKit          2D

  9  9  0  0  0  0  0  0  0  0999 V2000
    0.7422   -1.6403    0.0000 N   0  0  0  0  0  0  0  0  0  0  0  0
   -0.0160   -0.3460    0.0000 C   0  0  0  0  0  0  0  0  0  0  0  0
   -0.4885    1.0777    0.0000 C   0  0  0  0  0  0  0  0  0  0  0  0
   -1.9885    1.0682    0.0000 C   0  0  0  0  0  0  0  0  0  0  0  0
   -2.4430   -0.3613    0.0000 C   0  0  0  0  0  0  0  0  0  0  0  0
   -1.2239   -1.2353    0.0000 C   0  0  0  0  0  0  0  0  0  0  0  0
    1.3504    0.2728    0.0000 C   0  0  0  0  0  0  0  0  0  0  0  0
    1.4978    1.7655    0.0000 O   0  0  0  0  0  0  0  0  0  0  0  0
    2.5695   -0.6013    0.0000 O   0  0  0  0  0  0  0  0  0  0  0  0
  1  2  1  0
  2  3  1  0
  3  4  1  0
  4  5  1  0
  5  6  1  0
  2  7  1  0
  7  8  2  0
  7  9  1  0
  6  2  1  0
M  END
>  <rName>  (670) 
Ac5c

>  <PQ_SYMBOL>  (670) 
Ac5c

>  <FULL_NAME>  (670) 
1-Aminocyclopentanecarboxylic acid

>  <IUPAC_CONDENSED>  (670) 
Ac5c

>  <IUPAC>  (670) 
1-aminocyclopentanecarboxylic acid

>  <TYPE>  (670) 
Backbone

>  <CLASS>  (670) 
alpha

>  <ANALOG>  (670) 
X

>  <MOL_WT>  (670) 
129.15900000000002

>  <LOGP>  (670) 
0.34249999999999975

>  <TPSA>  (670) 
63.32000000000001

>  <POPULARITY>  (670) 
35.1

>  <PROTECTED>  (670) 
TRUE

>  <SMILES>  (670) 
NC1(CCCC1)C(=O)O

>  <INCHIKEY>  (670) 
NILQLFBWTXNUOE-UHFFFAOYSA-N

$$$$
Ac5c-OEt
     RDKit          2D

 11 11  0  0  0  0  0  0  0  0999 V2000
    0.0379   -1.5658    0.0000 N   0  0  0  0  0  0  0  0  0  0  0  0
   -0.8189   -0.3345    0.0000 C   0  0  0  0  0  0  0  0  0  0  0  0
   -1.4009    1.0479    0.0000 C   0  0  0  0  0  0  0  0  0  0  0  0
   -2.8956    0.9216    0.0000 C   0  0  0  0  0  0  0  0  0  0  0  0
   -3.2373   -0.5390    0.0000 C   0  0  0  0  0  0  0  0  0  0  0  0
   -1.9538   -1.3153    0.0000 C   0  0  0  0  0  0  0  0  0  0  0  0
    0.4952    0.3888    0.0000 C   0  0  0  0  0  0  0  0  0  0  0  0
    0.5258    1.8885    0.0000 O   0  0  0  0  0  0  0  0  0  0  0  0
    1.7787   -0.3875    0.0000 O   0  0  0  0  0  0  0  0  0  0  0  0
    3.0927    0.3358    0.0000 C   0  0  0  0  0  0  0  0  0  0  0  0
    4.3762   -0.4405    0.0000 C   0  0  0  0  0  0  0  0  0  0  0  0
  1  2  1  0
  2  3  1  0
  3  4  1  0
  4  5  1  0
  5  6  1  0
  2  7  1  0
  7  8  2  0
  7  9  1  0
  9 10  1  0
 10 11  1  0
  6  2  1  0
M  END
>  <rName>  (671) 
Ac5c-OEt

>  <PQ_SYMBOL>  (671) 
Ac5c-OEt

>  <FULL_NAME>  (671) 
ethyl 1-aminocyclopentane-1-carboxylate

>  <IUPAC_CONDENSED>  (671) 
Ac5c-OEt

>  <IUPAC>  (671) 
ethyl 1-aminocyclopentanecarboxylate

>  <TYPE>  (671) 
C-term cap

>  <CLASS>  (671) 
c_cap

>  <ANALOG>  (671) 
X

>  <MOL_WT>  (671) 
157.213

>  <LOGP>  (671) 
0.821

>  <TPSA>  (671) 
52.32000000000001

>  <POPULARITY>  (671) 
7.5

>  <PROTECTED>  (671) 
TRUE

>  <SMILES>  (671) 
NC1(CCCC1)C(=O)OCC

>  <INCHIKEY>  (671) 
NLLGKNYQDQBMFW-UHFFFAOYSA-N

$$$$
Ac5c-OMe
     RDKit          2D

 10 10  0  0  0  0  0  0  0  0999 V2000
    0.3447   -1.6428    0.0000 N   0  0  0  0  0  0  0  0  0  0  0  0
   -0.4104   -0.3468    0.0000 C   0  0  0  0  0  0  0  0  0  0  0  0
   -0.8796    1.0780    0.0000 C   0  0  0  0  0  0  0  0  0  0  0  0
   -2.3796    1.0720    0.0000 C   0  0  0  0  0  0  0  0  0  0  0  0
   -2.8374   -0.3564    0.0000 C   0  0  0  0  0  0  0  0  0  0  0  0
   -1.6204   -1.2333    0.0000 C   0  0  0  0  0  0  0  0  0  0  0  0
    0.9575    0.2688    0.0000 C   0  0  0  0  0  0  0  0  0  0  0  0
    1.1083    1.7612    0.0000 O   0  0  0  0  0  0  0  0  0  0  0  0
    2.1745   -0.6081    0.0000 O   0  0  0  0  0  0  0  0  0  0  0  0
    3.5424    0.0075    0.0000 C   0  0  0  0  0  0  0  0  0  0  0  0
  1  2  1  0
  2  3  1  0
  3  4  1  0
  4  5  1  0
  5  6  1  0
  2  7  1  0
  7  8  2  0
  7  9  1  0
  9 10  1  0
  6  2  1  0
M  END
>  <rName>  (672) 
Ac5c-OMe

>  <PQ_SYMBOL>  (672) 
Ac5c-OMe

>  <FULL_NAME>  (672) 
1-amino-1-carboxycyclopentane methyl ester

>  <IUPAC_CONDENSED>  (672) 
Ac5c-OMe

>  <IUPAC>  (672) 
methyl 1-aminocyclopentanecarboxylate

>  <TYPE>  (672) 
C-term cap

>  <CLASS>  (672) 
c_cap

>  <ANALOG>  (672) 
X

>  <MOL_WT>  (672) 
143.186

>  <LOGP>  (672) 
0.43089999999999984

>  <TPSA>  (672) 
52.32000000000001

>  <POPULARITY>  (672) 
8.0

>  <PROTECTED>  (672) 
TRUE

>  <SMILES>  (672) 
NC1(CCCC1)C(=O)OC

>  <INCHIKEY>  (672) 
VLNNACMZTDZCFH-UHFFFAOYSA-N

$$$$
Ac5c_34dehydro
     RDKit          2D

  9  9  0  0  0  0  0  0  0  0999 V2000
    0.7422   -1.6403    0.0000 N   0  0  0  0  0  0  0  0  0  0  0  0
   -0.0160   -0.3460    0.0000 C   0  0  0  0  0  0  0  0  0  0  0  0
   -0.4885    1.0777    0.0000 C   0  0  0  0  0  0  0  0  0  0  0  0
   -1.9885    1.0682    0.0000 C   0  0  0  0  0  0  0  0  0  0  0  0
   -2.4430   -0.3613    0.0000 C   0  0  0  0  0  0  0  0  0  0  0  0
   -1.2239   -1.2353    0.0000 C   0  0  0  0  0  0  0  0  0  0  0  0
    1.3504    0.2728    0.0000 C   0  0  0  0  0  0  0  0  0  0  0  0
    1.4978    1.7655    0.0000 O   0  0  0  0  0  0  0  0  0  0  0  0
    2.5695   -0.6013    0.0000 O   0  0  0  0  0  0  0  0  0  0  0  0
  1  2  1  0
  2  3  1  0
  3  4  1  0
  4  5  2  0
  5  6  1  0
  2  7  1  0
  7  8  2  0
  7  9  1  0
  6  2  1  0
M  END
>  <rName>  (673) 
Ac5c_34dehydro

>  <PQ_SYMBOL>  (673) 
Ac5c_34dehydro

>  <FULL_NAME>  (673) 
1-Aminocyclopent-3-enecarboxylic acid

>  <IUPAC_CONDENSED>  (673) 
Ac5c(3,4-dehydro)

>  <IUPAC>  (673) 
1-aminocyclopent-3-ene-1-carboxylic acid

>  <TYPE>  (673) 
Backbone

>  <CLASS>  (673) 
alpha

>  <ANALOG>  (673) 
X

>  <MOL_WT>  (673) 
127.14299999999999

>  <LOGP>  (673) 
0.1185

>  <TPSA>  (673) 
63.32000000000001

>  <POPULARITY>  (673) 
6.4

>  <PROTECTED>  (673) 
TRUE

>  <SMILES>  (673) 
NC1(CC=CC1)C(=O)O

>  <INCHIKEY>  (673) 
URVAZCZXGWHWCH-UHFFFAOYSA-N

$$$$
Ac6c
     RDKit          2D

 10 10  0  0  0  0  0  0  0  0999 V2000
    1.1103   -1.5851    0.0000 N   0  0  0  0  0  0  0  0  0  0  0  0
    0.2419   -0.3621    0.0000 C   0  0  0  0  0  0  0  0  0  0  0  0
   -0.8118   -1.4296    0.0000 C   0  0  0  0  0  0  0  0  0  0  0  0
   -2.2632   -1.0509    0.0000 C   0  0  0  0  0  0  0  0  0  0  0  0
   -2.6609    0.3955    0.0000 C   0  0  0  0  0  0  0  0  0  0  0  0
   -1.6072    1.4630    0.0000 C   0  0  0  0  0  0  0  0  0  0  0  0
   -0.1558    1.0843    0.0000 C   0  0  0  0  0  0  0  0  0  0  0  0
    1.5972    0.2807    0.0000 C   0  0  0  0  0  0  0  0  0  0  0  0
    1.7181    1.7758    0.0000 O   0  0  0  0  0  0  0  0  0  0  0  0
    2.8315   -0.5716    0.0000 O   0  0  0  0  0  0  0  0  0  0  0  0
  1  2  1  0
  2  3  1  0
  3  4  1  0
  4  5  1  0
  5  6  1  0
  6  7  1  0
  2  8  1  0
  8  9  2  0
  8 10  1  0
  7  2  1  0
M  END
>  <rName>  (674) 
Ac6c

>  <PQ_SYMBOL>  (674) 
Ac6c

>  <FULL_NAME>  (674) 
1-aminocyclohexane-1-carboxylic acid

>  <IUPAC_CONDENSED>  (674) 
Ac6c

>  <IUPAC>  (674) 
1-aminocyclohexanecarboxylic acid

>  <TYPE>  (674) 
Backbone

>  <CLASS>  (674) 
alpha

>  <ANALOG>  (674) 
X

>  <MOL_WT>  (674) 
143.186

>  <LOGP>  (674) 
0.7325999999999997

>  <TPSA>  (674) 
63.32000000000001

>  <POPULARITY>  (674) 
32.8

>  <PROTECTED>  (674) 
TRUE

>  <SMILES>  (674) 
NC1(CCCCC1)C(=O)O

>  <INCHIKEY>  (674) 
WOXWUZCRWJWTRT-UHFFFAOYSA-N

$$$$
Ac6c-OMe
     RDKit          2D

 11 11  0  0  0  0  0  0  0  0999 V2000
    0.7167   -1.5975    0.0000 N   0  0  0  0  0  0  0  0  0  0  0  0
   -0.1417   -0.3674    0.0000 C   0  0  0  0  0  0  0  0  0  0  0  0
    1.2187    0.2644    0.0000 C   0  0  0  0  0  0  0  0  0  0  0  0
    1.3518    1.7585    0.0000 O   0  0  0  0  0  0  0  0  0  0  0  0
    2.4461   -0.5979    0.0000 O   0  0  0  0  0  0  0  0  0  0  0  0
    3.8066    0.0338    0.0000 C   0  0  0  0  0  0  0  0  0  0  0  0
   -1.2041   -1.4264    0.0000 C   0  0  0  0  0  0  0  0  0  0  0  0
   -2.6523   -1.0359    0.0000 C   0  0  0  0  0  0  0  0  0  0  0  0
   -3.0383    0.4137    0.0000 C   0  0  0  0  0  0  0  0  0  0  0  0
   -1.9759    1.4726    0.0000 C   0  0  0  0  0  0  0  0  0  0  0  0
   -0.5277    1.0821    0.0000 C   0  0  0  0  0  0  0  0  0  0  0  0
  1  2  1  0
  2  3  1  0
  3  4  2  0
  3  5  1  0
  5  6  1  0
  2  7  1  0
  7  8  1  0
  8  9  1  0
  9 10  1  0
 10 11  1  0
 11  2  1  0
M  END
>  <rName>  (675) 
Ac6c-OMe

>  <PQ_SYMBOL>  (675) 
Ac6c-OMe

>  <FULL_NAME>  (675) 
methyl 1-aminocyclohexane-1-carboxylate

>  <IUPAC_CONDENSED>  (675) 
Ac6c-OMe

>  <IUPAC>  (675) 
methyl 1-aminocyclohexanecarboxylate

>  <TYPE>  (675) 
C-term cap

>  <CLASS>  (675) 
c_cap

>  <ANALOG>  (675) 
X

>  <MOL_WT>  (675) 
157.21299999999997

>  <LOGP>  (675) 
0.8209999999999995

>  <TPSA>  (675) 
52.32000000000001

>  <POPULARITY>  (675) 
9.4

>  <PROTECTED>  (675) 
TRUE

>  <SMILES>  (675) 
NC1(C(=O)OC)CCCCC1

>  <INCHIKEY>  (675) 
KRDTUMQGDPZWMF-UHFFFAOYSA-N

$$$$
Ac6c_4Me
     RDKit          2D

 11 11  0  0  0  0  0  0  0  0999 V2000
    1.6249   -1.5175    0.0000 N   0  0  0  0  0  0  0  0  0  0  0  0
    0.6516   -0.3762    0.0000 C   0  0  0  0  0  0  0  0  0  0  0  0
   -0.3034   -1.5329    0.0000 C   0  0  0  0  0  0  0  0  0  0  0  0
   -1.7826   -1.2842    0.0000 C   0  0  0  0  0  0  0  0  0  0  0  0
   -2.3069    0.1212    0.0000 C   0  0  0  0  0  0  0  0  0  0  0  0
   -3.7861    0.3699    0.0000 C   0  0  0  0  0  0  0  0  0  0  0  0
   -1.3519    1.2779    0.0000 C   0  0  0  0  0  0  0  0  0  0  0  0
    0.1274    1.0292    0.0000 C   0  0  0  0  0  0  0  0  0  0  0  0
    1.9446    0.3841    0.0000 C   0  0  0  0  0  0  0  0  0  0  0  0
    1.9327    1.8841    0.0000 O   0  0  0  0  0  0  0  0  0  0  0  0
    3.2496   -0.3555    0.0000 O   0  0  0  0  0  0  0  0  0  0  0  0
  1  2  1  0
  2  3  1  0
  3  4  1  0
  4  5  1  0
  5  6  1  0
  5  7  1  0
  7  8  1  0
  2  9  1  0
  9 10  2  0
  9 11  1  0
  8  2  1  0
M  END
>  <rName>  (676) 
Ac6c_4Me

>  <PQ_SYMBOL>  (676) 
Ac6c_4Me

>  <FULL_NAME>  (676) 
1-Amino-4-methylcyclohexane-1-carboxylic acid

>  <IUPAC_CONDENSED>  (676) 
Ac6c(4-Me)

>  <IUPAC>  (676) 
1-amino-4-methylcyclohexanecarboxylic acid

>  <TYPE>  (676) 
Backbone

>  <CLASS>  (676) 
alpha

>  <ANALOG>  (676) 
X

>  <MOL_WT>  (676) 
157.213

>  <LOGP>  (676) 
0.9785999999999997

>  <TPSA>  (676) 
63.32000000000001

>  <POPULARITY>  (676) 
9.4

>  <PROTECTED>  (676) 
TRUE

>  <SMILES>  (676) 
NC1(CCC(C)CC1)C(=O)O

>  <INCHIKEY>  (676) 
YUYUWXWDMRXHHN-UHFFFAOYSA-N

$$$$
Ac6c_4Ph
     RDKit          2D

 16 17  0  0  0  0  0  0  0  0999 V2000
    3.5049   -1.4159    0.0000 N   0  0  0  0  0  0  0  0  0  0  0  0
    2.4325   -0.3671    0.0000 C   0  0  0  0  0  0  0  0  0  0  0  0
    1.5858   -1.6052    0.0000 C   0  0  0  0  0  0  0  0  0  0  0  0
    0.0902   -1.4910    0.0000 C   0  0  0  0  0  0  0  0  0  0  0  0
   -0.5588   -0.1386    0.0000 C   0  0  0  0  0  0  0  0  0  0  0  0
    0.2880    1.0995    0.0000 C   0  0  0  0  0  0  0  0  0  0  0  0
    1.7836    0.9853    0.0000 C   0  0  0  0  0  0  0  0  0  0  0  0
   -2.0544   -0.0244    0.0000 C   0  0  0  0  0  0  0  0  0  0  0  0
   -2.7033    1.3279    0.0000 C   0  0  0  0  0  0  0  0  0  0  0  0
   -4.1990    1.4421    0.0000 C   0  0  0  0  0  0  0  0  0  0  0  0
   -5.0457    0.2040    0.0000 C   0  0  0  0  0  0  0  0  0  0  0  0
   -4.3968   -1.1484    0.0000 C   0  0  0  0  0  0  0  0  0  0  0  0
   -2.9011   -1.2626    0.0000 C   0  0  0  0  0  0  0  0  0  0  0  0
    3.6517    0.5068    0.0000 C   0  0  0  0  0  0  0  0  0  0  0  0
    3.5044    1.9996    0.0000 O   0  0  0  0  0  0  0  0  0  0  0  0
    5.0181   -0.1120    0.0000 O   0  0  0  0  0  0  0  0  0  0  0  0
  1  2  1  0
  2  3  1  0
  3  4  1  0
  4  5  1  0
  5  6  1  0
  6  7  1  0
  5  8  1  0
  8  9  2  0
  9 10  1  0
 10 11  2  0
 11 12  1  0
 12 13  2  0
  2 14  1  0
 14 15  2  0
 14 16  1  0
  7  2  1  0
 13  8  1  0
M  END
>  <rName>  (677) 
Ac6c_4Ph

>  <PQ_SYMBOL>  (677) 
Ac6c_4Ph

>  <FULL_NAME>  (677) 
cis-1-amino-4-phenylcyclohexane-1-carboxylic acid

>  <IUPAC_CONDENSED>  (677) 
Ac6c(4-Ph)

>  <IUPAC>  (677) 
1-amino-4-phenylcyclohexanecarboxylic acid

>  <TYPE>  (677) 
Backbone

>  <CLASS>  (677) 
alpha

>  <ANALOG>  (677) 
X

>  <MOL_WT>  (677) 
219.28400000000002

>  <LOGP>  (677) 
2.1262999999999996

>  <TPSA>  (677) 
63.32000000000001

>  <POPULARITY>  (677) 
12.0

>  <PROTECTED>  (677) 
TRUE

>  <SMILES>  (677) 
NC1(CCC(CC1)c2(ccccc2))C(=O)O

>  <INCHIKEY>  (677) 
TWAYLYPZRSXEOS-UHFFFAOYSA-N

$$$$
Ac6c_4carbonyl
     RDKit          2D

 11 11  0  0  0  0  0  0  0  0999 V2000
    1.6249   -1.5175    0.0000 N   0  0  0  0  0  0  0  0  0  0  0  0
    0.6516   -0.3762    0.0000 C   0  0  0  0  0  0  0  0  0  0  0  0
   -0.3034   -1.5329    0.0000 C   0  0  0  0  0  0  0  0  0  0  0  0
   -1.7826   -1.2842    0.0000 C   0  0  0  0  0  0  0  0  0  0  0  0
   -2.3069    0.1212    0.0000 C   0  0  0  0  0  0  0  0  0  0  0  0
   -3.7861    0.3699    0.0000 O   0  0  0  0  0  0  0  0  0  0  0  0
   -1.3519    1.2779    0.0000 C   0  0  0  0  0  0  0  0  0  0  0  0
    0.1274    1.0292    0.0000 C   0  0  0  0  0  0  0  0  0  0  0  0
    1.9446    0.3841    0.0000 C   0  0  0  0  0  0  0  0  0  0  0  0
    1.9327    1.8841    0.0000 O   0  0  0  0  0  0  0  0  0  0  0  0
    3.2496   -0.3555    0.0000 O   0  0  0  0  0  0  0  0  0  0  0  0
  1  2  1  0
  2  3  1  0
  3  4  1  0
  4  5  1  0
  5  6  2  0
  5  7  1  0
  7  8  1  0
  2  9  1  0
  9 10  2  0
  9 11  1  0
  8  2  1  0
M  END
>  <rName>  (678) 
Ac6c_4carbonyl

>  <PQ_SYMBOL>  (678) 
Ac6c_4carbonyl

>  <FULL_NAME>  (678) 
1-amino-4-oxocyclohexane-1-carboxylic acid

>  <IUPAC_CONDENSED>  (678) 
Ac6c(4-carbonyl)

>  <IUPAC>  (678) 
1-amino-4-oxocyclohexanecarboxylic acid

>  <TYPE>  (678) 
Backbone

>  <CLASS>  (678) 
alpha

>  <ANALOG>  (678) 
X

>  <MOL_WT>  (678) 
157.169

>  <LOGP>  (678) 
-0.08840000000000053

>  <TPSA>  (678) 
80.39

>  <POPULARITY>  (678) 
6.5

>  <PROTECTED>  (678) 
TRUE

>  <SMILES>  (678) 
NC1(CCC(=O)CC1)C(=O)O

>  <INCHIKEY>  (678) 
CESXXYZXSIXCFU-UHFFFAOYSA-N

$$$$
Ac7c
     RDKit          2D

 11 11  0  0  0  0  0  0  0  0999 V2000
    1.4360   -1.5431    0.0000 N   0  0  0  0  0  0  0  0  0  0  0  0
    0.4971   -0.3733    0.0000 C   0  0  0  0  0  0  0  0  0  0  0  0
    0.1588    1.0881    0.0000 C   0  0  0  0  0  0  0  0  0  0  0  0
   -1.1947    1.7347    0.0000 C   0  0  0  0  0  0  0  0  0  0  0  0
   -2.5441    1.0796    0.0000 C   0  0  0  0  0  0  0  0  0  0  0  0
   -2.8733   -0.3838    0.0000 C   0  0  0  0  0  0  0  0  0  0  0  0
   -1.9344   -1.5536    0.0000 C   0  0  0  0  0  0  0  0  0  0  0  0
   -0.4344   -1.5489    0.0000 C   0  0  0  0  0  0  0  0  0  0  0  0
    1.8465    0.2818    0.0000 C   0  0  0  0  0  0  0  0  0  0  0  0
    1.9540    1.7779    0.0000 O   0  0  0  0  0  0  0  0  0  0  0  0
    3.0885   -0.5593    0.0000 O   0  0  0  0  0  0  0  0  0  0  0  0
  1  2  1  0
  2  3  1  0
  3  4  1  0
  4  5  1  0
  5  6  1  0
  6  7  1  0
  7  8  1  0
  2  9  1  0
  9 10  2  0
  9 11  1  0
  8  2  1  0
M  END
>  <rName>  (679) 
Ac7c

>  <PQ_SYMBOL>  (679) 
Ac7c

>  <FULL_NAME>  (679) 
1-aminocycloheptane-1-carboxylic acid

>  <IUPAC_CONDENSED>  (679) 
Ac7c

>  <IUPAC>  (679) 
1-aminocycloheptanecarboxylic acid

>  <TYPE>  (679) 
Backbone

>  <CLASS>  (679) 
alpha

>  <ANALOG>  (679) 
X

>  <MOL_WT>  (679) 
157.21300000000002

>  <LOGP>  (679) 
1.1227

>  <TPSA>  (679) 
63.32000000000001

>  <POPULARITY>  (679) 
17.4

>  <PROTECTED>  (679) 
TRUE

>  <SMILES>  (679) 
NC1(CCCCCC1)C(=O)O

>  <INCHIKEY>  (679) 
IINRZEIPFQHEAP-UHFFFAOYSA-N

$$$$
Ac7c-OMe
     RDKit          2D

 12 12  0  0  0  0  0  0  0  0999 V2000
    1.0514   -1.5612    0.0000 N   0  0  0  0  0  0  0  0  0  0  0  0
    0.1237   -0.3824    0.0000 C   0  0  0  0  0  0  0  0  0  0  0  0
    1.4793    0.2597    0.0000 C   0  0  0  0  0  0  0  0  0  0  0  0
    1.6009    1.7548    0.0000 O   0  0  0  0  0  0  0  0  0  0  0  0
    2.7132   -0.5932    0.0000 O   0  0  0  0  0  0  0  0  0  0  0  0
    4.0688    0.0489    0.0000 C   0  0  0  0  0  0  0  0  0  0  0  0
   -0.2007    1.0821    0.0000 C   0  0  0  0  0  0  0  0  0  0  0  0
   -1.5480    1.7415    0.0000 C   0  0  0  0  0  0  0  0  0  0  0  0
   -2.9036    1.0994    0.0000 C   0  0  0  0  0  0  0  0  0  0  0  0
   -3.2467   -0.3608    0.0000 C   0  0  0  0  0  0  0  0  0  0  0  0
   -2.3190   -1.5396    0.0000 C   0  0  0  0  0  0  0  0  0  0  0  0
   -0.8191   -1.5492    0.0000 C   0  0  0  0  0  0  0  0  0  0  0  0
  1  2  1  0
  2  3  1  0
  3  4  2  0
  3  5  1  0
  5  6  1  0
  2  7  1  0
  7  8  1  0
  8  9  1  0
  9 10  1  0
 10 11  1  0
 11 12  1  0
 12  2  1  0
M  END
>  <rName>  (680) 
Ac7c-OMe

>  <PQ_SYMBOL>  (680) 
Ac7c-OMe

>  <FULL_NAME>  (680) 
methyl 1-aminocycloheptane-1-carboxylate

>  <IUPAC_CONDENSED>  (680) 
Ac7c-OMe

>  <IUPAC>  (680) 
methyl 1-aminocycloheptanecarboxylate

>  <TYPE>  (680) 
C-term cap

>  <CLASS>  (680) 
c_cap

>  <ANALOG>  (680) 
X

>  <MOL_WT>  (680) 
171.23999999999995

>  <LOGP>  (680) 
1.2110999999999994

>  <TPSA>  (680) 
52.32000000000001

>  <POPULARITY>  (680) 
6.2

>  <PROTECTED>  (680) 
TRUE

>  <SMILES>  (680) 
NC1(C(=O)OC)CCCCCC1

>  <INCHIKEY>  (680) 
GPZHQNYVDQMZDP-UHFFFAOYSA-N

$$$$
Ac8c
     RDKit          2D

 12 12  0  0  0  0  0  0  0  0999 V2000
    1.7387   -1.5108    0.0000 N   0  0  0  0  0  0  0  0  0  0  0  0
    0.7504   -0.3825    0.0000 C   0  0  0  0  0  0  0  0  0  0  0  0
   -0.0837   -1.6292    0.0000 C   0  0  0  0  0  0  0  0  0  0  0  0
   -1.5550   -1.9210    0.0000 C   0  0  0  0  0  0  0  0  0  0  0  0
   -2.8018   -1.0869    0.0000 C   0  0  0  0  0  0  0  0  0  0  0  0
   -3.0935    0.3844    0.0000 C   0  0  0  0  0  0  0  0  0  0  0  0
   -2.2595    1.6311    0.0000 C   0  0  0  0  0  0  0  0  0  0  0  0
   -0.7881    1.9229    0.0000 C   0  0  0  0  0  0  0  0  0  0  0  0
    0.4586    1.0889    0.0000 C   0  0  0  0  0  0  0  0  0  0  0  0
    2.0961    0.2802    0.0000 C   0  0  0  0  0  0  0  0  0  0  0  0
    2.1950    1.7769    0.0000 O   0  0  0  0  0  0  0  0  0  0  0  0
    3.3428   -0.5539    0.0000 O   0  0  0  0  0  0  0  0  0  0  0  0
  1  2  1  0
  2  3  1  0
  3  4  1  0
  4  5  1  0
  5  6  1  0
  6  7  1  0
  7  8  1  0
  8  9  1  0
  2 10  1  0
 10 11  2  0
 10 12  1  0
  9  2  1  0
M  END
>  <rName>  (681) 
Ac8c

>  <PQ_SYMBOL>  (681) 
Ac8c

>  <FULL_NAME>  (681) 
1-aminocyclooctane-1-carboxylic acid

>  <IUPAC_CONDENSED>  (681) 
Ac8c

>  <IUPAC>  (681) 
1-aminocyclooctanecarboxylic acid

>  <TYPE>  (681) 
Backbone

>  <CLASS>  (681) 
alpha

>  <ANALOG>  (681) 
X

>  <MOL_WT>  (681) 
171.24

>  <LOGP>  (681) 
1.5128

>  <TPSA>  (681) 
63.32000000000001

>  <POPULARITY>  (681) 
12.5

>  <PROTECTED>  (681) 
TRUE

>  <SMILES>  (681) 
NC1(CCCCCCC1)C(=O)O

>  <INCHIKEY>  (681) 
PJSQECUPWDUIBT-UHFFFAOYSA-N

$$$$
Ac8c-OMe
     RDKit          2D

 13 13  0  0  0  0  0  0  0  0999 V2000
    1.3634   -1.5324    0.0000 N   0  0  0  0  0  0  0  0  0  0  0  0
    0.3859   -0.3946    0.0000 C   0  0  0  0  0  0  0  0  0  0  0  0
    1.7380    0.2551    0.0000 C   0  0  0  0  0  0  0  0  0  0  0  0
    1.8513    1.7508    0.0000 O   0  0  0  0  0  0  0  0  0  0  0  0
    2.9766   -0.5910    0.0000 O   0  0  0  0  0  0  0  0  0  0  0  0
    4.3286    0.0587    0.0000 C   0  0  0  0  0  0  0  0  0  0  0  0
   -0.4601   -1.6332    0.0000 C   0  0  0  0  0  0  0  0  0  0  0  0
   -1.9342   -1.9108    0.0000 C   0  0  0  0  0  0  0  0  0  0  0  0
   -3.1728   -1.0648    0.0000 C   0  0  0  0  0  0  0  0  0  0  0  0
   -3.4504    0.4093    0.0000 C   0  0  0  0  0  0  0  0  0  0  0  0
   -2.6044    1.6479    0.0000 C   0  0  0  0  0  0  0  0  0  0  0  0
   -1.1303    1.9255    0.0000 C   0  0  0  0  0  0  0  0  0  0  0  0
    0.1083    1.0795    0.0000 C   0  0  0  0  0  0  0  0  0  0  0  0
  1  2  1  0
  2  3  1  0
  3  4  2  0
  3  5  1  0
  5  6  1  0
  2  7  1  0
  7  8  1  0
  8  9  1  0
  9 10  1  0
 10 11  1  0
 11 12  1  0
 12 13  1  0
 13  2  1  0
M  END
>  <rName>  (682) 
Ac8c-OMe

>  <PQ_SYMBOL>  (682) 
Ac8c-OMe

>  <FULL_NAME>  (682) 
methyl 1-aminocyclooctane-1-carboxylate

>  <IUPAC_CONDENSED>  (682) 
Ac8c-OMe

>  <IUPAC>  (682) 
methyl 1-aminocyclooctanecarboxylate

>  <TYPE>  (682) 
C-term cap

>  <CLASS>  (682) 
c_cap

>  <ANALOG>  (682) 
X

>  <MOL_WT>  (682) 
185.26699999999994

>  <LOGP>  (682) 
1.6011999999999995

>  <TPSA>  (682) 
52.32000000000001

>  <POPULARITY>  (682) 
6.4

>  <PROTECTED>  (682) 
TRUE

>  <SMILES>  (682) 
NC1(C(=O)OC)CCCCCCC1

>  <INCHIKEY>  (682) 
LLDGFHBTNMXXOL-UHFFFAOYSA-N

$$$$
Ac_Isox_3Me
     RDKit          2D

 10 10  0  0  0  0  0  0  0  0999 V2000
   -3.2141   -1.5316    0.0000 C   0  0  0  0  0  0  0  0  0  0  0  0
   -2.1725   -0.4522    0.0000 C   0  0  0  0  0  0  0  0  0  0  0  0
   -0.6871   -0.6604    0.0000 C   0  0  0  0  0  0  0  0  0  0  0  0
   -0.0300    0.6881    0.0000 C   0  0  0  0  0  0  0  0  0  0  0  0
   -1.1095    1.7296    0.0000 O   0  0  0  0  0  0  0  0  0  0  0  0
   -2.4336    1.0249    0.0000 N   0  0  0  0  0  0  0  0  0  0  0  0
    1.4471    0.9491    0.0000 C   0  0  0  0  0  0  0  0  0  0  0  0
    2.4117   -0.1996    0.0000 C   0  0  0  0  0  0  0  0  0  0  0  0
    1.8992   -1.6093    0.0000 O   0  0  0  0  0  0  0  0  0  0  0  0
    3.8888    0.0615    0.0000 O   0  0  0  0  0  0  0  0  0  0  0  0
  1  2  1  0
  2  3  1  0
  3  4  2  0
  4  5  1  0
  5  6  1  0
  4  7  1  0
  7  8  1  0
  8  9  2  0
  8 10  1  0
  6  2  2  0
M  END
>  <rName>  (683) 
Ac_Isox_3Me

>  <PQ_SYMBOL>  (683) 
Ac_Isox_3Me

>  <FULL_NAME>  (683) 
2-(3-Methylisoxazol-5-yl)acetic acid

>  <IUPAC_CONDENSED>  (683) 
Ac(Isox(3-Me))

>  <IUPAC>  (683) 
2-(3-methylisoxazol-5-yl)acetic acid

>  <TYPE>  (683) 
N-term cap

>  <CLASS>  (683) 
n_cap

>  <ANALOG>  (683) 
X

>  <MOL_WT>  (683) 
141.126

>  <LOGP>  (683) 
0.61012

>  <TPSA>  (683) 
63.33

>  <POPULARITY>  (683) 
7.9

>  <PROTECTED>  (683) 
TRUE

>  <SMILES>  (683) 
Cc1cc(on1)CC(=O)O

>  <INCHIKEY>  (683) 
POEFJFLAFQWOTL-UHFFFAOYSA-N

$$$$
Ac_Ph
     RDKit          2D

 10 10  0  0  0  0  0  0  0  0999 V2000
   -3.0048   -0.4910    0.0000 C   0  0  0  0  0  0  0  0  0  0  0  0
   -2.7213    0.9820    0.0000 C   0  0  0  0  0  0  0  0  0  0  0  0
   -1.3040    1.4730    0.0000 C   0  0  0  0  0  0  0  0  0  0  0  0
   -0.1701    0.4910    0.0000 C   0  0  0  0  0  0  0  0  0  0  0  0
   -0.4536   -0.9820    0.0000 C   0  0  0  0  0  0  0  0  0  0  0  0
   -1.8709   -1.4730    0.0000 C   0  0  0  0  0  0  0  0  0  0  0  0
    1.2473    0.9820    0.0000 C   0  0  0  0  0  0  0  0  0  0  0  0
    2.3812   -0.0000    0.0000 C   0  0  0  0  0  0  0  0  0  0  0  0
    2.0977   -1.4730    0.0000 O   0  0  0  0  0  0  0  0  0  0  0  0
    3.7985    0.4910    0.0000 O   0  0  0  0  0  0  0  0  0  0  0  0
  1  2  2  0
  2  3  1  0
  3  4  2  0
  4  5  1  0
  5  6  2  0
  4  7  1  0
  7  8  1  0
  8  9  2  0
  8 10  1  0
  6  1  1  0
M  END
>  <rName>  (684) 
Ac_Ph

>  <PQ_SYMBOL>  (684) 
Ac_Ph

>  <FULL_NAME>  (684) 
2-phenylacetic acid

>  <IUPAC_CONDENSED>  (684) 
Ac(Ph)

>  <IUPAC>  (684) 
2-phenylacetic acid

>  <TYPE>  (684) 
N-term cap

>  <CLASS>  (684) 
n_cap

>  <ANALOG>  (684) 
X

>  <MOL_WT>  (684) 
136.14999999999998

>  <LOGP>  (684) 
1.3137

>  <TPSA>  (684) 
37.3

>  <POPULARITY>  (684) 
17.2

>  <PROTECTED>  (684) 
TRUE

>  <SMILES>  (684) 
c1ccc(cc1)CC(=O)O

>  <INCHIKEY>  (684) 
WLJVXDMOQOGPHL-UHFFFAOYSA-N

$$$$
Acadenin-9-yl-NEtNH2Gly
     RDKit          2D

 21 22  0  0  0  0  0  0  0  0999 V2000
   -6.3235   -1.6707    0.0000 N   0  0  0  0  0  0  0  0  0  0  0  0
   -5.1592   -0.7250    0.0000 C   0  0  0  0  0  0  0  0  0  0  0  0
   -3.7580   -1.2605    0.0000 C   0  0  0  0  0  0  0  0  0  0  0  0
   -2.5937   -0.3148    0.0000 N   0  0  0  0  0  0  0  0  0  0  0  0
   -1.1925   -0.8503    0.0000 C   0  0  0  0  0  0  0  0  0  0  0  0
   -0.9557   -2.3315    0.0000 O   0  0  0  0  0  0  0  0  0  0  0  0
   -0.0282    0.0954    0.0000 C   0  0  0  0  0  0  0  0  0  0  0  0
    1.3730   -0.4401    0.0000 N   0  0  0  0  0  0  0  0  0  0  0  0
    1.7633   -1.8885    0.0000 C   0  0  0  0  0  0  0  0  0  0  0  0
    3.2614   -1.9648    0.0000 N   0  0  0  0  0  0  0  0  0  0  0  0
    3.7969   -0.5636    0.0000 C   0  0  0  0  0  0  0  0  0  0  0  0
    5.1965   -0.0240    0.0000 C   0  0  0  0  0  0  0  0  0  0  0  0
    6.3636   -0.9663    0.0000 N   0  0  0  0  0  0  0  0  0  0  0  0
    5.4289    1.4579    0.0000 N   0  0  0  0  0  0  0  0  0  0  0  0
    4.2618    2.4001    0.0000 C   0  0  0  0  0  0  0  0  0  0  0  0
    2.8623    1.8605    0.0000 N   0  0  0  0  0  0  0  0  0  0  0  0
    2.6298    0.3787    0.0000 C   0  0  0  0  0  0  0  0  0  0  0  0
   -2.8305    1.1664    0.0000 C   0  0  0  0  0  0  0  0  0  0  0  0
   -4.2317    1.7019    0.0000 C   0  0  0  0  0  0  0  0  0  0  0  0
   -5.3960    0.7562    0.0000 O   0  0  0  0  0  0  0  0  0  0  0  0
   -4.4685    3.1831    0.0000 O   0  0  0  0  0  0  0  0  0  0  0  0
  1  2  1  0
  2  3  1  0
  3  4  1  0
  4  5  1  0
  5  6  2  0
  5  7  1  0
  7  8  1  0
  8  9  1  0
  9 10  2  0
 10 11  1  0
 11 12  2  0
 12 13  1  0
 12 14  1  0
 14 15  2  0
 15 16  1  0
 16 17  2  0
  4 18  1  0
 18 19  1  0
 19 20  2  0
 19 21  1  0
 17  8  1  0
 17 11  1  0
M  END
>  <rName>  (685) 
Acadenin-9-yl-NEtNH2Gly

>  <PQ_SYMBOL>  (685) 
Acadenin-9-yl-NEtNH2Gly

>  <FULL_NAME>  (685) 
PNA Adenine

>  <IUPAC_CONDENSED>  (685) 
Ac(adenin-9-yl)-N(EtNH2)Gly

>  <IUPAC>  (685) 
2-((2-aminoethyl)((5-amino-2,4,7,9-tetraazabicyclo[4.3.0]nona-1,3,5,7-tetraen-9-yl)acetyl)amino)acetic acid

>  <TYPE>  (685) 
Backbone

>  <CLASS>  (685) 
delta

>  <ANALOG>  (685) 
Gly

>  <MOL_WT>  (685) 
293.287

>  <LOGP>  (685) 
-1.719599999999998

>  <TPSA>  (685) 
153.25

>  <POPULARITY>  (685) 
2.2

>  <PROTECTED>  (685) 
FALSE

>  <SMILES>  (685) 
NCCN(C(=O)Cn1(cnc2(c(N)ncnc12)))CC(=O)O

>  <INCHIKEY>  (685) 
DUMWERDMQQCWPO-UHFFFAOYSA-N

$$$$
Accytosin-1-yl-NEtNH2Gly
     RDKit          2D

 19 19  0  0  0  0  0  0  0  0999 V2000
   -5.3884    2.2196    0.0000 N   0  0  0  0  0  0  0  0  0  0  0  0
   -4.3870    1.1029    0.0000 C   0  0  0  0  0  0  0  0  0  0  0  0
   -2.9191    1.4118    0.0000 C   0  0  0  0  0  0  0  0  0  0  0  0
   -1.9177    0.2951    0.0000 N   0  0  0  0  0  0  0  0  0  0  0  0
   -0.4498    0.6040    0.0000 C   0  0  0  0  0  0  0  0  0  0  0  0
    0.0166    2.0297    0.0000 O   0  0  0  0  0  0  0  0  0  0  0  0
    0.5516   -0.5127    0.0000 C   0  0  0  0  0  0  0  0  0  0  0  0
    2.0195   -0.2038    0.0000 N   0  0  0  0  0  0  0  0  0  0  0  0
    2.4859    1.2219    0.0000 C   0  0  0  0  0  0  0  0  0  0  0  0
    3.9537    1.5308    0.0000 C   0  0  0  0  0  0  0  0  0  0  0  0
    4.9552    0.4140    0.0000 C   0  0  0  0  0  0  0  0  0  0  0  0
    6.4230    0.7230    0.0000 N   0  0  0  0  0  0  0  0  0  0  0  0
    4.4888   -1.0116    0.0000 N   0  0  0  0  0  0  0  0  0  0  0  0
    3.0209   -1.3205    0.0000 C   0  0  0  0  0  0  0  0  0  0  0  0
    2.5545   -2.7462    0.0000 O   0  0  0  0  0  0  0  0  0  0  0  0
   -2.3841   -1.1306    0.0000 C   0  0  0  0  0  0  0  0  0  0  0  0
   -3.8519   -1.4395    0.0000 C   0  0  0  0  0  0  0  0  0  0  0  0
   -4.8534   -0.3227    0.0000 O   0  0  0  0  0  0  0  0  0  0  0  0
   -4.3183   -2.8651    0.0000 O   0  0  0  0  0  0  0  0  0  0  0  0
  1  2  1  0
  2  3  1  0
  3  4  1  0
  4  5  1  0
  5  6  2  0
  5  7  1  0
  7  8  1  0
  8  9  1  0
  9 10  2  0
 10 11  1  0
 11 12  1  0
 11 13  2  0
 13 14  1  0
 14 15  2  0
  4 16  1  0
 16 17  1  0
 17 18  2  0
 17 19  1  0
 14  8  1  0
M  END
>  <rName>  (686) 
Accytosin-1-yl-NEtNH2Gly

>  <PQ_SYMBOL>  (686) 
Accytosin-1-yl-NEtNH2Gly

>  <FULL_NAME>  (686) 
PNA Cytosine

>  <IUPAC_CONDENSED>  (686) 
Ac(cytosin-1-yl)-N(EtNH2)Gly

>  <IUPAC>  (686) 
2-((2-aminoethyl)((4-amino-2-oxo-1,3-diazacyclohexa-3,5-dien-1-yl)acetyl)amino)acetic acid

>  <TYPE>  (686) 
Backbone

>  <CLASS>  (686) 
delta

>  <ANALOG>  (686) 
Gly

>  <MOL_WT>  (686) 
269.26099999999997

>  <LOGP>  (686) 
-2.3025999999999973

>  <TPSA>  (686) 
144.54

>  <POPULARITY>  (686) 
1.0

>  <PROTECTED>  (686) 
FALSE

>  <SMILES>  (686) 
NCCN(C(=O)Cn1(ccc(N)nc1=O))CC(=O)O

>  <INCHIKEY>  (686) 
MFPUAOSBORLXTD-UHFFFAOYSA-N

$$$$
Acguanin-9-yl-NEtNH2Gly
     RDKit          2D

 22 23  0  0  0  0  0  0  0  0999 V2000
    6.6246    1.4625    0.0000 N   0  0  0  0  0  0  0  0  0  0  0  0
    5.4070    0.5864    0.0000 C   0  0  0  0  0  0  0  0  0  0  0  0
    4.0395    1.2029    0.0000 C   0  0  0  0  0  0  0  0  0  0  0  0
    2.8219    0.3269    0.0000 N   0  0  0  0  0  0  0  0  0  0  0  0
    1.4544    0.9434    0.0000 C   0  0  0  0  0  0  0  0  0  0  0  0
    1.3046    2.4359    0.0000 O   0  0  0  0  0  0  0  0  0  0  0  0
    0.2368    0.0674    0.0000 C   0  0  0  0  0  0  0  0  0  0  0  0
   -1.1306    0.6838    0.0000 N   0  0  0  0  0  0  0  0  0  0  0  0
   -1.4357    2.1525    0.0000 C   0  0  0  0  0  0  0  0  0  0  0  0
   -2.9267    2.3162    0.0000 N   0  0  0  0  0  0  0  0  0  0  0  0
   -3.5432    0.9488    0.0000 C   0  0  0  0  0  0  0  0  0  0  0  0
   -4.9719    0.4919    0.0000 C   0  0  0  0  0  0  0  0  0  0  0  0
   -6.0820    1.5008    0.0000 O   0  0  0  0  0  0  0  0  0  0  0  0
   -5.2906   -0.9739    0.0000 N   0  0  0  0  0  0  0  0  0  0  0  0
   -4.1806   -1.9827    0.0000 C   0  0  0  0  0  0  0  0  0  0  0  0
   -4.4993   -3.4485    0.0000 N   0  0  0  0  0  0  0  0  0  0  0  0
   -2.7519   -1.5259    0.0000 N   0  0  0  0  0  0  0  0  0  0  0  0
   -2.4332   -0.0601    0.0000 C   0  0  0  0  0  0  0  0  0  0  0  0
    2.9717   -1.1656    0.0000 C   0  0  0  0  0  0  0  0  0  0  0  0
    4.3392   -1.7821    0.0000 C   0  0  0  0  0  0  0  0  0  0  0  0
    5.5568   -0.9061    0.0000 O   0  0  0  0  0  0  0  0  0  0  0  0
    4.4890   -3.2746    0.0000 O   0  0  0  0  0  0  0  0  0  0  0  0
  1  2  1  0
  2  3  1  0
  3  4  1  0
  4  5  1  0
  5  6  2  0
  5  7  1  0
  7  8  1  0
  8  9  1  0
  9 10  2  0
 10 11  1  0
 11 12  1  0
 12 13  2  0
 12 14  1  0
 14 15  1  0
 15 16  1  0
 15 17  2  0
 17 18  1  0
  4 19  1  0
 19 20  1  0
 20 21  2  0
 20 22  1  0
 18  8  1  0
 18 11  2  0
M  END
>  <rName>  (687) 
Acguanin-9-yl-NEtNH2Gly

>  <PQ_SYMBOL>  (687) 
Acguanin-9-yl-NEtNH2Gly

>  <FULL_NAME>  (687) 
PNA Guanine

>  <IUPAC_CONDENSED>  (687) 
Ac(guanin-9-yl)-N(EtNH2)Gly

>  <IUPAC>  (687) 
2-((2-aminoethyl)((3-amino-5-oxo-2,4,7,9-tetraazabicyclo[4.3.0]nona-1(6),2,7-trien-9-yl)acetyl)amino)acetic acid

>  <TYPE>  (687) 
Backbone

>  <CLASS>  (687) 
delta

>  <ANALOG>  (687) 
Gly

>  <MOL_WT>  (687) 
309.28600000000006

>  <LOGP>  (687) 
-2.426299999999997

>  <TPSA>  (687) 
173.21999999999997

>  <POPULARITY>  (687) 
1.0

>  <PROTECTED>  (687) 
FALSE

>  <SMILES>  (687) 
NCCN(C(=O)Cn1(cnc2(c(=O)[nH]c(N)nc12)))CC(=O)O

>  <INCHIKEY>  (687) 
WYRWRGIGYVLOGE-UHFFFAOYSA-N

$$$$
Acthymin-1-yl-NEtNH2Gly
     RDKit          2D

 20 20  0  0  0  0  0  0  0  0999 V2000
   -5.4854    2.3809    0.0000 N   0  0  0  0  0  0  0  0  0  0  0  0
   -4.5477    1.2101    0.0000 C   0  0  0  0  0  0  0  0  0  0  0  0
   -3.0649    1.4369    0.0000 C   0  0  0  0  0  0  0  0  0  0  0  0
   -2.1272    0.2661    0.0000 N   0  0  0  0  0  0  0  0  0  0  0  0
   -0.6444    0.4928    0.0000 C   0  0  0  0  0  0  0  0  0  0  0  0
   -0.0994    1.8903    0.0000 O   0  0  0  0  0  0  0  0  0  0  0  0
    0.2933   -0.6779    0.0000 C   0  0  0  0  0  0  0  0  0  0  0  0
    1.7761   -0.4512    0.0000 N   0  0  0  0  0  0  0  0  0  0  0  0
    2.3211    0.9463    0.0000 C   0  0  0  0  0  0  0  0  0  0  0  0
    3.8039    1.1730    0.0000 C   0  0  0  0  0  0  0  0  0  0  0  0
    4.3489    2.5705    0.0000 C   0  0  0  0  0  0  0  0  0  0  0  0
    4.7416    0.0022    0.0000 C   0  0  0  0  0  0  0  0  0  0  0  0
    6.2244    0.2290    0.0000 O   0  0  0  0  0  0  0  0  0  0  0  0
    4.1966   -1.3952    0.0000 N   0  0  0  0  0  0  0  0  0  0  0  0
    2.7138   -1.6220    0.0000 C   0  0  0  0  0  0  0  0  0  0  0  0
    2.1688   -3.0194    0.0000 O   0  0  0  0  0  0  0  0  0  0  0  0
   -2.6722   -1.1314    0.0000 C   0  0  0  0  0  0  0  0  0  0  0  0
   -4.1550   -1.3581    0.0000 C   0  0  0  0  0  0  0  0  0  0  0  0
   -5.0927   -0.1873    0.0000 O   0  0  0  0  0  0  0  0  0  0  0  0
   -4.7000   -2.7556    0.0000 O   0  0  0  0  0  0  0  0  0  0  0  0
  1  2  1  0
  2  3  1  0
  3  4  1  0
  4  5  1  0
  5  6  2  0
  5  7  1  0
  7  8  1  0
  8  9  1  0
  9 10  2  0
 10 11  1  0
 10 12  1  0
 12 13  2  0
 12 14  1  0
 14 15  1  0
 15 16  2  0
  4 17  1  0
 17 18  1  0
 18 19  2  0
 18 20  1  0
 15  8  1  0
M  END
>  <rName>  (688) 
Acthymin-1-yl-NEtNH2Gly

>  <PQ_SYMBOL>  (688) 
Acthymin-1-yl-NEtNH2Gly

>  <FULL_NAME>  (688) 
PNA Thymine

>  <IUPAC_CONDENSED>  (688) 
Ac(thymin-1-yl)-N(EtNH2)Gly

>  <IUPAC>  (688) 
2-((2-aminoethyl)((5-methyl-2,4-dioxo-1,3-diazacyclohex-5-en-1-yl)acetyl)amino)acetic acid

>  <TYPE>  (688) 
Backbone

>  <CLASS>  (688) 
delta

>  <ANALOG>  (688) 
Gly

>  <MOL_WT>  (688) 
284.272

>  <LOGP>  (688) 
-2.2830799999999973

>  <TPSA>  (688) 
138.48999999999998

>  <POPULARITY>  (688) 
2.0

>  <PROTECTED>  (688) 
FALSE

>  <SMILES>  (688) 
NCCN(C(=O)Cn1(cc(C)c(=O)[nH]c1=O))CC(=O)O

>  <INCHIKEY>  (688) 
NSCRQJLBPSKCNK-UHFFFAOYSA-N

$$$$
Agl
     RDKit          2D

  6  5  0  0  0  0  0  0  0  0999 V2000
   -1.5000    1.2990    0.0000 N   0  0  0  0  0  0  0  0  0  0  0  0
   -0.7500    0.0000    0.0000 C   0  0  0  0  0  0  0  0  0  0  0  0
   -1.5000   -1.2990    0.0000 N   0  0  0  0  0  0  0  0  0  0  0  0
    0.7500   -0.0000    0.0000 C   0  0  0  0  0  0  0  0  0  0  0  0
    1.5000    1.2990    0.0000 O   0  0  0  0  0  0  0  0  0  0  0  0
    1.5000   -1.2990    0.0000 O   0  0  0  0  0  0  0  0  0  0  0  0
  1  2  1  0
  2  3  1  0
  2  4  1  0
  4  5  2  0
  4  6  1  0
M  END
>  <rName>  (689) 
Agl

>  <PQ_SYMBOL>  (689) 
Agl

>  <FULL_NAME>  (689) 
L-Diaminoacetic acid

>  <IUPAC_CONDENSED>  (689) 
Agl

>  <IUPAC>  (689) 
2,2-diaminoacetic acid

>  <TYPE>  (689) 
Backbone

>  <CLASS>  (689) 
alpha

>  <ANALOG>  (689) 
X

>  <MOL_WT>  (689) 
90.08199999999998

>  <LOGP>  (689) 
-1.6855000000000002

>  <TPSA>  (689) 
89.34

>  <POPULARITY>  (689) 
9.7

>  <PROTECTED>  (689) 
FALSE

>  <SMILES>  (689) 
NC(N)C(=O)O

>  <INCHIKEY>  (689) 
MAEDLSNGVQYGPK-UHFFFAOYSA-N

$$$$
Aib
     RDKit          2D

  7  6  0  0  0  0  0  0  0  0999 V2000
    2.1429   -0.0000    0.0000 N   0  0  0  0  0  0  0  0  0  0  0  0
    0.6429   -0.0000    0.0000 C   0  0  0  0  0  0  0  0  0  0  0  0
    0.6429    1.5000    0.0000 C   0  0  0  0  0  0  0  0  0  0  0  0
    0.6429   -1.5000    0.0000 C   0  0  0  0  0  0  0  0  0  0  0  0
   -0.8571    0.0000    0.0000 C   0  0  0  0  0  0  0  0  0  0  0  0
   -1.6071    1.2990    0.0000 O   0  0  0  0  0  0  0  0  0  0  0  0
   -1.6071   -1.2990    0.0000 O   0  0  0  0  0  0  0  0  0  0  0  0
  1  2  1  0
  2  3  1  0
  2  4  1  0
  2  5  1  0
  5  6  2  0
  5  7  1  0
M  END
>  <rName>  (690) 
Aib

>  <PQ_SYMBOL>  (690) 
Aib

>  <FULL_NAME>  (690) 
2-Aminoisobutyric Acid, 2-Methyl-Alanine

>  <IUPAC_CONDENSED>  (690) 
Aib

>  <IUPAC>  (690) 
2-amino-2-methylpropanoic acid

>  <TYPE>  (690) 
Backbone

>  <CLASS>  (690) 
alpha

>  <ANALOG>  (690) 
Ala

>  <MOL_WT>  (690) 
103.12099999999998

>  <LOGP>  (690) 
-0.19170000000000004

>  <TPSA>  (690) 
63.32000000000001

>  <POPULARITY>  (690) 
57.7

>  <PROTECTED>  (690) 
TRUE

>  <SMILES>  (690) 
NC(C)(C)C(=O)O

>  <INCHIKEY>  (690) 
FUOOLUPWFVMBKG-UHFFFAOYSA-N

$$$$
Aib-Aib
     RDKit          2D

 13 12  0  0  0  0  0  0  0  0999 V2000
    0.0723   -0.7532    0.0000 N   0  0  0  0  0  0  0  0  0  0  0  0
    1.1680    0.2713    0.0000 C   0  0  0  0  0  0  0  0  0  0  0  0
    0.8287    1.7324    0.0000 O   0  0  0  0  0  0  0  0  0  0  0  0
    2.6031   -0.1654    0.0000 C   0  0  0  0  0  0  0  0  0  0  0  0
    3.0397    1.2697    0.0000 C   0  0  0  0  0  0  0  0  0  0  0  0
    2.1664   -1.6004    0.0000 C   0  0  0  0  0  0  0  0  0  0  0  0
    4.0381   -0.6020    0.0000 N   0  0  0  0  0  0  0  0  0  0  0  0
   -1.3627   -0.3165    0.0000 C   0  0  0  0  0  0  0  0  0  0  0  0
   -1.7993   -1.7515    0.0000 C   0  0  0  0  0  0  0  0  0  0  0  0
   -0.9260    1.1185    0.0000 C   0  0  0  0  0  0  0  0  0  0  0  0
   -2.7977    0.1202    0.0000 C   0  0  0  0  0  0  0  0  0  0  0  0
   -3.8934   -0.9043    0.0000 O   0  0  0  0  0  0  0  0  0  0  0  0
   -3.1371    1.5813    0.0000 O   0  0  0  0  0  0  0  0  0  0  0  0
  1  2  1  0
  2  3  2  0
  2  4  1  0
  4  5  1  0
  4  6  1  0
  4  7  1  0
  1  8  1  0
  8  9  1  0
  8 10  1  0
  8 11  1  0
 11 12  2  0
 11 13  1  0
M  END
>  <rName>  (691) 
Aib-Aib

>  <PQ_SYMBOL>  (691) 
Aib-Aib

>  <FULL_NAME>  (691) 
2-(2-amino-2-methylpropanamido)-2-methylpropanoic acid

>  <IUPAC_CONDENSED>  (691) 
Aib-Aib

>  <IUPAC>  (691) 
2-(2-aminopropan-2-ylcarbonylamino)-2-methylpropanoic acid

>  <TYPE>  (691) 
Backbone

>  <CLASS>  (691) 
alpha

>  <ANALOG>  (691) 
Ala

>  <MOL_WT>  (691) 
188.22699999999998

>  <LOGP>  (691) 
-0.2969

>  <TPSA>  (691) 
92.42

>  <POPULARITY>  (691) 
6.2

>  <PROTECTED>  (691) 
TRUE

>  <SMILES>  (691) 
N(C(=O)C(C)(C)N)C(C)(C)C(=O)O

>  <INCHIKEY>  (691) 
NRMLUZKYISNRAH-UHFFFAOYSA-N

$$$$
Aib-OMe
     RDKit          2D

  8  7  0  0  0  0  0  0  0  0999 V2000
    2.4726   -0.5658    0.0000 N   0  0  0  0  0  0  0  0  0  0  0  0
    1.0348   -0.1383    0.0000 C   0  0  0  0  0  0  0  0  0  0  0  0
    1.4623    1.2995    0.0000 C   0  0  0  0  0  0  0  0  0  0  0  0
    0.6073   -1.5761    0.0000 C   0  0  0  0  0  0  0  0  0  0  0  0
   -0.4030    0.2892    0.0000 C   0  0  0  0  0  0  0  0  0  0  0  0
   -0.7517    1.7482    0.0000 O   0  0  0  0  0  0  0  0  0  0  0  0
   -1.4922   -0.7422    0.0000 O   0  0  0  0  0  0  0  0  0  0  0  0
   -2.9299   -0.3147    0.0000 C   0  0  0  0  0  0  0  0  0  0  0  0
  1  2  1  0
  2  3  1  0
  2  4  1  0
  2  5  1  0
  5  6  2  0
  5  7  1  0
  7  8  1  0
M  END
>  <rName>  (692) 
Aib-OMe

>  <PQ_SYMBOL>  (692) 
Aib-OMe

>  <FULL_NAME>  (692) 
alpha-aminoisobutyric acid (2-aminoalanine) methyl ester

>  <IUPAC_CONDENSED>  (692) 
Aib-OMe

>  <IUPAC>  (692) 
methyl 2-amino-2-methylpropanoate

>  <TYPE>  (692) 
C-term cap

>  <CLASS>  (692) 
c_cap

>  <ANALOG>  (692) 
X

>  <MOL_WT>  (692) 
117.14799999999998

>  <LOGP>  (692) 
-0.10330000000000017

>  <TPSA>  (692) 
52.32000000000001

>  <POPULARITY>  (692) 
20.0

>  <PROTECTED>  (692) 
TRUE

>  <SMILES>  (692) 
NC(C)(C)C(=O)OC

>  <INCHIKEY>  (692) 
HMZHEECHJWHZJX-UHFFFAOYSA-N

$$$$
Aib-ol
     RDKit          2D

  6  5  0  0  0  0  0  0  0  0999 V2000
    1.7321   -0.7500    0.0000 N   0  0  0  0  0  0  0  0  0  0  0  0
    0.4330    0.0000    0.0000 C   0  0  0  0  0  0  0  0  0  0  0  0
    1.1830    1.2990    0.0000 C   0  0  0  0  0  0  0  0  0  0  0  0
   -0.3170   -1.2990    0.0000 C   0  0  0  0  0  0  0  0  0  0  0  0
   -0.8660    0.7500    0.0000 C   0  0  0  0  0  0  0  0  0  0  0  0
   -2.1651   -0.0000    0.0000 O   0  0  0  0  0  0  0  0  0  0  0  0
  1  2  1  0
  2  3  1  0
  2  4  1  0
  2  5  1  0
  5  6  1  0
M  END
>  <rName>  (693) 
Aib-ol

>  <PQ_SYMBOL>  (693) 
Aib-ol

>  <FULL_NAME>  (693) 
2-amino-2-methylpropan-1-ol

>  <IUPAC_CONDENSED>  (693) 
Aib-ol

>  <IUPAC>  (693) 
2-amino-2-methylpropan-1-ol

>  <TYPE>  (693) 
C-term cap

>  <CLASS>  (693) 
c_cap

>  <ANALOG>  (693) 
X

>  <MOL_WT>  (693) 
89.13799999999999

>  <LOGP>  (693) 
-0.2840000000000002

>  <TPSA>  (693) 
46.25

>  <POPULARITY>  (693) 
13.4

>  <PROTECTED>  (693) 
FALSE

>  <SMILES>  (693) 
NC(C)(C)CO

>  <INCHIKEY>  (693) 
CBTVGIZVANVGBH-UHFFFAOYSA-N

$$$$
Ala-Gly
     RDKit          2D

 10  9  0  0  0  0  0  0  0  0999 V2000
    0.1413    0.2180    0.0000 N   0  0  0  0  0  0  0  0  0  0  0  0
   -1.1946   -0.4642    0.0000 C   0  0  0  0  0  0  0  0  0  0  0  0
   -1.2717   -1.9622    0.0000 O   0  0  0  0  0  0  0  0  0  0  0  0
   -2.4533    0.3516    0.0000 C   0  0  0  0  0  0  0  0  0  0  0  0
   -3.7892   -0.3306    0.0000 C   0  0  0  0  0  0  0  0  0  0  0  0
   -2.3762    1.8496    0.0000 N   0  0  0  0  0  0  0  0  0  0  0  0
    1.4001   -0.5978    0.0000 C   0  0  0  0  0  0  0  0  0  0  0  0
    2.7359    0.0845    0.0000 C   0  0  0  0  0  0  0  0  0  0  0  0
    2.8131    1.5825    0.0000 O   0  0  0  0  0  0  0  0  0  0  0  0
    3.9947   -0.7313    0.0000 O   0  0  0  0  0  0  0  0  0  0  0  0
  1  2  1  0
  2  3  2  0
  2  4  1  0
  4  5  1  6
  4  6  1  0
  1  7  1  0
  7  8  1  0
  8  9  2  0
  8 10  1  0
M  END
>  <rName>  (694) 
Ala-Gly

>  <PQ_SYMBOL>  (694) 
Ala-Gly

>  <FULL_NAME>  (694) 
L-alanylglycine

>  <IUPAC_CONDENSED>  (694) 
Ala-Gly

>  <IUPAC>  (694) 
2-((1S)-1-aminoethylcarbonylamino)acetic acid

>  <TYPE>  (694) 
Backbone

>  <CLASS>  (694) 
alpha

>  <ANALOG>  (694) 
Gly

>  <MOL_WT>  (694) 
146.14600000000002

>  <LOGP>  (694) 
-1.4655999999999998

>  <TPSA>  (694) 
92.42

>  <POPULARITY>  (694) 
18.7

>  <PROTECTED>  (694) 
TRUE

>  <SMILES>  (694) 
N(C(=O)[C@H](C)N)CC(=O)O

>  <INCHIKEY>  (694) 
CXISPYVYMQWFLE-VKHMYHEASA-N

$$$$
Ala-OBn
     RDKit          2D

 13 13  0  0  0  0  0  0  0  0999 V2000
   -3.3050    1.9837    0.0000 N   0  0  0  0  0  0  0  0  0  0  0  0
   -3.5634    0.5061    0.0000 C   0  0  0  0  0  0  0  0  0  0  0  0
   -4.9723   -0.0089    0.0000 C   0  0  0  0  0  0  0  0  0  0  0  0
   -2.4130   -0.4565    0.0000 C   0  0  0  0  0  0  0  0  0  0  0  0
   -2.6715   -1.9340    0.0000 O   0  0  0  0  0  0  0  0  0  0  0  0
   -1.0042    0.0585    0.0000 O   0  0  0  0  0  0  0  0  0  0  0  0
    0.1462   -0.9041    0.0000 C   0  0  0  0  0  0  0  0  0  0  0  0
    1.5550   -0.3891    0.0000 C   0  0  0  0  0  0  0  0  0  0  0  0
    1.8135    1.0885    0.0000 C   0  0  0  0  0  0  0  0  0  0  0  0
    3.2223    1.6034    0.0000 C   0  0  0  0  0  0  0  0  0  0  0  0
    4.3727    0.6408    0.0000 C   0  0  0  0  0  0  0  0  0  0  0  0
    4.1143   -0.8367    0.0000 C   0  0  0  0  0  0  0  0  0  0  0  0
    2.7054   -1.3517    0.0000 C   0  0  0  0  0  0  0  0  0  0  0  0
  1  2  1  0
  2  3  1  6
  2  4  1  0
  4  5  2  0
  4  6  1  0
  6  7  1  0
  7  8  1  0
  8  9  2  0
  9 10  1  0
 10 11  2  0
 11 12  1  0
 12 13  2  0
 13  8  1  0
M  END
>  <rName>  (695) 
Ala-OBn

>  <PQ_SYMBOL>  (695) 
Ala-OBn

>  <FULL_NAME>  (695) 
L-Alanine benzyl ester

>  <IUPAC_CONDENSED>  (695) 
Ala-OBn

>  <IUPAC>  (695) 
benzyl (2S)-2-aminopropanoate

>  <TYPE>  (695) 
C-term cap

>  <CLASS>  (695) 
c_cap

>  <ANALOG>  (695) 
X

>  <MOL_WT>  (695) 
179.219

>  <LOGP>  (695) 
1.0769999999999995

>  <TPSA>  (695) 
52.32000000000001

>  <POPULARITY>  (695) 
20.3

>  <PROTECTED>  (695) 
TRUE

>  <SMILES>  (695) 
N[C@@H](C)C(=O)OCc1ccccc1

>  <INCHIKEY>  (695) 
YGYLYUIRSJSFJS-QMMMGPOBSA-N

$$$$
Ala-OBu
     RDKit          2D

 10  9  0  0  0  0  0  0  0  0999 V2000
    2.7402   -1.8571    0.0000 N   0  0  0  0  0  0  0  0  0  0  0  0
    2.7304   -0.3571    0.0000 C   0  0  0  0  0  0  0  0  0  0  0  0
    4.0245    0.4014    0.0000 C   0  0  0  0  0  0  0  0  0  0  0  0
    1.4265    0.3844    0.0000 C   0  0  0  0  0  0  0  0  0  0  0  0
    1.4166    1.8843    0.0000 O   0  0  0  0  0  0  0  0  0  0  0  0
    0.1324   -0.3741    0.0000 O   0  0  0  0  0  0  0  0  0  0  0  0
   -1.1716    0.3673    0.0000 C   0  0  0  0  0  0  0  0  0  0  0  0
   -2.4657   -0.3912    0.0000 C   0  0  0  0  0  0  0  0  0  0  0  0
   -3.7696    0.3503    0.0000 C   0  0  0  0  0  0  0  0  0  0  0  0
   -5.0637   -0.4082    0.0000 C   0  0  0  0  0  0  0  0  0  0  0  0
  1  2  1  0
  2  3  1  6
  2  4  1  0
  4  5  2  0
  4  6  1  0
  6  7  1  0
  7  8  1  0
  8  9  1  0
  9 10  1  0
M  END
>  <rName>  (696) 
Ala-OBu

>  <PQ_SYMBOL>  (696) 
Ala-OBu

>  <FULL_NAME>  (696) 
butyl (2S)-2-aminopropanoate

>  <IUPAC_CONDENSED>  (696) 
Ala-OBu

>  <IUPAC>  (696) 
butyl (2S)-2-aminopropanoate

>  <TYPE>  (696) 
C-term cap

>  <CLASS>  (696) 
c_cap

>  <ANALOG>  (696) 
X

>  <MOL_WT>  (696) 
145.20199999999997

>  <LOGP>  (696) 
0.6768999999999996

>  <TPSA>  (696) 
52.32000000000001

>  <POPULARITY>  (696) 
15.0

>  <PROTECTED>  (696) 
TRUE

>  <SMILES>  (696) 
N[C@@H](C)C(=O)OCCCC

>  <INCHIKEY>  (696) 
RJJXSCQQRYCPLW-LURJTMIESA-N

$$$$
Ala-OEtPh
     RDKit          2D

 14 14  0  0  0  0  0  0  0  0999 V2000
   -4.5865   -1.6548    0.0000 N   0  0  0  0  0  0  0  0  0  0  0  0
   -4.3500   -0.1735    0.0000 C   0  0  0  0  0  0  0  0  0  0  0  0
   -5.5146    0.7719    0.0000 C   0  0  0  0  0  0  0  0  0  0  0  0
   -2.9490    0.3623    0.0000 C   0  0  0  0  0  0  0  0  0  0  0  0
   -2.7125    1.8435    0.0000 O   0  0  0  0  0  0  0  0  0  0  0  0
   -1.7844   -0.5831    0.0000 O   0  0  0  0  0  0  0  0  0  0  0  0
   -0.3834   -0.0473    0.0000 C   0  0  0  0  0  0  0  0  0  0  0  0
    0.7812   -0.9927    0.0000 C   0  0  0  0  0  0  0  0  0  0  0  0
    2.1822   -0.4569    0.0000 C   0  0  0  0  0  0  0  0  0  0  0  0
    2.4187    1.0244    0.0000 C   0  0  0  0  0  0  0  0  0  0  0  0
    3.8197    1.5602    0.0000 C   0  0  0  0  0  0  0  0  0  0  0  0
    4.9842    0.6148    0.0000 C   0  0  0  0  0  0  0  0  0  0  0  0
    4.7478   -0.8664    0.0000 C   0  0  0  0  0  0  0  0  0  0  0  0
    3.3467   -1.4023    0.0000 C   0  0  0  0  0  0  0  0  0  0  0  0
  1  2  1  0
  2  3  1  1
  2  4  1  0
  4  5  2  0
  4  6  1  0
  6  7  1  0
  7  8  1  0
  8  9  1  0
  9 10  2  0
 10 11  1  0
 11 12  2  0
 12 13  1  0
 13 14  2  0
 14  9  1  0
M  END
>  <rName>  (697) 
Ala-OEtPh

>  <PQ_SYMBOL>  (697) 
Ala-OEtPh

>  <FULL_NAME>  (697) 
2-phenylethyl (2S)-2-aminopropanoate

>  <IUPAC_CONDENSED>  (697) 
Ala-OEtPh

>  <IUPAC>  (697) 
2-phenylethyl (2S)-2-aminopropanoate

>  <TYPE>  (697) 
C-term cap

>  <CLASS>  (697) 
c_cap

>  <ANALOG>  (697) 
X

>  <MOL_WT>  (697) 
193.246

>  <LOGP>  (697) 
1.1194999999999993

>  <TPSA>  (697) 
52.32000000000001

>  <POPULARITY>  (697) 
10.1

>  <PROTECTED>  (697) 
TRUE

>  <SMILES>  (697) 
N[C@@H](C)C(=O)OCCc1ccccc1

>  <INCHIKEY>  (697) 
FUIKOCBJCDGKFN-VIFPVBQESA-N

$$$$
Ala-OMe
     RDKit          2D

  7  6  0  0  0  0  0  0  0  0999 V2000
    1.5086   -1.6381    0.0000 N   0  0  0  0  0  0  0  0  0  0  0  0
    1.1803   -0.1745    0.0000 C   0  0  0  0  0  0  0  0  0  0  0  0
    2.2837    0.8417    0.0000 C   0  0  0  0  0  0  0  0  0  0  0  0
   -0.2514    0.2730    0.0000 C   0  0  0  0  0  0  0  0  0  0  0  0
   -0.5797    1.7367    0.0000 O   0  0  0  0  0  0  0  0  0  0  0  0
   -1.3548   -0.7431    0.0000 O   0  0  0  0  0  0  0  0  0  0  0  0
   -2.7865   -0.2956    0.0000 C   0  0  0  0  0  0  0  0  0  0  0  0
  1  2  1  0
  2  3  1  6
  2  4  1  0
  4  5  2  0
  4  6  1  0
  6  7  1  0
M  END
>  <rName>  (698) 
Ala-OMe

>  <PQ_SYMBOL>  (698) 
Ala-OMe

>  <FULL_NAME>  (698) 
L-Alanine methyl ester

>  <IUPAC_CONDENSED>  (698) 
Ala-OMe

>  <IUPAC>  (698) 
methyl (2S)-2-aminopropanoate

>  <TYPE>  (698) 
C-term cap

>  <CLASS>  (698) 
c_cap

>  <ANALOG>  (698) 
X

>  <MOL_WT>  (698) 
103.12099999999998

>  <LOGP>  (698) 
-0.4934000000000003

>  <TPSA>  (698) 
52.32000000000001

>  <POPULARITY>  (698) 
24.5

>  <PROTECTED>  (698) 
TRUE

>  <SMILES>  (698) 
N[C@@H](C)C(=O)OC

>  <INCHIKEY>  (698) 
DWKPPFQULDPWHX-VKHMYHEASA-N

$$$$
Ala-Phe
     RDKit          2D

 17 17  0  0  0  0  0  0  0  0999 V2000
   -0.7639    0.2169    0.0000 N   0  0  0  0  0  0  0  0  0  0  0  0
   -2.2069    0.6267    0.0000 C   0  0  0  0  0  0  0  0  0  0  0  0
   -3.2832   -0.4181    0.0000 O   0  0  0  0  0  0  0  0  0  0  0  0
   -2.5735    2.0812    0.0000 C   0  0  0  0  0  0  0  0  0  0  0  0
   -4.0165    2.4909    0.0000 C   0  0  0  0  0  0  0  0  0  0  0  0
   -1.4972    3.1259    0.0000 N   0  0  0  0  0  0  0  0  0  0  0  0
   -0.3973   -1.2376    0.0000 C   0  0  0  0  0  0  0  0  0  0  0  0
    1.0457   -1.6473    0.0000 C   0  0  0  0  0  0  0  0  0  0  0  0
    2.1220   -0.6026    0.0000 C   0  0  0  0  0  0  0  0  0  0  0  0
    1.7554    0.8519    0.0000 C   0  0  0  0  0  0  0  0  0  0  0  0
    2.8317    1.8967    0.0000 C   0  0  0  0  0  0  0  0  0  0  0  0
    4.2746    1.4870    0.0000 C   0  0  0  0  0  0  0  0  0  0  0  0
    4.6413    0.0325    0.0000 C   0  0  0  0  0  0  0  0  0  0  0  0
    3.5649   -1.0123    0.0000 C   0  0  0  0  0  0  0  0  0  0  0  0
   -1.4736   -2.2823    0.0000 C   0  0  0  0  0  0  0  0  0  0  0  0
   -1.1070   -3.7369    0.0000 O   0  0  0  0  0  0  0  0  0  0  0  0
   -2.9166   -1.8726    0.0000 O   0  0  0  0  0  0  0  0  0  0  0  0
  1  2  1  0
  2  3  2  0
  2  4  1  0
  4  5  1  6
  4  6  1  0
  1  7  1  0
  7  8  1  1
  8  9  1  0
  9 10  2  0
 10 11  1  0
 11 12  2  0
 12 13  1  0
 13 14  2  0
  7 15  1  0
 15 16  2  0
 15 17  1  0
 14  9  1  0
M  END
>  <rName>  (699) 
Ala-Phe

>  <PQ_SYMBOL>  (699) 
Ala-Phe

>  <FULL_NAME>  (699) 
L-alanyl-L-phenylalanine

>  <IUPAC_CONDENSED>  (699) 
Ala-Phe

>  <IUPAC>  (699) 
(2S)-2-((1S)-1-aminoethylcarbonylamino)-3-phenylpropanoic acid

>  <TYPE>  (699) 
Backbone

>  <CLASS>  (699) 
alpha

>  <ANALOG>  (699) 
Phe

>  <MOL_WT>  (699) 
236.27100000000004

>  <LOGP>  (699) 
0.14569999999999966

>  <TPSA>  (699) 
92.42

>  <POPULARITY>  (699) 
14.6

>  <PROTECTED>  (699) 
TRUE

>  <SMILES>  (699) 
N(C(=O)[C@H](C)N)[C@@H](Cc1(ccccc1))C(=O)O

>  <INCHIKEY>  (699) 
OMNVYXHOSHNURL-WPRPVWTQSA-N

$$$$
Ala-SH
     RDKit          2D

  6  5  0  0  0  0  0  0  0  0999 V2000
    1.5000   -1.2990    0.0000 N   0  0  0  0  0  0  0  0  0  0  0  0
    0.7500    0.0000    0.0000 C   0  0  0  0  0  0  0  0  0  0  0  0
    1.5000    1.2990    0.0000 C   0  0  0  0  0  0  0  0  0  0  0  0
   -0.7500   -0.0000    0.0000 C   0  0  0  0  0  0  0  0  0  0  0  0
   -1.5000   -1.2990    0.0000 O   0  0  0  0  0  0  0  0  0  0  0  0
   -1.5000    1.2990    0.0000 S   0  0  0  0  0  0  0  0  0  0  0  0
  1  2  1  0
  2  3  1  6
  2  4  1  0
  4  5  1  0
  4  6  2  0
M  END
>  <rName>  (700) 
Ala-SH

>  <PQ_SYMBOL>  (700) 
Ala-SH

>  <FULL_NAME>  (700) 
THIOALANINE

>  <IUPAC_CONDENSED>  (700) 
Ala-SH

>  <IUPAC>  (700) 
(2S)-2-amino-1-thioxopropan-1-ol

>  <TYPE>  (700) 
C-term cap

>  <CLASS>  (700) 
c_cap

>  <ANALOG>  (700) 
X

>  <MOL_WT>  (700) 
105.16199999999998

>  <LOGP>  (700) 
0.2189999999999998

>  <TPSA>  (700) 
46.25

>  <POPULARITY>  (700) 
4.0

>  <PROTECTED>  (700) 
FALSE

>  <SMILES>  (700) 
N[C@@H](C)C(O)=S

>  <INCHIKEY>  (700) 
YXXURDJTDAAEPH-REOHCLBHSA-N

$$$$
Ala-al
     RDKit          2D

  5  4  0  0  0  0  0  0  0  0999 V2000
   -0.5196    1.5000    0.0000 N   0  0  0  0  0  0  0  0  0  0  0  0
   -0.5196    0.0000    0.0000 C   0  0  0  0  0  0  0  0  0  0  0  0
   -1.8187   -0.7500    0.0000 C   0  0  0  0  0  0  0  0  0  0  0  0
    0.7794   -0.7500    0.0000 C   0  0  0  0  0  0  0  0  0  0  0  0
    2.0785   -0.0000    0.0000 O   0  0  0  0  0  0  0  0  0  0  0  0
  1  2  1  0
  2  3  1  6
  2  4  1  0
  4  5  2  0
M  END
>  <rName>  (701) 
Ala-al

>  <PQ_SYMBOL>  (701) 
Ala-al

>  <FULL_NAME>  (701) 
(2S)-2-aminopropanal

>  <IUPAC_CONDENSED>  (701) 
Ala-al

>  <IUPAC>  (701) 
(2S)-2-aminopropanal

>  <TYPE>  (701) 
C-term cap

>  <CLASS>  (701) 
c_cap

>  <ANALOG>  (701) 
X

>  <MOL_WT>  (701) 
73.095

>  <LOGP>  (701) 
-0.46750000000000025

>  <TPSA>  (701) 
43.09

>  <POPULARITY>  (701) 
31.2

>  <PROTECTED>  (701) 
TRUE

>  <SMILES>  (701) 
N[C@@H](C)C=O

>  <INCHIKEY>  (701) 
QPMCUNAXNMSGTK-VKHMYHEASA-N

$$$$
Ala-ol
     RDKit          2D

  5  4  0  0  0  0  0  0  0  0999 V2000
   -0.5196    1.5000    0.0000 N   0  0  0  0  0  0  0  0  0  0  0  0
   -0.5196    0.0000    0.0000 C   0  0  0  0  0  0  0  0  0  0  0  0
   -1.8187   -0.7500    0.0000 C   0  0  0  0  0  0  0  0  0  0  0  0
    0.7794   -0.7500    0.0000 C   0  0  0  0  0  0  0  0  0  0  0  0
    2.0785   -0.0000    0.0000 O   0  0  0  0  0  0  0  0  0  0  0  0
  1  2  1  0
  2  3  1  6
  2  4  1  0
  4  5  1  0
M  END
>  <rName>  (702) 
Ala-ol

>  <PQ_SYMBOL>  (702) 
Ala-ol

>  <FULL_NAME>  (702) 
(2S)-2-aminopropan-1-ol

>  <IUPAC_CONDENSED>  (702) 
L-Ala-ol

>  <IUPAC>  (702) 
(2S)-2-aminopropan-1-ol

>  <TYPE>  (702) 
C-term cap

>  <CLASS>  (702) 
c_cap

>  <ANALOG>  (702) 
X

>  <MOL_WT>  (702) 
75.11099999999999

>  <LOGP>  (702) 
-0.6741000000000001

>  <TPSA>  (702) 
46.25

>  <POPULARITY>  (702) 
14.8

>  <PROTECTED>  (702) 
FALSE

>  <SMILES>  (702) 
N[C@@H](C)CO

>  <INCHIKEY>  (702) 
BKMMTJMQCTUHRP-VKHMYHEASA-N

$$$$
AlaS-2-oxopyrrolidin-3-yl-OMe
     RDKit          2D

 13 13  0  0  0  0  0  0  0  0999 V2000
   -0.9288    1.7820    0.0000 N   0  0  0  0  0  0  0  0  0  0  0  0
   -1.1251    0.2949    0.0000 C   0  0  0  0  0  0  0  0  0  0  0  0
   -2.5110   -0.2787    0.0000 C   0  0  0  0  0  0  0  0  0  0  0  0
   -2.7073   -1.7658    0.0000 O   0  0  0  0  0  0  0  0  0  0  0  0
   -3.7008    0.6348    0.0000 O   0  0  0  0  0  0  0  0  0  0  0  0
   -5.0868    0.0612    0.0000 C   0  0  0  0  0  0  0  0  0  0  0  0
    0.0647   -0.6186    0.0000 C   0  0  0  0  0  0  0  0  0  0  0  0
    1.4507   -0.0450    0.0000 C   0  0  0  0  0  0  0  0  0  0  0  0
    2.7294   -0.8291    0.0000 C   0  0  0  0  0  0  0  0  0  0  0  0
    2.8467   -2.3245    0.0000 O   0  0  0  0  0  0  0  0  0  0  0  0
    3.8703    0.1447    0.0000 N   0  0  0  0  0  0  0  0  0  0  0  0
    3.2967    1.5307    0.0000 C   0  0  0  0  0  0  0  0  0  0  0  0
    1.8013    1.4135    0.0000 C   0  0  0  0  0  0  0  0  0  0  0  0
  2  1  1  1
  2  3  1  0
  3  4  2  0
  3  5  1  0
  5  6  1  0
  2  7  1  0
  8  7  1  6
  8  9  1  0
  9 10  2  0
  9 11  1  0
 11 12  1  0
 12 13  1  0
 13  8  1  0
M  END
>  <rName>  (703) 
AlaS-2-oxopyrrolidin-3-yl-OMe

>  <PQ_SYMBOL>  (703) 
AlaS-2-oxopyrrolidin-3-yl-OMe

>  <FULL_NAME>  (703) 
methyl (2S)-2-amino-3-[(3S)-2-oxopyrrolidin-3-yl]propanoate

>  <IUPAC_CONDENSED>  (703) 
Ala((S)-2-oxopyrrolidin-3-yl)-OMe

>  <IUPAC>  (703) 
methyl (2S)-2-amino-3-((3S)-2-oxopyrrolidin-3-yl)propanoate

>  <TYPE>  (703) 
C-term cap

>  <CLASS>  (703) 
c_cap

>  <ANALOG>  (703) 
X

>  <MOL_WT>  (703) 
186.21099999999998

>  <LOGP>  (703) 
-0.9870999999999996

>  <TPSA>  (703) 
81.42000000000002

>  <POPULARITY>  (703) 
6.0

>  <PROTECTED>  (703) 
TRUE

>  <SMILES>  (703) 
N[C@H](C(=O)OC)C[C@H]1C(=O)NCC1

>  <INCHIKEY>  (703) 
ZRXQTUVXCKSWQD-WDSKDSINSA-N

$$$$
Ala_12oxobenzobacridin2yl
     RDKit          2D

 25 28  0  0  0  0  0  0  0  0999 V2000
   -4.0671    1.7811    0.0000 N   0  0  0  0  0  0  0  0  0  0  0  0
   -5.1132    0.7061    0.0000 C   0  0  0  0  0  0  0  0  0  0  0  0
   -4.7053   -0.7374    0.0000 C   0  0  0  0  0  0  0  0  0  0  0  0
   -3.2513   -1.1059    0.0000 C   0  0  0  0  0  0  0  0  0  0  0  0
   -2.8433   -2.5493    0.0000 C   0  0  0  0  0  0  0  0  0  0  0  0
   -1.3893   -2.9178    0.0000 C   0  0  0  0  0  0  0  0  0  0  0  0
   -0.3432   -1.8428    0.0000 C   0  0  0  0  0  0  0  0  0  0  0  0
    1.1109   -2.2112    0.0000 N   0  0  0  0  0  0  0  0  0  0  0  0
    2.1570   -1.1362    0.0000 C   0  0  0  0  0  0  0  0  0  0  0  0
    3.6110   -1.5047    0.0000 C   0  0  0  0  0  0  0  0  0  0  0  0
    4.6571   -0.4297    0.0000 C   0  0  0  0  0  0  0  0  0  0  0  0
    6.1112   -0.7981    0.0000 C   0  0  0  0  0  0  0  0  0  0  0  0
    7.1573    0.2769    0.0000 C   0  0  0  0  0  0  0  0  0  0  0  0
    6.7494    1.7203    0.0000 C   0  0  0  0  0  0  0  0  0  0  0  0
    5.2953    2.0888    0.0000 C   0  0  0  0  0  0  0  0  0  0  0  0
    4.2492    1.0138    0.0000 C   0  0  0  0  0  0  0  0  0  0  0  0
    2.7952    1.3822    0.0000 C   0  0  0  0  0  0  0  0  0  0  0  0
    1.7491    0.3072    0.0000 C   0  0  0  0  0  0  0  0  0  0  0  0
    0.2950    0.6757    0.0000 C   0  0  0  0  0  0  0  0  0  0  0  0
   -0.1129    2.1192    0.0000 O   0  0  0  0  0  0  0  0  0  0  0  0
   -0.7511   -0.3993    0.0000 C   0  0  0  0  0  0  0  0  0  0  0  0
   -2.2051   -0.0309    0.0000 C   0  0  0  0  0  0  0  0  0  0  0  0
   -6.5673    1.0745    0.0000 C   0  0  0  0  0  0  0  0  0  0  0  0
   -7.6134   -0.0005    0.0000 O   0  0  0  0  0  0  0  0  0  0  0  0
   -6.9752    2.5180    0.0000 O   0  0  0  0  0  0  0  0  0  0  0  0
  2  1  1  1
  2  3  1  0
  3  4  1  0
  4  5  2  0
  5  6  1  0
  6  7  2  0
  7  8  1  0
  8  9  1  0
  9 10  2  0
 10 11  1  0
 11 12  2  0
 12 13  1  0
 13 14  2  0
 14 15  1  0
 15 16  2  0
 16 17  1  0
 17 18  2  0
 18 19  1  0
 19 20  2  0
 19 21  1  0
 21 22  2  0
  2 23  1  0
 23 24  2  0
 23 25  1  0
 16 11  1  0
 18  9  1  0
 21  7  1  0
 22  4  1  0
M  END
>  <rName>  (704) 
Ala_12oxobenzobacridin2yl

>  <PQ_SYMBOL>  (704) 
Ala_12oxobenzobacridin2yl

>  <FULL_NAME>  (704) 
3-(12-Oxo-5,12-dihydro-5-azanaphthacene-2-yl)alanine

>  <IUPAC_CONDENSED>  (704) 
Ala(12-oxo-benzo[b]acridin-2-yl)

>  <IUPAC>  (704) 
(2S)-2-amino-3-(12-oxo-5H-benzo[b]acridin-2-yl)propanoic acid

>  <TYPE>  (704) 
Backbone

>  <CLASS>  (704) 
alpha

>  <ANALOG>  (704) 
Phe

>  <MOL_WT>  (704) 
332.3590000000001

>  <LOGP>  (704) 
2.788900000000001

>  <TPSA>  (704) 
96.18

>  <POPULARITY>  (704) 
2.2

>  <PROTECTED>  (704) 
TRUE

>  <SMILES>  (704) 
N[C@@H](Cc4(ccc3([nH]c2(cc1(ccccc1cc2c(=O)c3c4)))))C(=O)O

>  <INCHIKEY>  (704) 
SZGKNUCPVPAWNY-INIZCTEOSA-N

$$$$
Ala_13benzodioxol4yl
     RDKit          2D

 15 16  0  0  0  0  0  0  0  0999 V2000
    2.3960   -1.7012    0.0000 N   0  0  0  0  0  0  0  0  0  0  0  0
    2.3823   -0.2013    0.0000 C   0  0  0  0  0  0  0  0  0  0  0  0
    1.0765    0.5368    0.0000 C   0  0  0  0  0  0  0  0  0  0  0  0
   -0.2156   -0.2250    0.0000 C   0  0  0  0  0  0  0  0  0  0  0  0
   -0.2020   -1.7249    0.0000 C   0  0  0  0  0  0  0  0  0  0  0  0
   -1.4941   -2.4867    0.0000 C   0  0  0  0  0  0  0  0  0  0  0  0
   -2.7999   -1.7486    0.0000 C   0  0  0  0  0  0  0  0  0  0  0  0
   -2.8136   -0.2486    0.0000 C   0  0  0  0  0  0  0  0  0  0  0  0
   -3.9374    0.7448    0.0000 O   0  0  0  0  0  0  0  0  0  0  0  0
   -3.3398    2.1207    0.0000 C   0  0  0  0  0  0  0  0  0  0  0  0
   -1.8467    1.9775    0.0000 O   0  0  0  0  0  0  0  0  0  0  0  0
   -1.5214    0.5132    0.0000 C   0  0  0  0  0  0  0  0  0  0  0  0
    3.6745    0.5605    0.0000 C   0  0  0  0  0  0  0  0  0  0  0  0
    3.6608    2.0605    0.0000 O   0  0  0  0  0  0  0  0  0  0  0  0
    4.9803   -0.1776    0.0000 O   0  0  0  0  0  0  0  0  0  0  0  0
  2  1  1  1
  2  3  1  0
  3  4  1  0
  4  5  1  0
  5  6  2  0
  6  7  1  0
  7  8  2  0
  8  9  1  0
  9 10  1  0
 10 11  1  0
 11 12  1  0
  2 13  1  0
 13 14  2  0
 13 15  1  0
 12  4  2  0
 12  8  1  0
M  END
>  <rName>  (705) 
Ala_13benzodioxol4yl

>  <PQ_SYMBOL>  (705) 
Ala_13benzodioxol4yl

>  <FULL_NAME>  (705) 
(S)-2-amino-3-(benzo[d][1,3]dioxol-4-yl)propanoic acid

>  <IUPAC_CONDENSED>  (705) 
Ala(1,3-benzodioxol-4-yl)

>  <IUPAC>  (705) 
(2S)-2-amino-3-(7,9-dioxabicyclo[4.3.0]nona-1(6),2,4-trien-2-yl)propanoic acid

>  <TYPE>  (705) 
Backbone

>  <CLASS>  (705) 
alpha

>  <ANALOG>  (705) 
Tyr

>  <MOL_WT>  (705) 
209.20099999999994

>  <LOGP>  (705) 
0.36969999999999986

>  <TPSA>  (705) 
81.78

>  <POPULARITY>  (705) 
2.9

>  <PROTECTED>  (705) 
TRUE

>  <SMILES>  (705) 
N[C@@H](Cc1(cccc2(OCOc12)))C(=O)O

>  <INCHIKEY>  (705) 
WCBYRDURNLBWDD-ZETCQYMHSA-N

$$$$
Ala_13benzodioxol5yl
     RDKit          2D

 15 16  0  0  0  0  0  0  0  0999 V2000
    2.4169   -1.6715    0.0000 N   0  0  0  0  0  0  0  0  0  0  0  0
    2.6919   -0.1969    0.0000 C   0  0  0  0  0  0  0  0  0  0  0  0
    1.5524    0.7786    0.0000 C   0  0  0  0  0  0  0  0  0  0  0  0
    0.1379    0.2795    0.0000 C   0  0  0  0  0  0  0  0  0  0  0  0
   -0.1372   -1.1951    0.0000 C   0  0  0  0  0  0  0  0  0  0  0  0
   -1.5517   -1.6942    0.0000 C   0  0  0  0  0  0  0  0  0  0  0  0
   -2.6912   -0.7188    0.0000 C   0  0  0  0  0  0  0  0  0  0  0  0
   -4.1786   -0.9129    0.0000 O   0  0  0  0  0  0  0  0  0  0  0  0
   -4.8228    0.4417    0.0000 C   0  0  0  0  0  0  0  0  0  0  0  0
   -3.7336    1.4730    0.0000 O   0  0  0  0  0  0  0  0  0  0  0  0
   -2.4162    0.7558    0.0000 C   0  0  0  0  0  0  0  0  0  0  0  0
   -1.0016    1.2549    0.0000 C   0  0  0  0  0  0  0  0  0  0  0  0
    4.1064    0.3022    0.0000 C   0  0  0  0  0  0  0  0  0  0  0  0
    4.3814    1.7768    0.0000 O   0  0  0  0  0  0  0  0  0  0  0  0
    5.2459   -0.6732    0.0000 O   0  0  0  0  0  0  0  0  0  0  0  0
  2  1  1  1
  2  3  1  0
  3  4  1  0
  4  5  1  0
  5  6  2  0
  6  7  1  0
  7  8  1  0
  8  9  1  0
  9 10  1  0
 10 11  1  0
 11 12  1  0
  2 13  1  0
 13 14  2  0
 13 15  1  0
 11  7  2  0
 12  4  2  0
M  END
>  <rName>  (706) 
Ala_13benzodioxol5yl

>  <PQ_SYMBOL>  (706) 
Ala_13benzodioxol5yl

>  <FULL_NAME>  (706) 
(S)-2-amino-3-(benzo[d][1,3]dioxol-5-yl)propanoic acid

>  <IUPAC_CONDENSED>  (706) 
Ala(1,3-benzodioxol-5-yl)

>  <IUPAC>  (706) 
(2S)-2-amino-3-(7,9-dioxabicyclo[4.3.0]nona-1,3,5-trien-3-yl)propanoic acid

>  <TYPE>  (706) 
Backbone

>  <CLASS>  (706) 
alpha

>  <ANALOG>  (706) 
Tyr

>  <MOL_WT>  (706) 
209.20099999999996

>  <LOGP>  (706) 
0.36969999999999986

>  <TPSA>  (706) 
81.78

>  <POPULARITY>  (706) 
6.7

>  <PROTECTED>  (706) 
TRUE

>  <SMILES>  (706) 
N[C@@H](Cc2(ccc1(OCOc1c2)))C(=O)O

>  <INCHIKEY>  (706) 
XHBLRJRZRFZSGW-ZETCQYMHSA-N

$$$$
Ala_15naphthyridinyl
     RDKit          2D

 16 17  0  0  0  0  0  0  0  0999 V2000
   -2.0722    1.6358    0.0000 N   0  0  0  0  0  0  0  0  0  0  0  0
   -2.7778    0.3121    0.0000 C   0  0  0  0  0  0  0  0  0  0  0  0
   -1.9842   -0.9608    0.0000 C   0  0  0  0  0  0  0  0  0  0  0  0
   -0.4851   -0.9100    0.0000 C   0  0  0  0  0  0  0  0  0  0  0  0
    0.3084   -2.1829    0.0000 C   0  0  0  0  0  0  0  0  0  0  0  0
    1.8076   -2.1322    0.0000 N   0  0  0  0  0  0  0  0  0  0  0  0
    2.5132   -0.8085    0.0000 C   0  0  0  0  0  0  0  0  0  0  0  0
    4.0123   -0.7577    0.0000 C   0  0  0  0  0  0  0  0  0  0  0  0
    4.7179    0.5659    0.0000 C   0  0  0  0  0  0  0  0  0  0  0  0
    3.9244    1.8388    0.0000 C   0  0  0  0  0  0  0  0  0  0  0  0
    2.4253    1.7881    0.0000 N   0  0  0  0  0  0  0  0  0  0  0  0
    1.7196    0.4644    0.0000 C   0  0  0  0  0  0  0  0  0  0  0  0
    0.2205    0.4136    0.0000 C   0  0  0  0  0  0  0  0  0  0  0  0
   -4.2769    0.2614    0.0000 C   0  0  0  0  0  0  0  0  0  0  0  0
   -4.9825   -1.0623    0.0000 O   0  0  0  0  0  0  0  0  0  0  0  0
   -5.0704    1.5343    0.0000 O   0  0  0  0  0  0  0  0  0  0  0  0
  2  1  1  1
  2  3  1  0
  3  4  1  0
  4  5  1  0
  5  6  2  0
  6  7  1  0
  7  8  2  0
  8  9  1  0
  9 10  2  0
 10 11  1  0
 11 12  2  0
 12 13  1  0
  2 14  1  0
 14 15  2  0
 14 16  1  0
 12  7  1  0
 13  4  2  0
M  END
>  <rName>  (707) 
Ala_15naphthyridinyl

>  <PQ_SYMBOL>  (707) 
Ala_15naphthyridinyl

>  <FULL_NAME>  (707) 
(S)-2-amino-3-(1,5-naphthyridin-3-yl)propanoic acid

>  <IUPAC_CONDENSED>  (707) 
Ala(1,5-naphthyridinyl)

>  <IUPAC>  (707) 
(2S)-2-amino-3-(2,7-diazabicyclo[4.4.0]deca-1,3,5,7,9-pentaen-4-yl)propanoic acid

>  <TYPE>  (707) 
Backbone

>  <CLASS>  (707) 
alpha

>  <ANALOG>  (707) 
Phe

>  <MOL_WT>  (707) 
217.22799999999998

>  <LOGP>  (707) 
0.5842

>  <TPSA>  (707) 
89.10000000000001

>  <POPULARITY>  (707) 
2.4

>  <PROTECTED>  (707) 
TRUE

>  <SMILES>  (707) 
N[C@@H](Cc2(cnc1(cccnc1c2)))C(=O)O

>  <INCHIKEY>  (707) 
PCOKBVVBDZEYDY-QMMMGPOBSA-N

$$$$
Ala_1Acpiperidin4yl
     RDKit          2D

 15 15  0  0  0  0  0  0  0  0999 V2000
   -2.2547    1.6872    0.0000 N   0  0  0  0  0  0  0  0  0  0  0  0
   -2.7489    0.2709    0.0000 C   0  0  0  0  0  0  0  0  0  0  0  0
   -1.7696   -0.8652    0.0000 C   0  0  0  0  0  0  0  0  0  0  0  0
   -0.2959   -0.5852    0.0000 C   0  0  0  0  0  0  0  0  0  0  0  0
    0.1983    0.8311    0.0000 C   0  0  0  0  0  0  0  0  0  0  0  0
    1.6719    1.1111    0.0000 C   0  0  0  0  0  0  0  0  0  0  0  0
    2.6513   -0.0250    0.0000 N   0  0  0  0  0  0  0  0  0  0  0  0
    2.1570   -1.4413    0.0000 C   0  0  0  0  0  0  0  0  0  0  0  0
    0.6834   -1.7213    0.0000 C   0  0  0  0  0  0  0  0  0  0  0  0
    4.1249    0.2550    0.0000 C   0  0  0  0  0  0  0  0  0  0  0  0
    4.6192    1.6713    0.0000 O   0  0  0  0  0  0  0  0  0  0  0  0
    5.1043   -0.8811    0.0000 C   0  0  0  0  0  0  0  0  0  0  0  0
   -4.2225   -0.0091    0.0000 C   0  0  0  0  0  0  0  0  0  0  0  0
   -4.7168   -1.4254    0.0000 O   0  0  0  0  0  0  0  0  0  0  0  0
   -5.2019    1.1270    0.0000 O   0  0  0  0  0  0  0  0  0  0  0  0
  2  1  1  1
  2  3  1  0
  3  4  1  0
  4  5  1  0
  5  6  1  0
  6  7  1  0
  7  8  1  0
  8  9  1  0
  7 10  1  0
 10 11  2  0
 10 12  1  0
  2 13  1  0
 13 14  2  0
 13 15  1  0
  9  4  1  0
M  END
>  <rName>  (708) 
Ala_1Acpiperidin4yl

>  <PQ_SYMBOL>  (708) 
Ala_1Acpiperidin4yl

>  <FULL_NAME>  (708) 
(2S)-3-(1-acetylpiperidin-4-yl)-2-aminopropanoic acid

>  <IUPAC_CONDENSED>  (708) 
Ala(1-Ac-piperidin-4-yl)

>  <IUPAC>  (708) 
(2S)-3-(1-acetylpiperidin-4-yl)-2-aminopropanoic acid

>  <TYPE>  (708) 
Backbone

>  <CLASS>  (708) 
alpha

>  <ANALOG>  (708) 
Lys

>  <MOL_WT>  (708) 
214.26500000000001

>  <LOGP>  (708) 
0.046899999999999664

>  <TPSA>  (708) 
83.63

>  <POPULARITY>  (708) 
2.2

>  <PROTECTED>  (708) 
TRUE

>  <SMILES>  (708) 
N[C@@H](CC1(CCN(CC1)C(=O)C))C(=O)O

>  <INCHIKEY>  (708) 
CTTCRGUMQLDLLI-VIFPVBQESA-N

$$$$
Ala_1Hindazolyl
     RDKit          2D

 15 16  0  0  0  0  0  0  0  0999 V2000
    2.4169   -1.6715    0.0000 N   0  0  0  0  0  0  0  0  0  0  0  0
    2.6919   -0.1969    0.0000 C   0  0  0  0  0  0  0  0  0  0  0  0
    1.5524    0.7786    0.0000 C   0  0  0  0  0  0  0  0  0  0  0  0
    0.1379    0.2795    0.0000 C   0  0  0  0  0  0  0  0  0  0  0  0
   -0.1372   -1.1951    0.0000 C   0  0  0  0  0  0  0  0  0  0  0  0
   -1.5517   -1.6942    0.0000 C   0  0  0  0  0  0  0  0  0  0  0  0
   -2.6912   -0.7188    0.0000 C   0  0  0  0  0  0  0  0  0  0  0  0
   -4.1786   -0.9129    0.0000 C   0  0  0  0  0  0  0  0  0  0  0  0
   -4.8228    0.4417    0.0000 N   0  0  0  0  0  0  0  0  0  0  0  0
   -3.7336    1.4730    0.0000 N   0  0  0  0  0  0  0  0  0  0  0  0
   -2.4162    0.7558    0.0000 C   0  0  0  0  0  0  0  0  0  0  0  0
   -1.0016    1.2549    0.0000 C   0  0  0  0  0  0  0  0  0  0  0  0
    4.1064    0.3022    0.0000 C   0  0  0  0  0  0  0  0  0  0  0  0
    4.3814    1.7768    0.0000 O   0  0  0  0  0  0  0  0  0  0  0  0
    5.2459   -0.6732    0.0000 O   0  0  0  0  0  0  0  0  0  0  0  0
  2  1  1  1
  2  3  1  0
  3  4  1  0
  4  5  1  0
  5  6  2  0
  6  7  1  0
  7  8  1  0
  8  9  2  0
  9 10  1  0
 10 11  1  0
 11 12  1  0
  2 13  1  0
 13 14  2  0
 13 15  1  0
 11  7  2  0
 12  4  2  0
M  END
>  <rName>  (709) 
Ala_1Hindazolyl

>  <PQ_SYMBOL>  (709) 
Ala_1Hindazolyl

>  <FULL_NAME>  (709) 
(S)-2-amino-3-(1H-indazol-6-yl)propanoic acid

>  <IUPAC_CONDENSED>  (709) 
Ala(1H-indazolyl)

>  <IUPAC>  (709) 
(2S)-2-amino-3-(1H-indazol-6-yl)propanoic acid

>  <TYPE>  (709) 
Backbone

>  <CLASS>  (709) 
alpha

>  <ANALOG>  (709) 
Phe

>  <MOL_WT>  (709) 
205.21699999999998

>  <LOGP>  (709) 
0.5172999999999999

>  <TPSA>  (709) 
92.0

>  <POPULARITY>  (709) 
2.7

>  <PROTECTED>  (709) 
TRUE

>  <SMILES>  (709) 
N[C@@H](Cc2(ccc1(cn[nH]c1c2)))C(=O)O

>  <INCHIKEY>  (709) 
OYMNKWWOWKDCMR-QMMMGPOBSA-N

$$$$
Ala_1Meindazolyl
     RDKit          2D

 16 17  0  0  0  0  0  0  0  0999 V2000
   -2.6133    1.7123    0.0000 N   0  0  0  0  0  0  0  0  0  0  0  0
   -2.9872    0.2596    0.0000 C   0  0  0  0  0  0  0  0  0  0  0  0
   -1.9161   -0.7905    0.0000 C   0  0  0  0  0  0  0  0  0  0  0  0
   -0.4711   -0.3880    0.0000 C   0  0  0  0  0  0  0  0  0  0  0  0
   -0.0972    1.0647    0.0000 C   0  0  0  0  0  0  0  0  0  0  0  0
    1.3478    1.4672    0.0000 C   0  0  0  0  0  0  0  0  0  0  0  0
    2.4189    0.4171    0.0000 C   0  0  0  0  0  0  0  0  0  0  0  0
    2.0450   -1.0355    0.0000 C   0  0  0  0  0  0  0  0  0  0  0  0
    3.3110   -1.8400    0.0000 C   0  0  0  0  0  0  0  0  0  0  0  0
    4.4673   -0.8845    0.0000 N   0  0  0  0  0  0  0  0  0  0  0  0
    3.9160    0.5105    0.0000 N   0  0  0  0  0  0  0  0  0  0  0  0
    4.7204    1.7765    0.0000 C   0  0  0  0  0  0  0  0  0  0  0  0
    0.6000   -1.4381    0.0000 C   0  0  0  0  0  0  0  0  0  0  0  0
   -4.4322   -0.1429    0.0000 C   0  0  0  0  0  0  0  0  0  0  0  0
   -4.8060   -1.5956    0.0000 O   0  0  0  0  0  0  0  0  0  0  0  0
   -5.5033    0.9072    0.0000 O   0  0  0  0  0  0  0  0  0  0  0  0
  2  1  1  1
  2  3  1  0
  3  4  1  0
  4  5  1  0
  5  6  2  0
  6  7  1  0
  7  8  2  0
  8  9  1  0
  9 10  2  0
 10 11  1  0
 11 12  1  0
  8 13  1  0
  2 14  1  0
 14 15  2  0
 14 16  1  0
 11  7  1  0
 13  4  2  0
M  END
>  <rName>  (710) 
Ala_1Meindazolyl

>  <PQ_SYMBOL>  (710) 
Ala_1Meindazolyl

>  <FULL_NAME>  (710) 
(S)-2-amino-3-(1-methyl-1H-indazol-5-yl)propanoic acid

>  <IUPAC_CONDENSED>  (710) 
Ala(1-Me-indazolyl)

>  <IUPAC>  (710) 
(2S)-2-amino-3-(1-methyl-1H-indazol-5-yl)propanoic acid

>  <TYPE>  (710) 
Backbone

>  <CLASS>  (710) 
alpha

>  <ANALOG>  (710) 
Phe

>  <MOL_WT>  (710) 
219.24399999999997

>  <LOGP>  (710) 
0.5276999999999998

>  <TPSA>  (710) 
81.14

>  <POPULARITY>  (710) 
3.1

>  <PROTECTED>  (710) 
TRUE

>  <SMILES>  (710) 
N[C@@H](Cc2(ccc1(c(cnn1C)c2)))C(=O)O

>  <INCHIKEY>  (710) 
RWMLDOJQANZKGI-VIFPVBQESA-N

$$$$
Ala_1Mepiperidin4yl
     RDKit          2D

 13 13  0  0  0  0  0  0  0  0999 V2000
   -1.5766    1.6851    0.0000 N   0  0  0  0  0  0  0  0  0  0  0  0
   -2.0128    0.2500    0.0000 C   0  0  0  0  0  0  0  0  0  0  0  0
   -0.9880   -0.8454    0.0000 C   0  0  0  0  0  0  0  0  0  0  0  0
    0.4730   -0.5055    0.0000 C   0  0  0  0  0  0  0  0  0  0  0  0
    0.9092    0.9296    0.0000 C   0  0  0  0  0  0  0  0  0  0  0  0
    2.3702    1.2695    0.0000 C   0  0  0  0  0  0  0  0  0  0  0  0
    3.3950    0.1741    0.0000 N   0  0  0  0  0  0  0  0  0  0  0  0
    4.8560    0.5140    0.0000 C   0  0  0  0  0  0  0  0  0  0  0  0
    2.9588   -1.2611    0.0000 C   0  0  0  0  0  0  0  0  0  0  0  0
    1.4978   -1.6009    0.0000 C   0  0  0  0  0  0  0  0  0  0  0  0
   -3.4738   -0.0899    0.0000 C   0  0  0  0  0  0  0  0  0  0  0  0
   -3.9100   -1.5250    0.0000 O   0  0  0  0  0  0  0  0  0  0  0  0
   -4.4986    1.0055    0.0000 O   0  0  0  0  0  0  0  0  0  0  0  0
  2  1  1  1
  2  3  1  0
  3  4  1  0
  4  5  1  0
  5  6  1  0
  6  7  1  0
  7  8  1  0
  7  9  1  0
  9 10  1  0
  2 11  1  0
 11 12  2  0
 11 13  1  0
 10  4  1  0
M  END
>  <rName>  (711) 
Ala_1Mepiperidin4yl

>  <PQ_SYMBOL>  (711) 
Ala_1Mepiperidin4yl

>  <FULL_NAME>  (711) 
(2S)-2-amino-3-(1-methylpiperidin-4-yl)propanoic acid

>  <IUPAC_CONDENSED>  (711) 
Ala(1-Me-piperidin-4-yl)

>  <IUPAC>  (711) 
(2S)-2-amino-3-(1-methylpiperidin-4-yl)propanoic acid

>  <TYPE>  (711) 
Backbone

>  <CLASS>  (711) 
alpha

>  <ANALOG>  (711) 
Lys

>  <MOL_WT>  (711) 
186.255

>  <LOGP>  (711) 
0.13020000000000004

>  <TPSA>  (711) 
66.56

>  <POPULARITY>  (711) 
2.2

>  <PROTECTED>  (711) 
TRUE

>  <SMILES>  (711) 
N[C@@H](CC1(CCN(C)CC1))C(=O)O

>  <INCHIKEY>  (711) 
XJJWNQGYMTZXFS-QMMMGPOBSA-N

$$$$
Ala_1Mepyrrol2yl
     RDKit          2D

 12 12  0  0  0  0  0  0  0  0999 V2000
   -0.9675    1.5404    0.0000 N   0  0  0  0  0  0  0  0  0  0  0  0
   -1.3813    0.0986    0.0000 C   0  0  0  0  0  0  0  0  0  0  0  0
   -0.3395   -0.9807    0.0000 C   0  0  0  0  0  0  0  0  0  0  0  0
    1.1160   -0.6181    0.0000 C   0  0  0  0  0  0  0  0  0  0  0  0
    2.2649   -1.5825    0.0000 C   0  0  0  0  0  0  0  0  0  0  0  0
    3.5371   -0.7879    0.0000 C   0  0  0  0  0  0  0  0  0  0  0  0
    3.1745    0.6676    0.0000 C   0  0  0  0  0  0  0  0  0  0  0  0
    1.6782    0.7725    0.0000 N   0  0  0  0  0  0  0  0  0  0  0  0
    0.8836    2.0448    0.0000 C   0  0  0  0  0  0  0  0  0  0  0  0
   -2.8368   -0.2640    0.0000 C   0  0  0  0  0  0  0  0  0  0  0  0
   -3.2506   -1.7058    0.0000 O   0  0  0  0  0  0  0  0  0  0  0  0
   -3.8786    0.8152    0.0000 O   0  0  0  0  0  0  0  0  0  0  0  0
  2  1  1  1
  2  3  1  0
  3  4  1  0
  4  5  2  0
  5  6  1  0
  6  7  2  0
  7  8  1  0
  8  9  1  0
  2 10  1  0
 10 11  2  0
 10 12  1  0
  8  4  1  0
M  END
>  <rName>  (712) 
Ala_1Mepyrrol2yl

>  <PQ_SYMBOL>  (712) 
Ala_1Mepyrrol2yl

>  <FULL_NAME>  (712) 
(2S)-2-amino-3-(1-methylpyrrol-2-yl)propanoic acid

>  <IUPAC_CONDENSED>  (712) 
Ala(1-Me-pyrrol-2-yl)

>  <IUPAC>  (712) 
(2S)-2-amino-3-(1-methylpyrrol-2-yl)propanoic acid

>  <TYPE>  (712) 
Backbone

>  <CLASS>  (712) 
alpha

>  <ANALOG>  (712) 
Phe

>  <MOL_WT>  (712) 
168.19599999999997

>  <LOGP>  (712) 
-0.020500000000000018

>  <TPSA>  (712) 
68.25

>  <POPULARITY>  (712) 
2.2

>  <PROTECTED>  (712) 
TRUE

>  <SMILES>  (712) 
N[C@@H](Cc1(cccn1C))C(=O)O

>  <INCHIKEY>  (712) 
PWGWCPIZBXOIAB-ZETCQYMHSA-N

$$$$
Ala_22diMe1_3benzodioxolyl
     RDKit          2D

 17 18  0  0  0  0  0  0  0  0999 V2000
   -3.1695    1.6432    0.0000 N   0  0  0  0  0  0  0  0  0  0  0  0
   -3.3954    0.1603    0.0000 C   0  0  0  0  0  0  0  0  0  0  0  0
   -2.2241   -0.7768    0.0000 C   0  0  0  0  0  0  0  0  0  0  0  0
   -0.8270   -0.2310    0.0000 C   0  0  0  0  0  0  0  0  0  0  0  0
   -0.6010    1.2519    0.0000 C   0  0  0  0  0  0  0  0  0  0  0  0
    0.7962    1.7976    0.0000 C   0  0  0  0  0  0  0  0  0  0  0  0
    1.9674    0.8605    0.0000 C   0  0  0  0  0  0  0  0  0  0  0  0
    3.4475    1.1039    0.0000 O   0  0  0  0  0  0  0  0  0  0  0  0
    4.1364   -0.2286    0.0000 C   0  0  0  0  0  0  0  0  0  0  0  0
    3.0820   -1.2955    0.0000 O   0  0  0  0  0  0  0  0  0  0  0  0
    1.7415   -0.6223    0.0000 C   0  0  0  0  0  0  0  0  0  0  0  0
    0.3443   -1.1681    0.0000 C   0  0  0  0  0  0  0  0  0  0  0  0
    5.3895    0.5958    0.0000 C   0  0  0  0  0  0  0  0  0  0  0  0
    5.0872   -1.3887    0.0000 C   0  0  0  0  0  0  0  0  0  0  0  0
   -4.7926   -0.3855    0.0000 C   0  0  0  0  0  0  0  0  0  0  0  0
   -5.0185   -1.8684    0.0000 O   0  0  0  0  0  0  0  0  0  0  0  0
   -5.9638    0.5516    0.0000 O   0  0  0  0  0  0  0  0  0  0  0  0
  2  1  1  1
  2  3  1  0
  3  4  1  0
  4  5  1  0
  5  6  2  0
  6  7  1  0
  7  8  1  0
  8  9  1  0
  9 10  1  0
 10 11  1  0
 11 12  1  0
  9 13  1  0
  9 14  1  0
  2 15  1  0
 15 16  2  0
 15 17  1  0
 11  7  2  0
 12  4  2  0
M  END
>  <rName>  (713) 
Ala_22diMe1_3benzodioxolyl

>  <PQ_SYMBOL>  (713) 
Ala_22diMe1_3benzodioxolyl

>  <FULL_NAME>  (713) 
(S)-2-amino-3-(2,2-dimethylbenzo[d][1,3]dioxol-5-yl)propanoic acid

>  <IUPAC_CONDENSED>  (713) 
Ala(2,2-diMe-1,3-benzodioxolyl)

>  <IUPAC>  (713) 
(2S)-2-amino-3-(8,8-dimethyl-7,9-dioxabicyclo[4.3.0]nona-1,3,5-trien-3-yl)propanoic acid

>  <TYPE>  (713) 
Backbone

>  <CLASS>  (713) 
alpha

>  <ANALOG>  (713) 
Tyr

>  <MOL_WT>  (713) 
237.25499999999997

>  <LOGP>  (713) 
1.1482999999999999

>  <TPSA>  (713) 
81.78

>  <POPULARITY>  (713) 
5.4

>  <PROTECTED>  (713) 
TRUE

>  <SMILES>  (713) 
N[C@@H](Cc2(ccc1(OC(Oc1c2)(C)C)))C(=O)O

>  <INCHIKEY>  (713) 
PFPPGLZXDDFWGF-QMMMGPOBSA-N

$$$$
Ala_22diMe4H1_3benzodioxinyl
     RDKit          2D

 18 19  0  0  0  0  0  0  0  0999 V2000
   -3.3721    1.6983    0.0000 N   0  0  0  0  0  0  0  0  0  0  0  0
   -3.6769    0.2296    0.0000 C   0  0  0  0  0  0  0  0  0  0  0  0
   -2.5573   -0.7687    0.0000 C   0  0  0  0  0  0  0  0  0  0  0  0
   -1.1330   -0.2982    0.0000 C   0  0  0  0  0  0  0  0  0  0  0  0
   -0.8282    1.1705    0.0000 C   0  0  0  0  0  0  0  0  0  0  0  0
    0.5961    1.6410    0.0000 C   0  0  0  0  0  0  0  0  0  0  0  0
    1.7157    0.6427    0.0000 C   0  0  0  0  0  0  0  0  0  0  0  0
    3.1400    1.1131    0.0000 O   0  0  0  0  0  0  0  0  0  0  0  0
    4.2596    0.1149    0.0000 C   0  0  0  0  0  0  0  0  0  0  0  0
    3.9548   -1.3539    0.0000 O   0  0  0  0  0  0  0  0  0  0  0  0
    2.5305   -1.8243    0.0000 C   0  0  0  0  0  0  0  0  0  0  0  0
    1.4109   -0.8260    0.0000 C   0  0  0  0  0  0  0  0  0  0  0  0
   -0.0134   -1.2965    0.0000 C   0  0  0  0  0  0  0  0  0  0  0  0
    5.6530   -0.4403    0.0000 C   0  0  0  0  0  0  0  0  0  0  0  0
    5.0482    1.3908    0.0000 C   0  0  0  0  0  0  0  0  0  0  0  0
   -5.1012   -0.2408    0.0000 C   0  0  0  0  0  0  0  0  0  0  0  0
   -5.4059   -1.7096    0.0000 O   0  0  0  0  0  0  0  0  0  0  0  0
   -6.2208    0.7574    0.0000 O   0  0  0  0  0  0  0  0  0  0  0  0
  2  1  1  1
  2  3  1  0
  3  4  1  0
  4  5  1  0
  5  6  2  0
  6  7  1  0
  7  8  1  0
  8  9  1  0
  9 10  1  0
 10 11  1  0
 11 12  1  0
 12 13  1  0
  9 14  1  0
  9 15  1  0
  2 16  1  0
 16 17  2  0
 16 18  1  0
 12  7  2  0
 13  4  2  0
M  END
>  <rName>  (714) 
Ala_22diMe4H1_3benzodioxinyl

>  <PQ_SYMBOL>  (714) 
Ala_22diMe4H1_3benzodioxinyl

>  <FULL_NAME>  (714) 
(S)-2-amino-3-(2,2-dimethyl-4H-benzo[d][1,3]dioxin-6-yl)propanoic acid

>  <IUPAC_CONDENSED>  (714) 
Ala(2,2-diMe-4H-1,3-benzodioxinyl)

>  <IUPAC>  (714) 
(2S)-2-amino-3-(3,3-dimethyl-2,4-dioxabicyclo[4.4.0]deca-1(10),6,8-trien-8-yl)propanoic acid

>  <TYPE>  (714) 
Backbone

>  <CLASS>  (714) 
alpha

>  <ANALOG>  (714) 
Tyr

>  <MOL_WT>  (714) 
251.28199999999995

>  <LOGP>  (714) 
1.2860999999999998

>  <TPSA>  (714) 
81.78

>  <POPULARITY>  (714) 
5.9

>  <PROTECTED>  (714) 
TRUE

>  <SMILES>  (714) 
N[C@@H](Cc2(ccc1(OC(OCc1c2)(C)C)))C(=O)O

>  <INCHIKEY>  (714) 
YJUFZZSKANPCHI-JTQLQIEISA-N

$$$$
Ala_23dihydrobenzodioxin5yl
     RDKit          2D

 16 17  0  0  0  0  0  0  0  0999 V2000
   -2.7457   -1.6512    0.0000 N   0  0  0  0  0  0  0  0  0  0  0  0
   -2.6203   -0.1565    0.0000 C   0  0  0  0  0  0  0  0  0  0  0  0
   -1.2631    0.4823    0.0000 C   0  0  0  0  0  0  0  0  0  0  0  0
   -0.0314   -0.3737    0.0000 C   0  0  0  0  0  0  0  0  0  0  0  0
   -0.1568   -1.8684    0.0000 C   0  0  0  0  0  0  0  0  0  0  0  0
    1.0750   -2.7244    0.0000 C   0  0  0  0  0  0  0  0  0  0  0  0
    2.4322   -2.0856    0.0000 C   0  0  0  0  0  0  0  0  0  0  0  0
    2.5576   -0.5909    0.0000 C   0  0  0  0  0  0  0  0  0  0  0  0
    3.9148    0.0479    0.0000 O   0  0  0  0  0  0  0  0  0  0  0  0
    4.0402    1.5426    0.0000 C   0  0  0  0  0  0  0  0  0  0  0  0
    2.8084    2.3986    0.0000 C   0  0  0  0  0  0  0  0  0  0  0  0
    1.4512    1.7598    0.0000 O   0  0  0  0  0  0  0  0  0  0  0  0
    1.3258    0.2651    0.0000 C   0  0  0  0  0  0  0  0  0  0  0  0
   -3.8521    0.6995    0.0000 C   0  0  0  0  0  0  0  0  0  0  0  0
   -3.7267    2.1942    0.0000 O   0  0  0  0  0  0  0  0  0  0  0  0
   -5.2093    0.0607    0.0000 O   0  0  0  0  0  0  0  0  0  0  0  0
  2  1  1  6
  2  3  1  0
  3  4  1  0
  4  5  1  0
  5  6  2  0
  6  7  1  0
  7  8  2  0
  8  9  1  0
  9 10  1  0
 10 11  1  0
 11 12  1  0
 12 13  1  0
  2 14  1  0
 14 15  2  0
 14 16  1  0
 13  8  1  0
 13  4  2  0
M  END
>  <rName>  (715) 
Ala_23dihydrobenzodioxin5yl

>  <PQ_SYMBOL>  (715) 
Ala_23dihydrobenzodioxin5yl

>  <FULL_NAME>  (715) 
Ala(2,3-dihydrobenzodioxin-5-yl)

>  <IUPAC_CONDENSED>  (715) 
Ala(2,3-dihydrobenzodioxin-5-yl)

>  <IUPAC>  (715) 
(2S)-2-amino-3-(2,5-dioxabicyclo[4.4.0]deca-1(6),7,9-trien-7-yl)propanoic acid

>  <TYPE>  (715) 
Backbone

>  <CLASS>  (715) 
alpha

>  <ANALOG>  (715) 
Tyr

>  <MOL_WT>  (715) 
223.22799999999992

>  <LOGP>  (715) 
0.41219999999999984

>  <TPSA>  (715) 
81.78

>  <POPULARITY>  (715) 
2.2

>  <PROTECTED>  (715) 
TRUE

>  <SMILES>  (715) 
N[C@@H](Cc2(cccc1(OCCOc12)))C(=O)O

>  <INCHIKEY>  (715) 
OPXOKRXYEIXZCJ-QMMMGPOBSA-N

$$$$
Ala_23dihydrobenzodioxin6yl
     RDKit          2D

 16 17  0  0  0  0  0  0  0  0999 V2000
   -2.0722    1.6358    0.0000 N   0  0  0  0  0  0  0  0  0  0  0  0
   -2.7778    0.3121    0.0000 C   0  0  0  0  0  0  0  0  0  0  0  0
   -1.9842   -0.9608    0.0000 C   0  0  0  0  0  0  0  0  0  0  0  0
   -0.4851   -0.9100    0.0000 C   0  0  0  0  0  0  0  0  0  0  0  0
    0.3084   -2.1829    0.0000 C   0  0  0  0  0  0  0  0  0  0  0  0
    1.8076   -2.1322    0.0000 C   0  0  0  0  0  0  0  0  0  0  0  0
    2.5132   -0.8085    0.0000 C   0  0  0  0  0  0  0  0  0  0  0  0
    4.0123   -0.7577    0.0000 O   0  0  0  0  0  0  0  0  0  0  0  0
    4.7179    0.5659    0.0000 C   0  0  0  0  0  0  0  0  0  0  0  0
    3.9244    1.8388    0.0000 C   0  0  0  0  0  0  0  0  0  0  0  0
    2.4253    1.7881    0.0000 O   0  0  0  0  0  0  0  0  0  0  0  0
    1.7196    0.4644    0.0000 C   0  0  0  0  0  0  0  0  0  0  0  0
    0.2205    0.4136    0.0000 C   0  0  0  0  0  0  0  0  0  0  0  0
   -4.2769    0.2614    0.0000 C   0  0  0  0  0  0  0  0  0  0  0  0
   -4.9825   -1.0623    0.0000 O   0  0  0  0  0  0  0  0  0  0  0  0
   -5.0704    1.5343    0.0000 O   0  0  0  0  0  0  0  0  0  0  0  0
  2  1  1  1
  2  3  1  0
  3  4  1  0
  4  5  1  0
  5  6  2  0
  6  7  1  0
  7  8  1  0
  8  9  1  0
  9 10  1  0
 10 11  1  0
 11 12  1  0
 12 13  1  0
  2 14  1  0
 14 15  2  0
 14 16  1  0
 12  7  2  0
 13  4  2  0
M  END
>  <rName>  (716) 
Ala_23dihydrobenzodioxin6yl

>  <PQ_SYMBOL>  (716) 
Ala_23dihydrobenzodioxin6yl

>  <FULL_NAME>  (716) 
(S)-2-amino-3-(2,3-dihydrobenzo[b][1,4]dioxin-6-yl)propanoic acid

>  <IUPAC_CONDENSED>  (716) 
Ala(2,3-dihydrobenzodioxin-6-yl)

>  <IUPAC>  (716) 
(2S)-2-amino-3-(2,5-dioxabicyclo[4.4.0]deca-1(10),6,8-trien-8-yl)propanoic acid

>  <TYPE>  (716) 
Backbone

>  <CLASS>  (716) 
alpha

>  <ANALOG>  (716) 
Tyr

>  <MOL_WT>  (716) 
223.22799999999995

>  <LOGP>  (716) 
0.41219999999999984

>  <TPSA>  (716) 
81.78

>  <POPULARITY>  (716) 
8.8

>  <PROTECTED>  (716) 
TRUE

>  <SMILES>  (716) 
N[C@@H](Cc2(ccc1(OCCOc1c2)))C(=O)O

>  <INCHIKEY>  (716) 
HPGGFMVTHJHFTK-QMMMGPOBSA-N

$$$$
Ala_23dihydrobenzofuran5yl
     RDKit          2D

 15 16  0  0  0  0  0  0  0  0999 V2000
    2.4169   -1.6715    0.0000 N   0  0  0  0  0  0  0  0  0  0  0  0
    2.6919   -0.1969    0.0000 C   0  0  0  0  0  0  0  0  0  0  0  0
    1.5524    0.7786    0.0000 C   0  0  0  0  0  0  0  0  0  0  0  0
    0.1379    0.2795    0.0000 C   0  0  0  0  0  0  0  0  0  0  0  0
   -0.1372   -1.1951    0.0000 C   0  0  0  0  0  0  0  0  0  0  0  0
   -1.5517   -1.6942    0.0000 C   0  0  0  0  0  0  0  0  0  0  0  0
   -2.6912   -0.7188    0.0000 C   0  0  0  0  0  0  0  0  0  0  0  0
   -4.1786   -0.9129    0.0000 O   0  0  0  0  0  0  0  0  0  0  0  0
   -4.8228    0.4417    0.0000 C   0  0  0  0  0  0  0  0  0  0  0  0
   -3.7336    1.4730    0.0000 C   0  0  0  0  0  0  0  0  0  0  0  0
   -2.4162    0.7558    0.0000 C   0  0  0  0  0  0  0  0  0  0  0  0
   -1.0016    1.2549    0.0000 C   0  0  0  0  0  0  0  0  0  0  0  0
    4.1064    0.3022    0.0000 C   0  0  0  0  0  0  0  0  0  0  0  0
    4.3814    1.7768    0.0000 O   0  0  0  0  0  0  0  0  0  0  0  0
    5.2459   -0.6732    0.0000 O   0  0  0  0  0  0  0  0  0  0  0  0
  2  1  1  1
  2  3  1  0
  3  4  1  0
  4  5  1  0
  5  6  2  0
  6  7  1  0
  7  8  1  0
  8  9  1  0
  9 10  1  0
 10 11  1  0
 11 12  1  0
  2 13  1  0
 13 14  2  0
 13 15  1  0
 11  7  2  0
 12  4  2  0
M  END
>  <rName>  (717) 
Ala_23dihydrobenzofuran5yl

>  <PQ_SYMBOL>  (717) 
Ala_23dihydrobenzofuran5yl

>  <FULL_NAME>  (717) 
(S)-2-amino-3-(2,3-dihydrobenzofuran-5-yl)propanoic acid

>  <IUPAC_CONDENSED>  (717) 
Ala(2,3-dihydrobenzofuran-5-yl)

>  <IUPAC>  (717) 
(2S)-2-amino-3-(7-oxabicyclo[4.3.0]nona-1,3,5-trien-3-yl)propanoic acid

>  <TYPE>  (717) 
Backbone

>  <CLASS>  (717) 
alpha

>  <ANALOG>  (717) 
Tyr

>  <MOL_WT>  (717) 
207.22899999999996

>  <LOGP>  (717) 
0.5758999999999999

>  <TPSA>  (717) 
72.55

>  <POPULARITY>  (717) 
6.0

>  <PROTECTED>  (717) 
TRUE

>  <SMILES>  (717) 
N[C@@H](Cc2(ccc1(OCCc1c2)))C(=O)O

>  <INCHIKEY>  (717) 
HKGMTLHJHVAQAL-VIFPVBQESA-N

$$$$
Ala_23dihydrobenzofuran7yl
     RDKit          2D

 15 16  0  0  0  0  0  0  0  0999 V2000
    2.3960   -1.7012    0.0000 N   0  0  0  0  0  0  0  0  0  0  0  0
    2.3823   -0.2013    0.0000 C   0  0  0  0  0  0  0  0  0  0  0  0
    1.0765    0.5368    0.0000 C   0  0  0  0  0  0  0  0  0  0  0  0
   -0.2156   -0.2250    0.0000 C   0  0  0  0  0  0  0  0  0  0  0  0
   -0.2020   -1.7249    0.0000 C   0  0  0  0  0  0  0  0  0  0  0  0
   -1.4941   -2.4867    0.0000 C   0  0  0  0  0  0  0  0  0  0  0  0
   -2.7999   -1.7486    0.0000 C   0  0  0  0  0  0  0  0  0  0  0  0
   -2.8136   -0.2486    0.0000 C   0  0  0  0  0  0  0  0  0  0  0  0
   -3.9374    0.7448    0.0000 C   0  0  0  0  0  0  0  0  0  0  0  0
   -3.3398    2.1207    0.0000 C   0  0  0  0  0  0  0  0  0  0  0  0
   -1.8467    1.9775    0.0000 O   0  0  0  0  0  0  0  0  0  0  0  0
   -1.5214    0.5132    0.0000 C   0  0  0  0  0  0  0  0  0  0  0  0
    3.6745    0.5605    0.0000 C   0  0  0  0  0  0  0  0  0  0  0  0
    3.6608    2.0605    0.0000 O   0  0  0  0  0  0  0  0  0  0  0  0
    4.9803   -0.1776    0.0000 O   0  0  0  0  0  0  0  0  0  0  0  0
  2  1  1  1
  2  3  1  0
  3  4  1  0
  4  5  2  0
  5  6  1  0
  6  7  2  0
  7  8  1  0
  8  9  1  0
  9 10  1  0
 10 11  1  0
 11 12  1  0
  2 13  1  0
 13 14  2  0
 13 15  1  0
 12  4  1  0
 12  8  2  0
M  END
>  <rName>  (718) 
Ala_23dihydrobenzofuran7yl

>  <PQ_SYMBOL>  (718) 
Ala_23dihydrobenzofuran7yl

>  <FULL_NAME>  (718) 
(S)-2-amino-3-(2,3-dihydrobenzofuran-7-yl)propanoic acid

>  <IUPAC_CONDENSED>  (718) 
Ala(2,3-dihydrobenzofuran-7-yl)

>  <IUPAC>  (718) 
(2S)-2-amino-3-(7-oxabicyclo[4.3.0]nona-1(6),2,4-trien-5-yl)propanoic acid

>  <TYPE>  (718) 
Backbone

>  <CLASS>  (718) 
alpha

>  <ANALOG>  (718) 
Tyr

>  <MOL_WT>  (718) 
207.22899999999996

>  <LOGP>  (718) 
0.5759000000000003

>  <TPSA>  (718) 
72.55

>  <POPULARITY>  (718) 
4.4

>  <PROTECTED>  (718) 
TRUE

>  <SMILES>  (718) 
N[C@@H](Cc1(cccc2(CCOc12)))C(=O)O

>  <INCHIKEY>  (718) 
HURFZLPNHSWPAK-VIFPVBQESA-N

$$$$
Ala_2Mebenzimidazolyl
     RDKit          2D

 16 17  0  0  0  0  0  0  0  0999 V2000
   -2.8524    1.6457    0.0000 N   0  0  0  0  0  0  0  0  0  0  0  0
   -3.0906    0.1647    0.0000 C   0  0  0  0  0  0  0  0  0  0  0  0
   -1.9271   -0.7821    0.0000 C   0  0  0  0  0  0  0  0  0  0  0  0
   -0.5254   -0.2478    0.0000 C   0  0  0  0  0  0  0  0  0  0  0  0
   -0.2873    1.2331    0.0000 C   0  0  0  0  0  0  0  0  0  0  0  0
    1.1144    1.7674    0.0000 C   0  0  0  0  0  0  0  0  0  0  0  0
    2.2779    0.8206    0.0000 C   0  0  0  0  0  0  0  0  0  0  0  0
    3.7599    1.0517    0.0000 N   0  0  0  0  0  0  0  0  0  0  0  0
    4.4377   -0.2864    0.0000 C   0  0  0  0  0  0  0  0  0  0  0  0
    5.9187   -0.5246    0.0000 C   0  0  0  0  0  0  0  0  0  0  0  0
    3.3746   -1.3445    0.0000 N   0  0  0  0  0  0  0  0  0  0  0  0
    2.0397   -0.6604    0.0000 C   0  0  0  0  0  0  0  0  0  0  0  0
    0.6380   -1.1946    0.0000 C   0  0  0  0  0  0  0  0  0  0  0  0
   -4.4922   -0.3695    0.0000 C   0  0  0  0  0  0  0  0  0  0  0  0
   -4.7304   -1.8505    0.0000 O   0  0  0  0  0  0  0  0  0  0  0  0
   -5.6557    0.5772    0.0000 O   0  0  0  0  0  0  0  0  0  0  0  0
  2  1  1  1
  2  3  1  0
  3  4  1  0
  4  5  1  0
  5  6  2  0
  6  7  1  0
  7  8  1  0
  8  9  1  0
  9 10  1  0
  9 11  2  0
 11 12  1  0
 12 13  1  0
  2 14  1  0
 14 15  2  0
 14 16  1  0
 12  7  2  0
 13  4  2  0
M  END
>  <rName>  (719) 
Ala_2Mebenzimidazolyl

>  <PQ_SYMBOL>  (719) 
Ala_2Mebenzimidazolyl

>  <FULL_NAME>  (719) 
(S)-2-amino-3-(2-methyl-1H-benzo[d]imidazol-5-yl)propanoic acid

>  <IUPAC_CONDENSED>  (719) 
Ala(2-Me-benzimidazolyl)

>  <IUPAC>  (719) 
(2S)-2-amino-3-(2-methyl-1H-benzimidazol-5-yl)propanoic acid

>  <TYPE>  (719) 
Backbone

>  <CLASS>  (719) 
alpha

>  <ANALOG>  (719) 
Phe

>  <MOL_WT>  (719) 
219.24399999999997

>  <LOGP>  (719) 
0.8257199999999998

>  <TPSA>  (719) 
92.00000000000001

>  <POPULARITY>  (719) 
3.6

>  <PROTECTED>  (719) 
TRUE

>  <SMILES>  (719) 
N[C@@H](Cc2(ccc1([nH]c(C)nc1c2)))C(=O)O

>  <INCHIKEY>  (719) 
UQPFCVPREPFMNJ-QMMMGPOBSA-N

$$$$
Ala_2Meindazolyl
     RDKit          2D

 16 17  0  0  0  0  0  0  0  0999 V2000
   -2.8524    1.6457    0.0000 N   0  0  0  0  0  0  0  0  0  0  0  0
   -3.0906    0.1647    0.0000 C   0  0  0  0  0  0  0  0  0  0  0  0
   -1.9271   -0.7821    0.0000 C   0  0  0  0  0  0  0  0  0  0  0  0
   -0.5254   -0.2478    0.0000 C   0  0  0  0  0  0  0  0  0  0  0  0
   -0.2873    1.2331    0.0000 C   0  0  0  0  0  0  0  0  0  0  0  0
    1.1144    1.7674    0.0000 C   0  0  0  0  0  0  0  0  0  0  0  0
    2.2779    0.8206    0.0000 C   0  0  0  0  0  0  0  0  0  0  0  0
    3.7599    1.0517    0.0000 N   0  0  0  0  0  0  0  0  0  0  0  0
    4.4377   -0.2864    0.0000 N   0  0  0  0  0  0  0  0  0  0  0  0
    5.9187   -0.5246    0.0000 C   0  0  0  0  0  0  0  0  0  0  0  0
    3.3746   -1.3445    0.0000 C   0  0  0  0  0  0  0  0  0  0  0  0
    2.0397   -0.6604    0.0000 C   0  0  0  0  0  0  0  0  0  0  0  0
    0.6380   -1.1946    0.0000 C   0  0  0  0  0  0  0  0  0  0  0  0
   -4.4922   -0.3695    0.0000 C   0  0  0  0  0  0  0  0  0  0  0  0
   -4.7304   -1.8505    0.0000 O   0  0  0  0  0  0  0  0  0  0  0  0
   -5.6557    0.5772    0.0000 O   0  0  0  0  0  0  0  0  0  0  0  0
  2  1  1  1
  2  3  1  0
  3  4  1  0
  4  5  1  0
  5  6  2  0
  6  7  1  0
  7  8  2  0
  8  9  1  0
  9 10  1  0
  9 11  1  0
 11 12  2  0
 12 13  1  0
  2 14  1  0
 14 15  2  0
 14 16  1  0
 12  7  1  0
 13  4  2  0
M  END
>  <rName>  (720) 
Ala_2Meindazolyl

>  <PQ_SYMBOL>  (720) 
Ala_2Meindazolyl

>  <FULL_NAME>  (720) 
(S)-2-amino-3-(2-methyl-2H-indazol-5-yl)propanoic acid

>  <IUPAC_CONDENSED>  (720) 
Ala(2-Me-indazolyl)

>  <IUPAC>  (720) 
(2S)-2-amino-3-(8-methyl-7,8-diazabicyclo[4.3.0]nona-1(9),2,4,6-tetraen-3-yl)propanoic acid

>  <TYPE>  (720) 
Backbone

>  <CLASS>  (720) 
alpha

>  <ANALOG>  (720) 
Phe

>  <MOL_WT>  (720) 
219.244

>  <LOGP>  (720) 
0.5276999999999998

>  <TPSA>  (720) 
81.14

>  <POPULARITY>  (720) 
3.1

>  <PROTECTED>  (720) 
TRUE

>  <SMILES>  (720) 
N[C@@H](Cc2(ccc1(nn(C)cc1c2)))C(=O)O

>  <INCHIKEY>  (720) 
OUMVLBFOBPVUHK-VIFPVBQESA-N

$$$$
Ala_2furyl
     RDKit          2D

 11 11  0  0  0  0  0  0  0  0999 V2000
   -0.9461    1.6947    0.0000 N   0  0  0  0  0  0  0  0  0  0  0  0
   -1.3100    0.2395    0.0000 C   0  0  0  0  0  0  0  0  0  0  0  0
   -0.2317   -0.8032    0.0000 C   0  0  0  0  0  0  0  0  0  0  0  0
    1.2105   -0.3908    0.0000 C   0  0  0  0  0  0  0  0  0  0  0  0
    2.3919   -1.3151    0.0000 C   0  0  0  0  0  0  0  0  0  0  0  0
    3.6360   -0.4772    0.0000 C   0  0  0  0  0  0  0  0  0  0  0  0
    3.2236    0.9650    0.0000 C   0  0  0  0  0  0  0  0  0  0  0  0
    1.7245    1.0184    0.0000 O   0  0  0  0  0  0  0  0  0  0  0  0
   -2.7522   -0.1729    0.0000 C   0  0  0  0  0  0  0  0  0  0  0  0
   -3.1161   -1.6281    0.0000 O   0  0  0  0  0  0  0  0  0  0  0  0
   -3.8304    0.8698    0.0000 O   0  0  0  0  0  0  0  0  0  0  0  0
  2  1  1  1
  2  3  1  0
  3  4  1  0
  4  5  2  0
  5  6  1  0
  6  7  2  0
  7  8  1  0
  2  9  1  0
  9 10  2  0
  9 11  1  0
  8  4  1  0
M  END
>  <rName>  (721) 
Ala_2furyl

>  <PQ_SYMBOL>  (721) 
Ala_2furyl

>  <FULL_NAME>  (721) 
3-(2-Furyl)-L-Alanine

>  <IUPAC_CONDENSED>  (721) 
Ala(2-furyl)

>  <IUPAC>  (721) 
(2S)-2-amino-3-(furan-2-yl)propanoic acid

>  <TYPE>  (721) 
Backbone

>  <CLASS>  (721) 
alpha

>  <ANALOG>  (721) 
Phe

>  <MOL_WT>  (721) 
155.15299999999996

>  <LOGP>  (721) 
0.23399999999999993

>  <TPSA>  (721) 
76.46

>  <POPULARITY>  (721) 
13.8

>  <PROTECTED>  (721) 
TRUE

>  <SMILES>  (721) 
N[C@@H](Cc1(ccco1))C(=O)O

>  <INCHIKEY>  (721) 
RXZQHZDTHUUJQJ-LURJTMIESA-N

$$$$
Ala_2oxotetrahydroquinolinyl
     RDKit          2D

 17 18  0  0  0  0  0  0  0  0999 V2000
   -3.0886    1.6988    0.0000 N   0  0  0  0  0  0  0  0  0  0  0  0
   -3.3834    0.2280    0.0000 C   0  0  0  0  0  0  0  0  0  0  0  0
   -2.2570   -0.7626    0.0000 C   0  0  0  0  0  0  0  0  0  0  0  0
   -0.8359   -0.2824    0.0000 C   0  0  0  0  0  0  0  0  0  0  0  0
   -0.5412    1.1883    0.0000 C   0  0  0  0  0  0  0  0  0  0  0  0
    0.8799    1.6685    0.0000 C   0  0  0  0  0  0  0  0  0  0  0  0
    2.0062    0.6778    0.0000 C   0  0  0  0  0  0  0  0  0  0  0  0
    3.4273    1.1580    0.0000 N   0  0  0  0  0  0  0  0  0  0  0  0
    4.5537    0.1674    0.0000 C   0  0  0  0  0  0  0  0  0  0  0  0
    5.9747    0.6475    0.0000 O   0  0  0  0  0  0  0  0  0  0  0  0
    4.2589   -1.3034    0.0000 C   0  0  0  0  0  0  0  0  0  0  0  0
    2.8379   -1.7835    0.0000 C   0  0  0  0  0  0  0  0  0  0  0  0
    1.7115   -0.7929    0.0000 C   0  0  0  0  0  0  0  0  0  0  0  0
    0.2904   -1.2731    0.0000 C   0  0  0  0  0  0  0  0  0  0  0  0
   -4.8044   -0.2521    0.0000 C   0  0  0  0  0  0  0  0  0  0  0  0
   -5.0992   -1.7229    0.0000 O   0  0  0  0  0  0  0  0  0  0  0  0
   -5.9308    0.7385    0.0000 O   0  0  0  0  0  0  0  0  0  0  0  0
  2  1  1  1
  2  3  1  0
  3  4  1  0
  4  5  1  0
  5  6  2  0
  6  7  1  0
  7  8  1  0
  8  9  1  0
  9 10  2  0
  9 11  1  0
 11 12  1  0
 12 13  1  0
 13 14  1  0
  2 15  1  0
 15 16  2  0
 15 17  1  0
 13  7  2  0
 14  4  2  0
M  END
>  <rName>  (722) 
Ala_2oxotetrahydroquinolinyl

>  <PQ_SYMBOL>  (722) 
Ala_2oxotetrahydroquinolinyl

>  <FULL_NAME>  (722) 
(S)-2-amino-3-(2-oxo-1,2,3,4-tetrahydroquinolin-6-yl)propanoic acid

>  <IUPAC_CONDENSED>  (722) 
Ala(2-oxo-tetrahydroquinolinyl)

>  <IUPAC>  (722) 
(2S)-2-amino-3-(3-oxo-2-azabicyclo[4.4.0]deca-1(10),6,8-trien-8-yl)propanoic acid

>  <TYPE>  (722) 
Backbone

>  <CLASS>  (722) 
alpha

>  <ANALOG>  (722) 
Phe

>  <MOL_WT>  (722) 
234.25499999999994

>  <LOGP>  (722) 
0.5256999999999996

>  <TPSA>  (722) 
92.42

>  <POPULARITY>  (722) 
2.8

>  <PROTECTED>  (722) 
TRUE

>  <SMILES>  (722) 
N[C@@H](Cc2(ccc1(NC(=O)CCc1c2)))C(=O)O

>  <INCHIKEY>  (722) 
DVHWRQBRWMYQRZ-VIFPVBQESA-N

$$$$
Ala_3OH_3oxazol2yl
     RDKit          2D

 12 12  0  0  0  0  0  0  0  0999 V2000
   -0.8524    1.9032    0.0000 N   0  0  0  0  0  0  0  0  0  0  0  0
   -1.2501    0.4569    0.0000 C   0  0  0  0  0  0  0  0  0  0  0  0
   -0.1963   -0.6106    0.0000 C   0  0  0  0  0  0  0  0  0  0  0  0
   -0.5940   -2.0570    0.0000 O   0  0  0  0  0  0  0  0  0  0  0  0
    1.2551   -0.2318    0.0000 C   0  0  0  0  0  0  0  0  0  0  0  0
    2.4146   -1.1834    0.0000 N   0  0  0  0  0  0  0  0  0  0  0  0
    3.6779   -0.3747    0.0000 C   0  0  0  0  0  0  0  0  0  0  0  0
    3.2991    1.0767    0.0000 C   0  0  0  0  0  0  0  0  0  0  0  0
    1.8017    1.1650    0.0000 O   0  0  0  0  0  0  0  0  0  0  0  0
   -2.7014    0.0781    0.0000 C   0  0  0  0  0  0  0  0  0  0  0  0
   -3.0991   -1.3682    0.0000 O   0  0  0  0  0  0  0  0  0  0  0  0
   -3.7552    1.1457    0.0000 O   0  0  0  0  0  0  0  0  0  0  0  0
  2  1  1  1
  2  3  1  0
  3  4  1  0
  3  5  1  0
  5  6  2  0
  6  7  1  0
  7  8  2  0
  8  9  1  0
  2 10  1  0
 10 11  2  0
 10 12  1  0
  9  5  1  0
M  END
>  <rName>  (723) 
Ala_3OH_3oxazol2yl

>  <PQ_SYMBOL>  (723) 
Ala_3OH_3oxazol2yl

>  <FULL_NAME>  (723) 
β-hydroxy-β-(2-oxazolyl)-L-alanine

>  <IUPAC_CONDENSED>  (723) 
Ala(3-OH,3-oxazol-2-yl)

>  <IUPAC>  (723) 
(2S)-2-amino-3-hydroxy-3-(oxazol-2-yl)propanoic acid

>  <TYPE>  (723) 
Backbone

>  <CLASS>  (723) 
alpha

>  <ANALOG>  (723) 
Phe

>  <MOL_WT>  (723) 
172.14

>  <LOGP>  (723) 
-0.8801000000000001

>  <TPSA>  (723) 
109.58

>  <POPULARITY>  (723) 
2.6

>  <PROTECTED>  (723) 
TRUE

>  <SMILES>  (723) 
N[C@@H](C(O)c1(ncco1))C(=O)O

>  <INCHIKEY>  (723) 
AXCPHMYYGMSHQB-WUCPZUCCSA-N

$$$$
Ala_3OH_3quinolin3yl
     RDKit          2D

 17 18  0  0  0  0  0  0  0  0999 V2000
   -1.8356    1.8513    0.0000 N   0  0  0  0  0  0  0  0  0  0  0  0
   -2.5978    0.5594    0.0000 C   0  0  0  0  0  0  0  0  0  0  0  0
   -1.8601   -0.7466    0.0000 C   0  0  0  0  0  0  0  0  0  0  0  0
   -2.6223   -2.0386    0.0000 O   0  0  0  0  0  0  0  0  0  0  0  0
   -0.3601   -0.7608    0.0000 C   0  0  0  0  0  0  0  0  0  0  0  0
    0.3776   -2.0668    0.0000 C   0  0  0  0  0  0  0  0  0  0  0  0
    1.8775   -2.0810    0.0000 N   0  0  0  0  0  0  0  0  0  0  0  0
    2.6397   -0.7890    0.0000 C   0  0  0  0  0  0  0  0  0  0  0  0
    4.1397   -0.8032    0.0000 C   0  0  0  0  0  0  0  0  0  0  0  0
    4.9019    0.4887    0.0000 C   0  0  0  0  0  0  0  0  0  0  0  0
    4.1642    1.7948    0.0000 C   0  0  0  0  0  0  0  0  0  0  0  0
    2.6642    1.8089    0.0000 C   0  0  0  0  0  0  0  0  0  0  0  0
    1.9020    0.5170    0.0000 C   0  0  0  0  0  0  0  0  0  0  0  0
    0.4021    0.5311    0.0000 C   0  0  0  0  0  0  0  0  0  0  0  0
   -4.0977    0.5735    0.0000 C   0  0  0  0  0  0  0  0  0  0  0  0
   -4.8599   -0.7184    0.0000 O   0  0  0  0  0  0  0  0  0  0  0  0
   -4.8354    1.8796    0.0000 O   0  0  0  0  0  0  0  0  0  0  0  0
  2  1  1  1
  2  3  1  0
  3  4  1  0
  3  5  1  0
  5  6  1  0
  6  7  2  0
  7  8  1  0
  8  9  2  0
  9 10  1  0
 10 11  2  0
 11 12  1  0
 12 13  2  0
 13 14  1  0
  2 15  1  0
 15 16  2  0
 15 17  1  0
 13  8  1  0
 14  5  2  0
M  END
>  <rName>  (724) 
Ala_3OH_3quinolin3yl

>  <PQ_SYMBOL>  (724) 
Ala_3OH_3quinolin3yl

>  <FULL_NAME>  (724) 
β-hydroxy-β-(3-quinolinyl)-L-alanine

>  <IUPAC_CONDENSED>  (724) 
Ala(3-OH,3-quinolin-3-yl)

>  <IUPAC>  (724) 
(2S)-2-amino-3-hydroxy-3-(quinolin-3-yl)propanoic acid

>  <TYPE>  (724) 
Backbone

>  <CLASS>  (724) 
alpha

>  <ANALOG>  (724) 
Phe

>  <MOL_WT>  (724) 
232.239

>  <LOGP>  (724) 
0.6800999999999999

>  <TPSA>  (724) 
96.44000000000001

>  <POPULARITY>  (724) 
2.6

>  <PROTECTED>  (724) 
TRUE

>  <SMILES>  (724) 
N[C@@H](C(O)c2(cnc1(ccccc1c2)))C(=O)O

>  <INCHIKEY>  (724) 
WHJLFGDDPFLGLI-VUWPPUDQSA-N

$$$$
Ala_3R3Cl4_5dihydroisoxazol5yl
     RDKit          2D

 11 11  0  0  0  0  0  0  0  0999 V2000
   -2.0109   -1.9308    0.0000 N   0  0  0  0  0  0  0  0  0  0  0  0
   -1.3434   -0.5875    0.0000 C   0  0  0  0  0  0  0  0  0  0  0  0
    0.1537   -0.4940    0.0000 C   0  0  0  0  0  0  0  0  0  0  0  0
    1.1093   -1.6502    0.0000 O   0  0  0  0  0  0  0  0  0  0  0  0
    2.5042   -1.0986    0.0000 N   0  0  0  0  0  0  0  0  0  0  0  0
    2.4107    0.3985    0.0000 C   0  0  0  0  0  0  0  0  0  0  0  0
    3.5669    1.3542    0.0000 Cl  0  0  0  0  0  0  0  0  0  0  0  0
    0.9580    0.7722    0.0000 C   0  0  0  0  0  0  0  0  0  0  0  0
   -2.1730    0.6622    0.0000 C   0  0  0  0  0  0  0  0  0  0  0  0
   -1.5054    2.0055    0.0000 O   0  0  0  0  0  0  0  0  0  0  0  0
   -3.6700    0.5686    0.0000 O   0  0  0  0  0  0  0  0  0  0  0  0
  2  1  1  6
  2  3  1  0
  3  4  1  0
  4  5  1  0
  5  6  2  0
  6  7  1  0
  6  8  1  0
  2  9  1  0
  9 10  2  0
  9 11  1  0
  3  8  1  6
M  END
>  <rName>  (725) 
Ala_3R3Cl4_5dihydroisoxazol5yl

>  <PQ_SYMBOL>  (725) 
Ala_3R3Cl4_5dihydroisoxazol5yl

>  <FULL_NAME>  (725) 
(2S)-AMINO[(5S)-3-CHLORO-4,5-DIHYDROISOXAZOL-5-YL]ACETIC ACID

>  <IUPAC_CONDENSED>  (725) 
Ala(3R-3-Cl-4,5-dihydroisoxazol-5-yl)

>  <IUPAC>  (725) 
(2S)-2-amino-2-((5S)-3-chloro-1-oxa-2-azacyclopent-2-en-5-yl)acetic acid

>  <TYPE>  (725) 
N-term cap

>  <CLASS>  (725) 
n_cap

>  <ANALOG>  (725) 
X

>  <MOL_WT>  (725) 
178.575

>  <LOGP>  (725) 
-0.2605

>  <TPSA>  (725) 
84.91000000000001

>  <POPULARITY>  (725) 
9.3

>  <PROTECTED>  (725) 
FALSE

>  <SMILES>  (725) 
N[C@@H]([C@H]1(ON=C(Cl)C1))C(=O)O

>  <INCHIKEY>  (725) 
QAWIHIJWNYOLBE-OKKQSCSOSA-N

$$$$
Ala_3Rpiperidyl
     RDKit          2D

 12 12  0  0  0  0  0  0  0  0999 V2000
   -1.2391    1.6805    0.0000 N   0  0  0  0  0  0  0  0  0  0  0  0
   -1.6184    0.2292    0.0000 C   0  0  0  0  0  0  0  0  0  0  0  0
   -0.5513   -0.8249    0.0000 C   0  0  0  0  0  0  0  0  0  0  0  0
    0.8952   -0.4278    0.0000 C   0  0  0  0  0  0  0  0  0  0  0  0
    1.2745    1.0235    0.0000 C   0  0  0  0  0  0  0  0  0  0  0  0
    2.7210    1.4206    0.0000 C   0  0  0  0  0  0  0  0  0  0  0  0
    3.7882    0.3665    0.0000 C   0  0  0  0  0  0  0  0  0  0  0  0
    3.4088   -1.0848    0.0000 N   0  0  0  0  0  0  0  0  0  0  0  0
    1.9624   -1.4819    0.0000 C   0  0  0  0  0  0  0  0  0  0  0  0
   -3.0649   -0.1679    0.0000 C   0  0  0  0  0  0  0  0  0  0  0  0
   -3.4442   -1.6191    0.0000 O   0  0  0  0  0  0  0  0  0  0  0  0
   -4.1321    0.8862    0.0000 O   0  0  0  0  0  0  0  0  0  0  0  0
  2  1  1  1
  2  3  1  0
  4  3  1  1
  4  5  1  0
  5  6  1  0
  6  7  1  0
  7  8  1  0
  8  9  1  0
  2 10  1  0
 10 11  2  0
 10 12  1  0
  9  4  1  0
M  END
>  <rName>  (726) 
Ala_3Rpiperidyl

>  <PQ_SYMBOL>  (726) 
Ala_3Rpiperidyl

>  <FULL_NAME>  (726) 
Ala(3R-piperidyl)

>  <IUPAC_CONDENSED>  (726) 
Ala(3R-piperidyl)

>  <IUPAC>  (726) 
(2S)-2-amino-3-((3R)-piperidin-3-yl)propanoic acid

>  <TYPE>  (726) 
Backbone

>  <CLASS>  (726) 
alpha

>  <ANALOG>  (726) 
Lys

>  <MOL_WT>  (726) 
172.228

>  <LOGP>  (726) 
-0.21200000000000047

>  <TPSA>  (726) 
75.35

>  <POPULARITY>  (726) 
2.2

>  <PROTECTED>  (726) 
TRUE

>  <SMILES>  (726) 
N[C@@H](C[C@H]1(CCCNC1))C(=O)O

>  <INCHIKEY>  (726) 
BKQGYYLJOJLDMS-RQJHMYQMSA-N

$$$$
Ala_3Spiperidyl
     RDKit          2D

 12 12  0  0  0  0  0  0  0  0999 V2000
   -1.2391    1.6805    0.0000 N   0  0  0  0  0  0  0  0  0  0  0  0
   -1.6184    0.2292    0.0000 C   0  0  0  0  0  0  0  0  0  0  0  0
   -0.5513   -0.8249    0.0000 C   0  0  0  0  0  0  0  0  0  0  0  0
    0.8952   -0.4278    0.0000 C   0  0  0  0  0  0  0  0  0  0  0  0
    1.2745    1.0235    0.0000 C   0  0  0  0  0  0  0  0  0  0  0  0
    2.7210    1.4206    0.0000 C   0  0  0  0  0  0  0  0  0  0  0  0
    3.7882    0.3665    0.0000 C   0  0  0  0  0  0  0  0  0  0  0  0
    3.4088   -1.0848    0.0000 N   0  0  0  0  0  0  0  0  0  0  0  0
    1.9624   -1.4819    0.0000 C   0  0  0  0  0  0  0  0  0  0  0  0
   -3.0649   -0.1679    0.0000 C   0  0  0  0  0  0  0  0  0  0  0  0
   -3.4442   -1.6191    0.0000 O   0  0  0  0  0  0  0  0  0  0  0  0
   -4.1321    0.8862    0.0000 O   0  0  0  0  0  0  0  0  0  0  0  0
  2  1  1  1
  2  3  1  0
  4  3  1  6
  4  5  1  0
  5  6  1  0
  6  7  1  0
  7  8  1  0
  8  9  1  0
  2 10  1  0
 10 11  2  0
 10 12  1  0
  9  4  1  0
M  END
>  <rName>  (727) 
Ala_3Spiperidyl

>  <PQ_SYMBOL>  (727) 
Ala_3Spiperidyl

>  <FULL_NAME>  (727) 
Ala(3S-piperidyl)

>  <IUPAC_CONDENSED>  (727) 
Ala(3S-piperidyl)

>  <IUPAC>  (727) 
(2S)-2-amino-3-((3S)-piperidin-3-yl)propanoic acid

>  <TYPE>  (727) 
Backbone

>  <CLASS>  (727) 
alpha

>  <ANALOG>  (727) 
Lys

>  <MOL_WT>  (727) 
172.228

>  <LOGP>  (727) 
-0.21200000000000047

>  <TPSA>  (727) 
75.35

>  <POPULARITY>  (727) 
2.2

>  <PROTECTED>  (727) 
TRUE

>  <SMILES>  (727) 
N[C@@H](C[C@@H]1(CCCNC1))C(=O)O

>  <INCHIKEY>  (727) 
BKQGYYLJOJLDMS-BQBZGAKWSA-N

$$$$
Ala_4piperidyl
     RDKit          2D

 12 12  0  0  0  0  0  0  0  0999 V2000
   -1.2391    1.6805    0.0000 N   0  0  0  0  0  0  0  0  0  0  0  0
   -1.6184    0.2292    0.0000 C   0  0  0  0  0  0  0  0  0  0  0  0
   -0.5513   -0.8249    0.0000 C   0  0  0  0  0  0  0  0  0  0  0  0
    0.8952   -0.4278    0.0000 C   0  0  0  0  0  0  0  0  0  0  0  0
    1.2745    1.0235    0.0000 C   0  0  0  0  0  0  0  0  0  0  0  0
    2.7210    1.4206    0.0000 C   0  0  0  0  0  0  0  0  0  0  0  0
    3.7882    0.3665    0.0000 N   0  0  0  0  0  0  0  0  0  0  0  0
    3.4088   -1.0848    0.0000 C   0  0  0  0  0  0  0  0  0  0  0  0
    1.9624   -1.4819    0.0000 C   0  0  0  0  0  0  0  0  0  0  0  0
   -3.0649   -0.1679    0.0000 C   0  0  0  0  0  0  0  0  0  0  0  0
   -3.4442   -1.6191    0.0000 O   0  0  0  0  0  0  0  0  0  0  0  0
   -4.1321    0.8862    0.0000 O   0  0  0  0  0  0  0  0  0  0  0  0
  2  1  1  1
  2  3  1  0
  3  4  1  0
  4  5  1  0
  5  6  1  0
  6  7  1  0
  7  8  1  0
  8  9  1  0
  2 10  1  0
 10 11  2  0
 10 12  1  0
  9  4  1  0
M  END
>  <rName>  (728) 
Ala_4piperidyl

>  <PQ_SYMBOL>  (728) 
Ala_4piperidyl

>  <FULL_NAME>  (728) 
3-(4-Piperidinyl)-L-alanine

>  <IUPAC_CONDENSED>  (728) 
Ala(4-piperidyl)

>  <IUPAC>  (728) 
(2S)-2-amino-3-(piperidin-4-yl)propanoic acid

>  <TYPE>  (728) 
Backbone

>  <CLASS>  (728) 
alpha

>  <ANALOG>  (728) 
Lys

>  <MOL_WT>  (728) 
172.228

>  <LOGP>  (728) 
-0.21200000000000047

>  <TPSA>  (728) 
75.35

>  <POPULARITY>  (728) 
12.4

>  <PROTECTED>  (728) 
TRUE

>  <SMILES>  (728) 
N[C@@H](CC1(CCNCC1))C(=O)O

>  <INCHIKEY>  (728) 
VVDNQYDGDFYGMM-ZETCQYMHSA-N

$$$$
Ala_7OMe2oxochromenyl
     RDKit          2D

 19 20  0  0  0  0  0  0  0  0999 V2000
   -3.6022   -1.1766    0.0000 N   0  0  0  0  0  0  0  0  0  0  0  0
   -3.2926    0.2911    0.0000 C   0  0  0  0  0  0  0  0  0  0  0  0
   -1.8667    0.7568    0.0000 C   0  0  0  0  0  0  0  0  0  0  0  0
   -0.7505   -0.2451    0.0000 C   0  0  0  0  0  0  0  0  0  0  0  0
   -1.0600   -1.7128    0.0000 C   0  0  0  0  0  0  0  0  0  0  0  0
    0.0562   -2.7148    0.0000 C   0  0  0  0  0  0  0  0  0  0  0  0
   -0.2533   -4.1825    0.0000 O   0  0  0  0  0  0  0  0  0  0  0  0
    1.4821   -2.2490    0.0000 O   0  0  0  0  0  0  0  0  0  0  0  0
    1.7917   -0.7813    0.0000 C   0  0  0  0  0  0  0  0  0  0  0  0
    3.2175   -0.3156    0.0000 C   0  0  0  0  0  0  0  0  0  0  0  0
    3.5271    1.1521    0.0000 C   0  0  0  0  0  0  0  0  0  0  0  0
    4.9530    1.6179    0.0000 O   0  0  0  0  0  0  0  0  0  0  0  0
    6.0693    0.6159    0.0000 C   0  0  0  0  0  0  0  0  0  0  0  0
    2.4109    2.1541    0.0000 C   0  0  0  0  0  0  0  0  0  0  0  0
    0.9850    1.6883    0.0000 C   0  0  0  0  0  0  0  0  0  0  0  0
    0.6754    0.2206    0.0000 C   0  0  0  0  0  0  0  0  0  0  0  0
   -4.4089    1.2930    0.0000 C   0  0  0  0  0  0  0  0  0  0  0  0
   -4.0993    2.7607    0.0000 O   0  0  0  0  0  0  0  0  0  0  0  0
   -5.8347    0.8273    0.0000 O   0  0  0  0  0  0  0  0  0  0  0  0
  2  1  1  6
  2  3  1  0
  3  4  1  0
  4  5  2  0
  5  6  1  0
  6  7  2  0
  6  8  1  0
  8  9  1  0
  9 10  1  0
 10 11  2  0
 11 12  1  0
 12 13  1  0
 11 14  1  0
 14 15  2  0
 15 16  1  0
  2 17  1  0
 17 18  2  0
 17 19  1  0
 16  9  2  0
 16  4  1  0
M  END
>  <rName>  (729) 
Ala_7OMe2oxochromenyl

>  <PQ_SYMBOL>  (729) 
Ala_7OMe2oxochromenyl

>  <FULL_NAME>  (729) 
(S)-2-amino-3-(7-methoxy-2-oxo-2H-chromen-4-yl)propanoic acid

>  <IUPAC_CONDENSED>  (729) 
Ala(7-OMe-2-oxochromenyl)

>  <IUPAC>  (729) 
(2S)-2-amino-3-(9-methoxy-3-oxo-2-oxabicyclo[4.4.0]deca-1(10),4,6,8-tetraen-5-yl)propanoic acid

>  <TYPE>  (729) 
Backbone

>  <CLASS>  (729) 
alpha

>  <ANALOG>  (729) 
Tyr

>  <MOL_WT>  (729) 
263.24899999999997

>  <LOGP>  (729) 
0.7560000000000002

>  <TPSA>  (729) 
102.76

>  <POPULARITY>  (729) 
5.4

>  <PROTECTED>  (729) 
TRUE

>  <SMILES>  (729) 
N[C@@H](Cc2(cc(=O)oc1(cc(OC)ccc12)))C(=O)O

>  <INCHIKEY>  (729) 
IOHUIWNMQPWOAX-JTQLQIEISA-N

$$$$
Ala_8oxotetrahydronaphthyl
     RDKit          2D

 17 18  0  0  0  0  0  0  0  0999 V2000
   -3.0374    1.6811    0.0000 N   0  0  0  0  0  0  0  0  0  0  0  0
   -3.2086    0.1908    0.0000 C   0  0  0  0  0  0  0  0  0  0  0  0
   -2.0036   -0.7025    0.0000 C   0  0  0  0  0  0  0  0  0  0  0  0
   -0.6275   -0.1056    0.0000 C   0  0  0  0  0  0  0  0  0  0  0  0
   -0.4563    1.3846    0.0000 C   0  0  0  0  0  0  0  0  0  0  0  0
    0.9198    1.9815    0.0000 C   0  0  0  0  0  0  0  0  0  0  0  0
    2.1248    1.0882    0.0000 C   0  0  0  0  0  0  0  0  0  0  0  0
    3.5009    1.6851    0.0000 C   0  0  0  0  0  0  0  0  0  0  0  0
    4.7059    0.7918    0.0000 C   0  0  0  0  0  0  0  0  0  0  0  0
    4.5348   -0.6984    0.0000 C   0  0  0  0  0  0  0  0  0  0  0  0
    3.1586   -1.2953    0.0000 C   0  0  0  0  0  0  0  0  0  0  0  0
    2.9875   -2.7855    0.0000 O   0  0  0  0  0  0  0  0  0  0  0  0
    1.9537   -0.4020    0.0000 C   0  0  0  0  0  0  0  0  0  0  0  0
    0.5775   -0.9989    0.0000 C   0  0  0  0  0  0  0  0  0  0  0  0
   -4.5847   -0.4060    0.0000 C   0  0  0  0  0  0  0  0  0  0  0  0
   -4.7558   -1.8963    0.0000 O   0  0  0  0  0  0  0  0  0  0  0  0
   -5.7897    0.4873    0.0000 O   0  0  0  0  0  0  0  0  0  0  0  0
  2  1  1  1
  2  3  1  0
  3  4  1  0
  4  5  1  0
  5  6  2  0
  6  7  1  0
  7  8  1  0
  8  9  1  0
  9 10  1  0
 10 11  1  0
 11 12  2  0
 11 13  1  0
 13 14  1  0
  2 15  1  0
 15 16  2  0
 15 17  1  0
 13  7  2  0
 14  4  2  0
M  END
>  <rName>  (730) 
Ala_8oxotetrahydronaphthyl

>  <PQ_SYMBOL>  (730) 
Ala_8oxotetrahydronaphthyl

>  <FULL_NAME>  (730) 
(S)-2-amino-3-(8-oxo-5,6,7,8-tetrahydronaphthalen-2-yl)propanoic acid

>  <IUPAC_CONDENSED>  (730) 
Ala(8-oxo-tetrahydronaphthyl)

>  <IUPAC>  (730) 
(2S)-2-amino-3-(10-oxobicyclo[4.4.0]deca-1,3,5-trien-3-yl)propanoic acid

>  <TYPE>  (730) 
Backbone

>  <CLASS>  (730) 
alpha

>  <ANALOG>  (730) 
Phe

>  <MOL_WT>  (730) 
233.26699999999997

>  <LOGP>  (730) 
1.1600000000000001

>  <TPSA>  (730) 
80.39

>  <POPULARITY>  (730) 
2.7

>  <PROTECTED>  (730) 
TRUE

>  <SMILES>  (730) 
N[C@@H](Cc2(ccc1(CCCC(=O)c1c2)))C(=O)O

>  <INCHIKEY>  (730) 
HGBFHEHWRSKRHP-NSHDSACASA-N

$$$$
Ala_99diMefluorenyl
     RDKit          2D

 21 23  0  0  0  0  0  0  0  0999 V2000
   -3.1814    1.5161    0.0000 N   0  0  0  0  0  0  0  0  0  0  0  0
   -3.9320    0.2173    0.0000 C   0  0  0  0  0  0  0  0  0  0  0  0
   -3.1825   -1.0820    0.0000 C   0  0  0  0  0  0  0  0  0  0  0  0
   -1.6825   -1.0826    0.0000 C   0  0  0  0  0  0  0  0  0  0  0  0
   -0.9330   -2.3819    0.0000 C   0  0  0  0  0  0  0  0  0  0  0  0
    0.5670   -2.3825    0.0000 C   0  0  0  0  0  0  0  0  0  0  0  0
    1.3175   -1.0838    0.0000 C   0  0  0  0  0  0  0  0  0  0  0  0
    2.7849   -0.7725    0.0000 C   0  0  0  0  0  0  0  0  0  0  0  0
    3.9981   -1.6546    0.0000 C   0  0  0  0  0  0  0  0  0  0  0  0
    5.3686   -1.0450    0.0000 C   0  0  0  0  0  0  0  0  0  0  0  0
    5.5260    0.4467    0.0000 C   0  0  0  0  0  0  0  0  0  0  0  0
    4.3128    1.3288    0.0000 C   0  0  0  0  0  0  0  0  0  0  0  0
    2.9423    0.7193    0.0000 C   0  0  0  0  0  0  0  0  0  0  0  0
    1.5722    1.3299    0.0000 C   0  0  0  0  0  0  0  0  0  0  0  0
    2.3227    2.6286    0.0000 C   0  0  0  0  0  0  0  0  0  0  0  0
    0.3590    2.2121    0.0000 C   0  0  0  0  0  0  0  0  0  0  0  0
    0.5680    0.2156    0.0000 C   0  0  0  0  0  0  0  0  0  0  0  0
   -0.9320    0.2162    0.0000 C   0  0  0  0  0  0  0  0  0  0  0  0
   -5.4320    0.2179    0.0000 C   0  0  0  0  0  0  0  0  0  0  0  0
   -6.1825   -1.0808    0.0000 O   0  0  0  0  0  0  0  0  0  0  0  0
   -6.1814    1.5173    0.0000 O   0  0  0  0  0  0  0  0  0  0  0  0
  2  1  1  1
  2  3  1  0
  3  4  1  0
  4  5  2  0
  5  6  1  0
  6  7  2  0
  7  8  1  0
  8  9  2  0
  9 10  1  0
 10 11  2  0
 11 12  1  0
 12 13  2  0
 13 14  1  0
 14 15  1  0
 14 16  1  0
 14 17  1  0
 17 18  2  0
  2 19  1  0
 19 20  2  0
 19 21  1  0
 13  8  1  0
 17  7  1  0
 18  4  1  0
M  END
>  <rName>  (731) 
Ala_99diMefluorenyl

>  <PQ_SYMBOL>  (731) 
Ala_99diMefluorenyl

>  <FULL_NAME>  (731) 
(S)-2-amino-3-(9,9-dimethyl-9H-fluoren-2-yl)propanoic acid

>  <IUPAC_CONDENSED>  (731) 
Ala(9,9-diMe-fluorenyl)

>  <IUPAC>  (731) 
(2S)-2-amino-3-(8,8-dimethyltricyclo[7.4.0.0^{2,7}]trideca-1(13),2,4,6,9,11-hexaen-5-yl)propanoic acid

>  <TYPE>  (731) 
Backbone

>  <CLASS>  (731) 
alpha

>  <ANALOG>  (731) 
Phe

>  <MOL_WT>  (731) 
281.35499999999996

>  <LOGP>  (731) 
2.947300000000001

>  <TPSA>  (731) 
63.32000000000001

>  <POPULARITY>  (731) 
2.2

>  <PROTECTED>  (731) 
TRUE

>  <SMILES>  (731) 
N[C@@H](Cc3(ccc2(c1(ccccc1C(C)(C)c2c3))))C(=O)O

>  <INCHIKEY>  (731) 
XYGQCDLPJJUHTD-INIZCTEOSA-N

$$$$
Ala_CF2PO3
     RDKit          2D

 13 12  0  0  0  0  0  0  0  0999 V2000
   -1.6012    1.8818    0.0000 N   0  0  0  0  0  0  0  0  0  0  0  0
   -1.4696    0.3876    0.0000 C   0  0  0  0  0  0  0  0  0  0  0  0
   -0.1097   -0.2455    0.0000 C   0  0  0  0  0  0  0  0  0  0  0  0
    1.1185    0.6156    0.0000 C   0  0  0  0  0  0  0  0  0  0  0  0
    2.3467    1.4767    0.0000 F   0  0  0  0  0  0  0  0  0  0  0  0
    0.2574    1.8438    0.0000 F   0  0  0  0  0  0  0  0  0  0  0  0
    1.9796   -0.6126    0.0000 P   0  0  0  0  0  0  0  0  0  0  0  0
    2.8407   -1.8408    0.0000 O   0  0  0  0  0  0  0  0  0  0  0  0
    3.2078    0.2485    0.0000 O   0  0  0  0  0  0  0  0  0  0  0  0
    0.7514   -1.4737    0.0000 O   0  0  0  0  0  0  0  0  0  0  0  0
   -2.6978   -0.4735    0.0000 C   0  0  0  0  0  0  0  0  0  0  0  0
   -2.5661   -1.9677    0.0000 O   0  0  0  0  0  0  0  0  0  0  0  0
   -4.0576    0.1596    0.0000 O   0  0  0  0  0  0  0  0  0  0  0  0
  2  1  1  1
  2  3  1  0
  3  4  1  0
  4  5  1  0
  4  6  1  0
  4  7  1  0
  7  8  2  0
  7  9  1  0
  7 10  1  0
  2 11  1  0
 11 12  2  0
 11 13  1  0
M  END
>  <rName>  (732) 
Ala_CF2PO3

>  <PQ_SYMBOL>  (732) 
Ala_CF2PO3

>  <FULL_NAME>  (732) 
(S)-2-amino-4,4-difluoro-4-phosphonobutanoic acid

>  <IUPAC_CONDENSED>  (732) 
Ala(CF2PO3)

>  <IUPAC>  (732) 
(2S)-2-amino-4-(dihydroxyphosphoryl)-4,4-difluorobutanoic acid

>  <TYPE>  (732) 
Backbone

>  <CLASS>  (732) 
alpha

>  <ANALOG>  (732) 
X

>  <MOL_WT>  (732) 
219.08

>  <LOGP>  (732) 
-0.4411000000000002

>  <TPSA>  (732) 
120.85000000000001

>  <POPULARITY>  (732) 
2.9

>  <PROTECTED>  (732) 
TRUE

>  <SMILES>  (732) 
N[C@@H](CC(F)(F)P(=O)(O)O)C(=O)O

>  <INCHIKEY>  (732) 
NIZXHJQYBQHCBB-REOHCLBHSA-N

$$$$
Ala_CF3
     RDKit          2D

 10  9  0  0  0  0  0  0  0  0999 V2000
   -0.5029   -1.7542    0.0000 N   0  0  0  0  0  0  0  0  0  0  0  0
   -0.7450   -0.2738    0.0000 C   0  0  0  0  0  0  0  0  0  0  0  0
    0.4160    0.6760    0.0000 C   0  0  0  0  0  0  0  0  0  0  0  0
    1.8190    0.1455    0.0000 C   0  0  0  0  0  0  0  0  0  0  0  0
    3.2221   -0.3850    0.0000 F   0  0  0  0  0  0  0  0  0  0  0  0
    2.3495    1.5485    0.0000 F   0  0  0  0  0  0  0  0  0  0  0  0
    1.2885   -1.2576    0.0000 F   0  0  0  0  0  0  0  0  0  0  0  0
   -2.1480    0.2567    0.0000 C   0  0  0  0  0  0  0  0  0  0  0  0
   -2.3901    1.7370    0.0000 O   0  0  0  0  0  0  0  0  0  0  0  0
   -3.3090   -0.6932    0.0000 O   0  0  0  0  0  0  0  0  0  0  0  0
  2  1  1  6
  2  3  1  0
  3  4  1  0
  4  5  1  0
  4  6  1  0
  4  7  1  0
  2  8  1  0
  8  9  2  0
  8 10  1  0
M  END
>  <rName>  (733) 
Ala_CF3

>  <PQ_SYMBOL>  (733) 
Ala_CF3

>  <FULL_NAME>  (733) 
(S)-2-amino-4,4,4-trifluoro-butyric acid

>  <IUPAC_CONDENSED>  (733) 
Ala(CF3)

>  <IUPAC>  (733) 
(2S)-2-amino-4,4,4-trifluorobutanoic acid

>  <TYPE>  (733) 
Backbone

>  <CLASS>  (733) 
alpha

>  <ANALOG>  (733) 
X

>  <MOL_WT>  (733) 
157.091

>  <LOGP>  (733) 
0.3506999999999998

>  <TPSA>  (733) 
63.32000000000001

>  <POPULARITY>  (733) 
15.8

>  <PROTECTED>  (733) 
TRUE

>  <SMILES>  (733) 
N[C@@H](CC(F)(F)F)C(=O)O

>  <INCHIKEY>  (733) 
AQPCXCOPDSEKQT-REOHCLBHSA-N

$$$$
Ala_CHF2
     RDKit          2D

  9  8  0  0  0  0  0  0  0  0999 V2000
   -0.2826   -1.7410    0.0000 N   0  0  0  0  0  0  0  0  0  0  0  0
   -0.5402   -0.2633    0.0000 C   0  0  0  0  0  0  0  0  0  0  0  0
    0.6108    0.6986    0.0000 C   0  0  0  0  0  0  0  0  0  0  0  0
    2.0193    0.1828    0.0000 C   0  0  0  0  0  0  0  0  0  0  0  0
    3.1703    1.1447    0.0000 F   0  0  0  0  0  0  0  0  0  0  0  0
    2.2769   -1.2950    0.0000 F   0  0  0  0  0  0  0  0  0  0  0  0
   -1.9487    0.2525    0.0000 C   0  0  0  0  0  0  0  0  0  0  0  0
   -2.2062    1.7302    0.0000 O   0  0  0  0  0  0  0  0  0  0  0  0
   -3.0997   -0.7094    0.0000 O   0  0  0  0  0  0  0  0  0  0  0  0
  2  1  1  6
  2  3  1  0
  3  4  1  0
  4  5  1  0
  4  6  1  0
  2  7  1  0
  7  8  2  0
  7  9  1  0
M  END
>  <rName>  (734) 
Ala_CHF2

>  <PQ_SYMBOL>  (734) 
Ala_CHF2

>  <FULL_NAME>  (734) 
(2S)-2-amino-4,4-difluorobutanoic acid

>  <IUPAC_CONDENSED>  (734) 
Ala(CHF2)

>  <IUPAC>  (734) 
(2S)-2-amino-4,4-difluorobutanoic acid

>  <TYPE>  (734) 
Backbone

>  <CLASS>  (734) 
alpha

>  <ANALOG>  (734) 
X

>  <MOL_WT>  (734) 
139.101

>  <LOGP>  (734) 
0.0534999999999996

>  <TPSA>  (734) 
63.32000000000001

>  <POPULARITY>  (734) 
19.5

>  <PROTECTED>  (734) 
TRUE

>  <SMILES>  (734) 
N[C@@H](CC(F)F)C(=O)O

>  <INCHIKEY>  (734) 
VIUCNIMDPZQXAD-REOHCLBHSA-N

$$$$
Ala_CN
     RDKit          2D

  8  7  0  0  0  0  0  0  0  0999 V2000
    0.0877   -1.7162    0.0000 N   0  0  0  0  0  0  0  0  0  0  0  0
   -0.2706   -0.2596    0.0000 C   0  0  0  0  0  0  0  0  0  0  0  0
    0.8117    0.7789    0.0000 C   0  0  0  0  0  0  0  0  0  0  0  0
    2.2523    0.3609    0.0000 C   0  0  0  0  0  0  0  0  0  0  0  0
    3.6929   -0.0571    0.0000 N   0  0  0  0  0  0  0  0  0  0  0  0
   -1.7112    0.1584    0.0000 C   0  0  0  0  0  0  0  0  0  0  0  0
   -2.0694    1.6149    0.0000 O   0  0  0  0  0  0  0  0  0  0  0  0
   -2.7934   -0.8802    0.0000 O   0  0  0  0  0  0  0  0  0  0  0  0
  2  1  1  6
  2  3  1  0
  3  4  1  0
  4  5  3  0
  2  6  1  0
  6  7  2  0
  6  8  1  0
M  END
>  <rName>  (735) 
Ala_CN

>  <PQ_SYMBOL>  (735) 
Ala_CN

>  <FULL_NAME>  (735) 
(2S)-2-amino-3-cyanopropanoic acid

>  <IUPAC_CONDENSED>  (735) 
Ala(CN)

>  <IUPAC>  (735) 
(2S)-2-amino-3-cyanopropanoic acid

>  <TYPE>  (735) 
Backbone

>  <CLASS>  (735) 
alpha

>  <ANALOG>  (735) 
X

>  <MOL_WT>  (735) 
114.10399999999998

>  <LOGP>  (735) 
-0.6880200000000001

>  <TPSA>  (735) 
87.11

>  <POPULARITY>  (735) 
14.2

>  <PROTECTED>  (735) 
TRUE

>  <SMILES>  (735) 
N[C@@H](CC#N)C(=O)O

>  <INCHIKEY>  (735) 
BXRLWGXPSRYJDZ-VKHMYHEASA-N

$$$$
Ala_CON_2Mepiperidino
     RDKit          2D

 15 15  0  0  0  0  0  0  0  0999 V2000
   -2.7298   -1.7488    0.0000 N   0  0  0  0  0  0  0  0  0  0  0  0
   -2.5580   -0.2586    0.0000 C   0  0  0  0  0  0  0  0  0  0  0  0
   -1.1815    0.3376    0.0000 C   0  0  0  0  0  0  0  0  0  0  0  0
    0.0230   -0.5563    0.0000 C   0  0  0  0  0  0  0  0  0  0  0  0
   -0.1488   -2.0464    0.0000 O   0  0  0  0  0  0  0  0  0  0  0  0
    1.3994    0.0399    0.0000 N   0  0  0  0  0  0  0  0  0  0  0  0
    1.5713    1.5300    0.0000 C   0  0  0  0  0  0  0  0  0  0  0  0
    2.9477    2.1263    0.0000 C   0  0  0  0  0  0  0  0  0  0  0  0
    4.1523    1.2324    0.0000 C   0  0  0  0  0  0  0  0  0  0  0  0
    3.9804   -0.2577    0.0000 C   0  0  0  0  0  0  0  0  0  0  0  0
    2.6040   -0.8540    0.0000 C   0  0  0  0  0  0  0  0  0  0  0  0
    2.4321   -2.3441    0.0000 C   0  0  0  0  0  0  0  0  0  0  0  0
   -3.7625    0.6353    0.0000 C   0  0  0  0  0  0  0  0  0  0  0  0
   -3.5906    2.1254    0.0000 O   0  0  0  0  0  0  0  0  0  0  0  0
   -5.1389    0.0390    0.0000 O   0  0  0  0  0  0  0  0  0  0  0  0
  2  1  1  6
  2  3  1  0
  3  4  1  0
  4  5  2  0
  4  6  1  0
  6  7  1  0
  7  8  1  0
  8  9  1  0
  9 10  1  0
 10 11  1  0
 11 12  1  6
  2 13  1  0
 13 14  2  0
 13 15  1  0
 11  6  1  0
M  END
>  <rName>  (736) 
Ala_CON_2Mepiperidino

>  <PQ_SYMBOL>  (736) 
Ala_CON_2Mepiperidino

>  <FULL_NAME>  (736) 
(2S)-2-amino-4-[(2S)-2-methylpiperidin-1-yl]-4-oxobutanoic acid

>  <IUPAC_CONDENSED>  (736) 
Ala(CON(2-Me-piperidino))

>  <IUPAC>  (736) 
(2S)-2-amino-4-((2S)-2-methylpiperidin-1-yl)-4-oxobutanoic acid

>  <TYPE>  (736) 
N-term cap

>  <CLASS>  (736) 
n_cap

>  <ANALOG>  (736) 
X

>  <MOL_WT>  (736) 
214.265

>  <LOGP>  (736) 
0.18939999999999974

>  <TPSA>  (736) 
83.63000000000001

>  <POPULARITY>  (736) 
1.7

>  <PROTECTED>  (736) 
FALSE

>  <SMILES>  (736) 
N[C@@H](CC(=O)N1(CCCC[C@@H]1C))C(=O)O

>  <INCHIKEY>  (736) 
QRGCQWGDUNCKGH-YUMQZZPRSA-N

$$$$
Ala_CON_2Phpyrrolidino
     RDKit          2D

 19 20  0  0  0  0  0  0  0  0999 V2000
   -2.6839    2.0911    0.0000 N   0  0  0  0  0  0  0  0  0  0  0  0
   -3.2076    0.6855    0.0000 C   0  0  0  0  0  0  0  0  0  0  0  0
   -2.2523   -0.4709    0.0000 C   0  0  0  0  0  0  0  0  0  0  0  0
   -0.7731   -0.2217    0.0000 C   0  0  0  0  0  0  0  0  0  0  0  0
   -0.2493    1.1838    0.0000 O   0  0  0  0  0  0  0  0  0  0  0  0
    0.1823   -1.3781    0.0000 N   0  0  0  0  0  0  0  0  0  0  0  0
   -0.1917   -2.8308    0.0000 C   0  0  0  0  0  0  0  0  0  0  0  0
    1.0742   -3.6354    0.0000 C   0  0  0  0  0  0  0  0  0  0  0  0
    2.2306   -2.6800    0.0000 C   0  0  0  0  0  0  0  0  0  0  0  0
    1.6794   -1.2850    0.0000 C   0  0  0  0  0  0  0  0  0  0  0  0
    2.4839   -0.0190    0.0000 C   0  0  0  0  0  0  0  0  0  0  0  0
    3.9826   -0.0828    0.0000 C   0  0  0  0  0  0  0  0  0  0  0  0
    4.7872    1.1832    0.0000 C   0  0  0  0  0  0  0  0  0  0  0  0
    4.0931    2.5129    0.0000 C   0  0  0  0  0  0  0  0  0  0  0  0
    2.5944    2.5767    0.0000 C   0  0  0  0  0  0  0  0  0  0  0  0
    1.7899    1.3108    0.0000 C   0  0  0  0  0  0  0  0  0  0  0  0
   -4.6868    0.4363    0.0000 C   0  0  0  0  0  0  0  0  0  0  0  0
   -5.2106   -0.9693    0.0000 O   0  0  0  0  0  0  0  0  0  0  0  0
   -5.6422    1.5927    0.0000 O   0  0  0  0  0  0  0  0  0  0  0  0
  2  1  1  1
  2  3  1  0
  3  4  1  0
  4  5  2  0
  4  6  1  0
  6  7  1  0
  7  8  1  0
  8  9  1  0
  9 10  1  0
 10 11  1  1
 11 12  2  0
 12 13  1  0
 13 14  2  0
 14 15  1  0
 15 16  2  0
  2 17  1  0
 17 18  2  0
 17 19  1  0
 10  6  1  0
 16 11  1  0
M  END
>  <rName>  (737) 
Ala_CON_2Phpyrrolidino

>  <PQ_SYMBOL>  (737) 
Ala_CON_2Phpyrrolidino

>  <FULL_NAME>  (737) 
(2S)-2-amino-4-oxo-4-[(2R)-2-phenylpyrrolidin-1-yl]butanoic acid

>  <IUPAC_CONDENSED>  (737) 
Ala(CON(2-Ph-pyrrolidino))

>  <IUPAC>  (737) 
(2S)-2-amino-4-oxo-4-((2R)-2-phenylpyrrolidin-1-yl)butanoic acid

>  <TYPE>  (737) 
N-term cap

>  <CLASS>  (737) 
n_cap

>  <ANALOG>  (737) 
X

>  <MOL_WT>  (737) 
262.309

>  <LOGP>  (737) 
1.1520999999999992

>  <TPSA>  (737) 
83.63000000000001

>  <POPULARITY>  (737) 
2.3

>  <PROTECTED>  (737) 
FALSE

>  <SMILES>  (737) 
N[C@@H](CC(=O)N1(CCC[C@@H]1c2(ccccc2)))C(=O)O

>  <INCHIKEY>  (737) 
NLDYOOGTZZVPGN-NWDGAFQWSA-N

$$$$
Ala_Cbz
     RDKit          2D

 16 17  0  0  0  0  0  0  0  0999 V2000
   -2.7985    1.6442    0.0000 N   0  0  0  0  0  0  0  0  0  0  0  0
   -2.9582    0.1527    0.0000 C   0  0  0  0  0  0  0  0  0  0  0  0
   -1.7464   -0.7313    0.0000 C   0  0  0  0  0  0  0  0  0  0  0  0
   -0.3749   -0.1239    0.0000 C   0  0  0  0  0  0  0  0  0  0  0  0
   -0.2151    1.3676    0.0000 C   0  0  0  0  0  0  0  0  0  0  0  0
    1.1564    1.9750    0.0000 C   0  0  0  0  0  0  0  0  0  0  0  0
    2.3682    1.0909    0.0000 C   0  0  0  0  0  0  0  0  0  0  0  0
    3.8360    1.3999    0.0000 C   0  0  0  0  0  0  0  0  0  0  0  0
    4.5834    0.0994    0.0000 O   0  0  0  0  0  0  0  0  0  0  0  0
    3.5776   -1.0133    0.0000 C   0  0  0  0  0  0  0  0  0  0  0  0
    3.8866   -2.4811    0.0000 O   0  0  0  0  0  0  0  0  0  0  0  0
    2.2085   -0.4005    0.0000 C   0  0  0  0  0  0  0  0  0  0  0  0
    0.8369   -1.0080    0.0000 C   0  0  0  0  0  0  0  0  0  0  0  0
   -4.3297   -0.4547    0.0000 C   0  0  0  0  0  0  0  0  0  0  0  0
   -4.4894   -1.9462    0.0000 O   0  0  0  0  0  0  0  0  0  0  0  0
   -5.5415    0.4293    0.0000 O   0  0  0  0  0  0  0  0  0  0  0  0
  2  1  1  1
  2  3  1  0
  3  4  1  0
  4  5  1  0
  5  6  2  0
  6  7  1  0
  7  8  1  0
  8  9  1  0
  9 10  1  0
 10 11  2  0
 10 12  1  0
 12 13  1  0
  2 14  1  0
 14 15  2  0
 14 16  1  0
 12  7  2  0
 13  4  2  0
M  END
>  <rName>  (738) 
Ala_Cbz

>  <PQ_SYMBOL>  (738) 
Ala_Cbz

>  <FULL_NAME>  (738) 
(S)-2-amino-3-(3-oxo-1,3-dihydroisobenzofuran-5-yl)propanoic acid

>  <IUPAC_CONDENSED>  (738) 
Ala(Cbz)

>  <IUPAC>  (738) 
(2S)-2-amino-3-(9-oxo-8-oxabicyclo[4.3.0]nona-1,3,5-trien-3-yl)propanoic acid

>  <TYPE>  (738) 
Backbone

>  <CLASS>  (738) 
alpha

>  <ANALOG>  (738) 
Phe

>  <MOL_WT>  (738) 
221.21199999999996

>  <LOGP>  (738) 
0.31139999999999984

>  <TPSA>  (738) 
89.62

>  <POPULARITY>  (738) 
2.5

>  <PROTECTED>  (738) 
TRUE

>  <SMILES>  (738) 
N[C@@H](Cc2(ccc1(COC(=O)c1c2)))C(=O)O

>  <INCHIKEY>  (738) 
HNVCAYGATSQKNQ-VIFPVBQESA-N

$$$$
Ala_Cl
     RDKit          2D

  7  6  0  0  0  0  0  0  0  0999 V2000
    0.5797   -1.7367    0.0000 N   0  0  0  0  0  0  0  0  0  0  0  0
    0.2514   -0.2730    0.0000 C   0  0  0  0  0  0  0  0  0  0  0  0
    1.3548    0.7431    0.0000 C   0  0  0  0  0  0  0  0  0  0  0  0
    2.7865    0.2956    0.0000 Cl  0  0  0  0  0  0  0  0  0  0  0  0
   -1.1803    0.1745    0.0000 C   0  0  0  0  0  0  0  0  0  0  0  0
   -1.5086    1.6381    0.0000 O   0  0  0  0  0  0  0  0  0  0  0  0
   -2.2837   -0.8417    0.0000 O   0  0  0  0  0  0  0  0  0  0  0  0
  2  1  1  6
  2  3  1  0
  3  4  1  0
  2  5  1  0
  5  6  2  0
  5  7  1  0
M  END
>  <rName>  (739) 
Ala_Cl

>  <PQ_SYMBOL>  (739) 
Ala_Cl

>  <FULL_NAME>  (739) 
Beta-chloro-L-alanine

>  <IUPAC_CONDENSED>  (739) 
Ala(Cl)

>  <IUPAC>  (739) 
(2R)-2-amino-3-chloropropanoic acid

>  <TYPE>  (739) 
Backbone

>  <CLASS>  (739) 
alpha

>  <ANALOG>  (739) 
X

>  <MOL_WT>  (739) 
123.53899999999997

>  <LOGP>  (739) 
-0.36290000000000006

>  <TPSA>  (739) 
63.32000000000001

>  <POPULARITY>  (739) 
12.9

>  <PROTECTED>  (739) 
TRUE

>  <SMILES>  (739) 
N[C@@H](CCl)C(=O)O

>  <INCHIKEY>  (739) 
ASBJGPTTYPEMLP-REOHCLBHSA-N

$$$$
Ala_F3
     RDKit          2D

  9  8  0  0  0  0  0  0  0  0999 V2000
   -0.1862    2.0800    0.0000 N   0  0  0  0  0  0  0  0  0  0  0  0
   -0.1560    0.5803    0.0000 C   0  0  0  0  0  0  0  0  0  0  0  0
    1.1578   -0.1434    0.0000 C   0  0  0  0  0  0  0  0  0  0  0  0
    2.4717   -0.8671    0.0000 F   0  0  0  0  0  0  0  0  0  0  0  0
    1.8815    1.1705    0.0000 F   0  0  0  0  0  0  0  0  0  0  0  0
    0.4341   -1.4573    0.0000 F   0  0  0  0  0  0  0  0  0  0  0  0
   -1.4397   -0.1957    0.0000 C   0  0  0  0  0  0  0  0  0  0  0  0
   -1.4095   -1.6954    0.0000 O   0  0  0  0  0  0  0  0  0  0  0  0
   -2.7536    0.5280    0.0000 O   0  0  0  0  0  0  0  0  0  0  0  0
  2  1  1  1
  2  3  1  0
  3  4  1  0
  3  5  1  0
  3  6  1  0
  2  7  1  0
  7  8  2  0
  7  9  1  0
M  END
>  <rName>  (740) 
Ala_F3

>  <PQ_SYMBOL>  (740) 
Ala_F3

>  <FULL_NAME>  (740) 
3,3,3-Trifluoro-L-Alanine

>  <IUPAC_CONDENSED>  (740) 
Ala(F3)

>  <IUPAC>  (740) 
(2R)-2-amino-3,3,3-trifluoropropanoic acid

>  <TYPE>  (740) 
Backbone

>  <CLASS>  (740) 
alpha

>  <ANALOG>  (740) 
X

>  <MOL_WT>  (740) 
143.06400000000002

>  <LOGP>  (740) 
-0.03939999999999988

>  <TPSA>  (740) 
63.32000000000001

>  <POPULARITY>  (740) 
6.9

>  <PROTECTED>  (740) 
TRUE

>  <SMILES>  (740) 
N[C@@H](C(F)(F)F)C(=O)O

>  <INCHIKEY>  (740) 
HMJQKIDUCWWIBW-PVQJCKRUSA-N

$$$$
Ala_I
     RDKit          2D

  7  6  0  0  0  0  0  0  0  0999 V2000
    0.5797   -1.7367    0.0000 N   0  0  0  0  0  0  0  0  0  0  0  0
    0.2514   -0.2730    0.0000 C   0  0  0  0  0  0  0  0  0  0  0  0
    1.3548    0.7431    0.0000 C   0  0  0  0  0  0  0  0  0  0  0  0
    2.7865    0.2956    0.0000 I   0  0  0  0  0  0  0  0  0  0  0  0
   -1.1803    0.1745    0.0000 C   0  0  0  0  0  0  0  0  0  0  0  0
   -1.5086    1.6381    0.0000 O   0  0  0  0  0  0  0  0  0  0  0  0
   -2.2837   -0.8417    0.0000 O   0  0  0  0  0  0  0  0  0  0  0  0
  2  1  1  6
  2  3  1  0
  3  4  1  0
  2  5  1  0
  5  6  2  0
  5  7  1  0
M  END
>  <rName>  (741) 
Ala_I

>  <PQ_SYMBOL>  (741) 
Ala_I

>  <FULL_NAME>  (741) 
(R)-2-amino-3-iodopropanoic acid

>  <IUPAC_CONDENSED>  (741) 
Ala(I)

>  <IUPAC>  (741) 
(2R)-2-amino-3-iodopropanoic acid

>  <TYPE>  (741) 
Backbone

>  <CLASS>  (741) 
alpha

>  <ANALOG>  (741) 
X

>  <MOL_WT>  (741) 
214.98999999999998

>  <LOGP>  (741) 
-0.1666999999999999

>  <TPSA>  (741) 
63.32000000000001

>  <POPULARITY>  (741) 
4.7

>  <PROTECTED>  (741) 
TRUE

>  <SMILES>  (741) 
N[C@@H](CI)C(=O)O

>  <INCHIKEY>  (741) 
DIZAJUVUZKMLQL-REOHCLBHSA-N

$$$$
Ala_Mediazirinyl
     RDKit          2D

 10 10  0  0  0  0  0  0  0  0999 V2000
   -0.4413    1.7147    0.0000 N   0  0  0  0  0  0  0  0  0  0  0  0
   -0.7558    0.2480    0.0000 C   0  0  0  0  0  0  0  0  0  0  0  0
    0.3571   -0.7577    0.0000 C   0  0  0  0  0  0  0  0  0  0  0  0
    1.7845   -0.2967    0.0000 C   0  0  0  0  0  0  0  0  0  0  0  0
    2.4863   -1.6224    0.0000 C   0  0  0  0  0  0  0  0  0  0  0  0
    2.9682    0.6247    0.0000 N   0  0  0  0  0  0  0  0  0  0  0  0
    1.5784    1.1891    0.0000 N   0  0  0  0  0  0  0  0  0  0  0  0
   -2.1833   -0.2129    0.0000 C   0  0  0  0  0  0  0  0  0  0  0  0
   -2.4978   -1.6796    0.0000 O   0  0  0  0  0  0  0  0  0  0  0  0
   -3.2962    0.7928    0.0000 O   0  0  0  0  0  0  0  0  0  0  0  0
  2  1  1  1
  2  3  1  0
  3  4  1  0
  4  5  1  0
  4  6  1  0
  6  7  2  0
  2  8  1  0
  8  9  2  0
  8 10  1  0
  7  4  1  0
M  END
>  <rName>  (742) 
Ala_Mediazirinyl

>  <PQ_SYMBOL>  (742) 
Ala_Mediazirinyl

>  <FULL_NAME>  (742) 
L-Photo-leucine

>  <IUPAC_CONDENSED>  (742) 
Ala(Me-diazirinyl)

>  <IUPAC>  (742) 
(2S)-2-amino-3-(3-methyl-1,2-diazacycloprop-1-en-3-yl)propanoic acid

>  <TYPE>  (742) 
Backbone

>  <CLASS>  (742) 
alpha

>  <ANALOG>  (742) 
X

>  <MOL_WT>  (742) 
143.14600000000002

>  <LOGP>  (742) 
-0.029600000000000348

>  <TPSA>  (742) 
88.04

>  <POPULARITY>  (742) 
5.8

>  <PROTECTED>  (742) 
TRUE

>  <SMILES>  (742) 
N[C@@H](CC1(C)(N=N1))C(=O)O

>  <INCHIKEY>  (742) 
MJRDGTVDJKACQZ-VKHMYHEASA-N

$$$$
Ala_N3
     RDKit          2D

  9  8  0  0  0  0  0  0  0  0999 V2000
    1.0341    1.9185    0.0000 N   0  0  0  0  0  0  0  0  0  0  0  0
    0.9057    0.4240    0.0000 C   0  0  0  0  0  0  0  0  0  0  0  0
   -0.4528   -0.2120    0.0000 C   0  0  0  0  0  0  0  0  0  0  0  0
   -1.6829    0.6465    0.0000 N   0  0  0  0  0  0  0  0  0  0  0  0
   -3.0414    0.0105    0.0000 N   0  0  0  0  0  0  0  0  0  0  0  0
   -4.3999   -0.6255    0.0000 N   0  0  0  0  0  0  0  0  0  0  0  0
    2.1357   -0.4345    0.0000 C   0  0  0  0  0  0  0  0  0  0  0  0
    2.0072   -1.9290    0.0000 O   0  0  0  0  0  0  0  0  0  0  0  0
    3.4942    0.2015    0.0000 O   0  0  0  0  0  0  0  0  0  0  0  0
  2  1  1  6
  2  3  1  0
  3  4  1  0
  4  5  2  0
  5  6  2  0
  2  7  1  0
  7  8  2  0
  7  9  1  0
M  CHG  2   5   1   6  -1
M  END
>  <rName>  (743) 
Ala_N3

>  <PQ_SYMBOL>  (743) 
Ala_N3

>  <FULL_NAME>  (743) 
3-Azido-L-Alanine

>  <IUPAC_CONDENSED>  (743) 
Ala(N3)

>  <IUPAC>  (743) 
(2S)-2-amino-3-azidopropanoic acid

>  <TYPE>  (743) 
Backbone

>  <CLASS>  (743) 
alpha

>  <ANALOG>  (743) 
X

>  <MOL_WT>  (743) 
130.107

>  <LOGP>  (743) 
-0.29140000000000016

>  <TPSA>  (743) 
112.08

>  <POPULARITY>  (743) 
7.7

>  <PROTECTED>  (743) 
TRUE

>  <SMILES>  (743) 
N[C@@H](CN=[N+]=[N-])C(=O)O

>  <INCHIKEY>  (743) 
CIFCKCQAKQRJFC-REOHCLBHSA-N

$$$$
Ala_Ph_34diCH2NHMe
     RDKit          2D

 15 16  0  0  0  0  0  0  0  0999 V2000
    2.4169   -1.6715    0.0000 N   0  0  0  0  0  0  0  0  0  0  0  0
    2.6919   -0.1969    0.0000 C   0  0  0  0  0  0  0  0  0  0  0  0
    1.5524    0.7786    0.0000 C   0  0  0  0  0  0  0  0  0  0  0  0
    0.1379    0.2795    0.0000 C   0  0  0  0  0  0  0  0  0  0  0  0
   -0.1372   -1.1951    0.0000 C   0  0  0  0  0  0  0  0  0  0  0  0
   -1.5517   -1.6942    0.0000 C   0  0  0  0  0  0  0  0  0  0  0  0
   -2.6912   -0.7188    0.0000 C   0  0  0  0  0  0  0  0  0  0  0  0
   -4.1786   -0.9129    0.0000 C   0  0  0  0  0  0  0  0  0  0  0  0
   -4.8228    0.4417    0.0000 N   0  0  0  0  0  0  0  0  0  0  0  0
   -3.7336    1.4730    0.0000 C   0  0  0  0  0  0  0  0  0  0  0  0
   -2.4162    0.7558    0.0000 C   0  0  0  0  0  0  0  0  0  0  0  0
   -1.0016    1.2549    0.0000 C   0  0  0  0  0  0  0  0  0  0  0  0
    4.1064    0.3022    0.0000 C   0  0  0  0  0  0  0  0  0  0  0  0
    4.3814    1.7768    0.0000 O   0  0  0  0  0  0  0  0  0  0  0  0
    5.2459   -0.6732    0.0000 O   0  0  0  0  0  0  0  0  0  0  0  0
  2  1  1  1
  2  3  1  0
  3  4  1  0
  4  5  1  0
  5  6  2  0
  6  7  1  0
  7  8  1  0
  8  9  1  0
  9 10  1  0
 10 11  1  0
 11 12  1  0
  2 13  1  0
 13 14  2  0
 13 15  1  0
 11  7  2  0
 12  4  2  0
M  END
>  <rName>  (744) 
Ala_Ph_34diCH2NHMe

>  <PQ_SYMBOL>  (744) 
Ala_Ph_34diCH2NHMe

>  <FULL_NAME>  (744) 
(S)-2-amino-3-(isoindolin-5-yl)propanoic acid

>  <IUPAC_CONDENSED>  (744) 
Ala(Ph(3,4-diCH2NHMe))

>  <IUPAC>  (744) 
(2S)-2-amino-3-(8-azabicyclo[4.3.0]nona-1,3,5-trien-3-yl)propanoic acid

>  <TYPE>  (744) 
Backbone

>  <CLASS>  (744) 
alpha

>  <ANALOG>  (744) 
Phe

>  <MOL_WT>  (744) 
206.24499999999998

>  <LOGP>  (744) 
0.24419999999999975

>  <TPSA>  (744) 
75.35

>  <POPULARITY>  (744) 
3.0

>  <PROTECTED>  (744) 
TRUE

>  <SMILES>  (744) 
N[C@@H](Cc2(ccc1(CNCc1c2)))C(=O)O

>  <INCHIKEY>  (744) 
OXHRSLMZUZPZFR-JTQLQIEISA-N

$$$$
Ala_adamantyl
     RDKit          2D

 16 18  0  0  0  0  0  0  0  0999 V2000
   -1.9963    1.9154    0.0000 N   0  0  0  0  0  0  0  0  0  0  0  0
   -2.1181    0.4203    0.0000 C   0  0  0  0  0  0  0  0  0  0  0  0
   -0.8843   -0.4327    0.0000 C   0  0  0  0  0  0  0  0  0  0  0  0
    0.4714    0.2093    0.0000 C   0  0  0  0  0  0  0  0  0  0  0  0
    1.7052   -0.6437    0.0000 C   0  0  0  0  0  0  0  0  0  0  0  0
    3.0609   -0.0017    0.0000 C   0  0  0  0  0  0  0  0  0  0  0  0
    3.1827    1.4934    0.0000 C   0  0  0  0  0  0  0  0  0  0  0  0
    1.9489    2.3464    0.0000 C   0  0  0  0  0  0  0  0  0  0  0  0
    0.9414   -0.7831    0.0000 C   0  0  0  0  0  0  0  0  0  0  0  0
    1.5834   -2.1387    0.0000 C   0  0  0  0  0  0  0  0  0  0  0  0
    2.9391   -1.4967    0.0000 C   0  0  0  0  0  0  0  0  0  0  0  0
    0.3496   -1.2857    0.0000 C   0  0  0  0  0  0  0  0  0  0  0  0
    0.5932    1.7044    0.0000 C   0  0  0  0  0  0  0  0  0  0  0  0
   -3.4738   -0.2217    0.0000 C   0  0  0  0  0  0  0  0  0  0  0  0
   -3.5956   -1.7167    0.0000 O   0  0  0  0  0  0  0  0  0  0  0  0
   -4.7076    0.6314    0.0000 O   0  0  0  0  0  0  0  0  0  0  0  0
  2  1  1  1
  2  3  1  0
  3  4  1  0
  4  5  1  0
  5  6  1  0
  6  7  1  0
  7  8  1  0
  8  9  1  0
  9 10  1  0
 10 11  1  0
 10 12  1  0
  8 13  1  0
  2 14  1  0
 14 15  2  0
 14 16  1  0
 11  6  1  0
 12  4  1  0
 13  4  1  0
M  END
>  <rName>  (745) 
Ala_adamantyl

>  <PQ_SYMBOL>  (745) 
Ala_adamantyl

>  <FULL_NAME>  (745) 
3-(1-Adamantyl)-L-Alanine

>  <IUPAC_CONDENSED>  (745) 
Ala(adamantyl)

>  <IUPAC>  (745) 
(2S)-3-(adamantan-1-yl)-2-aminopropanoic acid

>  <TYPE>  (745) 
Backbone

>  <CLASS>  (745) 
alpha

>  <ANALOG>  (745) 
Ala

>  <MOL_WT>  (745) 
223.31599999999995

>  <LOGP>  (745) 
2.0048

>  <TPSA>  (745) 
63.32000000000001

>  <POPULARITY>  (745) 
10.1

>  <PROTECTED>  (745) 
TRUE

>  <SMILES>  (745) 
N[C@@H](CC32(CC1(CC(CC(C1)C2)C3)))C(=O)O

>  <INCHIKEY>  (745) 
ZAQXSMCYFQJRCQ-ZQMDXNIRSA-N

$$$$
Ala_anthracen2yl
     RDKit          2D

 20 22  0  0  0  0  0  0  0  0999 V2000
   -3.0147    1.7319    0.0000 N   0  0  0  0  0  0  0  0  0  0  0  0
   -3.9369    0.5489    0.0000 C   0  0  0  0  0  0  0  0  0  0  0  0
   -3.3735   -0.8413    0.0000 C   0  0  0  0  0  0  0  0  0  0  0  0
   -1.8878   -1.0484    0.0000 C   0  0  0  0  0  0  0  0  0  0  0  0
   -1.3244   -2.4386    0.0000 C   0  0  0  0  0  0  0  0  0  0  0  0
    0.1612   -2.6457    0.0000 C   0  0  0  0  0  0  0  0  0  0  0  0
    1.0834   -1.4626    0.0000 C   0  0  0  0  0  0  0  0  0  0  0  0
    2.5691   -1.6698    0.0000 C   0  0  0  0  0  0  0  0  0  0  0  0
    3.4912   -0.4867    0.0000 C   0  0  0  0  0  0  0  0  0  0  0  0
    4.9769   -0.6938    0.0000 C   0  0  0  0  0  0  0  0  0  0  0  0
    5.8991    0.4892    0.0000 C   0  0  0  0  0  0  0  0  0  0  0  0
    5.3356    1.8793    0.0000 C   0  0  0  0  0  0  0  0  0  0  0  0
    3.8500    2.0865    0.0000 C   0  0  0  0  0  0  0  0  0  0  0  0
    2.9278    0.9034    0.0000 C   0  0  0  0  0  0  0  0  0  0  0  0
    1.4422    1.1105    0.0000 C   0  0  0  0  0  0  0  0  0  0  0  0
    0.5200   -0.0725    0.0000 C   0  0  0  0  0  0  0  0  0  0  0  0
   -0.9657    0.1346    0.0000 C   0  0  0  0  0  0  0  0  0  0  0  0
   -5.4226    0.7560    0.0000 C   0  0  0  0  0  0  0  0  0  0  0  0
   -6.3447   -0.4271    0.0000 O   0  0  0  0  0  0  0  0  0  0  0  0
   -5.9860    2.1461    0.0000 O   0  0  0  0  0  0  0  0  0  0  0  0
  2  1  1  1
  2  3  1  0
  3  4  1  0
  4  5  1  0
  5  6  2  0
  6  7  1  0
  7  8  2  0
  8  9  1  0
  9 10  2  0
 10 11  1  0
 11 12  2  0
 12 13  1  0
 13 14  2  0
 14 15  1  0
 15 16  2  0
 16 17  1  0
  2 18  1  0
 18 19  2  0
 18 20  1  0
 14  9  1  0
 16  7  1  0
 17  4  2  0
M  END
>  <rName>  (746) 
Ala_anthracen2yl

>  <PQ_SYMBOL>  (746) 
Ala_anthracen2yl

>  <FULL_NAME>  (746) 
3-(2-Anthryl)alanine

>  <IUPAC_CONDENSED>  (746) 
Ala(anthracen-2-yl)

>  <IUPAC>  (746) 
(2S)-2-amino-3-anthracen-2-ylpropanoic acid

>  <TYPE>  (746) 
Backbone

>  <CLASS>  (746) 
alpha

>  <ANALOG>  (746) 
Phe

>  <MOL_WT>  (746) 
265.31199999999995

>  <LOGP>  (746) 
2.947400000000001

>  <TPSA>  (746) 
63.32000000000001

>  <POPULARITY>  (746) 
2.2

>  <PROTECTED>  (746) 
TRUE

>  <SMILES>  (746) 
N[C@@H](Cc3(ccc2(cc1(ccccc1cc2c3))))C(=O)O

>  <INCHIKEY>  (746) 
IXSDAIHAHNXSEH-INIZCTEOSA-N

$$$$
Ala_anthracen9yl
     RDKit          2D

 20 22  0  0  0  0  0  0  0  0999 V2000
   -2.7056    0.5283    0.0000 N   0  0  0  0  0  0  0  0  0  0  0  0
   -2.3890   -0.9379    0.0000 C   0  0  0  0  0  0  0  0  0  0  0  0
   -0.9609   -1.3968    0.0000 C   0  0  0  0  0  0  0  0  0  0  0  0
    0.1506   -0.3895    0.0000 C   0  0  0  0  0  0  0  0  0  0  0  0
    1.5787   -0.8484    0.0000 C   0  0  0  0  0  0  0  0  0  0  0  0
    1.8953   -2.3146    0.0000 C   0  0  0  0  0  0  0  0  0  0  0  0
    3.3234   -2.7734    0.0000 C   0  0  0  0  0  0  0  0  0  0  0  0
    4.4348   -1.7661    0.0000 C   0  0  0  0  0  0  0  0  0  0  0  0
    4.1182   -0.2999    0.0000 C   0  0  0  0  0  0  0  0  0  0  0  0
    2.6901    0.1590    0.0000 C   0  0  0  0  0  0  0  0  0  0  0  0
    2.3734    1.6252    0.0000 C   0  0  0  0  0  0  0  0  0  0  0  0
    0.9454    2.0840    0.0000 C   0  0  0  0  0  0  0  0  0  0  0  0
    0.6287    3.5502    0.0000 C   0  0  0  0  0  0  0  0  0  0  0  0
   -0.7994    4.0091    0.0000 C   0  0  0  0  0  0  0  0  0  0  0  0
   -1.9108    3.0018    0.0000 C   0  0  0  0  0  0  0  0  0  0  0  0
   -1.5942    1.5356    0.0000 C   0  0  0  0  0  0  0  0  0  0  0  0
   -0.1661    1.0767    0.0000 C   0  0  0  0  0  0  0  0  0  0  0  0
   -3.5004   -1.9453    0.0000 C   0  0  0  0  0  0  0  0  0  0  0  0
   -3.1838   -3.4115    0.0000 O   0  0  0  0  0  0  0  0  0  0  0  0
   -4.9285   -1.4864    0.0000 O   0  0  0  0  0  0  0  0  0  0  0  0
  2  1  1  1
  2  3  1  0
  3  4  1  0
  4  5  1  0
  5  6  2  0
  6  7  1  0
  7  8  2  0
  8  9  1  0
  9 10  2  0
 10 11  1  0
 11 12  2  0
 12 13  1  0
 13 14  2  0
 14 15  1  0
 15 16  2  0
 16 17  1  0
  2 18  1  0
 18 19  2  0
 18 20  1  0
 10  5  1  0
 17 12  1  0
 17  4  2  0
M  END
>  <rName>  (747) 
Ala_anthracen9yl

>  <PQ_SYMBOL>  (747) 
Ala_anthracen9yl

>  <FULL_NAME>  (747) 
3-(9-anthryl)l-L-Alanine

>  <IUPAC_CONDENSED>  (747) 
Ala(anthracen-9-yl)

>  <IUPAC>  (747) 
(2S)-2-amino-3-(anthracen-9-yl)propanoic acid

>  <TYPE>  (747) 
Backbone

>  <CLASS>  (747) 
alpha

>  <ANALOG>  (747) 
Phe

>  <MOL_WT>  (747) 
265.31199999999995

>  <LOGP>  (747) 
2.947400000000001

>  <TPSA>  (747) 
63.32000000000001

>  <POPULARITY>  (747) 
6.4

>  <PROTECTED>  (747) 
TRUE

>  <SMILES>  (747) 
N[C@@H](Cc3(c1(ccccc1cc2(ccccc23))))C(=O)O

>  <INCHIKEY>  (747) 
MRVJUNXMEDRMRO-INIZCTEOSA-N

$$$$
Ala_azetidin3yl
     RDKit          2D

 10 10  0  0  0  0  0  0  0  0999 V2000
   -0.6366    1.7081    0.0000 N   0  0  0  0  0  0  0  0  0  0  0  0
   -0.9860    0.2494    0.0000 C   0  0  0  0  0  0  0  0  0  0  0  0
    0.1026   -0.7826    0.0000 C   0  0  0  0  0  0  0  0  0  0  0  0
    1.5406   -0.3558    0.0000 C   0  0  0  0  0  0  0  0  0  0  0  0
    2.2557    0.9628    0.0000 C   0  0  0  0  0  0  0  0  0  0  0  0
    3.5743    0.2478    0.0000 N   0  0  0  0  0  0  0  0  0  0  0  0
    2.8592   -1.0708    0.0000 C   0  0  0  0  0  0  0  0  0  0  0  0
   -2.4240   -0.1774    0.0000 C   0  0  0  0  0  0  0  0  0  0  0  0
   -2.7734   -1.6361    0.0000 O   0  0  0  0  0  0  0  0  0  0  0  0
   -3.5126    0.8546    0.0000 O   0  0  0  0  0  0  0  0  0  0  0  0
  2  1  1  1
  2  3  1  0
  3  4  1  0
  4  5  1  0
  5  6  1  0
  6  7  1  0
  2  8  1  0
  8  9  2  0
  8 10  1  0
  7  4  1  0
M  END
>  <rName>  (748) 
Ala_azetidin3yl

>  <PQ_SYMBOL>  (748) 
Ala_azetidin3yl

>  <FULL_NAME>  (748) 
(2S)-2-amino-3-(azetidin-3-yl)propanoic acid

>  <IUPAC_CONDENSED>  (748) 
Ala(azetidin-3-yl)

>  <IUPAC>  (748) 
(2S)-2-amino-3-(azetidin-3-yl)propanoic acid

>  <TYPE>  (748) 
Backbone

>  <CLASS>  (748) 
alpha

>  <ANALOG>  (748) 
Lys

>  <MOL_WT>  (748) 
144.174

>  <LOGP>  (748) 
-0.9921999999999997

>  <TPSA>  (748) 
75.35

>  <POPULARITY>  (748) 
2.2

>  <PROTECTED>  (748) 
TRUE

>  <SMILES>  (748) 
N[C@@H](CC1(CNC1))C(=O)O

>  <INCHIKEY>  (748) 
MZFWWNYCFLLGAR-YFKPBYRVSA-N

$$$$
Ala_azulen1yl
     RDKit          2D

 16 17  0  0  0  0  0  0  0  0999 V2000
    2.9640   -1.6770    0.0000 N   0  0  0  0  0  0  0  0  0  0  0  0
    2.8413   -0.1820    0.0000 C   0  0  0  0  0  0  0  0  0  0  0  0
    1.4853    0.4593    0.0000 C   0  0  0  0  0  0  0  0  0  0  0  0
    0.2520   -0.3944    0.0000 C   0  0  0  0  0  0  0  0  0  0  0  0
    0.2176   -1.8940    0.0000 C   0  0  0  0  0  0  0  0  0  0  0  0
   -1.2192   -2.3248    0.0000 C   0  0  0  0  0  0  0  0  0  0  0  0
   -2.0729   -1.0914    0.0000 C   0  0  0  0  0  0  0  0  0  0  0  0
   -3.5725   -1.1244    0.0000 C   0  0  0  0  0  0  0  0  0  0  0  0
   -4.5333    0.0275    0.0000 C   0  0  0  0  0  0  0  0  0  0  0  0
   -4.2318    1.4969    0.0000 C   0  0  0  0  0  0  0  0  0  0  0  0
   -2.8950    2.1773    0.0000 C   0  0  0  0  0  0  0  0  0  0  0  0
   -1.5295    1.5564    0.0000 C   0  0  0  0  0  0  0  0  0  0  0  0
   -1.1637    0.1017    0.0000 C   0  0  0  0  0  0  0  0  0  0  0  0
    4.0747    0.6717    0.0000 C   0  0  0  0  0  0  0  0  0  0  0  0
    3.9521    2.1667    0.0000 O   0  0  0  0  0  0  0  0  0  0  0  0
    5.4307    0.0304    0.0000 O   0  0  0  0  0  0  0  0  0  0  0  0
  2  1  1  1
  2  3  1  0
  3  4  1  0
  4  5  1  0
  5  6  2  0
  6  7  1  0
  7  8  2  0
  8  9  1  0
  9 10  2  0
 10 11  1  0
 11 12  2  0
 12 13  1  0
  2 14  1  0
 14 15  2  0
 14 16  1  0
 13  4  2  0
 13  7  1  0
M  END
>  <rName>  (749) 
Ala_azulen1yl

>  <PQ_SYMBOL>  (749) 
Ala_azulen1yl

>  <FULL_NAME>  (749) 
β-(1-azulenyl)-L-alanine

>  <IUPAC_CONDENSED>  (749) 
Ala(azulen-1-yl)

>  <IUPAC>  (749) 
(2S)-2-amino-3-(bicyclo[5.3.0]deca-1(10),2,4,6,8-pentaen-8-yl)propanoic acid

>  <TYPE>  (749) 
Backbone

>  <CLASS>  (749) 
alpha

>  <ANALOG>  (749) 
Phe

>  <MOL_WT>  (749) 
215.25199999999998

>  <LOGP>  (749) 
1.7458

>  <TPSA>  (749) 
63.32000000000001

>  <POPULARITY>  (749) 
3.0

>  <PROTECTED>  (749) 
TRUE

>  <SMILES>  (749) 
N[C@@H](Cc1(ccc2(cccccc12)))C(=O)O

>  <INCHIKEY>  (749) 
OFJOITXZODXNIG-LBPRGKRZSA-N

$$$$
Ala_benzofuran3yl
     RDKit          2D

 15 16  0  0  0  0  0  0  0  0999 V2000
   -2.6183   -1.7023    0.0000 N   0  0  0  0  0  0  0  0  0  0  0  0
   -2.5622   -0.2034    0.0000 C   0  0  0  0  0  0  0  0  0  0  0  0
   -1.2360    0.4975    0.0000 C   0  0  0  0  0  0  0  0  0  0  0  0
    0.0341   -0.3006    0.0000 C   0  0  0  0  0  0  0  0  0  0  0  0
    0.1349   -1.7972    0.0000 C   0  0  0  0  0  0  0  0  0  0  0  0
    1.5895   -2.1637    0.0000 O   0  0  0  0  0  0  0  0  0  0  0  0
    2.3875   -0.8937    0.0000 C   0  0  0  0  0  0  0  0  0  0  0  0
    3.8654   -0.6369    0.0000 C   0  0  0  0  0  0  0  0  0  0  0  0
    4.3820    0.7713    0.0000 C   0  0  0  0  0  0  0  0  0  0  0  0
    3.4207    1.9228    0.0000 C   0  0  0  0  0  0  0  0  0  0  0  0
    1.9429    1.6661    0.0000 C   0  0  0  0  0  0  0  0  0  0  0  0
    1.4263    0.2578    0.0000 C   0  0  0  0  0  0  0  0  0  0  0  0
   -3.8322    0.5947    0.0000 C   0  0  0  0  0  0  0  0  0  0  0  0
   -3.7761    2.0937    0.0000 O   0  0  0  0  0  0  0  0  0  0  0  0
   -5.1584   -0.1061    0.0000 O   0  0  0  0  0  0  0  0  0  0  0  0
  2  1  1  6
  2  3  1  0
  3  4  1  0
  4  5  2  0
  5  6  1  0
  6  7  1  0
  7  8  2  0
  8  9  1  0
  9 10  2  0
 10 11  1  0
 11 12  2  0
  2 13  1  0
 13 14  2  0
 13 15  1  0
 12  7  1  0
 12  4  1  0
M  END
>  <rName>  (750) 
Ala_benzofuran3yl

>  <PQ_SYMBOL>  (750) 
Ala_benzofuran3yl

>  <FULL_NAME>  (750) 
(S)-2-amino-3-(benzofuran-3-yl)propanoic acid

>  <IUPAC_CONDENSED>  (750) 
Ala(benzofuran-3-yl)

>  <IUPAC>  (750) 
(2S)-2-amino-3-(1-benzofuran-3-yl)propanoic acid

>  <TYPE>  (750) 
Backbone

>  <CLASS>  (750) 
alpha

>  <ANALOG>  (750) 
Phe

>  <MOL_WT>  (750) 
205.21299999999997

>  <LOGP>  (750) 
1.3872

>  <TPSA>  (750) 
76.46

>  <POPULARITY>  (750) 
3.7

>  <PROTECTED>  (750) 
TRUE

>  <SMILES>  (750) 
N[C@@H](Cc2(coc1(ccccc12)))C(=O)O

>  <INCHIKEY>  (750) 
IIQKYWMOMQWBER-VIFPVBQESA-N

$$$$
Ala_benzothiazol2yl
     RDKit          2D

 15 16  0  0  0  0  0  0  0  0999 V2000
   -2.2312    1.6742    0.0000 N   0  0  0  0  0  0  0  0  0  0  0  0
   -2.7125    0.2535    0.0000 C   0  0  0  0  0  0  0  0  0  0  0  0
   -1.7228   -0.8736    0.0000 C   0  0  0  0  0  0  0  0  0  0  0  0
   -0.2518   -0.5801    0.0000 C   0  0  0  0  0  0  0  0  0  0  0  0
    0.8503   -1.5976    0.0000 N   0  0  0  0  0  0  0  0  0  0  0  0
    2.1586   -0.8639    0.0000 C   0  0  0  0  0  0  0  0  0  0  0  0
    3.5793   -1.3452    0.0000 C   0  0  0  0  0  0  0  0  0  0  0  0
    4.7064   -0.3555    0.0000 C   0  0  0  0  0  0  0  0  0  0  0  0
    4.4129    1.1155    0.0000 C   0  0  0  0  0  0  0  0  0  0  0  0
    2.9922    1.5968    0.0000 C   0  0  0  0  0  0  0  0  0  0  0  0
    1.8650    0.6071    0.0000 C   0  0  0  0  0  0  0  0  0  0  0  0
    0.3753    0.7825    0.0000 S   0  0  0  0  0  0  0  0  0  0  0  0
   -4.1835   -0.0400    0.0000 C   0  0  0  0  0  0  0  0  0  0  0  0
   -4.6648   -1.4607    0.0000 O   0  0  0  0  0  0  0  0  0  0  0  0
   -5.1732    1.0872    0.0000 O   0  0  0  0  0  0  0  0  0  0  0  0
  2  1  1  1
  2  3  1  0
  3  4  1  0
  4  5  2  0
  5  6  1  0
  6  7  2  0
  7  8  1  0
  8  9  2  0
  9 10  1  0
 10 11  2  0
 11 12  1  0
  2 13  1  0
 13 14  2  0
 13 15  1  0
 11  6  1  0
 12  4  1  0
M  END
>  <rName>  (751) 
Ala_benzothiazol2yl

>  <PQ_SYMBOL>  (751) 
Ala_benzothiazol2yl

>  <FULL_NAME>  (751) 
beta-(2-Benzothiazolyl)-L-alanine

>  <IUPAC_CONDENSED>  (751) 
Ala(benzothiazol-2-yl)

>  <IUPAC>  (751) 
(2S)-2-amino-3-(benzothiazol-2-yl)propanoic acid

>  <TYPE>  (751) 
Backbone

>  <CLASS>  (751) 
alpha

>  <ANALOG>  (751) 
Phe

>  <MOL_WT>  (751) 
222.26899999999998

>  <LOGP>  (751) 
1.2507000000000001

>  <TPSA>  (751) 
76.21

>  <POPULARITY>  (751) 
10.9

>  <PROTECTED>  (751) 
TRUE

>  <SMILES>  (751) 
N[C@@H](Cc2(nc1(ccccc1s2)))C(=O)O

>  <INCHIKEY>  (751) 
DNDVHMGBCGSRIY-LURJTMIESA-N

$$$$
Ala_benzothiophen3yl
     RDKit          2D

 15 16  0  0  0  0  0  0  0  0999 V2000
   -2.6183   -1.7023    0.0000 N   0  0  0  0  0  0  0  0  0  0  0  0
   -2.5622   -0.2034    0.0000 C   0  0  0  0  0  0  0  0  0  0  0  0
   -1.2360    0.4975    0.0000 C   0  0  0  0  0  0  0  0  0  0  0  0
    0.0341   -0.3006    0.0000 C   0  0  0  0  0  0  0  0  0  0  0  0
    0.1349   -1.7972    0.0000 C   0  0  0  0  0  0  0  0  0  0  0  0
    1.5895   -2.1637    0.0000 S   0  0  0  0  0  0  0  0  0  0  0  0
    2.3875   -0.8937    0.0000 C   0  0  0  0  0  0  0  0  0  0  0  0
    3.8654   -0.6369    0.0000 C   0  0  0  0  0  0  0  0  0  0  0  0
    4.3820    0.7713    0.0000 C   0  0  0  0  0  0  0  0  0  0  0  0
    3.4207    1.9228    0.0000 C   0  0  0  0  0  0  0  0  0  0  0  0
    1.9429    1.6661    0.0000 C   0  0  0  0  0  0  0  0  0  0  0  0
    1.4263    0.2578    0.0000 C   0  0  0  0  0  0  0  0  0  0  0  0
   -3.8322    0.5947    0.0000 C   0  0  0  0  0  0  0  0  0  0  0  0
   -3.7761    2.0937    0.0000 O   0  0  0  0  0  0  0  0  0  0  0  0
   -5.1584   -0.1061    0.0000 O   0  0  0  0  0  0  0  0  0  0  0  0
  2  1  1  6
  2  3  1  0
  3  4  1  0
  4  5  2  0
  5  6  1  0
  6  7  1  0
  7  8  2  0
  8  9  1  0
  9 10  2  0
 10 11  1  0
 11 12  2  0
  2 13  1  0
 13 14  2  0
 13 15  1  0
 12  4  1  0
 12  7  1  0
M  END
>  <rName>  (752) 
Ala_benzothiophen3yl

>  <PQ_SYMBOL>  (752) 
Ala_benzothiophen3yl

>  <FULL_NAME>  (752) 
3-(1-Benzothiophen-3-Yl)-L-Alanine

>  <IUPAC_CONDENSED>  (752) 
Ala(benzothiophen-3-yl)

>  <IUPAC>  (752) 
(2S)-2-amino-3-(1-benzothiophen-3-yl)propanoic acid

>  <TYPE>  (752) 
Backbone

>  <CLASS>  (752) 
alpha

>  <ANALOG>  (752) 
Phe

>  <MOL_WT>  (752) 
221.281

>  <LOGP>  (752) 
1.8557000000000001

>  <TPSA>  (752) 
63.32000000000001

>  <POPULARITY>  (752) 
24.5

>  <PROTECTED>  (752) 
TRUE

>  <SMILES>  (752) 
N[C@@H](Cc1(csc2(ccccc12)))C(=O)O

>  <INCHIKEY>  (752) 
GAUUPDQWKHTCAX-VIFPVBQESA-N

$$$$
Ala_benzothiophen3yl_4CF3
     RDKit          2D

 19 20  0  0  0  0  0  0  0  0999 V2000
   -3.0148   -2.0394    0.0000 N   0  0  0  0  0  0  0  0  0  0  0  0
   -2.7955   -0.5555    0.0000 C   0  0  0  0  0  0  0  0  0  0  0  0
   -1.4008   -0.0035    0.0000 C   0  0  0  0  0  0  0  0  0  0  0  0
   -0.2253   -0.9354    0.0000 C   0  0  0  0  0  0  0  0  0  0  0  0
   -0.2883   -2.4340    0.0000 C   0  0  0  0  0  0  0  0  0  0  0  0
    1.1176   -2.9570    0.0000 S   0  0  0  0  0  0  0  0  0  0  0  0
    2.0494   -1.7816    0.0000 C   0  0  0  0  0  0  0  0  0  0  0  0
    3.5465   -1.6876    0.0000 C   0  0  0  0  0  0  0  0  0  0  0  0
    4.2135   -0.3441    0.0000 C   0  0  0  0  0  0  0  0  0  0  0  0
    3.3836    0.9054    0.0000 C   0  0  0  0  0  0  0  0  0  0  0  0
    1.8865    0.8114    0.0000 C   0  0  0  0  0  0  0  0  0  0  0  0
    1.2194   -0.5321    0.0000 C   0  0  0  0  0  0  0  0  0  0  0  0
    1.0566    2.0608    0.0000 C   0  0  0  0  0  0  0  0  0  0  0  0
    0.2266    3.3103    0.0000 F   0  0  0  0  0  0  0  0  0  0  0  0
    2.3061    2.8908    0.0000 F   0  0  0  0  0  0  0  0  0  0  0  0
   -0.1929    1.2309    0.0000 F   0  0  0  0  0  0  0  0  0  0  0  0
   -3.9709    0.3763    0.0000 C   0  0  0  0  0  0  0  0  0  0  0  0
   -3.7517    1.8602    0.0000 O   0  0  0  0  0  0  0  0  0  0  0  0
   -5.3657   -0.1757    0.0000 O   0  0  0  0  0  0  0  0  0  0  0  0
  2  1  1  6
  2  3  1  0
  3  4  1  0
  4  5  2  0
  5  6  1  0
  6  7  1  0
  7  8  2  0
  8  9  1  0
  9 10  2  0
 10 11  1  0
 11 12  2  0
 11 13  1  0
 13 14  1  0
 13 15  1  0
 13 16  1  0
  2 17  1  0
 17 18  2  0
 17 19  1  0
 12  4  1  0
 12  7  1  0
M  END
>  <rName>  (753) 
Ala_benzothiophen3yl_4CF3

>  <PQ_SYMBOL>  (753) 
Ala_benzothiophen3yl_4CF3

>  <FULL_NAME>  (753) 
(2S)-2-amino-3-[4-(trifluoromethyl)-1-benzothiophen-3-yl]propanoic acid

>  <IUPAC_CONDENSED>  (753) 
Ala(benzothiophen-3-yl(4-CF3))

>  <IUPAC>  (753) 
(2S)-2-amino-3-(4-(trifluoromethyl)-1-benzothiophen-3-yl)propanoic acid

>  <TYPE>  (753) 
Backbone

>  <CLASS>  (753) 
alpha

>  <ANALOG>  (753) 
Phe

>  <MOL_WT>  (753) 
289.278

>  <LOGP>  (753) 
2.8745000000000003

>  <TPSA>  (753) 
63.32000000000001

>  <POPULARITY>  (753) 
2.5

>  <PROTECTED>  (753) 
TRUE

>  <SMILES>  (753) 
N[C@@H](Cc1(csc2(cccc(c12)C(F)(F)F)))C(=O)O

>  <INCHIKEY>  (753) 
IXSGQGRCMAXHAD-QMMMGPOBSA-N

$$$$
Ala_benzothiophen3yl_4F
     RDKit          2D

 16 17  0  0  0  0  0  0  0  0999 V2000
   -2.7276   -1.8081    0.0000 N   0  0  0  0  0  0  0  0  0  0  0  0
   -2.6325   -0.3111    0.0000 C   0  0  0  0  0  0  0  0  0  0  0  0
   -1.2885    0.3550    0.0000 C   0  0  0  0  0  0  0  0  0  0  0  0
   -0.0397   -0.4758    0.0000 C   0  0  0  0  0  0  0  0  0  0  0  0
    0.0222   -1.9745    0.0000 C   0  0  0  0  0  0  0  0  0  0  0  0
    1.4667   -2.3788    0.0000 S   0  0  0  0  0  0  0  0  0  0  0  0
    2.2976   -1.1299    0.0000 C   0  0  0  0  0  0  0  0  0  0  0  0
    3.7816   -0.9117    0.0000 C   0  0  0  0  0  0  0  0  0  0  0  0
    4.3347    0.4826    0.0000 C   0  0  0  0  0  0  0  0  0  0  0  0
    3.4037    1.6587    0.0000 C   0  0  0  0  0  0  0  0  0  0  0  0
    1.9196    1.4405    0.0000 C   0  0  0  0  0  0  0  0  0  0  0  0
    0.9886    2.6166    0.0000 F   0  0  0  0  0  0  0  0  0  0  0  0
    1.3666    0.0462    0.0000 C   0  0  0  0  0  0  0  0  0  0  0  0
   -3.8814    0.5198    0.0000 C   0  0  0  0  0  0  0  0  0  0  0  0
   -3.7863    2.0167    0.0000 O   0  0  0  0  0  0  0  0  0  0  0  0
   -5.2254   -0.1464    0.0000 O   0  0  0  0  0  0  0  0  0  0  0  0
  2  1  1  6
  2  3  1  0
  3  4  1  0
  4  5  2  0
  5  6  1  0
  6  7  1  0
  7  8  2  0
  8  9  1  0
  9 10  2  0
 10 11  1  0
 11 12  1  0
 11 13  2  0
  2 14  1  0
 14 15  2  0
 14 16  1  0
 13  4  1  0
 13  7  1  0
M  END
>  <rName>  (754) 
Ala_benzothiophen3yl_4F

>  <PQ_SYMBOL>  (754) 
Ala_benzothiophen3yl_4F

>  <FULL_NAME>  (754) 
(2S)-2-amino-3-(4-fluoro-1-benzothiophen-3-yl)propanoic acid

>  <IUPAC_CONDENSED>  (754) 
Ala(benzothiophen-3-yl(4-F))

>  <IUPAC>  (754) 
(2S)-2-amino-3-(4-fluoro-1-benzothiophen-3-yl)propanoic acid

>  <TYPE>  (754) 
Backbone

>  <CLASS>  (754) 
alpha

>  <ANALOG>  (754) 
Phe

>  <MOL_WT>  (754) 
239.271

>  <LOGP>  (754) 
1.9948000000000001

>  <TPSA>  (754) 
63.32000000000001

>  <POPULARITY>  (754) 
2.6

>  <PROTECTED>  (754) 
TRUE

>  <SMILES>  (754) 
N[C@@H](Cc1(csc2(cccc(F)c12)))C(=O)O

>  <INCHIKEY>  (754) 
QBROWHMLXMWLQV-QMMMGPOBSA-N

$$$$
Ala_benzothiophen3yl_7CF3
     RDKit          2D

 19 20  0  0  0  0  0  0  0  0999 V2000
   -3.4079   -1.8886    0.0000 N   0  0  0  0  0  0  0  0  0  0  0  0
   -3.6141   -0.4028    0.0000 C   0  0  0  0  0  0  0  0  0  0  0  0
   -2.4304    0.5186    0.0000 C   0  0  0  0  0  0  0  0  0  0  0  0
   -1.0406   -0.0457    0.0000 C   0  0  0  0  0  0  0  0  0  0  0  0
   -0.6803   -1.5018    0.0000 C   0  0  0  0  0  0  0  0  0  0  0  0
    0.8159   -1.6090    0.0000 S   0  0  0  0  0  0  0  0  0  0  0  0
    1.3802   -0.2192    0.0000 C   0  0  0  0  0  0  0  0  0  0  0  0
    2.7906    0.2914    0.0000 C   0  0  0  0  0  0  0  0  0  0  0  0
    3.0536    1.7682    0.0000 C   0  0  0  0  0  0  0  0  0  0  0  0
    1.9062    2.7344    0.0000 C   0  0  0  0  0  0  0  0  0  0  0  0
    0.4958    2.2238    0.0000 C   0  0  0  0  0  0  0  0  0  0  0  0
    0.2328    0.7470    0.0000 C   0  0  0  0  0  0  0  0  0  0  0  0
    3.9380   -0.6747    0.0000 C   0  0  0  0  0  0  0  0  0  0  0  0
    5.0854   -1.6409    0.0000 F   0  0  0  0  0  0  0  0  0  0  0  0
    4.9042    0.4727    0.0000 F   0  0  0  0  0  0  0  0  0  0  0  0
    2.9719   -1.8221    0.0000 F   0  0  0  0  0  0  0  0  0  0  0  0
   -5.0039    0.1615    0.0000 C   0  0  0  0  0  0  0  0  0  0  0  0
   -5.2101    1.6472    0.0000 O   0  0  0  0  0  0  0  0  0  0  0  0
   -6.1875   -0.7600    0.0000 O   0  0  0  0  0  0  0  0  0  0  0  0
  2  1  1  6
  2  3  1  0
  3  4  1  0
  4  5  2  0
  5  6  1  0
  6  7  1  0
  7  8  2  0
  8  9  1  0
  9 10  2  0
 10 11  1  0
 11 12  2  0
  8 13  1  0
 13 14  1  0
 13 15  1  0
 13 16  1  0
  2 17  1  0
 17 18  2  0
 17 19  1  0
 12  4  1  0
 12  7  1  0
M  END
>  <rName>  (755) 
Ala_benzothiophen3yl_7CF3

>  <PQ_SYMBOL>  (755) 
Ala_benzothiophen3yl_7CF3

>  <FULL_NAME>  (755) 
(2S)-2-amino-3-[7-(trifluoromethyl)-1-benzothiophen-3-yl]propanoic acid

>  <IUPAC_CONDENSED>  (755) 
Ala(benzothiophen-3-yl(7-CF3))

>  <IUPAC>  (755) 
(2S)-2-amino-3-(7-(trifluoromethyl)-1-benzothiophen-3-yl)propanoic acid

>  <TYPE>  (755) 
Backbone

>  <CLASS>  (755) 
alpha

>  <ANALOG>  (755) 
Phe

>  <MOL_WT>  (755) 
289.278

>  <LOGP>  (755) 
2.8745000000000003

>  <TPSA>  (755) 
63.32000000000001

>  <POPULARITY>  (755) 
2.5

>  <PROTECTED>  (755) 
TRUE

>  <SMILES>  (755) 
N[C@@H](Cc1(csc2(c(cccc12)C(F)(F)F)))C(=O)O

>  <INCHIKEY>  (755) 
OYZCZHWEFNEJFS-VIFPVBQESA-N

$$$$
Ala_benzothiophen3yl_7Cl
     RDKit          2D

 16 17  0  0  0  0  0  0  0  0999 V2000
   -2.8116   -1.7751    0.0000 N   0  0  0  0  0  0  0  0  0  0  0  0
   -2.8520   -0.2757    0.0000 C   0  0  0  0  0  0  0  0  0  0  0  0
   -1.5737    0.5091    0.0000 C   0  0  0  0  0  0  0  0  0  0  0  0
   -0.2549   -0.2056    0.0000 C   0  0  0  0  0  0  0  0  0  0  0  0
   -0.0579   -1.6926    0.0000 C   0  0  0  0  0  0  0  0  0  0  0  0
    1.4172   -1.9648    0.0000 S   0  0  0  0  0  0  0  0  0  0  0  0
    2.1319   -0.6460    0.0000 C   0  0  0  0  0  0  0  0  0  0  0  0
    3.5902   -0.2947    0.0000 C   0  0  0  0  0  0  0  0  0  0  0  0
    4.6235   -1.3820    0.0000 Cl  0  0  0  0  0  0  0  0  0  0  0  0
    4.0150    1.1438    0.0000 C   0  0  0  0  0  0  0  0  0  0  0  0
    2.9816    2.2311    0.0000 C   0  0  0  0  0  0  0  0  0  0  0  0
    1.5234    1.8798    0.0000 C   0  0  0  0  0  0  0  0  0  0  0  0
    1.0985    0.4412    0.0000 C   0  0  0  0  0  0  0  0  0  0  0  0
   -4.1708    0.4390    0.0000 C   0  0  0  0  0  0  0  0  0  0  0  0
   -4.2113    1.9385    0.0000 O   0  0  0  0  0  0  0  0  0  0  0  0
   -5.4491   -0.3458    0.0000 O   0  0  0  0  0  0  0  0  0  0  0  0
  2  1  1  6
  2  3  1  0
  3  4  1  0
  4  5  2  0
  5  6  1  0
  6  7  1  0
  7  8  2  0
  8  9  1  0
  8 10  1  0
 10 11  2  0
 11 12  1  0
 12 13  2  0
  2 14  1  0
 14 15  2  0
 14 16  1  0
 13  4  1  0
 13  7  1  0
M  END
>  <rName>  (756) 
Ala_benzothiophen3yl_7Cl

>  <PQ_SYMBOL>  (756) 
Ala_benzothiophen3yl_7Cl

>  <FULL_NAME>  (756) 
(2S)-2-amino-3-(7-chloro-1-benzothiophen-3-yl)propanoic acid

>  <IUPAC_CONDENSED>  (756) 
Ala(benzothiophen-3-yl(7-Cl))

>  <IUPAC>  (756) 
(2S)-2-amino-3-(7-chloro-1-benzothiophen-3-yl)propanoic acid

>  <TYPE>  (756) 
Backbone

>  <CLASS>  (756) 
alpha

>  <ANALOG>  (756) 
Phe

>  <MOL_WT>  (756) 
255.726

>  <LOGP>  (756) 
2.5091

>  <TPSA>  (756) 
63.32000000000001

>  <POPULARITY>  (756) 
2.6

>  <PROTECTED>  (756) 
TRUE

>  <SMILES>  (756) 
N[C@@H](Cc1(csc2(c(Cl)cccc12)))C(=O)O

>  <INCHIKEY>  (756) 
DEZUOVYDNFUJNZ-VIFPVBQESA-N

$$$$
Ala_benzothiophen3yl_7F
     RDKit          2D

 16 17  0  0  0  0  0  0  0  0999 V2000
   -2.8116   -1.7751    0.0000 N   0  0  0  0  0  0  0  0  0  0  0  0
   -2.8520   -0.2757    0.0000 C   0  0  0  0  0  0  0  0  0  0  0  0
   -1.5737    0.5091    0.0000 C   0  0  0  0  0  0  0  0  0  0  0  0
   -0.2549   -0.2056    0.0000 C   0  0  0  0  0  0  0  0  0  0  0  0
   -0.0579   -1.6926    0.0000 C   0  0  0  0  0  0  0  0  0  0  0  0
    1.4172   -1.9648    0.0000 S   0  0  0  0  0  0  0  0  0  0  0  0
    2.1319   -0.6460    0.0000 C   0  0  0  0  0  0  0  0  0  0  0  0
    3.5902   -0.2947    0.0000 C   0  0  0  0  0  0  0  0  0  0  0  0
    4.6235   -1.3820    0.0000 F   0  0  0  0  0  0  0  0  0  0  0  0
    4.0150    1.1438    0.0000 C   0  0  0  0  0  0  0  0  0  0  0  0
    2.9816    2.2311    0.0000 C   0  0  0  0  0  0  0  0  0  0  0  0
    1.5234    1.8798    0.0000 C   0  0  0  0  0  0  0  0  0  0  0  0
    1.0985    0.4412    0.0000 C   0  0  0  0  0  0  0  0  0  0  0  0
   -4.1708    0.4390    0.0000 C   0  0  0  0  0  0  0  0  0  0  0  0
   -4.2113    1.9385    0.0000 O   0  0  0  0  0  0  0  0  0  0  0  0
   -5.4491   -0.3458    0.0000 O   0  0  0  0  0  0  0  0  0  0  0  0
  2  1  1  6
  2  3  1  0
  3  4  1  0
  4  5  2  0
  5  6  1  0
  6  7  1  0
  7  8  2  0
  8  9  1  0
  8 10  1  0
 10 11  2  0
 11 12  1  0
 12 13  2  0
  2 14  1  0
 14 15  2  0
 14 16  1  0
 13  4  1  0
 13  7  1  0
M  END
>  <rName>  (757) 
Ala_benzothiophen3yl_7F

>  <PQ_SYMBOL>  (757) 
Ala_benzothiophen3yl_7F

>  <FULL_NAME>  (757) 
N[C@@H](Cc1csc2c(F)cccc12)C(=O)O

>  <IUPAC_CONDENSED>  (757) 
Ala(benzothiophen-3-yl(7-F))

>  <IUPAC>  (757) 
(2S)-2-amino-3-(7-fluoro-1-benzothiophen-3-yl)propanoic acid

>  <TYPE>  (757) 
Backbone

>  <CLASS>  (757) 
alpha

>  <ANALOG>  (757) 
Phe

>  <MOL_WT>  (757) 
239.271

>  <LOGP>  (757) 
1.9948000000000001

>  <TPSA>  (757) 
63.32000000000001

>  <POPULARITY>  (757) 
2.3

>  <PROTECTED>  (757) 
TRUE

>  <SMILES>  (757) 
N[C@@H](Cc1(csc2(c(F)cccc12)))C(=O)O

>  <INCHIKEY>  (757) 
MACJBMFQXZJJHE-VIFPVBQESA-N

$$$$
Ala_cBu
     RDKit          2D

 10 10  0  0  0  0  0  0  0  0999 V2000
   -0.6366    1.7081    0.0000 N   0  0  0  0  0  0  0  0  0  0  0  0
   -0.9860    0.2494    0.0000 C   0  0  0  0  0  0  0  0  0  0  0  0
    0.1026   -0.7826    0.0000 C   0  0  0  0  0  0  0  0  0  0  0  0
    1.5406   -0.3558    0.0000 C   0  0  0  0  0  0  0  0  0  0  0  0
    2.2557    0.9628    0.0000 C   0  0  0  0  0  0  0  0  0  0  0  0
    3.5743    0.2478    0.0000 C   0  0  0  0  0  0  0  0  0  0  0  0
    2.8592   -1.0708    0.0000 C   0  0  0  0  0  0  0  0  0  0  0  0
   -2.4240   -0.1774    0.0000 C   0  0  0  0  0  0  0  0  0  0  0  0
   -2.7734   -1.6361    0.0000 O   0  0  0  0  0  0  0  0  0  0  0  0
   -3.5126    0.8546    0.0000 O   0  0  0  0  0  0  0  0  0  0  0  0
  2  1  1  1
  2  3  1  0
  3  4  1  0
  4  5  1  0
  5  6  1  0
  6  7  1  0
  2  8  1  0
  8  9  2  0
  8 10  1  0
  7  4  1  0
M  END
>  <rName>  (758) 
Ala_cBu

>  <PQ_SYMBOL>  (758) 
Ala_cBu

>  <FULL_NAME>  (758) 
Beta-cyclobutyl-L-alanine

>  <IUPAC_CONDENSED>  (758) 
Ala(cBu)

>  <IUPAC>  (758) 
(2S)-2-amino-3-cyclobutylpropanoic acid

>  <TYPE>  (758) 
Backbone

>  <CLASS>  (758) 
alpha

>  <ANALOG>  (758) 
Ala

>  <MOL_WT>  (758) 
143.186

>  <LOGP>  (758) 
0.5884999999999998

>  <TPSA>  (758) 
63.32000000000001

>  <POPULARITY>  (758) 
16.2

>  <PROTECTED>  (758) 
TRUE

>  <SMILES>  (758) 
N[C@@H](CC1(CCC1))C(=O)O

>  <INCHIKEY>  (758) 
SRGOJUDAJKUDAZ-LURJTMIESA-N

$$$$
Ala_cBu_1Me
     RDKit          2D

 11 11  0  0  0  0  0  0  0  0999 V2000
   -0.5502    1.6701    0.0000 N   0  0  0  0  0  0  0  0  0  0  0  0
   -0.9690    0.2298    0.0000 C   0  0  0  0  0  0  0  0  0  0  0  0
    0.0689   -0.8531    0.0000 C   0  0  0  0  0  0  0  0  0  0  0  0
    1.5257   -0.4956    0.0000 C   0  0  0  0  0  0  0  0  0  0  0  0
    1.8831   -1.9524    0.0000 C   0  0  0  0  0  0  0  0  0  0  0  0
    1.1683    0.9612    0.0000 C   0  0  0  0  0  0  0  0  0  0  0  0
    2.6250    1.3186    0.0000 C   0  0  0  0  0  0  0  0  0  0  0  0
    2.9825   -0.1382    0.0000 C   0  0  0  0  0  0  0  0  0  0  0  0
   -2.4258   -0.1276    0.0000 C   0  0  0  0  0  0  0  0  0  0  0  0
   -2.8447   -1.5680    0.0000 O   0  0  0  0  0  0  0  0  0  0  0  0
   -3.4638    0.9553    0.0000 O   0  0  0  0  0  0  0  0  0  0  0  0
  2  1  1  1
  2  3  1  0
  3  4  1  0
  4  5  1  0
  4  6  1  0
  6  7  1  0
  7  8  1  0
  2  9  1  0
  9 10  2  0
  9 11  1  0
  8  4  1  0
M  END
>  <rName>  (759) 
Ala_cBu_1Me

>  <PQ_SYMBOL>  (759) 
Ala_cBu_1Me

>  <FULL_NAME>  (759) 
(2S)-2-Amino-3-(1-methylcyclobutyl)propanoic acid

>  <IUPAC_CONDENSED>  (759) 
Ala(cBu(1-Me))

>  <IUPAC>  (759) 
(2S)-2-amino-3-(1-methylcyclobutyl)propanoic acid

>  <TYPE>  (759) 
Backbone

>  <CLASS>  (759) 
alpha

>  <ANALOG>  (759) 
Ala

>  <MOL_WT>  (759) 
157.213

>  <LOGP>  (759) 
0.9785999999999997

>  <TPSA>  (759) 
63.32000000000001

>  <POPULARITY>  (759) 
2.2

>  <PROTECTED>  (759) 
TRUE

>  <SMILES>  (759) 
N[C@@H](CC1(C)(CCC1))C(=O)O

>  <INCHIKEY>  (759) 
BMMSEIZQWPNKMW-LURJTMIESA-N

$$$$
Ala_cBu_33diF
     RDKit          2D

 12 12  0  0  0  0  0  0  0  0999 V2000
   -1.3272    1.6783    0.0000 N   0  0  0  0  0  0  0  0  0  0  0  0
   -1.7422    0.2368    0.0000 C   0  0  0  0  0  0  0  0  0  0  0  0
   -0.7014   -0.8433    0.0000 C   0  0  0  0  0  0  0  0  0  0  0  0
    0.7544   -0.4820    0.0000 C   0  0  0  0  0  0  0  0  0  0  0  0
    1.5284    0.8029    0.0000 C   0  0  0  0  0  0  0  0  0  0  0  0
    2.8133    0.0290    0.0000 C   0  0  0  0  0  0  0  0  0  0  0  0
    3.5872    1.3139    0.0000 F   0  0  0  0  0  0  0  0  0  0  0  0
    4.0982   -0.7450    0.0000 F   0  0  0  0  0  0  0  0  0  0  0  0
    2.0393   -1.2559    0.0000 C   0  0  0  0  0  0  0  0  0  0  0  0
   -3.1981   -0.1245    0.0000 C   0  0  0  0  0  0  0  0  0  0  0  0
   -3.6131   -1.5659    0.0000 O   0  0  0  0  0  0  0  0  0  0  0  0
   -4.2389    0.9557    0.0000 O   0  0  0  0  0  0  0  0  0  0  0  0
  2  1  1  1
  2  3  1  0
  3  4  1  0
  4  5  1  0
  5  6  1  0
  6  7  1  0
  6  8  1  0
  6  9  1  0
  2 10  1  0
 10 11  2  0
 10 12  1  0
  9  4  1  0
M  END
>  <rName>  (760) 
Ala_cBu_33diF

>  <PQ_SYMBOL>  (760) 
Ala_cBu_33diF

>  <FULL_NAME>  (760) 
(2S)-2-Amino-3-(3,3-difluorocyclobutyl)propanoic acid

>  <IUPAC_CONDENSED>  (760) 
Ala(cBu(3,3-diF))

>  <IUPAC>  (760) 
(2S)-2-amino-3-(3,3-difluorocyclobutyl)propanoic acid

>  <TYPE>  (760) 
Backbone

>  <CLASS>  (760) 
alpha

>  <ANALOG>  (760) 
X

>  <MOL_WT>  (760) 
179.166

>  <LOGP>  (760) 
0.8337000000000001

>  <TPSA>  (760) 
63.32000000000001

>  <POPULARITY>  (760) 
2.2

>  <PROTECTED>  (760) 
TRUE

>  <SMILES>  (760) 
N[C@@H](CC1(CC(F)(F)C1))C(=O)O

>  <INCHIKEY>  (760) 
CJLBLDSDKVIRFS-YFKPBYRVSA-N

$$$$
Ala_cHept
     RDKit          2D

 13 13  0  0  0  0  0  0  0  0999 V2000
   -1.5205    1.6663    0.0000 N   0  0  0  0  0  0  0  0  0  0  0  0
   -1.9150    0.2192    0.0000 C   0  0  0  0  0  0  0  0  0  0  0  0
   -0.8591   -0.8461    0.0000 C   0  0  0  0  0  0  0  0  0  0  0  0
    0.5915   -0.4643    0.0000 C   0  0  0  0  0  0  0  0  0  0  0  0
    1.5650   -1.6055    0.0000 C   0  0  0  0  0  0  0  0  0  0  0  0
    3.0641   -1.5560    0.0000 C   0  0  0  0  0  0  0  0  0  0  0  0
    3.9602   -0.3530    0.0000 C   0  0  0  0  0  0  0  0  0  0  0  0
    3.5783    1.0976    0.0000 C   0  0  0  0  0  0  0  0  0  0  0  0
    2.2061    1.7034    0.0000 C   0  0  0  0  0  0  0  0  0  0  0  0
    0.8769    1.0083    0.0000 C   0  0  0  0  0  0  0  0  0  0  0  0
   -3.3656   -0.1627    0.0000 C   0  0  0  0  0  0  0  0  0  0  0  0
   -3.7602   -1.6099    0.0000 O   0  0  0  0  0  0  0  0  0  0  0  0
   -4.4216    0.9026    0.0000 O   0  0  0  0  0  0  0  0  0  0  0  0
  2  1  1  1
  2  3  1  0
  3  4  1  0
  4  5  1  0
  5  6  1  0
  6  7  1  0
  7  8  1  0
  8  9  1  0
  9 10  1  0
  2 11  1  0
 11 12  2  0
 11 13  1  0
 10  4  1  0
M  END
>  <rName>  (761) 
Ala_cHept

>  <PQ_SYMBOL>  (761) 
Ala_cHept

>  <FULL_NAME>  (761) 
(s)-2-Amino-3-cycloheptylpropanoic acid

>  <IUPAC_CONDENSED>  (761) 
Ala(cHept)

>  <IUPAC>  (761) 
(2S)-2-amino-3-cycloheptylpropanoic acid

>  <TYPE>  (761) 
Backbone

>  <CLASS>  (761) 
alpha

>  <ANALOG>  (761) 
Ala

>  <MOL_WT>  (761) 
185.267

>  <LOGP>  (761) 
1.7588

>  <TPSA>  (761) 
63.32000000000001

>  <POPULARITY>  (761) 
6.4

>  <PROTECTED>  (761) 
TRUE

>  <SMILES>  (761) 
N[C@@H](CC1(CCCCCC1))C(=O)O

>  <INCHIKEY>  (761) 
WJKZEQGDVZCGPZ-VIFPVBQESA-N

$$$$
Ala_cOct
     RDKit          2D

 14 14  0  0  0  0  0  0  0  0999 V2000
   -1.7933    1.6527    0.0000 N   0  0  0  0  0  0  0  0  0  0  0  0
   -2.2025    0.2096    0.0000 C   0  0  0  0  0  0  0  0  0  0  0  0
   -1.1574   -0.8664    0.0000 C   0  0  0  0  0  0  0  0  0  0  0  0
    0.2970   -0.4992    0.0000 C   0  0  0  0  0  0  0  0  0  0  0  0
    0.5144    0.9850    0.0000 C   0  0  0  0  0  0  0  0  0  0  0  0
    1.7176    1.8807    0.0000 C   0  0  0  0  0  0  0  0  0  0  0  0
    3.2017    1.6633    0.0000 C   0  0  0  0  0  0  0  0  0  0  0  0
    4.0975    0.4602    0.0000 C   0  0  0  0  0  0  0  0  0  0  0  0
    3.8801   -1.0240    0.0000 C   0  0  0  0  0  0  0  0  0  0  0  0
    2.6769   -1.9198    0.0000 C   0  0  0  0  0  0  0  0  0  0  0  0
    1.1928   -1.7024    0.0000 C   0  0  0  0  0  0  0  0  0  0  0  0
   -3.6569   -0.1575    0.0000 C   0  0  0  0  0  0  0  0  0  0  0  0
   -4.0661   -1.6006    0.0000 O   0  0  0  0  0  0  0  0  0  0  0  0
   -4.7020    0.9184    0.0000 O   0  0  0  0  0  0  0  0  0  0  0  0
  2  1  1  1
  2  3  1  0
  3  4  1  0
  4  5  1  0
  5  6  1  0
  6  7  1  0
  7  8  1  0
  8  9  1  0
  9 10  1  0
 10 11  1  0
  2 12  1  0
 12 13  2  0
 12 14  1  0
 11  4  1  0
M  END
>  <rName>  (762) 
Ala_cOct

>  <PQ_SYMBOL>  (762) 
Ala_cOct

>  <FULL_NAME>  (762) 
(S)-2-amino-3-cyclooctylpropanoic acid

>  <IUPAC_CONDENSED>  (762) 
Ala(cOct)

>  <IUPAC>  (762) 
(2S)-2-amino-3-cyclooctylpropanoic acid

>  <TYPE>  (762) 
Backbone

>  <CLASS>  (762) 
alpha

>  <ANALOG>  (762) 
Ala

>  <MOL_WT>  (762) 
199.29399999999998

>  <LOGP>  (762) 
2.1489

>  <TPSA>  (762) 
63.32000000000001

>  <POPULARITY>  (762) 
2.2

>  <PROTECTED>  (762) 
TRUE

>  <SMILES>  (762) 
N[C@@H](CC1(CCCCCCC1))C(=O)O

>  <INCHIKEY>  (762) 
PSYRORCNCYQOIA-JTQLQIEISA-N

$$$$
Ala_cPent
     RDKit          2D

 11 11  0  0  0  0  0  0  0  0999 V2000
   -0.9461    1.6947    0.0000 N   0  0  0  0  0  0  0  0  0  0  0  0
   -1.3100    0.2395    0.0000 C   0  0  0  0  0  0  0  0  0  0  0  0
   -0.2317   -0.8032    0.0000 C   0  0  0  0  0  0  0  0  0  0  0  0
    1.2105   -0.3908    0.0000 C   0  0  0  0  0  0  0  0  0  0  0  0
    2.3919   -1.3151    0.0000 C   0  0  0  0  0  0  0  0  0  0  0  0
    3.6360   -0.4772    0.0000 C   0  0  0  0  0  0  0  0  0  0  0  0
    3.2236    0.9650    0.0000 C   0  0  0  0  0  0  0  0  0  0  0  0
    1.7245    1.0184    0.0000 C   0  0  0  0  0  0  0  0  0  0  0  0
   -2.7522   -0.1729    0.0000 C   0  0  0  0  0  0  0  0  0  0  0  0
   -3.1161   -1.6281    0.0000 O   0  0  0  0  0  0  0  0  0  0  0  0
   -3.8304    0.8698    0.0000 O   0  0  0  0  0  0  0  0  0  0  0  0
  2  1  1  1
  2  3  1  0
  3  4  1  0
  4  5  1  0
  5  6  1  0
  6  7  1  0
  7  8  1  0
  2  9  1  0
  9 10  2  0
  9 11  1  0
  8  4  1  0
M  END
>  <rName>  (763) 
Ala_cPent

>  <PQ_SYMBOL>  (763) 
Ala_cPent

>  <FULL_NAME>  (763) 
3-Cyclopentane-L-Alanine

>  <IUPAC_CONDENSED>  (763) 
Ala(cPent)

>  <IUPAC>  (763) 
(2S)-2-amino-3-cyclopentylpropanoic acid

>  <TYPE>  (763) 
Backbone

>  <CLASS>  (763) 
alpha

>  <ANALOG>  (763) 
Ala

>  <MOL_WT>  (763) 
157.21300000000002

>  <LOGP>  (763) 
0.9785999999999997

>  <TPSA>  (763) 
63.32000000000001

>  <POPULARITY>  (763) 
23.0

>  <PROTECTED>  (763) 
TRUE

>  <SMILES>  (763) 
N[C@@H](CC1(CCCC1))C(=O)O

>  <INCHIKEY>  (763) 
KDYAKYRBGLKMAK-ZETCQYMHSA-N

$$$$
Ala_cPent_1Me
     RDKit          2D

 12 12  0  0  0  0  0  0  0  0999 V2000
   -0.6731    1.6252    0.0000 N   0  0  0  0  0  0  0  0  0  0  0  0
   -1.1873    0.2161    0.0000 C   0  0  0  0  0  0  0  0  0  0  0  0
   -0.2240   -0.9337    0.0000 C   0  0  0  0  0  0  0  0  0  0  0  0
    1.2534   -0.6744    0.0000 C   0  0  0  0  0  0  0  0  0  0  0  0
    1.3569   -2.1709    0.0000 C   0  0  0  0  0  0  0  0  0  0  0  0
    2.7525   -0.7280    0.0000 C   0  0  0  0  0  0  0  0  0  0  0  0
    3.2666    0.6812    0.0000 C   0  0  0  0  0  0  0  0  0  0  0  0
    2.0853    1.6056    0.0000 C   0  0  0  0  0  0  0  0  0  0  0  0
    0.8411    0.7678    0.0000 C   0  0  0  0  0  0  0  0  0  0  0  0
   -2.6647   -0.0432    0.0000 C   0  0  0  0  0  0  0  0  0  0  0  0
   -3.1788   -1.4523    0.0000 O   0  0  0  0  0  0  0  0  0  0  0  0
   -3.6279    1.1066    0.0000 O   0  0  0  0  0  0  0  0  0  0  0  0
  2  1  1  1
  2  3  1  0
  3  4  1  0
  4  5  1  0
  4  6  1  0
  6  7  1  0
  7  8  1  0
  8  9  1  0
  2 10  1  0
 10 11  2  0
 10 12  1  0
  9  4  1  0
M  END
>  <rName>  (764) 
Ala_cPent_1Me

>  <PQ_SYMBOL>  (764) 
Ala_cPent_1Me

>  <FULL_NAME>  (764) 
(2S)-2-Amino-3-(1-methylcyclopentyl)propanoic acid

>  <IUPAC_CONDENSED>  (764) 
Ala(cPent(1-Me))

>  <IUPAC>  (764) 
(2S)-2-amino-3-(1-methylcyclopentyl)propanoic acid

>  <TYPE>  (764) 
Backbone

>  <CLASS>  (764) 
alpha

>  <ANALOG>  (764) 
Ala

>  <MOL_WT>  (764) 
171.24

>  <LOGP>  (764) 
1.3687

>  <TPSA>  (764) 
63.32000000000001

>  <POPULARITY>  (764) 
2.2

>  <PROTECTED>  (764) 
TRUE

>  <SMILES>  (764) 
N[C@@H](CC1(C)(CCCC1))C(=O)O

>  <INCHIKEY>  (764) 
WJVOMMOLIJHWRY-ZETCQYMHSA-N

$$$$
Ala_cPr
     RDKit          2D

  9  9  0  0  0  0  0  0  0  0999 V2000
   -0.3028    1.7184    0.0000 N   0  0  0  0  0  0  0  0  0  0  0  0
   -0.6415    0.2571    0.0000 C   0  0  0  0  0  0  0  0  0  0  0  0
    0.4546   -0.7668    0.0000 C   0  0  0  0  0  0  0  0  0  0  0  0
    1.8895   -0.3295    0.0000 C   0  0  0  0  0  0  0  0  0  0  0  0
    3.3507   -0.6681    0.0000 C   0  0  0  0  0  0  0  0  0  0  0  0
    2.9134    0.7667    0.0000 C   0  0  0  0  0  0  0  0  0  0  0  0
   -2.0763   -0.1802    0.0000 C   0  0  0  0  0  0  0  0  0  0  0  0
   -2.4150   -1.6415    0.0000 O   0  0  0  0  0  0  0  0  0  0  0  0
   -3.1725    0.8437    0.0000 O   0  0  0  0  0  0  0  0  0  0  0  0
  2  1  1  1
  2  3  1  0
  3  4  1  0
  4  5  1  0
  5  6  1  0
  2  7  1  0
  7  8  2  0
  7  9  1  0
  6  4  1  0
M  END
>  <rName>  (765) 
Ala_cPr

>  <PQ_SYMBOL>  (765) 
Ala_cPr

>  <FULL_NAME>  (765) 
3-Cyclopropyl-L-Alanine

>  <IUPAC_CONDENSED>  (765) 
Ala(cPr)

>  <IUPAC>  (765) 
(2S)-2-amino-3-cyclopropylpropanoic acid

>  <TYPE>  (765) 
Backbone

>  <CLASS>  (765) 
alpha

>  <ANALOG>  (765) 
Ala

>  <MOL_WT>  (765) 
129.15900000000002

>  <LOGP>  (765) 
0.19839999999999985

>  <TPSA>  (765) 
63.32000000000001

>  <POPULARITY>  (765) 
17.0

>  <PROTECTED>  (765) 
TRUE

>  <SMILES>  (765) 
N[C@@H](CC1(CC1))C(=O)O

>  <INCHIKEY>  (765) 
XGUXJMWPVJQIHI-YFKPBYRVSA-N

$$$$
Ala_cPr_1Me
     RDKit          2D

 10 10  0  0  0  0  0  0  0  0999 V2000
   -0.4413    1.7147    0.0000 N   0  0  0  0  0  0  0  0  0  0  0  0
   -0.7558    0.2480    0.0000 C   0  0  0  0  0  0  0  0  0  0  0  0
    0.3571   -0.7577    0.0000 C   0  0  0  0  0  0  0  0  0  0  0  0
    1.7845   -0.2967    0.0000 C   0  0  0  0  0  0  0  0  0  0  0  0
    2.4863   -1.6224    0.0000 C   0  0  0  0  0  0  0  0  0  0  0  0
    2.9682    0.6247    0.0000 C   0  0  0  0  0  0  0  0  0  0  0  0
    1.5784    1.1891    0.0000 C   0  0  0  0  0  0  0  0  0  0  0  0
   -2.1833   -0.2129    0.0000 C   0  0  0  0  0  0  0  0  0  0  0  0
   -2.4978   -1.6796    0.0000 O   0  0  0  0  0  0  0  0  0  0  0  0
   -3.2962    0.7928    0.0000 O   0  0  0  0  0  0  0  0  0  0  0  0
  2  1  1  1
  2  3  1  0
  3  4  1  0
  4  5  1  0
  4  6  1  0
  6  7  1  0
  2  8  1  0
  8  9  2  0
  8 10  1  0
  7  4  1  0
M  END
>  <rName>  (766) 
Ala_cPr_1Me

>  <PQ_SYMBOL>  (766) 
Ala_cPr_1Me

>  <FULL_NAME>  (766) 
(S)-alpha-Amino-1-methylcyclopropanepropanoic Acid

>  <IUPAC_CONDENSED>  (766) 
Ala(cPr(1-Me))

>  <IUPAC>  (766) 
(2S)-2-amino-3-(1-methylcyclopropyl)propanoic acid

>  <TYPE>  (766) 
Backbone

>  <CLASS>  (766) 
alpha

>  <ANALOG>  (766) 
Ala

>  <MOL_WT>  (766) 
143.186

>  <LOGP>  (766) 
0.5884999999999998

>  <TPSA>  (766) 
63.32000000000001

>  <POPULARITY>  (766) 
2.2

>  <PROTECTED>  (766) 
TRUE

>  <SMILES>  (766) 
N[C@@H](CC1(C)(CC1))C(=O)O

>  <INCHIKEY>  (766) 
GXUBADBLASILKZ-YFKPBYRVSA-N

$$$$
Ala_cPr_1Ph
     RDKit          2D

 15 16  0  0  0  0  0  0  0  0999 V2000
   -2.7718    1.5757    0.0000 N   0  0  0  0  0  0  0  0  0  0  0  0
   -2.2791    0.1589    0.0000 C   0  0  0  0  0  0  0  0  0  0  0  0
   -0.8058   -0.1228    0.0000 C   0  0  0  0  0  0  0  0  0  0  0  0
    0.1748    1.0123    0.0000 C   0  0  0  0  0  0  0  0  0  0  0  0
   -0.7727    2.1751    0.0000 C   0  0  0  0  0  0  0  0  0  0  0  0
    0.7081    2.4143    0.0000 C   0  0  0  0  0  0  0  0  0  0  0  0
    1.4629    0.2436    0.0000 C   0  0  0  0  0  0  0  0  0  0  0  0
    1.4413   -1.2562    0.0000 C   0  0  0  0  0  0  0  0  0  0  0  0
    2.7295   -2.0248    0.0000 C   0  0  0  0  0  0  0  0  0  0  0  0
    4.0392   -1.2936    0.0000 C   0  0  0  0  0  0  0  0  0  0  0  0
    4.0607    0.2062    0.0000 C   0  0  0  0  0  0  0  0  0  0  0  0
    2.7726    0.9749    0.0000 C   0  0  0  0  0  0  0  0  0  0  0  0
   -3.2597   -0.9762    0.0000 C   0  0  0  0  0  0  0  0  0  0  0  0
   -2.7670   -2.3929    0.0000 O   0  0  0  0  0  0  0  0  0  0  0  0
   -4.7330   -0.6945    0.0000 O   0  0  0  0  0  0  0  0  0  0  0  0
  2  1  1  1
  2  3  1  0
  3  4  1  0
  4  5  1  0
  5  6  1  0
  4  7  1  0
  7  8  2  0
  8  9  1  0
  9 10  2  0
 10 11  1  0
 11 12  2  0
  2 13  1  0
 13 14  2  0
 13 15  1  0
  6  4  1  0
 12  7  1  0
M  END
>  <rName>  (767) 
Ala_cPr_1Ph

>  <PQ_SYMBOL>  (767) 
Ala_cPr_1Ph

>  <FULL_NAME>  (767) 
(S)-alpha-Amino-1-phenylcyclopropanepropanoic Acid

>  <IUPAC_CONDENSED>  (767) 
Ala(cPr(1-Ph))

>  <IUPAC>  (767) 
(2S)-2-amino-3-(1-phenylcyclopropyl)propanoic acid

>  <TYPE>  (767) 
Backbone

>  <CLASS>  (767) 
alpha

>  <ANALOG>  (767) 
Phe

>  <MOL_WT>  (767) 
205.257

>  <LOGP>  (767) 
1.5202000000000002

>  <TPSA>  (767) 
63.32000000000001

>  <POPULARITY>  (767) 
2.2

>  <PROTECTED>  (767) 
TRUE

>  <SMILES>  (767) 
N[C@@H](CC1(CC1)c2(ccccc2))C(=O)O

>  <INCHIKEY>  (767) 
QHROGQIDQKELKG-JTQLQIEISA-N

$$$$
Ala_cyclohex1en1yl
     RDKit          2D

 12 12  0  0  0  0  0  0  0  0999 V2000
   -1.2391    1.6805    0.0000 N   0  0  0  0  0  0  0  0  0  0  0  0
   -1.6184    0.2292    0.0000 C   0  0  0  0  0  0  0  0  0  0  0  0
   -0.5513   -0.8249    0.0000 C   0  0  0  0  0  0  0  0  0  0  0  0
    0.8952   -0.4278    0.0000 C   0  0  0  0  0  0  0  0  0  0  0  0
    1.2745    1.0235    0.0000 C   0  0  0  0  0  0  0  0  0  0  0  0
    2.7210    1.4206    0.0000 C   0  0  0  0  0  0  0  0  0  0  0  0
    3.7882    0.3665    0.0000 C   0  0  0  0  0  0  0  0  0  0  0  0
    3.4088   -1.0848    0.0000 C   0  0  0  0  0  0  0  0  0  0  0  0
    1.9624   -1.4819    0.0000 C   0  0  0  0  0  0  0  0  0  0  0  0
   -3.0649   -0.1679    0.0000 C   0  0  0  0  0  0  0  0  0  0  0  0
   -3.4442   -1.6191    0.0000 O   0  0  0  0  0  0  0  0  0  0  0  0
   -4.1321    0.8862    0.0000 O   0  0  0  0  0  0  0  0  0  0  0  0
  2  1  1  1
  2  3  1  0
  3  4  1  0
  4  5  2  0
  5  6  1  0
  6  7  1  0
  7  8  1  0
  8  9  1  0
  2 10  1  0
 10 11  2  0
 10 12  1  0
  9  4  1  0
M  END
>  <rName>  (768) 
Ala_cyclohex1en1yl

>  <PQ_SYMBOL>  (768) 
Ala_cyclohex1en1yl

>  <FULL_NAME>  (768) 
(S)-2-amino-3-(cyclohex-1-en-1-yl)propanoic acid

>  <IUPAC_CONDENSED>  (768) 
Ala(cyclohex-1-en-1-yl)

>  <IUPAC>  (768) 
(2S)-2-amino-3-(cyclohexen-1-yl)propanoic acid

>  <TYPE>  (768) 
Backbone

>  <CLASS>  (768) 
alpha

>  <ANALOG>  (768) 
Ala

>  <MOL_WT>  (768) 
169.224

>  <LOGP>  (768) 
1.2888

>  <TPSA>  (768) 
63.32000000000001

>  <POPULARITY>  (768) 
2.2

>  <PROTECTED>  (768) 
TRUE

>  <SMILES>  (768) 
N[C@@H](CC1(=CCCCC1))C(=O)O

>  <INCHIKEY>  (768) 
HENPBTOHCYVWAU-QMMMGPOBSA-N

$$$$
Ala_cyclopent3en1yl
     RDKit          2D

 11 11  0  0  0  0  0  0  0  0999 V2000
   -0.9461    1.6947    0.0000 N   0  0  0  0  0  0  0  0  0  0  0  0
   -1.3100    0.2395    0.0000 C   0  0  0  0  0  0  0  0  0  0  0  0
   -0.2317   -0.8032    0.0000 C   0  0  0  0  0  0  0  0  0  0  0  0
    1.2105   -0.3908    0.0000 C   0  0  0  0  0  0  0  0  0  0  0  0
    2.3919   -1.3151    0.0000 C   0  0  0  0  0  0  0  0  0  0  0  0
    3.6360   -0.4772    0.0000 C   0  0  0  0  0  0  0  0  0  0  0  0
    3.2236    0.9650    0.0000 C   0  0  0  0  0  0  0  0  0  0  0  0
    1.7245    1.0184    0.0000 C   0  0  0  0  0  0  0  0  0  0  0  0
   -2.7522   -0.1729    0.0000 C   0  0  0  0  0  0  0  0  0  0  0  0
   -3.1161   -1.6281    0.0000 O   0  0  0  0  0  0  0  0  0  0  0  0
   -3.8304    0.8698    0.0000 O   0  0  0  0  0  0  0  0  0  0  0  0
  2  1  1  1
  2  3  1  0
  3  4  1  0
  4  5  1  0
  5  6  1  0
  6  7  2  0
  7  8  1  0
  2  9  1  0
  9 10  2  0
  9 11  1  0
  8  4  1  0
M  END
>  <rName>  (769) 
Ala_cyclopent3en1yl

>  <PQ_SYMBOL>  (769) 
Ala_cyclopent3en1yl

>  <FULL_NAME>  (769) 
(2S)-2-amino-3-(cyclopent-3-en-1-yl)propanoic acid

>  <IUPAC_CONDENSED>  (769) 
Ala(cyclopent-3-en-1-yl)

>  <IUPAC>  (769) 
(2S)-2-amino-3-cyclopent-3-en-1-ylpropanoic acid

>  <TYPE>  (769) 
Backbone

>  <CLASS>  (769) 
alpha

>  <ANALOG>  (769) 
Ala

>  <MOL_WT>  (769) 
155.197

>  <LOGP>  (769) 
0.7545999999999999

>  <TPSA>  (769) 
63.32000000000001

>  <POPULARITY>  (769) 
2.2

>  <PROTECTED>  (769) 
TRUE

>  <SMILES>  (769) 
N[C@@H](CC1(CC=CC1))C(=O)O

>  <INCHIKEY>  (769) 
NHDUNASATKNJPU-ZETCQYMHSA-N

$$$$
Ala_fluoren2yl
     RDKit          2D

 19 21  0  0  0  0  0  0  0  0999 V2000
   -3.6110    1.7319    0.0000 N   0  0  0  0  0  0  0  0  0  0  0  0
   -4.0000    0.2832    0.0000 C   0  0  0  0  0  0  0  0  0  0  0  0
   -2.9398   -0.7779    0.0000 C   0  0  0  0  0  0  0  0  0  0  0  0
   -1.4907   -0.3904    0.0000 C   0  0  0  0  0  0  0  0  0  0  0  0
   -1.1018    1.0583    0.0000 C   0  0  0  0  0  0  0  0  0  0  0  0
    0.3473    1.4458    0.0000 C   0  0  0  0  0  0  0  0  0  0  0  0
    1.4074    0.3846    0.0000 C   0  0  0  0  0  0  0  0  0  0  0  0
    1.0185   -1.0641    0.0000 C   0  0  0  0  0  0  0  0  0  0  0  0
   -0.4306   -1.4516    0.0000 C   0  0  0  0  0  0  0  0  0  0  0  0
    2.2761   -1.8816    0.0000 C   0  0  0  0  0  0  0  0  0  0  0  0
    3.4423   -0.9382    0.0000 C   0  0  0  0  0  0  0  0  0  0  0  0
    4.9237   -1.1736    0.0000 C   0  0  0  0  0  0  0  0  0  0  0  0
    5.8682   -0.0083    0.0000 C   0  0  0  0  0  0  0  0  0  0  0  0
    5.3314    1.3923    0.0000 C   0  0  0  0  0  0  0  0  0  0  0  0
    3.8499    1.6277    0.0000 C   0  0  0  0  0  0  0  0  0  0  0  0
    2.9054    0.4624    0.0000 C   0  0  0  0  0  0  0  0  0  0  0  0
   -5.4490   -0.1043    0.0000 C   0  0  0  0  0  0  0  0  0  0  0  0
   -5.8380   -1.5530    0.0000 O   0  0  0  0  0  0  0  0  0  0  0  0
   -6.5092    0.9569    0.0000 O   0  0  0  0  0  0  0  0  0  0  0  0
  2  1  1  1
  2  3  1  0
  3  4  1  0
  4  5  2  0
  5  6  1  0
  6  7  2  0
  7  8  1  0
  8  9  2  0
  8 10  1  0
 10 11  1  0
 11 12  2  0
 12 13  1  0
 13 14  2  0
 14 15  1  0
 15 16  2  0
  2 17  1  0
 17 18  2  0
 17 19  1  0
  9  4  1  0
 16  7  1  0
 16 11  1  0
M  END
>  <rName>  (770) 
Ala_fluoren2yl

>  <PQ_SYMBOL>  (770) 
Ala_fluoren2yl

>  <FULL_NAME>  (770) 
(2S)-2-amino-3-(9H-fluoren-2-yl)propanoic acid

>  <IUPAC_CONDENSED>  (770) 
Ala(fluoren-2-yl)

>  <IUPAC>  (770) 
(2S)-2-amino-3-(tricyclo[7.4.0.0^{2,7}]trideca-1(13),2,4,6,9,11-hexaen-11-yl)propanoic acid

>  <TYPE>  (770) 
Backbone

>  <CLASS>  (770) 
alpha

>  <ANALOG>  (770) 
Phe

>  <MOL_WT>  (770) 
253.30099999999996

>  <LOGP>  (770) 
2.2122

>  <TPSA>  (770) 
63.32000000000001

>  <POPULARITY>  (770) 
2.8

>  <PROTECTED>  (770) 
TRUE

>  <SMILES>  (770) 
N[C@@H](Cc1(ccc2(c(c1)Cc3(ccccc23))))C(=O)O

>  <INCHIKEY>  (770) 
GLWFDTWIDROQIY-HNNXBMFYSA-N

$$$$
Ala_guanidino
     RDKit          2D

 10  9  0  0  0  0  0  0  0  0999 V2000
    1.2717    1.9622    0.0000 N   0  0  0  0  0  0  0  0  0  0  0  0
    1.1946    0.4642    0.0000 C   0  0  0  0  0  0  0  0  0  0  0  0
   -0.1413   -0.2180    0.0000 C   0  0  0  0  0  0  0  0  0  0  0  0
   -1.4001    0.5978    0.0000 N   0  0  0  0  0  0  0  0  0  0  0  0
   -2.7359   -0.0845    0.0000 C   0  0  0  0  0  0  0  0  0  0  0  0
   -2.8131   -1.5825    0.0000 N   0  0  0  0  0  0  0  0  0  0  0  0
   -3.9947    0.7313    0.0000 N   0  0  0  0  0  0  0  0  0  0  0  0
    2.4533   -0.3516    0.0000 C   0  0  0  0  0  0  0  0  0  0  0  0
    2.3762   -1.8496    0.0000 O   0  0  0  0  0  0  0  0  0  0  0  0
    3.7892    0.3306    0.0000 O   0  0  0  0  0  0  0  0  0  0  0  0
  2  1  1  6
  2  3  1  0
  3  4  1  0
  4  5  1  0
  5  6  2  0
  5  7  1  0
  2  8  1  0
  8  9  2  0
  8 10  1  0
M  END
>  <rName>  (771) 
Ala_guanidino

>  <PQ_SYMBOL>  (771) 
Ala_guanidino

>  <FULL_NAME>  (771) 
3-Carbamimidamido-L-Alanine

>  <IUPAC_CONDENSED>  (771) 
Ala(guanidino)

>  <IUPAC>  (771) 
(2S)-2-amino-3-(((amino)(imino)methyl)amino)propanoic acid

>  <TYPE>  (771) 
Backbone

>  <CLASS>  (771) 
alpha

>  <ANALOG>  (771) 
Arg

>  <MOL_WT>  (771) 
146.15

>  <LOGP>  (771) 
-2.1186299999999996

>  <TPSA>  (771) 
125.22000000000001

>  <POPULARITY>  (771) 
12.7

>  <PROTECTED>  (771) 
TRUE

>  <SMILES>  (771) 
N[C@@H](CNC(=N)N)C(=O)O

>  <INCHIKEY>  (771) 
XNBJHKABANTVCP-REOHCLBHSA-N

$$$$
Ala_indan2yl
     RDKit          2D

 15 16  0  0  0  0  0  0  0  0999 V2000
   -2.2312    1.6742    0.0000 N   0  0  0  0  0  0  0  0  0  0  0  0
   -2.7125    0.2535    0.0000 C   0  0  0  0  0  0  0  0  0  0  0  0
   -1.7228   -0.8736    0.0000 C   0  0  0  0  0  0  0  0  0  0  0  0
   -0.2518   -0.5801    0.0000 C   0  0  0  0  0  0  0  0  0  0  0  0
    0.8503   -1.5976    0.0000 C   0  0  0  0  0  0  0  0  0  0  0  0
    2.1586   -0.8639    0.0000 C   0  0  0  0  0  0  0  0  0  0  0  0
    3.5793   -1.3452    0.0000 C   0  0  0  0  0  0  0  0  0  0  0  0
    4.7064   -0.3555    0.0000 C   0  0  0  0  0  0  0  0  0  0  0  0
    4.4129    1.1155    0.0000 C   0  0  0  0  0  0  0  0  0  0  0  0
    2.9922    1.5968    0.0000 C   0  0  0  0  0  0  0  0  0  0  0  0
    1.8650    0.6071    0.0000 C   0  0  0  0  0  0  0  0  0  0  0  0
    0.3753    0.7825    0.0000 C   0  0  0  0  0  0  0  0  0  0  0  0
   -4.1835   -0.0400    0.0000 C   0  0  0  0  0  0  0  0  0  0  0  0
   -4.6648   -1.4607    0.0000 O   0  0  0  0  0  0  0  0  0  0  0  0
   -5.1732    1.0872    0.0000 O   0  0  0  0  0  0  0  0  0  0  0  0
  2  1  1  1
  2  3  1  0
  3  4  1  0
  4  5  1  0
  5  6  1  0
  6  7  2  0
  7  8  1  0
  8  9  2  0
  9 10  1  0
 10 11  2  0
 11 12  1  0
  2 13  1  0
 13 14  2  0
 13 15  1  0
 11  6  1  0
 12  4  1  0
M  END
>  <rName>  (772) 
Ala_indan2yl

>  <PQ_SYMBOL>  (772) 
Ala_indan2yl

>  <FULL_NAME>  (772) 
(S)-2-amino-3-(2,3-dihydro-1H-inden-2-yl)propanoic acid

>  <IUPAC_CONDENSED>  (772) 
Ala(indan-2-yl)

>  <IUPAC>  (772) 
(2S)-2-amino-3-(indan-2-yl)propanoic acid

>  <TYPE>  (772) 
Backbone

>  <CLASS>  (772) 
alpha

>  <ANALOG>  (772) 
X

>  <MOL_WT>  (772) 
205.25699999999998

>  <LOGP>  (772) 
1.2034

>  <TPSA>  (772) 
63.32000000000001

>  <POPULARITY>  (772) 
5.2

>  <PROTECTED>  (772) 
TRUE

>  <SMILES>  (772) 
N[C@@H](CC2(Cc1(ccccc1C2)))C(=O)O

>  <INCHIKEY>  (772) 
SJDOJKYZOIOVSC-NSHDSACASA-N

$$$$
Ala_indan4yl
     RDKit          2D

 15 16  0  0  0  0  0  0  0  0999 V2000
    2.3960   -1.7012    0.0000 N   0  0  0  0  0  0  0  0  0  0  0  0
    2.3823   -0.2013    0.0000 C   0  0  0  0  0  0  0  0  0  0  0  0
    1.0765    0.5368    0.0000 C   0  0  0  0  0  0  0  0  0  0  0  0
   -0.2156   -0.2250    0.0000 C   0  0  0  0  0  0  0  0  0  0  0  0
   -0.2020   -1.7249    0.0000 C   0  0  0  0  0  0  0  0  0  0  0  0
   -1.4941   -2.4867    0.0000 C   0  0  0  0  0  0  0  0  0  0  0  0
   -2.7999   -1.7486    0.0000 C   0  0  0  0  0  0  0  0  0  0  0  0
   -2.8136   -0.2486    0.0000 C   0  0  0  0  0  0  0  0  0  0  0  0
   -3.9374    0.7448    0.0000 C   0  0  0  0  0  0  0  0  0  0  0  0
   -3.3398    2.1207    0.0000 C   0  0  0  0  0  0  0  0  0  0  0  0
   -1.8467    1.9775    0.0000 C   0  0  0  0  0  0  0  0  0  0  0  0
   -1.5214    0.5132    0.0000 C   0  0  0  0  0  0  0  0  0  0  0  0
    3.6745    0.5605    0.0000 C   0  0  0  0  0  0  0  0  0  0  0  0
    3.6608    2.0605    0.0000 O   0  0  0  0  0  0  0  0  0  0  0  0
    4.9803   -0.1776    0.0000 O   0  0  0  0  0  0  0  0  0  0  0  0
  2  1  1  1
  2  3  1  0
  3  4  1  0
  4  5  2  0
  5  6  1  0
  6  7  2  0
  7  8  1  0
  8  9  1  0
  9 10  1  0
 10 11  1  0
 11 12  1  0
  2 13  1  0
 13 14  2  0
 13 15  1  0
 12  8  2  0
 12  4  1  0
M  END
>  <rName>  (773) 
Ala_indan4yl

>  <PQ_SYMBOL>  (773) 
Ala_indan4yl

>  <FULL_NAME>  (773) 
(2S)-2-Amino-3-(2,3-dihydro-1H-inden-4-yl)propanoic acid

>  <IUPAC_CONDENSED>  (773) 
Ala(indan-4-yl)

>  <IUPAC>  (773) 
(2S)-2-amino-3-(bicyclo[4.3.0]nona-1(6),2,4-trien-2-yl)propanoic acid

>  <TYPE>  (773) 
Backbone

>  <CLASS>  (773) 
alpha

>  <ANALOG>  (773) 
Phe

>  <MOL_WT>  (773) 
205.25699999999995

>  <LOGP>  (773) 
1.1297000000000001

>  <TPSA>  (773) 
63.32000000000001

>  <POPULARITY>  (773) 
3.0

>  <PROTECTED>  (773) 
TRUE

>  <SMILES>  (773) 
N[C@@H](Cc2(cccc1(CCCc12)))C(=O)O

>  <INCHIKEY>  (773) 
NNPQNWYOZJCUBM-NSHDSACASA-N

$$$$
Ala_indan5yl
     RDKit          2D

 15 16  0  0  0  0  0  0  0  0999 V2000
    2.4169   -1.6715    0.0000 N   0  0  0  0  0  0  0  0  0  0  0  0
    2.6919   -0.1969    0.0000 C   0  0  0  0  0  0  0  0  0  0  0  0
    1.5524    0.7786    0.0000 C   0  0  0  0  0  0  0  0  0  0  0  0
    0.1379    0.2795    0.0000 C   0  0  0  0  0  0  0  0  0  0  0  0
   -0.1372   -1.1951    0.0000 C   0  0  0  0  0  0  0  0  0  0  0  0
   -1.5517   -1.6942    0.0000 C   0  0  0  0  0  0  0  0  0  0  0  0
   -2.6912   -0.7188    0.0000 C   0  0  0  0  0  0  0  0  0  0  0  0
   -4.1786   -0.9129    0.0000 C   0  0  0  0  0  0  0  0  0  0  0  0
   -4.8228    0.4417    0.0000 C   0  0  0  0  0  0  0  0  0  0  0  0
   -3.7336    1.4730    0.0000 C   0  0  0  0  0  0  0  0  0  0  0  0
   -2.4162    0.7558    0.0000 C   0  0  0  0  0  0  0  0  0  0  0  0
   -1.0016    1.2549    0.0000 C   0  0  0  0  0  0  0  0  0  0  0  0
    4.1064    0.3022    0.0000 C   0  0  0  0  0  0  0  0  0  0  0  0
    4.3814    1.7768    0.0000 O   0  0  0  0  0  0  0  0  0  0  0  0
    5.2459   -0.6732    0.0000 O   0  0  0  0  0  0  0  0  0  0  0  0
  2  1  1  1
  2  3  1  0
  3  4  1  0
  4  5  1  0
  5  6  2  0
  6  7  1  0
  7  8  1  0
  8  9  1  0
  9 10  1  0
 10 11  1  0
 11 12  1  0
  2 13  1  0
 13 14  2  0
 13 15  1  0
 11  7  2  0
 12  4  2  0
M  END
>  <rName>  (774) 
Ala_indan5yl

>  <PQ_SYMBOL>  (774) 
Ala_indan5yl

>  <FULL_NAME>  (774) 
(2S)-2-amino-3-(2,3-dihydro-1H-inden-5-yl)propanoic acid

>  <IUPAC_CONDENSED>  (774) 
Ala(indan-5-yl)

>  <IUPAC>  (774) 
(2S)-2-amino-3-(indan-5-yl)propanoic acid

>  <TYPE>  (774) 
Backbone

>  <CLASS>  (774) 
alpha

>  <ANALOG>  (774) 
Phe

>  <MOL_WT>  (774) 
205.25699999999998

>  <LOGP>  (774) 
1.1297000000000001

>  <TPSA>  (774) 
63.32000000000001

>  <POPULARITY>  (774) 
5.9

>  <PROTECTED>  (774) 
TRUE

>  <SMILES>  (774) 
N[C@@H](Cc2(ccc1(CCCc1c2)))C(=O)O

>  <INCHIKEY>  (774) 
BATKNSRXBJINMN-NSHDSACASA-N

$$$$
Ala_indazol1yl
     RDKit          2D

 15 16  0  0  0  0  0  0  0  0999 V2000
   -2.6183   -1.7023    0.0000 N   0  0  0  0  0  0  0  0  0  0  0  0
   -2.5622   -0.2034    0.0000 C   0  0  0  0  0  0  0  0  0  0  0  0
   -1.2360    0.4975    0.0000 C   0  0  0  0  0  0  0  0  0  0  0  0
    0.0341   -0.3006    0.0000 N   0  0  0  0  0  0  0  0  0  0  0  0
    0.1349   -1.7972    0.0000 N   0  0  0  0  0  0  0  0  0  0  0  0
    1.5895   -2.1637    0.0000 C   0  0  0  0  0  0  0  0  0  0  0  0
    2.3875   -0.8937    0.0000 C   0  0  0  0  0  0  0  0  0  0  0  0
    3.8654   -0.6369    0.0000 C   0  0  0  0  0  0  0  0  0  0  0  0
    4.3820    0.7713    0.0000 C   0  0  0  0  0  0  0  0  0  0  0  0
    3.4207    1.9228    0.0000 C   0  0  0  0  0  0  0  0  0  0  0  0
    1.9429    1.6661    0.0000 C   0  0  0  0  0  0  0  0  0  0  0  0
    1.4263    0.2578    0.0000 C   0  0  0  0  0  0  0  0  0  0  0  0
   -3.8322    0.5947    0.0000 C   0  0  0  0  0  0  0  0  0  0  0  0
   -3.7761    2.0937    0.0000 O   0  0  0  0  0  0  0  0  0  0  0  0
   -5.1584   -0.1061    0.0000 O   0  0  0  0  0  0  0  0  0  0  0  0
  2  1  1  6
  2  3  1  0
  3  4  1  0
  4  5  1  0
  5  6  2  0
  6  7  1  0
  7  8  2  0
  8  9  1  0
  9 10  2  0
 10 11  1  0
 11 12  2  0
  2 13  1  0
 13 14  2  0
 13 15  1  0
 12  4  1  0
 12  7  1  0
M  END
>  <rName>  (775) 
Ala_indazol1yl

>  <PQ_SYMBOL>  (775) 
Ala_indazol1yl

>  <FULL_NAME>  (775) 
β-(1-indazolyl)-L-alanine

>  <IUPAC_CONDENSED>  (775) 
Ala(indazol-1-yl)

>  <IUPAC>  (775) 
(2S)-2-amino-3-(1H-indazol-1-yl)propanoic acid

>  <TYPE>  (775) 
Backbone

>  <CLASS>  (775) 
alpha

>  <ANALOG>  (775) 
Phe

>  <MOL_WT>  (775) 
205.21699999999998

>  <LOGP>  (775) 
0.44819999999999943

>  <TPSA>  (775) 
81.14

>  <POPULARITY>  (775) 
4.5

>  <PROTECTED>  (775) 
TRUE

>  <SMILES>  (775) 
N[C@@H](Cn1(ncc2(ccccc12)))C(=O)O

>  <INCHIKEY>  (775) 
VXGGDWZWROEXQG-QMMMGPOBSA-N

$$$$
Ala_indazol1yl_4CN
     RDKit          2D

 17 18  0  0  0  0  0  0  0  0999 V2000
   -2.9917   -1.8956    0.0000 N   0  0  0  0  0  0  0  0  0  0  0  0
   -3.1616   -0.4052    0.0000 C   0  0  0  0  0  0  0  0  0  0  0  0
   -1.9559    0.4871    0.0000 C   0  0  0  0  0  0  0  0  0  0  0  0
   -0.5802   -0.1109    0.0000 N   0  0  0  0  0  0  0  0  0  0  0  0
   -0.2555   -1.5754    0.0000 N   0  0  0  0  0  0  0  0  0  0  0  0
    1.2376   -1.7190    0.0000 C   0  0  0  0  0  0  0  0  0  0  0  0
    1.8357   -0.3434    0.0000 C   0  0  0  0  0  0  0  0  0  0  0  0
    3.2581    0.1326    0.0000 C   0  0  0  0  0  0  0  0  0  0  0  0
    4.3816   -0.8612    0.0000 C   0  0  0  0  0  0  0  0  0  0  0  0
    5.5051   -1.8551    0.0000 N   0  0  0  0  0  0  0  0  0  0  0  0
    3.5571    1.6025    0.0000 C   0  0  0  0  0  0  0  0  0  0  0  0
    2.4336    2.5964    0.0000 C   0  0  0  0  0  0  0  0  0  0  0  0
    1.0111    2.1203    0.0000 C   0  0  0  0  0  0  0  0  0  0  0  0
    0.7122    0.6504    0.0000 C   0  0  0  0  0  0  0  0  0  0  0  0
   -4.5372    0.1928    0.0000 C   0  0  0  0  0  0  0  0  0  0  0  0
   -4.7071    1.6832    0.0000 O   0  0  0  0  0  0  0  0  0  0  0  0
   -5.7429   -0.6995    0.0000 O   0  0  0  0  0  0  0  0  0  0  0  0
  2  1  1  6
  2  3  1  0
  3  4  1  0
  4  5  1  0
  5  6  2  0
  6  7  1  0
  7  8  2  0
  8  9  1  0
  9 10  3  0
  8 11  1  0
 11 12  2  0
 12 13  1  0
 13 14  2  0
  2 15  1  0
 15 16  2  0
 15 17  1  0
 14  7  1  0
 14  4  1  0
M  END
>  <rName>  (776) 
Ala_indazol1yl_4CN

>  <PQ_SYMBOL>  (776) 
Ala_indazol1yl_4CN

>  <FULL_NAME>  (776) 
β-(4-cyanoindazol-1-yl)-L-alanine

>  <IUPAC_CONDENSED>  (776) 
Ala(indazol-1-yl(4-CN))

>  <IUPAC>  (776) 
(2S)-2-amino-3-(4-(nitrilomethyl)-1H-indazol-1-yl)propanoic acid

>  <TYPE>  (776) 
Backbone

>  <CLASS>  (776) 
alpha

>  <ANALOG>  (776) 
Phe

>  <MOL_WT>  (776) 
230.22699999999998

>  <LOGP>  (776) 
0.3198799999999992

>  <TPSA>  (776) 
104.92999999999999

>  <POPULARITY>  (776) 
2.6

>  <PROTECTED>  (776) 
TRUE

>  <SMILES>  (776) 
N[C@@H](Cn2(ncc1(c(C#N)cccc12)))C(=O)O

>  <INCHIKEY>  (776) 
MYUJWAAKEQOSMB-VIFPVBQESA-N

$$$$
Ala_indazol3yl
     RDKit          2D

 15 16  0  0  0  0  0  0  0  0999 V2000
   -2.6183   -1.7023    0.0000 N   0  0  0  0  0  0  0  0  0  0  0  0
   -2.5622   -0.2034    0.0000 C   0  0  0  0  0  0  0  0  0  0  0  0
   -1.2360    0.4975    0.0000 C   0  0  0  0  0  0  0  0  0  0  0  0
    0.0341   -0.3006    0.0000 C   0  0  0  0  0  0  0  0  0  0  0  0
    0.1349   -1.7972    0.0000 N   0  0  0  0  0  0  0  0  0  0  0  0
    1.5895   -2.1637    0.0000 N   0  0  0  0  0  0  0  0  0  0  0  0
    2.3875   -0.8937    0.0000 C   0  0  0  0  0  0  0  0  0  0  0  0
    3.8654   -0.6369    0.0000 C   0  0  0  0  0  0  0  0  0  0  0  0
    4.3820    0.7713    0.0000 C   0  0  0  0  0  0  0  0  0  0  0  0
    3.4207    1.9228    0.0000 C   0  0  0  0  0  0  0  0  0  0  0  0
    1.9429    1.6661    0.0000 C   0  0  0  0  0  0  0  0  0  0  0  0
    1.4263    0.2578    0.0000 C   0  0  0  0  0  0  0  0  0  0  0  0
   -3.8322    0.5947    0.0000 C   0  0  0  0  0  0  0  0  0  0  0  0
   -3.7761    2.0937    0.0000 O   0  0  0  0  0  0  0  0  0  0  0  0
   -5.1584   -0.1061    0.0000 O   0  0  0  0  0  0  0  0  0  0  0  0
  2  1  1  6
  2  3  1  0
  3  4  1  0
  4  5  1  0
  5  6  1  0
  6  7  2  0
  7  8  1  0
  8  9  2  0
  9 10  1  0
 10 11  2  0
 11 12  1  0
  2 13  1  0
 13 14  2  0
 13 15  1  0
 12  4  2  0
 12  7  1  0
M  END
>  <rName>  (777) 
Ala_indazol3yl

>  <PQ_SYMBOL>  (777) 
Ala_indazol3yl

>  <FULL_NAME>  (777) 
Tryptazan, (S)-

>  <IUPAC_CONDENSED>  (777) 
Ala(indazol-3-yl)

>  <IUPAC>  (777) 
(2S)-2-amino-3-(7,8-diazabicyclo[4.3.0]nona-1(9),2,4,6-tetraen-9-yl)propanoic acid

>  <TYPE>  (777) 
Backbone

>  <CLASS>  (777) 
alpha

>  <ANALOG>  (777) 
Phe

>  <MOL_WT>  (777) 
205.21699999999998

>  <LOGP>  (777) 
0.5172999999999994

>  <TPSA>  (777) 
92.00000000000001

>  <POPULARITY>  (777) 
5.1

>  <PROTECTED>  (777) 
TRUE

>  <SMILES>  (777) 
N[C@@H](Cc1([nH]nc2(ccccc12)))C(=O)O

>  <INCHIKEY>  (777) 
IFEKQNAXDMZERW-ZETCQYMHSA-N

$$$$
Ala_indol4yl
     RDKit          2D

 15 16  0  0  0  0  0  0  0  0999 V2000
    2.3960   -1.7012    0.0000 N   0  0  0  0  0  0  0  0  0  0  0  0
    2.3823   -0.2013    0.0000 C   0  0  0  0  0  0  0  0  0  0  0  0
    1.0765    0.5368    0.0000 C   0  0  0  0  0  0  0  0  0  0  0  0
   -0.2156   -0.2250    0.0000 C   0  0  0  0  0  0  0  0  0  0  0  0
   -0.2020   -1.7249    0.0000 C   0  0  0  0  0  0  0  0  0  0  0  0
   -1.4941   -2.4867    0.0000 C   0  0  0  0  0  0  0  0  0  0  0  0
   -2.7999   -1.7486    0.0000 C   0  0  0  0  0  0  0  0  0  0  0  0
   -2.8136   -0.2486    0.0000 C   0  0  0  0  0  0  0  0  0  0  0  0
   -3.9374    0.7448    0.0000 N   0  0  0  0  0  0  0  0  0  0  0  0
   -3.3398    2.1207    0.0000 C   0  0  0  0  0  0  0  0  0  0  0  0
   -1.8467    1.9775    0.0000 C   0  0  0  0  0  0  0  0  0  0  0  0
   -1.5214    0.5132    0.0000 C   0  0  0  0  0  0  0  0  0  0  0  0
    3.6745    0.5605    0.0000 C   0  0  0  0  0  0  0  0  0  0  0  0
    3.6608    2.0605    0.0000 O   0  0  0  0  0  0  0  0  0  0  0  0
    4.9803   -0.1776    0.0000 O   0  0  0  0  0  0  0  0  0  0  0  0
  2  1  1  1
  2  3  1  0
  3  4  1  0
  4  5  1  0
  5  6  2  0
  6  7  1  0
  7  8  2  0
  8  9  1  0
  9 10  1  0
 10 11  2  0
 11 12  1  0
  2 13  1  0
 13 14  2  0
 13 15  1  0
 12  4  2  0
 12  8  1  0
M  END
>  <rName>  (778) 
Ala_indol4yl

>  <PQ_SYMBOL>  (778) 
Ala_indol4yl

>  <FULL_NAME>  (778) 
(2S)-2-amino-3-(1H-indol-4-yl)propanoic Acid

>  <IUPAC_CONDENSED>  (778) 
Ala(indol-4-yl)

>  <IUPAC>  (778) 
(2S)-2-amino-3-(1H-indol-4-yl)propanoic acid

>  <TYPE>  (778) 
Backbone

>  <CLASS>  (778) 
alpha

>  <ANALOG>  (778) 
Trp

>  <MOL_WT>  (778) 
204.22899999999998

>  <LOGP>  (778) 
1.1223

>  <TPSA>  (778) 
79.11

>  <POPULARITY>  (778) 
2.2

>  <PROTECTED>  (778) 
TRUE

>  <SMILES>  (778) 
N[C@@H](Cc1(cccc2([nH]ccc12)))C(=O)O

>  <INCHIKEY>  (778) 
DSEIRMIVNPCUSR-VIFPVBQESA-N

$$$$
Ala_isoxazol4yl_35diMe
     RDKit          2D

 13 13  0  0  0  0  0  0  0  0999 V2000
   -1.3427    1.6251    0.0000 N   0  0  0  0  0  0  0  0  0  0  0  0
   -1.5768    0.1435    0.0000 C   0  0  0  0  0  0  0  0  0  0  0  0
   -0.4108   -0.8001    0.0000 C   0  0  0  0  0  0  0  0  0  0  0  0
    0.9894   -0.2621    0.0000 C   0  0  0  0  0  0  0  0  0  0  0  0
    2.2476   -1.0787    0.0000 C   0  0  0  0  0  0  0  0  0  0  0  0
    2.3266   -2.5766    0.0000 C   0  0  0  0  0  0  0  0  0  0  0  0
    3.4131   -0.1343    0.0000 N   0  0  0  0  0  0  0  0  0  0  0  0
    2.8750    1.2659    0.0000 O   0  0  0  0  0  0  0  0  0  0  0  0
    1.3771    1.1869    0.0000 C   0  0  0  0  0  0  0  0  0  0  0  0
    0.4328    2.3523    0.0000 C   0  0  0  0  0  0  0  0  0  0  0  0
   -2.9770   -0.3946    0.0000 C   0  0  0  0  0  0  0  0  0  0  0  0
   -3.2112   -1.8762    0.0000 O   0  0  0  0  0  0  0  0  0  0  0  0
   -4.1431    0.5490    0.0000 O   0  0  0  0  0  0  0  0  0  0  0  0
  2  1  1  1
  2  3  1  0
  3  4  1  0
  4  5  1  0
  5  6  1  0
  5  7  2  0
  7  8  1  0
  8  9  1  0
  9 10  1  0
  2 11  1  0
 11 12  2  0
 11 13  1  0
  9  4  2  0
M  END
>  <rName>  (779) 
Ala_isoxazol4yl_35diMe

>  <PQ_SYMBOL>  (779) 
Ala_isoxazol4yl_35diMe

>  <FULL_NAME>  (779) 
(S)-2-amino-3-(3,5-dimethylisoxazol-4-yl)propanoic acid

>  <IUPAC_CONDENSED>  (779) 
Ala(isoxazol-4-yl(3,5-diMe))

>  <IUPAC>  (779) 
(2S)-2-amino-3-(3,5-dimethylisoxazol-4-yl)propanoic acid

>  <TYPE>  (779) 
Backbone

>  <CLASS>  (779) 
alpha

>  <ANALOG>  (779) 
Phe

>  <MOL_WT>  (779) 
184.195

>  <LOGP>  (779) 
0.24584

>  <TPSA>  (779) 
89.35000000000001

>  <POPULARITY>  (779) 
4.2

>  <PROTECTED>  (779) 
TRUE

>  <SMILES>  (779) 
N[C@@H](Cc1(c(C)noc1C))C(=O)O

>  <INCHIKEY>  (779) 
JZUQZSLJKNNWNX-ZETCQYMHSA-N

$$$$
Ala_morpholino
     RDKit          2D

 12 12  0  0  0  0  0  0  0  0999 V2000
   -1.2391    1.6805    0.0000 N   0  0  0  0  0  0  0  0  0  0  0  0
   -1.6184    0.2292    0.0000 C   0  0  0  0  0  0  0  0  0  0  0  0
   -0.5513   -0.8249    0.0000 C   0  0  0  0  0  0  0  0  0  0  0  0
    0.8952   -0.4278    0.0000 N   0  0  0  0  0  0  0  0  0  0  0  0
    1.2745    1.0235    0.0000 C   0  0  0  0  0  0  0  0  0  0  0  0
    2.7210    1.4206    0.0000 C   0  0  0  0  0  0  0  0  0  0  0  0
    3.7882    0.3665    0.0000 O   0  0  0  0  0  0  0  0  0  0  0  0
    3.4088   -1.0848    0.0000 C   0  0  0  0  0  0  0  0  0  0  0  0
    1.9624   -1.4819    0.0000 C   0  0  0  0  0  0  0  0  0  0  0  0
   -3.0649   -0.1679    0.0000 C   0  0  0  0  0  0  0  0  0  0  0  0
   -3.4442   -1.6191    0.0000 O   0  0  0  0  0  0  0  0  0  0  0  0
   -4.1321    0.8862    0.0000 O   0  0  0  0  0  0  0  0  0  0  0  0
  2  1  1  1
  2  3  1  0
  3  4  1  0
  4  5  1  0
  5  6  1  0
  6  7  1  0
  7  8  1  0
  8  9  1  0
  2 10  1  0
 10 11  2  0
 10 12  1  0
  9  4  1  0
M  END
>  <rName>  (780) 
Ala_morpholino

>  <PQ_SYMBOL>  (780) 
Ala_morpholino

>  <FULL_NAME>  (780) 
(S)-2-Amino-3-morpholinopropanoic acid

>  <IUPAC_CONDENSED>  (780) 
Ala(morpholino)

>  <IUPAC>  (780) 
(2S)-2-amino-3-(morpholin-4-yl)propanoic acid

>  <TYPE>  (780) 
Backbone

>  <CLASS>  (780) 
alpha

>  <ANALOG>  (780) 
X

>  <MOL_WT>  (780) 
174.2

>  <LOGP>  (780) 
-1.269499999999999

>  <TPSA>  (780) 
75.78999999999999

>  <POPULARITY>  (780) 
4.2

>  <PROTECTED>  (780) 
TRUE

>  <SMILES>  (780) 
N[C@@H](CN1(CCOCC1))C(=O)O

>  <INCHIKEY>  (780) 
XQBWWSOQRZVLPX-LURJTMIESA-N

$$$$
Ala_oxazol5yl
     RDKit          2D

 11 11  0  0  0  0  0  0  0  0999 V2000
   -0.9461    1.6947    0.0000 N   0  0  0  0  0  0  0  0  0  0  0  0
   -1.3100    0.2395    0.0000 C   0  0  0  0  0  0  0  0  0  0  0  0
   -0.2317   -0.8032    0.0000 C   0  0  0  0  0  0  0  0  0  0  0  0
    1.2105   -0.3908    0.0000 C   0  0  0  0  0  0  0  0  0  0  0  0
    2.3919   -1.3151    0.0000 C   0  0  0  0  0  0  0  0  0  0  0  0
    3.6360   -0.4772    0.0000 N   0  0  0  0  0  0  0  0  0  0  0  0
    3.2236    0.9650    0.0000 C   0  0  0  0  0  0  0  0  0  0  0  0
    1.7245    1.0184    0.0000 O   0  0  0  0  0  0  0  0  0  0  0  0
   -2.7522   -0.1729    0.0000 C   0  0  0  0  0  0  0  0  0  0  0  0
   -3.1161   -1.6281    0.0000 O   0  0  0  0  0  0  0  0  0  0  0  0
   -3.8304    0.8698    0.0000 O   0  0  0  0  0  0  0  0  0  0  0  0
  2  1  1  1
  2  3  1  0
  3  4  1  0
  4  5  2  0
  5  6  1  0
  6  7  2  0
  7  8  1  0
  2  9  1  0
  9 10  2  0
  9 11  1  0
  8  4  1  0
M  END
>  <rName>  (781) 
Ala_oxazol5yl

>  <PQ_SYMBOL>  (781) 
Ala_oxazol5yl

>  <FULL_NAME>  (781) 
(2S)-2-amino-3-(1,3-oxazol-5-yl)propanoic acid

>  <IUPAC_CONDENSED>  (781) 
Ala(oxazol-5-yl)

>  <IUPAC>  (781) 
(2S)-2-amino-3-(1,3-oxazol-5-yl)propanoic acid

>  <TYPE>  (781) 
Backbone

>  <CLASS>  (781) 
alpha

>  <ANALOG>  (781) 
Phe

>  <MOL_WT>  (781) 
156.141

>  <LOGP>  (781) 
-0.3710000000000003

>  <TPSA>  (781) 
89.35000000000001

>  <POPULARITY>  (781) 
2.2

>  <PROTECTED>  (781) 
TRUE

>  <SMILES>  (781) 
N[C@@H](Cc1(cnco1))C(=O)O

>  <INCHIKEY>  (781) 
DVEYJRBAOVZMSG-YFKPBYRVSA-N

$$$$
Ala_oxolan2yl
     RDKit          2D

 11 11  0  0  0  0  0  0  0  0999 V2000
   -0.9461    1.6947    0.0000 N   0  0  0  0  0  0  0  0  0  0  0  0
   -1.3100    0.2395    0.0000 C   0  0  0  0  0  0  0  0  0  0  0  0
   -0.2317   -0.8032    0.0000 C   0  0  0  0  0  0  0  0  0  0  0  0
    1.2105   -0.3908    0.0000 C   0  0  0  0  0  0  0  0  0  0  0  0
    2.3919   -1.3151    0.0000 O   0  0  0  0  0  0  0  0  0  0  0  0
    3.6360   -0.4772    0.0000 C   0  0  0  0  0  0  0  0  0  0  0  0
    3.2236    0.9650    0.0000 C   0  0  0  0  0  0  0  0  0  0  0  0
    1.7245    1.0184    0.0000 C   0  0  0  0  0  0  0  0  0  0  0  0
   -2.7522   -0.1729    0.0000 C   0  0  0  0  0  0  0  0  0  0  0  0
   -3.1161   -1.6281    0.0000 O   0  0  0  0  0  0  0  0  0  0  0  0
   -3.8304    0.8698    0.0000 O   0  0  0  0  0  0  0  0  0  0  0  0
  2  1  1  1
  2  3  1  0
  3  4  1  0
  4  5  1  0
  5  6  1  0
  6  7  1  0
  7  8  1  0
  2  9  1  0
  9 10  2  0
  9 11  1  0
  8  4  1  0
M  END
>  <rName>  (782) 
Ala_oxolan2yl

>  <PQ_SYMBOL>  (782) 
Ala_oxolan2yl

>  <FULL_NAME>  (782) 
(2S)-2-amino-3-(oxolan-2-yl)propanoic acid

>  <IUPAC_CONDENSED>  (782) 
Ala(oxolan-2-yl)

>  <IUPAC>  (782) 
(2S)-2-amino-3-(oxolan-2-yl)propanoic acid

>  <TYPE>  (782) 
Backbone

>  <CLASS>  (782) 
alpha

>  <ANALOG>  (782) 
Ser

>  <MOL_WT>  (782) 
159.185

>  <LOGP>  (782) 
-0.03260000000000046

>  <TPSA>  (782) 
72.55

>  <POPULARITY>  (782) 
6.7

>  <PROTECTED>  (782) 
TRUE

>  <SMILES>  (782) 
N[C@@H](CC1(OCCC1))C(=O)O

>  <INCHIKEY>  (782) 
IMSUDXBVOIOXLR-GDVGLLTNSA-N

$$$$
Ala_phthalimido
     RDKit          2D

 17 18  0  0  0  0  0  0  0  0999 V2000
   -2.2888    1.6810    0.0000 N   0  0  0  0  0  0  0  0  0  0  0  0
   -2.7376    0.2497    0.0000 C   0  0  0  0  0  0  0  0  0  0  0  0
   -1.7224   -0.8545    0.0000 C   0  0  0  0  0  0  0  0  0  0  0  0
   -0.2585   -0.5275    0.0000 N   0  0  0  0  0  0  0  0  0  0  0  0
    0.8666   -1.5196    0.0000 C   0  0  0  0  0  0  0  0  0  0  0  0
    0.7252   -3.0130    0.0000 O   0  0  0  0  0  0  0  0  0  0  0  0
    2.1578   -0.7563    0.0000 C   0  0  0  0  0  0  0  0  0  0  0  0
    3.5891   -1.2050    0.0000 C   0  0  0  0  0  0  0  0  0  0  0  0
    4.6934   -0.1898    0.0000 C   0  0  0  0  0  0  0  0  0  0  0  0
    4.3663    1.2741    0.0000 C   0  0  0  0  0  0  0  0  0  0  0  0
    2.9350    1.7228    0.0000 C   0  0  0  0  0  0  0  0  0  0  0  0
    1.8308    0.7077    0.0000 C   0  0  0  0  0  0  0  0  0  0  0  0
    0.3374    0.8490    0.0000 C   0  0  0  0  0  0  0  0  0  0  0  0
   -0.4260    2.1402    0.0000 O   0  0  0  0  0  0  0  0  0  0  0  0
   -4.2015   -0.0773    0.0000 C   0  0  0  0  0  0  0  0  0  0  0  0
   -4.6502   -1.5086    0.0000 O   0  0  0  0  0  0  0  0  0  0  0  0
   -5.2166    1.0270    0.0000 O   0  0  0  0  0  0  0  0  0  0  0  0
  2  1  1  1
  2  3  1  0
  3  4  1  0
  4  5  1  0
  5  6  2  0
  5  7  1  0
  7  8  2  0
  8  9  1  0
  9 10  2  0
 10 11  1  0
 11 12  2  0
 12 13  1  0
 13 14  2  0
  2 15  1  0
 15 16  2  0
 15 17  1  0
 12  7  1  0
 13  4  1  0
M  END
>  <rName>  (783) 
Ala_phthalimido

>  <PQ_SYMBOL>  (783) 
Ala_phthalimido

>  <FULL_NAME>  (783) 
(2S)-2-amino-3-(1,3-dioxoisoindol-2-yl)propanoic acid

>  <IUPAC_CONDENSED>  (783) 
Ala(phthalimido)

>  <IUPAC>  (783) 
(2S)-2-amino-3-(1,3-dioxoisoindol-2-yl)propanoic acid

>  <TYPE>  (783) 
Backbone

>  <CLASS>  (783) 
alpha

>  <ANALOG>  (783) 
X

>  <MOL_WT>  (783) 
234.21099999999996

>  <LOGP>  (783) 
-0.3055000000000006

>  <TPSA>  (783) 
100.7

>  <POPULARITY>  (783) 
2.2

>  <PROTECTED>  (783) 
TRUE

>  <SMILES>  (783) 
N[C@@H](CN2(C(=O)c1(ccccc1C2=O)))C(=O)O

>  <INCHIKEY>  (783) 
GRWSIPLDLOAQDV-QMMMGPOBSA-N

$$$$
Ala_phthalimido_5NMe2
     RDKit          2D

 20 21  0  0  0  0  0  0  0  0999 V2000
   -2.8713    1.8511    0.0000 N   0  0  0  0  0  0  0  0  0  0  0  0
   -3.5775    0.5277    0.0000 C   0  0  0  0  0  0  0  0  0  0  0  0
   -2.7846   -0.7456    0.0000 C   0  0  0  0  0  0  0  0  0  0  0  0
   -1.2854   -0.6955    0.0000 N   0  0  0  0  0  0  0  0  0  0  0  0
   -0.3638   -1.8789    0.0000 C   0  0  0  0  0  0  0  0  0  0  0  0
   -0.7794   -3.3202    0.0000 O   0  0  0  0  0  0  0  0  0  0  0  0
    1.0466   -1.3680    0.0000 C   0  0  0  0  0  0  0  0  0  0  0  0
    2.3699   -2.0743    0.0000 C   0  0  0  0  0  0  0  0  0  0  0  0
    3.6432   -1.2813    0.0000 C   0  0  0  0  0  0  0  0  0  0  0  0
    3.5931    0.2178    0.0000 C   0  0  0  0  0  0  0  0  0  0  0  0
    2.2698    0.9240    0.0000 C   0  0  0  0  0  0  0  0  0  0  0  0
    0.9965    0.1311    0.0000 C   0  0  0  0  0  0  0  0  0  0  0  0
   -0.4447    0.5468    0.0000 C   0  0  0  0  0  0  0  0  0  0  0  0
   -0.9556    1.9571    0.0000 O   0  0  0  0  0  0  0  0  0  0  0  0
    4.8664    1.0107    0.0000 N   0  0  0  0  0  0  0  0  0  0  0  0
    6.1898    0.3045    0.0000 C   0  0  0  0  0  0  0  0  0  0  0  0
    4.8164    2.5099    0.0000 C   0  0  0  0  0  0  0  0  0  0  0  0
   -5.0767    0.4777    0.0000 C   0  0  0  0  0  0  0  0  0  0  0  0
   -5.7829   -0.8457    0.0000 O   0  0  0  0  0  0  0  0  0  0  0  0
   -5.8696    1.7510    0.0000 O   0  0  0  0  0  0  0  0  0  0  0  0
  2  1  1  1
  2  3  1  0
  3  4  1  0
  4  5  1  0
  5  6  2  0
  5  7  1  0
  7  8  1  0
  8  9  2  0
  9 10  1  0
 10 11  2  0
 11 12  1  0
 12 13  1  0
 13 14  2  0
 10 15  1  0
 15 16  1  0
 15 17  1  0
  2 18  1  0
 18 19  2  0
 18 20  1  0
 12  7  2  0
 13  4  1  0
M  END
>  <rName>  (784) 
Ala_phthalimido_5NMe2

>  <PQ_SYMBOL>  (784) 
Ala_phthalimido_5NMe2

>  <FULL_NAME>  (784) 
3-[5-(DIMETHYLAMINO)-1,3-DIOXO-1,3-DIHYDRO-2H-ISOINDOL-2-YL]-L-ALANINE

>  <IUPAC_CONDENSED>  (784) 
Ala(phthalimido(5-NMe2))

>  <IUPAC>  (784) 
(2S)-2-amino-3-(3-(dimethylamino)-7,9-dioxo-8-azabicyclo[4.3.0]nona-1,3,5-trien-8-yl)propanoic acid

>  <TYPE>  (784) 
Backbone

>  <CLASS>  (784) 
alpha

>  <ANALOG>  (784) 
X

>  <MOL_WT>  (784) 
277.28

>  <LOGP>  (784) 
-0.2395000000000001

>  <TPSA>  (784) 
103.94000000000001

>  <POPULARITY>  (784) 
6.3

>  <PROTECTED>  (784) 
TRUE

>  <SMILES>  (784) 
N[C@@H](CN2(C(=O)c1(ccc(cc1C2=O)N(C)C)))C(=O)O

>  <INCHIKEY>  (784) 
NLRIIORQBUXJMD-JTQLQIEISA-N

$$$$
Ala_piperazin1yl
     RDKit          2D

 12 12  0  0  0  0  0  0  0  0999 V2000
   -1.2391    1.6805    0.0000 N   0  0  0  0  0  0  0  0  0  0  0  0
   -1.6184    0.2292    0.0000 C   0  0  0  0  0  0  0  0  0  0  0  0
   -0.5513   -0.8249    0.0000 C   0  0  0  0  0  0  0  0  0  0  0  0
    0.8952   -0.4278    0.0000 N   0  0  0  0  0  0  0  0  0  0  0  0
    1.2745    1.0235    0.0000 C   0  0  0  0  0  0  0  0  0  0  0  0
    2.7210    1.4206    0.0000 C   0  0  0  0  0  0  0  0  0  0  0  0
    3.7882    0.3665    0.0000 N   0  0  0  0  0  0  0  0  0  0  0  0
    3.4088   -1.0848    0.0000 C   0  0  0  0  0  0  0  0  0  0  0  0
    1.9624   -1.4819    0.0000 C   0  0  0  0  0  0  0  0  0  0  0  0
   -3.0649   -0.1679    0.0000 C   0  0  0  0  0  0  0  0  0  0  0  0
   -3.4442   -1.6191    0.0000 O   0  0  0  0  0  0  0  0  0  0  0  0
   -4.1321    0.8862    0.0000 O   0  0  0  0  0  0  0  0  0  0  0  0
  2  1  1  1
  2  3  1  0
  3  4  1  0
  4  5  1  0
  5  6  1  0
  6  7  1  0
  7  8  1  0
  8  9  1  0
  2 10  1  0
 10 11  2  0
 10 12  1  0
  9  4  1  0
M  END
>  <rName>  (785) 
Ala_piperazin1yl

>  <PQ_SYMBOL>  (785) 
Ala_piperazin1yl

>  <FULL_NAME>  (785) 
3-piperazino-L-alanine

>  <IUPAC_CONDENSED>  (785) 
Ala(piperazin-1-yl)

>  <IUPAC>  (785) 
(2S)-2-amino-3-(piperazin-1-yl)propanoic acid

>  <TYPE>  (785) 
Backbone

>  <CLASS>  (785) 
alpha

>  <ANALOG>  (785) 
X

>  <MOL_WT>  (785) 
173.21599999999998

>  <LOGP>  (785) 
-1.696499999999998

>  <TPSA>  (785) 
78.59

>  <POPULARITY>  (785) 
7.1

>  <PROTECTED>  (785) 
TRUE

>  <SMILES>  (785) 
N[C@@H](CN1(CCNCC1))C(=O)O

>  <INCHIKEY>  (785) 
GCKHCMMDWJZKBQ-LURJTMIESA-N

$$$$
Ala_pyrazin2yl
     RDKit          2D

 12 12  0  0  0  0  0  0  0  0999 V2000
   -1.2391    1.6805    0.0000 N   0  0  0  0  0  0  0  0  0  0  0  0
   -1.6184    0.2292    0.0000 C   0  0  0  0  0  0  0  0  0  0  0  0
   -0.5513   -0.8249    0.0000 C   0  0  0  0  0  0  0  0  0  0  0  0
    0.8952   -0.4278    0.0000 C   0  0  0  0  0  0  0  0  0  0  0  0
    1.2745    1.0235    0.0000 C   0  0  0  0  0  0  0  0  0  0  0  0
    2.7210    1.4206    0.0000 N   0  0  0  0  0  0  0  0  0  0  0  0
    3.7882    0.3665    0.0000 C   0  0  0  0  0  0  0  0  0  0  0  0
    3.4088   -1.0848    0.0000 C   0  0  0  0  0  0  0  0  0  0  0  0
    1.9624   -1.4819    0.0000 N   0  0  0  0  0  0  0  0  0  0  0  0
   -3.0649   -0.1679    0.0000 C   0  0  0  0  0  0  0  0  0  0  0  0
   -3.4442   -1.6191    0.0000 O   0  0  0  0  0  0  0  0  0  0  0  0
   -4.1321    0.8862    0.0000 O   0  0  0  0  0  0  0  0  0  0  0  0
  2  1  1  1
  2  3  1  0
  3  4  1  0
  4  5  1  0
  5  6  2  0
  6  7  1  0
  7  8  2  0
  8  9  1  0
  2 10  1  0
 10 11  2  0
 10 12  1  0
  9  4  2  0
M  END
>  <rName>  (786) 
Ala_pyrazin2yl

>  <PQ_SYMBOL>  (786) 
Ala_pyrazin2yl

>  <FULL_NAME>  (786) 
(2S)-2-amino-3-pyrazin-2-ylpropanoic acid

>  <IUPAC_CONDENSED>  (786) 
Ala(pyrazin-2-yl)

>  <IUPAC>  (786) 
(2S)-2-amino-3-(pyrazin-2-yl)propanoic acid

>  <TYPE>  (786) 
Backbone

>  <CLASS>  (786) 
alpha

>  <ANALOG>  (786) 
Phe

>  <MOL_WT>  (786) 
167.16799999999998

>  <LOGP>  (786) 
-0.569

>  <TPSA>  (786) 
89.10000000000001

>  <POPULARITY>  (786) 
8.9

>  <PROTECTED>  (786) 
TRUE

>  <SMILES>  (786) 
N[C@@H](Cc1(cnccn1))C(=O)O

>  <INCHIKEY>  (786) 
JNNCNURVELPUNP-LURJTMIESA-N

$$$$
Ala_pyrazin2yl_5Cl
     RDKit          2D

 13 13  0  0  0  0  0  0  0  0999 V2000
   -1.5766    1.6851    0.0000 N   0  0  0  0  0  0  0  0  0  0  0  0
   -2.0128    0.2500    0.0000 C   0  0  0  0  0  0  0  0  0  0  0  0
   -0.9880   -0.8454    0.0000 C   0  0  0  0  0  0  0  0  0  0  0  0
    0.4730   -0.5055    0.0000 C   0  0  0  0  0  0  0  0  0  0  0  0
    0.9092    0.9296    0.0000 C   0  0  0  0  0  0  0  0  0  0  0  0
    2.3702    1.2695    0.0000 N   0  0  0  0  0  0  0  0  0  0  0  0
    3.3950    0.1741    0.0000 C   0  0  0  0  0  0  0  0  0  0  0  0
    4.8560    0.5140    0.0000 Cl  0  0  0  0  0  0  0  0  0  0  0  0
    2.9588   -1.2611    0.0000 C   0  0  0  0  0  0  0  0  0  0  0  0
    1.4978   -1.6009    0.0000 N   0  0  0  0  0  0  0  0  0  0  0  0
   -3.4738   -0.0899    0.0000 C   0  0  0  0  0  0  0  0  0  0  0  0
   -3.9100   -1.5250    0.0000 O   0  0  0  0  0  0  0  0  0  0  0  0
   -4.4986    1.0055    0.0000 O   0  0  0  0  0  0  0  0  0  0  0  0
  2  1  1  1
  2  3  1  0
  3  4  1  0
  4  5  2  0
  5  6  1  0
  6  7  2  0
  7  8  1  0
  7  9  1  0
  9 10  2  0
  2 11  1  0
 11 12  2  0
 11 13  1  0
 10  4  1  0
M  END
>  <rName>  (787) 
Ala_pyrazin2yl_5Cl

>  <PQ_SYMBOL>  (787) 
Ala_pyrazin2yl_5Cl

>  <FULL_NAME>  (787) 
(S)-2-amino-3-(5-chloropyrazin-2-yl)propanoic acid

>  <IUPAC_CONDENSED>  (787) 
Ala(pyrazin-2-yl(5-Cl))

>  <IUPAC>  (787) 
(2S)-2-amino-3-(5-chloropyrazin-2-yl)propanoic acid

>  <TYPE>  (787) 
Backbone

>  <CLASS>  (787) 
alpha

>  <ANALOG>  (787) 
Phe

>  <MOL_WT>  (787) 
201.613

>  <LOGP>  (787) 
0.0844000000000002

>  <TPSA>  (787) 
89.10000000000001

>  <POPULARITY>  (787) 
2.5

>  <PROTECTED>  (787) 
TRUE

>  <SMILES>  (787) 
N[C@@H](Cc1(cnc(Cl)cn1))C(=O)O

>  <INCHIKEY>  (787) 
BRNQCNIJEIMUBT-YFKPBYRVSA-N

$$$$
Ala_pyrazin2yl_6Cl
     RDKit          2D

 13 13  0  0  0  0  0  0  0  0999 V2000
   -1.7680    1.6690    0.0000 N   0  0  0  0  0  0  0  0  0  0  0  0
   -1.9932    0.1860    0.0000 C   0  0  0  0  0  0  0  0  0  0  0  0
   -0.8215   -0.7506    0.0000 C   0  0  0  0  0  0  0  0  0  0  0  0
    0.5754   -0.2041    0.0000 C   0  0  0  0  0  0  0  0  0  0  0  0
    0.8006    1.2789    0.0000 C   0  0  0  0  0  0  0  0  0  0  0  0
    2.1976    1.8254    0.0000 N   0  0  0  0  0  0  0  0  0  0  0  0
    3.3693    0.8888    0.0000 C   0  0  0  0  0  0  0  0  0  0  0  0
    3.1441   -0.5942    0.0000 C   0  0  0  0  0  0  0  0  0  0  0  0
    4.3158   -1.5307    0.0000 Cl  0  0  0  0  0  0  0  0  0  0  0  0
    1.7472   -1.1406    0.0000 N   0  0  0  0  0  0  0  0  0  0  0  0
   -3.3901   -0.3605    0.0000 C   0  0  0  0  0  0  0  0  0  0  0  0
   -3.6153   -1.8435    0.0000 O   0  0  0  0  0  0  0  0  0  0  0  0
   -4.5618    0.5760    0.0000 O   0  0  0  0  0  0  0  0  0  0  0  0
  2  1  1  1
  2  3  1  0
  3  4  1  0
  4  5  2  0
  5  6  1  0
  6  7  2  0
  7  8  1  0
  8  9  1  0
  8 10  2  0
  2 11  1  0
 11 12  2  0
 11 13  1  0
 10  4  1  0
M  END
>  <rName>  (788) 
Ala_pyrazin2yl_6Cl

>  <PQ_SYMBOL>  (788) 
Ala_pyrazin2yl_6Cl

>  <FULL_NAME>  (788) 
(S)-2-amino-3-(6-chloropyrazin-2-yl)propanoic acid

>  <IUPAC_CONDENSED>  (788) 
Ala(pyrazin-2-yl(6-Cl))

>  <IUPAC>  (788) 
(2S)-2-amino-3-(6-chloropyrazin-2-yl)propanoic acid

>  <TYPE>  (788) 
Backbone

>  <CLASS>  (788) 
alpha

>  <ANALOG>  (788) 
Phe

>  <MOL_WT>  (788) 
201.613

>  <LOGP>  (788) 
0.08439999999999975

>  <TPSA>  (788) 
89.10000000000001

>  <POPULARITY>  (788) 
2.2

>  <PROTECTED>  (788) 
TRUE

>  <SMILES>  (788) 
N[C@@H](Cc1(cncc(Cl)n1))C(=O)O

>  <INCHIKEY>  (788) 
GRPSHIWZHGCARM-YFKPBYRVSA-N

$$$$
Ala_pyrazol1yl
     RDKit          2D

 11 11  0  0  0  0  0  0  0  0999 V2000
   -0.9461    1.6947    0.0000 N   0  0  0  0  0  0  0  0  0  0  0  0
   -1.3100    0.2395    0.0000 C   0  0  0  0  0  0  0  0  0  0  0  0
   -0.2317   -0.8032    0.0000 C   0  0  0  0  0  0  0  0  0  0  0  0
    1.2105   -0.3908    0.0000 N   0  0  0  0  0  0  0  0  0  0  0  0
    2.3919   -1.3151    0.0000 C   0  0  0  0  0  0  0  0  0  0  0  0
    3.6360   -0.4772    0.0000 C   0  0  0  0  0  0  0  0  0  0  0  0
    3.2236    0.9650    0.0000 C   0  0  0  0  0  0  0  0  0  0  0  0
    1.7245    1.0184    0.0000 N   0  0  0  0  0  0  0  0  0  0  0  0
   -2.7522   -0.1729    0.0000 C   0  0  0  0  0  0  0  0  0  0  0  0
   -3.1161   -1.6281    0.0000 O   0  0  0  0  0  0  0  0  0  0  0  0
   -3.8304    0.8698    0.0000 O   0  0  0  0  0  0  0  0  0  0  0  0
  2  1  1  1
  2  3  1  0
  3  4  1  0
  4  5  1  0
  5  6  2  0
  6  7  1  0
  7  8  2  0
  2  9  1  0
  9 10  2  0
  9 11  1  0
  8  4  1  0
M  END
>  <rName>  (789) 
Ala_pyrazol1yl

>  <PQ_SYMBOL>  (789) 
Ala_pyrazol1yl

>  <FULL_NAME>  (789) 
3-(1-Pyrazolyl)-L-Alanine

>  <IUPAC_CONDENSED>  (789) 
Ala(pyrazol-1-yl)

>  <IUPAC>  (789) 
(2S)-2-amino-3-(1H-pyrazol-1-yl)propanoic acid

>  <TYPE>  (789) 
Backbone

>  <CLASS>  (789) 
alpha

>  <ANALOG>  (789) 
Phe

>  <MOL_WT>  (789) 
155.15699999999998

>  <LOGP>  (789) 
-0.7050000000000005

>  <TPSA>  (789) 
81.14

>  <POPULARITY>  (789) 
8.5

>  <PROTECTED>  (789) 
TRUE

>  <SMILES>  (789) 
N[C@@H](Cn1(cccn1))C(=O)O

>  <INCHIKEY>  (789) 
PIGOPELHGLPKLL-YFKPBYRVSA-N

$$$$
Ala_pyrazol3yl
     RDKit          2D

 11 11  0  0  0  0  0  0  0  0999 V2000
   -0.9461    1.6947    0.0000 N   0  0  0  0  0  0  0  0  0  0  0  0
   -1.3100    0.2395    0.0000 C   0  0  0  0  0  0  0  0  0  0  0  0
   -0.2317   -0.8032    0.0000 C   0  0  0  0  0  0  0  0  0  0  0  0
    1.2105   -0.3908    0.0000 C   0  0  0  0  0  0  0  0  0  0  0  0
    2.3919   -1.3151    0.0000 C   0  0  0  0  0  0  0  0  0  0  0  0
    3.6360   -0.4772    0.0000 C   0  0  0  0  0  0  0  0  0  0  0  0
    3.2236    0.9650    0.0000 N   0  0  0  0  0  0  0  0  0  0  0  0
    1.7245    1.0184    0.0000 N   0  0  0  0  0  0  0  0  0  0  0  0
   -2.7522   -0.1729    0.0000 C   0  0  0  0  0  0  0  0  0  0  0  0
   -3.1161   -1.6281    0.0000 O   0  0  0  0  0  0  0  0  0  0  0  0
   -3.8304    0.8698    0.0000 O   0  0  0  0  0  0  0  0  0  0  0  0
  2  1  1  1
  2  3  1  0
  3  4  1  0
  4  5  2  0
  5  6  1  0
  6  7  2  0
  7  8  1  0
  2  9  1  0
  9 10  2  0
  9 11  1  0
  8  4  1  0
M  END
>  <rName>  (790) 
Ala_pyrazol3yl

>  <PQ_SYMBOL>  (790) 
Ala_pyrazol3yl

>  <FULL_NAME>  (790) 
(2S)-2-amino-3-(1H-pyrazol-5-yl)propanoic acid

>  <IUPAC_CONDENSED>  (790) 
Ala(pyrazol-3-yl)

>  <IUPAC>  (790) 
(2S)-2-amino-3-(1H-pyrazol-5-yl)propanoic acid

>  <TYPE>  (790) 
Backbone

>  <CLASS>  (790) 
alpha

>  <ANALOG>  (790) 
Phe

>  <MOL_WT>  (790) 
155.15699999999998

>  <LOGP>  (790) 
-0.6359000000000001

>  <TPSA>  (790) 
92.0

>  <POPULARITY>  (790) 
8.0

>  <PROTECTED>  (790) 
TRUE

>  <SMILES>  (790) 
N[C@@H](Cc1(ccn[nH]1))C(=O)O

>  <INCHIKEY>  (790) 
VOWKMMDXKYIBPG-YFKPBYRVSA-N

$$$$
Ala_pyrazol3yl_1Me
     RDKit          2D

 12 12  0  0  0  0  0  0  0  0999 V2000
   -1.1070    1.6556    0.0000 N   0  0  0  0  0  0  0  0  0  0  0  0
   -1.6374    0.2525    0.0000 C   0  0  0  0  0  0  0  0  0  0  0  0
   -0.6875   -0.9084    0.0000 C   0  0  0  0  0  0  0  0  0  0  0  0
    0.7928   -0.6662    0.0000 C   0  0  0  0  0  0  0  0  0  0  0  0
    1.8589   -1.7215    0.0000 C   0  0  0  0  0  0  0  0  0  0  0  0
    3.1919   -1.0337    0.0000 C   0  0  0  0  0  0  0  0  0  0  0  0
    2.9497    0.4466    0.0000 N   0  0  0  0  0  0  0  0  0  0  0  0
    4.0050    1.5127    0.0000 C   0  0  0  0  0  0  0  0  0  0  0  0
    1.4670    0.6737    0.0000 N   0  0  0  0  0  0  0  0  0  0  0  0
   -3.1177    0.0103    0.0000 C   0  0  0  0  0  0  0  0  0  0  0  0
   -3.6481   -1.3928    0.0000 O   0  0  0  0  0  0  0  0  0  0  0  0
   -4.0676    1.1712    0.0000 O   0  0  0  0  0  0  0  0  0  0  0  0
  2  1  1  1
  2  3  1  0
  3  4  1  0
  4  5  1  0
  5  6  2  0
  6  7  1  0
  7  8  1  0
  7  9  1  0
  2 10  1  0
 10 11  2  0
 10 12  1  0
  9  4  2  0
M  END
>  <rName>  (791) 
Ala_pyrazol3yl_1Me

>  <PQ_SYMBOL>  (791) 
Ala_pyrazol3yl_1Me

>  <FULL_NAME>  (791) 
(S)-2-amino-3-(1-methyl-1H-pyrazol-3-yl)propanoic acid hydrochloride

>  <IUPAC_CONDENSED>  (791) 
Ala(pyrazol-3-yl(1-Me))

>  <IUPAC>  (791) 
(2S)-2-amino-3-(1-methyl-1H-pyrazol-3-yl)propanoic acid

>  <TYPE>  (791) 
Backbone

>  <CLASS>  (791) 
alpha

>  <ANALOG>  (791) 
Phe

>  <MOL_WT>  (791) 
169.184

>  <LOGP>  (791) 
-0.6255000000000002

>  <TPSA>  (791) 
81.14

>  <POPULARITY>  (791) 
5.7

>  <PROTECTED>  (791) 
TRUE

>  <SMILES>  (791) 
N[C@@H](Cc1(ccn(C)n1))C(=O)O

>  <INCHIKEY>  (791) 
ANKMBGGGKCTTGK-LURJTMIESA-N

$$$$
Ala_pyrazol3yl_5Me
     RDKit          2D

 12 12  0  0  0  0  0  0  0  0999 V2000
   -1.4659    1.6962    0.0000 N   0  0  0  0  0  0  0  0  0  0  0  0
   -1.7460    0.2226    0.0000 C   0  0  0  0  0  0  0  0  0  0  0  0
   -0.6098   -0.7568    0.0000 C   0  0  0  0  0  0  0  0  0  0  0  0
    0.8064   -0.2625    0.0000 C   0  0  0  0  0  0  0  0  0  0  0  0
    2.0387   -1.1177    0.0000 C   0  0  0  0  0  0  0  0  0  0  0  0
    3.2329   -0.2100    0.0000 C   0  0  0  0  0  0  0  0  0  0  0  0
    4.6692   -0.6425    0.0000 C   0  0  0  0  0  0  0  0  0  0  0  0
    2.7386    1.2062    0.0000 N   0  0  0  0  0  0  0  0  0  0  0  0
    1.2389    1.1738    0.0000 N   0  0  0  0  0  0  0  0  0  0  0  0
   -3.1622   -0.2717    0.0000 C   0  0  0  0  0  0  0  0  0  0  0  0
   -3.4423   -1.7453    0.0000 O   0  0  0  0  0  0  0  0  0  0  0  0
   -4.2984    0.7077    0.0000 O   0  0  0  0  0  0  0  0  0  0  0  0
  2  1  1  1
  2  3  1  0
  3  4  1  0
  4  5  1  0
  5  6  2  0
  6  7  1  0
  6  8  1  0
  8  9  1  0
  2 10  1  0
 10 11  2  0
 10 12  1  0
  9  4  2  0
M  END
>  <rName>  (792) 
Ala_pyrazol3yl_5Me

>  <PQ_SYMBOL>  (792) 
Ala_pyrazol3yl_5Me

>  <FULL_NAME>  (792) 
(S)-2-amino-3-(5-methyl-1H-pyrazol-3-yl)propanoic acid

>  <IUPAC_CONDENSED>  (792) 
Ala(pyrazol-3-yl(5-Me))

>  <IUPAC>  (792) 
(2S)-2-amino-3-(5-methyl-1H-pyrazol-3-yl)propanoic acid

>  <TYPE>  (792) 
Backbone

>  <CLASS>  (792) 
alpha

>  <ANALOG>  (792) 
Phe

>  <MOL_WT>  (792) 
169.184

>  <LOGP>  (792) 
-0.32748000000000027

>  <TPSA>  (792) 
92.00000000000001

>  <POPULARITY>  (792) 
3.7

>  <PROTECTED>  (792) 
TRUE

>  <SMILES>  (792) 
N[C@@H](Cc1(cc(C)[nH]n1))C(=O)O

>  <INCHIKEY>  (792) 
QPSXLWSNJRSDBV-LURJTMIESA-N

$$$$
Ala_pyrazol3yl_5tBu
     RDKit          2D

 15 15  0  0  0  0  0  0  0  0999 V2000
   -2.6077    1.6922    0.0000 N   0  0  0  0  0  0  0  0  0  0  0  0
   -2.7940    0.2038    0.0000 C   0  0  0  0  0  0  0  0  0  0  0  0
   -1.5983   -0.7018    0.0000 C   0  0  0  0  0  0  0  0  0  0  0  0
   -0.2161   -0.1190    0.0000 C   0  0  0  0  0  0  0  0  0  0  0  0
    1.0678   -0.8947    0.0000 C   0  0  0  0  0  0  0  0  0  0  0  0
    2.2022    0.0867    0.0000 C   0  0  0  0  0  0  0  0  0  0  0  0
    1.6194    1.4688    0.0000 N   0  0  0  0  0  0  0  0  0  0  0  0
    0.1248    1.3417    0.0000 N   0  0  0  0  0  0  0  0  0  0  0  0
    3.6630   -0.2543    0.0000 C   0  0  0  0  0  0  0  0  0  0  0  0
    3.3220   -1.7150    0.0000 C   0  0  0  0  0  0  0  0  0  0  0  0
    4.0039    1.2065    0.0000 C   0  0  0  0  0  0  0  0  0  0  0  0
    5.1237   -0.5952    0.0000 C   0  0  0  0  0  0  0  0  0  0  0  0
   -4.1762   -0.3790    0.0000 C   0  0  0  0  0  0  0  0  0  0  0  0
   -4.3626   -1.8674    0.0000 O   0  0  0  0  0  0  0  0  0  0  0  0
   -5.3720    0.5266    0.0000 O   0  0  0  0  0  0  0  0  0  0  0  0
  2  1  1  1
  2  3  1  0
  3  4  1  0
  4  5  1  0
  5  6  2  0
  6  7  1  0
  7  8  1  0
  6  9  1  0
  9 10  1  0
  9 11  1  0
  9 12  1  0
  2 13  1  0
 13 14  2  0
 13 15  1  0
  8  4  2  0
M  END
>  <rName>  (793) 
Ala_pyrazol3yl_5tBu

>  <PQ_SYMBOL>  (793) 
Ala_pyrazol3yl_5tBu

>  <FULL_NAME>  (793) 
(S)-2-amino-3-(5-(tert-butyl)-1H-pyrazol-3-yl)propanoic acid

>  <IUPAC_CONDENSED>  (793) 
Ala(pyrazol-3-yl(5-tBu))

>  <IUPAC>  (793) 
(2S)-2-amino-3-(5-(tert-butyl)-1H-pyrazol-3-yl)propanoic acid

>  <TYPE>  (793) 
Backbone

>  <CLASS>  (793) 
alpha

>  <ANALOG>  (793) 
Phe

>  <MOL_WT>  (793) 
211.265

>  <LOGP>  (793) 
0.6615999999999993

>  <TPSA>  (793) 
92.00000000000001

>  <POPULARITY>  (793) 
2.2

>  <PROTECTED>  (793) 
TRUE

>  <SMILES>  (793) 
N[C@@H](Cc1(cc([nH]n1)C(C)(C)C))C(=O)O

>  <INCHIKEY>  (793) 
BKWNHQDGCGAXBB-ZETCQYMHSA-N

$$$$
Ala_pyrazol4yl
     RDKit          2D

 11 11  0  0  0  0  0  0  0  0999 V2000
   -0.9461    1.6947    0.0000 N   0  0  0  0  0  0  0  0  0  0  0  0
   -1.3100    0.2395    0.0000 C   0  0  0  0  0  0  0  0  0  0  0  0
   -0.2317   -0.8032    0.0000 C   0  0  0  0  0  0  0  0  0  0  0  0
    1.2105   -0.3908    0.0000 C   0  0  0  0  0  0  0  0  0  0  0  0
    2.3919   -1.3151    0.0000 C   0  0  0  0  0  0  0  0  0  0  0  0
    3.6360   -0.4772    0.0000 N   0  0  0  0  0  0  0  0  0  0  0  0
    3.2236    0.9650    0.0000 N   0  0  0  0  0  0  0  0  0  0  0  0
    1.7245    1.0184    0.0000 C   0  0  0  0  0  0  0  0  0  0  0  0
   -2.7522   -0.1729    0.0000 C   0  0  0  0  0  0  0  0  0  0  0  0
   -3.1161   -1.6281    0.0000 O   0  0  0  0  0  0  0  0  0  0  0  0
   -3.8304    0.8698    0.0000 O   0  0  0  0  0  0  0  0  0  0  0  0
  2  1  1  1
  2  3  1  0
  3  4  1  0
  4  5  1  0
  5  6  2  0
  6  7  1  0
  7  8  1  0
  2  9  1  0
  9 10  2  0
  9 11  1  0
  8  4  2  0
M  END
>  <rName>  (794) 
Ala_pyrazol4yl

>  <PQ_SYMBOL>  (794) 
Ala_pyrazol4yl

>  <FULL_NAME>  (794) 
(2S)-2-amino-3-(1H-pyrazol-4-yl)propanoic acid

>  <IUPAC_CONDENSED>  (794) 
Ala(pyrazol-4-yl)

>  <IUPAC>  (794) 
(2S)-2-amino-3-(1H-pyrazol-4-yl)propanoic acid

>  <TYPE>  (794) 
Backbone

>  <CLASS>  (794) 
alpha

>  <ANALOG>  (794) 
Phe

>  <MOL_WT>  (794) 
155.15699999999998

>  <LOGP>  (794) 
-0.6359000000000001

>  <TPSA>  (794) 
92.0

>  <POPULARITY>  (794) 
8.2

>  <PROTECTED>  (794) 
TRUE

>  <SMILES>  (794) 
N[C@@H](Cc1(cn[nH]c1))C(=O)O

>  <INCHIKEY>  (794) 
CRANRHDFXPQPHR-YFKPBYRVSA-N

$$$$
Ala_pyrazol4yl_1CHF2
     RDKit          2D

 14 14  0  0  0  0  0  0  0  0999 V2000
   -1.5471    1.5948    0.0000 N   0  0  0  0  0  0  0  0  0  0  0  0
   -2.2681    0.2794    0.0000 C   0  0  0  0  0  0  0  0  0  0  0  0
   -1.4895   -1.0027    0.0000 C   0  0  0  0  0  0  0  0  0  0  0  0
    0.0102   -0.9694    0.0000 C   0  0  0  0  0  0  0  0  0  0  0  0
    0.9186   -2.1630    0.0000 C   0  0  0  0  0  0  0  0  0  0  0  0
    2.3345   -1.6679    0.0000 N   0  0  0  0  0  0  0  0  0  0  0  0
    2.3012   -0.1683    0.0000 N   0  0  0  0  0  0  0  0  0  0  0  0
    0.8647    0.2634    0.0000 C   0  0  0  0  0  0  0  0  0  0  0  0
    3.4949    0.7401    0.0000 C   0  0  0  0  0  0  0  0  0  0  0  0
    4.8784    0.1605    0.0000 F   0  0  0  0  0  0  0  0  0  0  0  0
    3.3050    2.2280    0.0000 F   0  0  0  0  0  0  0  0  0  0  0  0
   -3.7677    0.2461    0.0000 C   0  0  0  0  0  0  0  0  0  0  0  0
   -4.4887   -1.0692    0.0000 O   0  0  0  0  0  0  0  0  0  0  0  0
   -4.5464    1.5282    0.0000 O   0  0  0  0  0  0  0  0  0  0  0  0
  2  1  1  1
  2  3  1  0
  3  4  1  0
  4  5  1  0
  5  6  2  0
  6  7  1  0
  7  8  1  0
  7  9  1  0
  9 10  1  0
  9 11  1  0
  2 12  1  0
 12 13  2  0
 12 14  1  0
  8  4  2  0
M  END
>  <rName>  (795) 
Ala_pyrazol4yl_1CHF2

>  <PQ_SYMBOL>  (795) 
Ala_pyrazol4yl_1CHF2

>  <FULL_NAME>  (795) 
(S)-2-amino-3-(1-(difluoromethyl)-1H-pyrazol-4-yl)propanoic acid

>  <IUPAC_CONDENSED>  (795) 
Ala(pyrazol-4-yl(1-CHF2))

>  <IUPAC>  (795) 
(2S)-2-amino-3-(1-(difluoromethyl)-1H-pyrazol-4-yl)propanoic acid

>  <TYPE>  (795) 
Backbone

>  <CLASS>  (795) 
alpha

>  <ANALOG>  (795) 
Phe

>  <MOL_WT>  (795) 
205.16399999999996

>  <LOGP>  (795) 
0.23259999999999964

>  <TPSA>  (795) 
81.14

>  <POPULARITY>  (795) 
3.1

>  <PROTECTED>  (795) 
TRUE

>  <SMILES>  (795) 
N[C@@H](Cc1(cnn(c1)C(F)F))C(=O)O

>  <INCHIKEY>  (795) 
KHWMCCVACUKXCE-YFKPBYRVSA-N

$$$$
Ala_pyrazol4yl_1Me
     RDKit          2D

 12 12  0  0  0  0  0  0  0  0999 V2000
   -1.1070    1.6556    0.0000 N   0  0  0  0  0  0  0  0  0  0  0  0
   -1.6374    0.2525    0.0000 C   0  0  0  0  0  0  0  0  0  0  0  0
   -0.6875   -0.9084    0.0000 C   0  0  0  0  0  0  0  0  0  0  0  0
    0.7928   -0.6662    0.0000 C   0  0  0  0  0  0  0  0  0  0  0  0
    1.8589   -1.7215    0.0000 C   0  0  0  0  0  0  0  0  0  0  0  0
    3.1919   -1.0337    0.0000 N   0  0  0  0  0  0  0  0  0  0  0  0
    2.9497    0.4466    0.0000 N   0  0  0  0  0  0  0  0  0  0  0  0
    4.0050    1.5127    0.0000 C   0  0  0  0  0  0  0  0  0  0  0  0
    1.4670    0.6737    0.0000 C   0  0  0  0  0  0  0  0  0  0  0  0
   -3.1177    0.0103    0.0000 C   0  0  0  0  0  0  0  0  0  0  0  0
   -3.6481   -1.3928    0.0000 O   0  0  0  0  0  0  0  0  0  0  0  0
   -4.0676    1.1712    0.0000 O   0  0  0  0  0  0  0  0  0  0  0  0
  2  1  1  1
  2  3  1  0
  3  4  1  0
  4  5  1  0
  5  6  2  0
  6  7  1  0
  7  8  1  0
  7  9  1  0
  2 10  1  0
 10 11  2  0
 10 12  1  0
  9  4  2  0
M  END
>  <rName>  (796) 
Ala_pyrazol4yl_1Me

>  <PQ_SYMBOL>  (796) 
Ala_pyrazol4yl_1Me

>  <FULL_NAME>  (796) 
(S)-2-amino-3-(1-methyl-1H-pyrazol-4-yl)propanoic acid

>  <IUPAC_CONDENSED>  (796) 
Ala(pyrazol-4-yl(1-Me))

>  <IUPAC>  (796) 
(2S)-2-amino-3-(1-methyl-1H-pyrazol-4-yl)propanoic acid

>  <TYPE>  (796) 
Backbone

>  <CLASS>  (796) 
alpha

>  <ANALOG>  (796) 
Phe

>  <MOL_WT>  (796) 
169.184

>  <LOGP>  (796) 
-0.6255000000000002

>  <TPSA>  (796) 
81.14

>  <POPULARITY>  (796) 
7.8

>  <PROTECTED>  (796) 
TRUE

>  <SMILES>  (796) 
N[C@@H](Cc1(cnn(C)c1))C(=O)O

>  <INCHIKEY>  (796) 
UXJDTZCOFCDIIW-LURJTMIESA-N

$$$$
Ala_pyrazol4yl_1Me_3CO2H
     RDKit          2D

 15 15  0  0  0  0  0  0  0  0999 V2000
    2.0145    1.9210    0.0000 N   0  0  0  0  0  0  0  0  0  0  0  0
    2.1446    0.4266    0.0000 C   0  0  0  0  0  0  0  0  0  0  0  0
    0.9155   -0.4332    0.0000 C   0  0  0  0  0  0  0  0  0  0  0  0
   -0.4437    0.2013    0.0000 C   0  0  0  0  0  0  0  0  0  0  0  0
   -0.7292    1.6739    0.0000 C   0  0  0  0  0  0  0  0  0  0  0  0
   -2.2180    1.8573    0.0000 N   0  0  0  0  0  0  0  0  0  0  0  0
   -2.9446    3.1696    0.0000 C   0  0  0  0  0  0  0  0  0  0  0  0
   -2.8525    0.4981    0.0000 N   0  0  0  0  0  0  0  0  0  0  0  0
   -1.7559   -0.5253    0.0000 C   0  0  0  0  0  0  0  0  0  0  0  0
   -1.9394   -2.0141    0.0000 C   0  0  0  0  0  0  0  0  0  0  0  0
   -3.3204   -2.5996    0.0000 O   0  0  0  0  0  0  0  0  0  0  0  0
   -0.7418   -2.9173    0.0000 O   0  0  0  0  0  0  0  0  0  0  0  0
    3.5038   -0.2079    0.0000 C   0  0  0  0  0  0  0  0  0  0  0  0
    3.6339   -1.7023    0.0000 O   0  0  0  0  0  0  0  0  0  0  0  0
    4.7329    0.6519    0.0000 O   0  0  0  0  0  0  0  0  0  0  0  0
  2  1  1  6
  2  3  1  0
  3  4  1  0
  4  5  2  0
  5  6  1  0
  6  7  1  0
  6  8  1  0
  8  9  2  0
  9 10  1  0
 10 11  2  0
 10 12  1  0
  2 13  1  0
 13 14  2  0
 13 15  1  0
  9  4  1  0
M  END
>  <rName>  (797) 
Ala_pyrazol4yl_1Me_3CO2H

>  <PQ_SYMBOL>  (797) 
Ala_pyrazol4yl_1Me_3CO2H

>  <FULL_NAME>  (797) 
(S)-4-(2-amino-2-carboxyethyl)-1-methyl-1H-pyrazole-3-carboxylic acid

>  <IUPAC_CONDENSED>  (797) 
Ala(pyrazol-4-yl(1-Me,3-CO2H))

>  <IUPAC>  (797) 
4-((2S)-2-amino-3-hydroxy-3-oxopropyl)-1-methyl-1H-pyrazole-3-carboxylic acid

>  <TYPE>  (797) 
Backbone

>  <CLASS>  (797) 
alpha

>  <ANALOG>  (797) 
Phe

>  <MOL_WT>  (797) 
213.19299999999998

>  <LOGP>  (797) 
-0.9272999999999998

>  <TPSA>  (797) 
118.44000000000001

>  <POPULARITY>  (797) 
3.2

>  <PROTECTED>  (797) 
TRUE

>  <SMILES>  (797) 
N[C@@H](Cc1(cn(C)nc1C(=O)O))C(=O)O

>  <INCHIKEY>  (797) 
OMHCYFAAVDIPTC-YFKPBYRVSA-N

$$$$
Ala_pyrazol4yl_1Me_5CO2H
     RDKit          2D

 15 15  0  0  0  0  0  0  0  0999 V2000
    2.3202    1.8817    0.0000 N   0  0  0  0  0  0  0  0  0  0  0  0
    2.2904    0.3820    0.0000 C   0  0  0  0  0  0  0  0  0  0  0  0
    0.9767   -0.3421    0.0000 C   0  0  0  0  0  0  0  0  0  0  0  0
   -0.3072    0.4336    0.0000 C   0  0  0  0  0  0  0  0  0  0  0  0
   -0.4343    1.9282    0.0000 C   0  0  0  0  0  0  0  0  0  0  0  0
   -1.8950    2.2692    0.0000 N   0  0  0  0  0  0  0  0  0  0  0  0
   -2.6707    0.9853    0.0000 N   0  0  0  0  0  0  0  0  0  0  0  0
   -4.1653    0.8582    0.0000 C   0  0  0  0  0  0  0  0  0  0  0  0
   -1.6894   -0.1491    0.0000 C   0  0  0  0  0  0  0  0  0  0  0  0
   -2.0303   -1.6099    0.0000 C   0  0  0  0  0  0  0  0  0  0  0  0
   -3.4659   -2.0449    0.0000 O   0  0  0  0  0  0  0  0  0  0  0  0
   -0.9358   -2.6355    0.0000 O   0  0  0  0  0  0  0  0  0  0  0  0
    3.5742   -0.3937    0.0000 C   0  0  0  0  0  0  0  0  0  0  0  0
    3.5444   -1.8934    0.0000 O   0  0  0  0  0  0  0  0  0  0  0  0
    4.8879    0.3303    0.0000 O   0  0  0  0  0  0  0  0  0  0  0  0
  2  1  1  6
  2  3  1  0
  3  4  1  0
  4  5  1  0
  5  6  2  0
  6  7  1  0
  7  8  1  0
  7  9  1  0
  9 10  1  0
 10 11  2  0
 10 12  1  0
  2 13  1  0
 13 14  2  0
 13 15  1  0
  9  4  2  0
M  END
>  <rName>  (798) 
Ala_pyrazol4yl_1Me_5CO2H

>  <PQ_SYMBOL>  (798) 
Ala_pyrazol4yl_1Me_5CO2H

>  <FULL_NAME>  (798) 
(S)-4-(2-amino-2-carboxyethyl)-1-methyl-1H-pyrazole-5-carboxylic acid

>  <IUPAC_CONDENSED>  (798) 
Ala(pyrazol-4-yl(1-Me,5-CO2H))

>  <IUPAC>  (798) 
4-((2S)-2-amino-3-hydroxy-3-oxopropyl)-1-methyl-1H-pyrazole-5-carboxylic acid

>  <TYPE>  (798) 
Backbone

>  <CLASS>  (798) 
alpha

>  <ANALOG>  (798) 
Phe

>  <MOL_WT>  (798) 
213.19299999999998

>  <LOGP>  (798) 
-0.9272999999999998

>  <TPSA>  (798) 
118.44000000000001

>  <POPULARITY>  (798) 
2.2

>  <PROTECTED>  (798) 
TRUE

>  <SMILES>  (798) 
N[C@@H](Cc1(cnn(C)c1C(=O)O))C(=O)O

>  <INCHIKEY>  (798) 
SICBZKXWCUKBDH-YFKPBYRVSA-N

$$$$
Ala_pyrazol4yl_1Me_5NH2
     RDKit          2D

 13 13  0  0  0  0  0  0  0  0999 V2000
   -1.1346    1.5258    0.0000 N   0  0  0  0  0  0  0  0  0  0  0  0
   -1.6949    0.1343    0.0000 C   0  0  0  0  0  0  0  0  0  0  0  0
   -0.7699   -1.0466    0.0000 C   0  0  0  0  0  0  0  0  0  0  0  0
    0.7152   -0.8360    0.0000 C   0  0  0  0  0  0  0  0  0  0  0  0
    1.7585   -1.9138    0.0000 C   0  0  0  0  0  0  0  0  0  0  0  0
    3.1059   -1.2546    0.0000 N   0  0  0  0  0  0  0  0  0  0  0  0
    2.8954    0.2305    0.0000 N   0  0  0  0  0  0  0  0  0  0  0  0
    3.9731    1.2738    0.0000 C   0  0  0  0  0  0  0  0  0  0  0  0
    1.4178    0.4892    0.0000 C   0  0  0  0  0  0  0  0  0  0  0  0
    0.7586    1.8366    0.0000 N   0  0  0  0  0  0  0  0  0  0  0  0
   -3.1800   -0.0762    0.0000 C   0  0  0  0  0  0  0  0  0  0  0  0
   -3.7402   -1.4677    0.0000 O   0  0  0  0  0  0  0  0  0  0  0  0
   -4.1049    1.1047    0.0000 O   0  0  0  0  0  0  0  0  0  0  0  0
  2  1  1  1
  2  3  1  0
  3  4  1  0
  4  5  1  0
  5  6  2  0
  6  7  1  0
  7  8  1  0
  7  9  1  0
  9 10  1  0
  2 11  1  0
 11 12  2  0
 11 13  1  0
  9  4  2  0
M  END
>  <rName>  (799) 
Ala_pyrazol4yl_1Me_5NH2

>  <PQ_SYMBOL>  (799) 
Ala_pyrazol4yl_1Me_5NH2

>  <FULL_NAME>  (799) 
(S)-2-amino-3-(5-amino-1-methyl-1H-pyrazol-4-yl)propanoic acid

>  <IUPAC_CONDENSED>  (799) 
Ala(pyrazol-4-yl(1-Me,5-NH2))

>  <IUPAC>  (799) 
(2S)-2-amino-3-(5-amino-1-methyl-1H-pyrazol-4-yl)propanoic acid

>  <TYPE>  (799) 
Backbone

>  <CLASS>  (799) 
alpha

>  <ANALOG>  (799) 
Phe

>  <MOL_WT>  (799) 
184.19899999999998

>  <LOGP>  (799) 
-1.043299999999999

>  <TPSA>  (799) 
107.16000000000001

>  <POPULARITY>  (799) 
6.2

>  <PROTECTED>  (799) 
TRUE

>  <SMILES>  (799) 
N[C@@H](Cc1(cnn(C)c1N))C(=O)O

>  <INCHIKEY>  (799) 
LAHFHLKXFRIOGZ-YFKPBYRVSA-N

$$$$
Ala_pyrazol4yl_1cPr
     RDKit          2D

 14 15  0  0  0  0  0  0  0  0999 V2000
    1.5358   -1.6205    0.0000 N   0  0  0  0  0  0  0  0  0  0  0  0
    2.3172   -0.3402    0.0000 C   0  0  0  0  0  0  0  0  0  0  0  0
    1.5991    0.9768    0.0000 C   0  0  0  0  0  0  0  0  0  0  0  0
    0.0995    1.0133    0.0000 C   0  0  0  0  0  0  0  0  0  0  0  0
   -0.7523    2.2480    0.0000 C   0  0  0  0  0  0  0  0  0  0  0  0
   -2.1898    1.8194    0.0000 N   0  0  0  0  0  0  0  0  0  0  0  0
   -2.2263    0.3198    0.0000 N   0  0  0  0  0  0  0  0  0  0  0  0
   -0.8115   -0.1783    0.0000 C   0  0  0  0  0  0  0  0  0  0  0  0
   -3.4610   -0.5320    0.0000 C   0  0  0  0  0  0  0  0  0  0  0  0
   -4.1043   -1.8871    0.0000 C   0  0  0  0  0  0  0  0  0  0  0  0
   -4.9561   -0.6524    0.0000 C   0  0  0  0  0  0  0  0  0  0  0  0
    3.8167   -0.3767    0.0000 C   0  0  0  0  0  0  0  0  0  0  0  0
    4.5982    0.9036    0.0000 O   0  0  0  0  0  0  0  0  0  0  0  0
    4.5349   -1.6937    0.0000 O   0  0  0  0  0  0  0  0  0  0  0  0
  2  1  1  1
  2  3  1  0
  3  4  1  0
  4  5  1  0
  5  6  2  0
  6  7  1  0
  7  8  1  0
  7  9  1  0
  9 10  1  0
 10 11  1  0
  2 12  1  0
 12 13  2  0
 12 14  1  0
  8  4  2  0
 11  9  1  0
M  END
>  <rName>  (800) 
Ala_pyrazol4yl_1cPr

>  <PQ_SYMBOL>  (800) 
Ala_pyrazol4yl_1cPr

>  <FULL_NAME>  (800) 
(S)-2-amino-3-(1-cyclopropyl-1H-pyrazol-4-yl)propanoic acid

>  <IUPAC_CONDENSED>  (800) 
Ala(pyrazol-4-yl(1-cPr))

>  <IUPAC>  (800) 
(2S)-2-amino-3-(1-cyclopropyl-1H-pyrazol-4-yl)propanoic acid

>  <TYPE>  (800) 
Backbone

>  <CLASS>  (800) 
alpha

>  <ANALOG>  (800) 
Phe

>  <MOL_WT>  (800) 
195.22199999999995

>  <LOGP>  (800) 
0.1723999999999996

>  <TPSA>  (800) 
81.14

>  <POPULARITY>  (800) 
3.7

>  <PROTECTED>  (800) 
TRUE

>  <SMILES>  (800) 
N[C@@H](Cc1(cnn(c1)C2(CC2)))C(=O)O

>  <INCHIKEY>  (800) 
SLIYNMICHQBXBH-QMMMGPOBSA-N

$$$$
Ala_pyrazol4yl_1iBu
     RDKit          2D

 15 15  0  0  0  0  0  0  0  0999 V2000
   -2.1401    1.6740    0.0000 N   0  0  0  0  0  0  0  0  0  0  0  0
   -2.8064    0.3301    0.0000 C   0  0  0  0  0  0  0  0  0  0  0  0
   -1.9757   -0.9189    0.0000 C   0  0  0  0  0  0  0  0  0  0  0  0
   -0.4787   -0.8240    0.0000 C   0  0  0  0  0  0  0  0  0  0  0  0
    0.4780   -1.9793    0.0000 C   0  0  0  0  0  0  0  0  0  0  0  0
    1.8724   -1.4264    0.0000 N   0  0  0  0  0  0  0  0  0  0  0  0
    1.7775    0.0706    0.0000 N   0  0  0  0  0  0  0  0  0  0  0  0
    0.3244    0.4429    0.0000 C   0  0  0  0  0  0  0  0  0  0  0  0
    2.9328    1.0273    0.0000 C   0  0  0  0  0  0  0  0  0  0  0  0
    4.3389    0.5052    0.0000 C   0  0  0  0  0  0  0  0  0  0  0  0
    5.4942    1.4619    0.0000 C   0  0  0  0  0  0  0  0  0  0  0  0
    4.5898   -0.9737    0.0000 C   0  0  0  0  0  0  0  0  0  0  0  0
   -4.3034    0.2351    0.0000 C   0  0  0  0  0  0  0  0  0  0  0  0
   -4.9697   -1.1088    0.0000 O   0  0  0  0  0  0  0  0  0  0  0  0
   -5.1341    1.4841    0.0000 O   0  0  0  0  0  0  0  0  0  0  0  0
  2  1  1  1
  2  3  1  0
  3  4  1  0
  4  5  1  0
  5  6  2  0
  6  7  1  0
  7  8  1  0
  7  9  1  0
  9 10  1  0
 10 11  1  0
 10 12  1  0
  2 13  1  0
 13 14  2  0
 13 15  1  0
  8  4  2  0
M  END
>  <rName>  (801) 
Ala_pyrazol4yl_1iBu

>  <PQ_SYMBOL>  (801) 
Ala_pyrazol4yl_1iBu

>  <FULL_NAME>  (801) 
(S)-2-amino-3-(1-isobutyl-1H-pyrazol-4-yl)propanoic acid

>  <IUPAC_CONDENSED>  (801) 
Ala(pyrazol-4-yl(1-iBu))

>  <IUPAC>  (801) 
(2S)-2-amino-3-(1-(2-methylpropyl)-1H-pyrazol-4-yl)propanoic acid

>  <TYPE>  (801) 
Backbone

>  <CLASS>  (801) 
alpha

>  <ANALOG>  (801) 
Phe

>  <MOL_WT>  (801) 
211.265

>  <LOGP>  (801) 
0.49349999999999955

>  <TPSA>  (801) 
81.14

>  <POPULARITY>  (801) 
3.3

>  <PROTECTED>  (801) 
TRUE

>  <SMILES>  (801) 
N[C@@H](Cc1(cnn(c1)CC(C)C))C(=O)O

>  <INCHIKEY>  (801) 
KOJUSTKPKCMFJP-VIFPVBQESA-N

$$$$
Ala_pyrazol4yl_1tBu
     RDKit          2D

 15 15  0  0  0  0  0  0  0  0999 V2000
   -1.7469    1.5828    0.0000 N   0  0  0  0  0  0  0  0  0  0  0  0
   -2.4957    0.2831    0.0000 C   0  0  0  0  0  0  0  0  0  0  0  0
   -1.7444   -1.0152    0.0000 C   0  0  0  0  0  0  0  0  0  0  0  0
   -0.2444   -1.0137    0.0000 C   0  0  0  0  0  0  0  0  0  0  0  0
    0.6385   -2.2264    0.0000 C   0  0  0  0  0  0  0  0  0  0  0  0
    2.0646   -1.7615    0.0000 N   0  0  0  0  0  0  0  0  0  0  0  0
    2.0632   -0.2615    0.0000 N   0  0  0  0  0  0  0  0  0  0  0  0
    0.6361    0.2006    0.0000 C   0  0  0  0  0  0  0  0  0  0  0  0
    3.2758    0.6214    0.0000 C   0  0  0  0  0  0  0  0  0  0  0  0
    4.1587   -0.5913    0.0000 C   0  0  0  0  0  0  0  0  0  0  0  0
    2.3929    1.8341    0.0000 C   0  0  0  0  0  0  0  0  0  0  0  0
    4.4885    1.5043    0.0000 C   0  0  0  0  0  0  0  0  0  0  0  0
   -3.9956    0.2816    0.0000 C   0  0  0  0  0  0  0  0  0  0  0  0
   -4.7444   -1.0182    0.0000 O   0  0  0  0  0  0  0  0  0  0  0  0
   -4.7469    1.5799    0.0000 O   0  0  0  0  0  0  0  0  0  0  0  0
  2  1  1  1
  2  3  1  0
  3  4  1  0
  4  5  1  0
  5  6  2  0
  6  7  1  0
  7  8  1  0
  7  9  1  0
  9 10  1  0
  9 11  1  0
  9 12  1  0
  2 13  1  0
 13 14  2  0
 13 15  1  0
  8  4  2  0
M  END
>  <rName>  (802) 
Ala_pyrazol4yl_1tBu

>  <PQ_SYMBOL>  (802) 
Ala_pyrazol4yl_1tBu

>  <FULL_NAME>  (802) 
Ala(pyrazol-4-yl(1-tBu))

>  <IUPAC_CONDENSED>  (802) 
Ala(pyrazol-4-yl(1-tBu))

>  <IUPAC>  (802) 
(2S)-2-amino-3-(1-(tert-butyl)-1H-pyrazol-4-yl)propanoic acid

>  <TYPE>  (802) 
Backbone

>  <CLASS>  (802) 
alpha

>  <ANALOG>  (802) 
Phe

>  <MOL_WT>  (802) 
211.265

>  <LOGP>  (802) 
0.5924999999999994

>  <TPSA>  (802) 
81.14

>  <POPULARITY>  (802) 
2.2

>  <PROTECTED>  (802) 
TRUE

>  <SMILES>  (802) 
N[C@@H](Cc1(cnn(c1)C(C)(C)C))C(=O)O

>  <INCHIKEY>  (802) 
CNDKLCCCLBRRKV-QMMMGPOBSA-N

$$$$
Ala_pyrazol4yl_3CF3_5Me
     RDKit          2D

 16 16  0  0  0  0  0  0  0  0999 V2000
   -2.4102    1.4904    0.0000 N   0  0  0  0  0  0  0  0  0  0  0  0
   -2.1426    0.0144    0.0000 C   0  0  0  0  0  0  0  0  0  0  0  0
   -0.7307   -0.4919    0.0000 C   0  0  0  0  0  0  0  0  0  0  0  0
    0.4138    0.4778    0.0000 C   0  0  0  0  0  0  0  0  0  0  0  0
    1.8709    0.1218    0.0000 C   0  0  0  0  0  0  0  0  0  0  0  0
    2.6597    1.3977    0.0000 N   0  0  0  0  0  0  0  0  0  0  0  0
    1.6901    2.5421    0.0000 N   0  0  0  0  0  0  0  0  0  0  0  0
    0.3020    1.9736    0.0000 C   0  0  0  0  0  0  0  0  0  0  0  0
   -0.9738    2.7624    0.0000 C   0  0  0  0  0  0  0  0  0  0  0  0
    2.4395   -1.2662    0.0000 C   0  0  0  0  0  0  0  0  0  0  0  0
    3.0080   -2.6543    0.0000 F   0  0  0  0  0  0  0  0  0  0  0  0
    3.8276   -0.6977    0.0000 F   0  0  0  0  0  0  0  0  0  0  0  0
    1.0514   -1.8348    0.0000 F   0  0  0  0  0  0  0  0  0  0  0  0
   -3.2871   -0.9552    0.0000 C   0  0  0  0  0  0  0  0  0  0  0  0
   -3.0196   -2.4312    0.0000 O   0  0  0  0  0  0  0  0  0  0  0  0
   -4.6991   -0.4489    0.0000 O   0  0  0  0  0  0  0  0  0  0  0  0
  2  1  1  1
  2  3  1  0
  3  4  1  0
  4  5  1  0
  5  6  2  0
  6  7  1  0
  7  8  1  0
  8  9  1  0
  5 10  1  0
 10 11  1  0
 10 12  1  0
 10 13  1  0
  2 14  1  0
 14 15  2  0
 14 16  1  0
  8  4  2  0
M  END
>  <rName>  (803) 
Ala_pyrazol4yl_3CF3_5Me

>  <PQ_SYMBOL>  (803) 
Ala_pyrazol4yl_3CF3_5Me

>  <FULL_NAME>  (803) 
(S)-2-amino-3-(5-methyl-3-(trifluoromethyl)-1H-pyrazol-4-yl)propanoic acid

>  <IUPAC_CONDENSED>  (803) 
Ala(pyrazol-4-yl(3-CF3,5-Me))

>  <IUPAC>  (803) 
(2S)-2-amino-3-(5-methyl-3-(trifluoromethyl)-1H-pyrazol-4-yl)propanoic acid

>  <TYPE>  (803) 
Backbone

>  <CLASS>  (803) 
alpha

>  <ANALOG>  (803) 
Phe

>  <MOL_WT>  (803) 
237.18099999999995

>  <LOGP>  (803) 
0.6913200000000002

>  <TPSA>  (803) 
92.0

>  <POPULARITY>  (803) 
2.4

>  <PROTECTED>  (803) 
TRUE

>  <SMILES>  (803) 
N[C@@H](Cc1(c(n[nH]c1C)C(F)(F)F))C(=O)O

>  <INCHIKEY>  (803) 
XXDBLZYLWPJECP-YFKPBYRVSA-N

$$$$
Ala_pyrazol4yl_5CF3
     RDKit          2D

 15 15  0  0  0  0  0  0  0  0999 V2000
    2.3969    1.7847    0.0000 N   0  0  0  0  0  0  0  0  0  0  0  0
    2.1963    0.2982    0.0000 C   0  0  0  0  0  0  0  0  0  0  0  0
    0.8087   -0.2714    0.0000 C   0  0  0  0  0  0  0  0  0  0  0  0
   -0.3784    0.6455    0.0000 C   0  0  0  0  0  0  0  0  0  0  0  0
   -0.3344    2.1448    0.0000 C   0  0  0  0  0  0  0  0  0  0  0  0
   -1.7467    2.6501    0.0000 N   0  0  0  0  0  0  0  0  0  0  0  0
   -2.6637    1.4630    0.0000 N   0  0  0  0  0  0  0  0  0  0  0  0
   -1.8180    0.2241    0.0000 C   0  0  0  0  0  0  0  0  0  0  0  0
   -2.3232   -1.1883    0.0000 C   0  0  0  0  0  0  0  0  0  0  0  0
   -2.8284   -2.6007    0.0000 F   0  0  0  0  0  0  0  0  0  0  0  0
   -0.9109   -1.6935    0.0000 F   0  0  0  0  0  0  0  0  0  0  0  0
   -3.7356   -0.6831    0.0000 F   0  0  0  0  0  0  0  0  0  0  0  0
    3.3834   -0.6188    0.0000 C   0  0  0  0  0  0  0  0  0  0  0  0
    3.1829   -2.1053    0.0000 O   0  0  0  0  0  0  0  0  0  0  0  0
    4.7711   -0.0492    0.0000 O   0  0  0  0  0  0  0  0  0  0  0  0
  2  1  1  6
  2  3  1  0
  3  4  1  0
  4  5  1  0
  5  6  2  0
  6  7  1  0
  7  8  1  0
  8  9  1  0
  9 10  1  0
  9 11  1  0
  9 12  1  0
  2 13  1  0
 13 14  2  0
 13 15  1  0
  8  4  2  0
M  END
>  <rName>  (804) 
Ala_pyrazol4yl_5CF3

>  <PQ_SYMBOL>  (804) 
Ala_pyrazol4yl_5CF3

>  <FULL_NAME>  (804) 
(S)-2-amino-3-(5-(trifluoromethyl)-1H-pyrazol-4-yl)propanoic acid

>  <IUPAC_CONDENSED>  (804) 
Ala(pyrazol-4-yl(5-CF3))

>  <IUPAC>  (804) 
(2S)-2-amino-3-(5-(trifluoromethyl)-1H-pyrazol-4-yl)propanoic acid

>  <TYPE>  (804) 
Backbone

>  <CLASS>  (804) 
alpha

>  <ANALOG>  (804) 
Phe

>  <MOL_WT>  (804) 
223.15399999999997

>  <LOGP>  (804) 
0.38290000000000024

>  <TPSA>  (804) 
92.0

>  <POPULARITY>  (804) 
2.6

>  <PROTECTED>  (804) 
TRUE

>  <SMILES>  (804) 
N[C@@H](Cc1(cn[nH]c1C(F)(F)F))C(=O)O

>  <INCHIKEY>  (804) 
OIIQGXBAVJMXLC-BYPYZUCNSA-N

$$$$
Ala_pyrazol5yl_1Me
     RDKit          2D

 12 12  0  0  0  0  0  0  0  0999 V2000
   -0.9675    1.5404    0.0000 N   0  0  0  0  0  0  0  0  0  0  0  0
   -1.3813    0.0986    0.0000 C   0  0  0  0  0  0  0  0  0  0  0  0
   -0.3395   -0.9807    0.0000 C   0  0  0  0  0  0  0  0  0  0  0  0
    1.1160   -0.6181    0.0000 C   0  0  0  0  0  0  0  0  0  0  0  0
    2.2649   -1.5825    0.0000 C   0  0  0  0  0  0  0  0  0  0  0  0
    3.5371   -0.7879    0.0000 C   0  0  0  0  0  0  0  0  0  0  0  0
    3.1745    0.6676    0.0000 N   0  0  0  0  0  0  0  0  0  0  0  0
    1.6782    0.7725    0.0000 N   0  0  0  0  0  0  0  0  0  0  0  0
    0.8836    2.0448    0.0000 C   0  0  0  0  0  0  0  0  0  0  0  0
   -2.8368   -0.2640    0.0000 C   0  0  0  0  0  0  0  0  0  0  0  0
   -3.2506   -1.7058    0.0000 O   0  0  0  0  0  0  0  0  0  0  0  0
   -3.8786    0.8152    0.0000 O   0  0  0  0  0  0  0  0  0  0  0  0
  2  1  1  1
  2  3  1  0
  3  4  1  0
  4  5  2  0
  5  6  1  0
  6  7  2  0
  7  8  1  0
  8  9  1  0
  2 10  1  0
 10 11  2  0
 10 12  1  0
  8  4  1  0
M  END
>  <rName>  (805) 
Ala_pyrazol5yl_1Me

>  <PQ_SYMBOL>  (805) 
Ala_pyrazol5yl_1Me

>  <FULL_NAME>  (805) 
(S)-2-amino-3-(1-methyl-1H-pyrazol-5-yl)propanoic acid

>  <IUPAC_CONDENSED>  (805) 
Ala(pyrazol-5-yl(1-Me))

>  <IUPAC>  (805) 
(2S)-2-amino-3-(1-methyl-1H-pyrazol-5-yl)propanoic acid

>  <TYPE>  (805) 
Backbone

>  <CLASS>  (805) 
alpha

>  <ANALOG>  (805) 
Phe

>  <MOL_WT>  (805) 
169.184

>  <LOGP>  (805) 
-0.6255000000000002

>  <TPSA>  (805) 
81.14

>  <POPULARITY>  (805) 
3.9

>  <PROTECTED>  (805) 
TRUE

>  <SMILES>  (805) 
N[C@@H](Cc1(ccnn1C))C(=O)O

>  <INCHIKEY>  (805) 
HUGPTUGINQUZCX-LURJTMIESA-N

$$$$
Ala_pyrazolo1_5apyridin3yl
     RDKit          2D

 15 16  0  0  0  0  0  0  0  0999 V2000
   -2.6183   -1.7023    0.0000 N   0  0  0  0  0  0  0  0  0  0  0  0
   -2.5622   -0.2034    0.0000 C   0  0  0  0  0  0  0  0  0  0  0  0
   -1.2360    0.4975    0.0000 C   0  0  0  0  0  0  0  0  0  0  0  0
    0.0341   -0.3006    0.0000 C   0  0  0  0  0  0  0  0  0  0  0  0
    0.1349   -1.7972    0.0000 C   0  0  0  0  0  0  0  0  0  0  0  0
    1.5895   -2.1637    0.0000 N   0  0  0  0  0  0  0  0  0  0  0  0
    2.3875   -0.8937    0.0000 N   0  0  0  0  0  0  0  0  0  0  0  0
    3.8654   -0.6369    0.0000 C   0  0  0  0  0  0  0  0  0  0  0  0
    4.3820    0.7713    0.0000 C   0  0  0  0  0  0  0  0  0  0  0  0
    3.4207    1.9228    0.0000 C   0  0  0  0  0  0  0  0  0  0  0  0
    1.9429    1.6661    0.0000 C   0  0  0  0  0  0  0  0  0  0  0  0
    1.4263    0.2578    0.0000 C   0  0  0  0  0  0  0  0  0  0  0  0
   -3.8322    0.5947    0.0000 C   0  0  0  0  0  0  0  0  0  0  0  0
   -3.7761    2.0937    0.0000 O   0  0  0  0  0  0  0  0  0  0  0  0
   -5.1584   -0.1061    0.0000 O   0  0  0  0  0  0  0  0  0  0  0  0
  2  1  1  6
  2  3  1  0
  3  4  1  0
  4  5  1  0
  5  6  2  0
  6  7  1  0
  7  8  1  0
  8  9  2  0
  9 10  1  0
 10 11  2  0
 11 12  1  0
  2 13  1  0
 13 14  2  0
 13 15  1  0
 12  7  1  0
 12  4  2  0
M  END
>  <rName>  (806) 
Ala_pyrazolo1_5apyridin3yl

>  <PQ_SYMBOL>  (806) 
Ala_pyrazolo1_5apyridin3yl

>  <FULL_NAME>  (806) 
(S)-2-amino-3-(pyrazolo[1,5-a]pyridin-3-yl)propanoic acid

>  <IUPAC_CONDENSED>  (806) 
Ala(pyrazolo[1,5-a]pyridin-3-yl)

>  <IUPAC>  (806) 
(2S)-2-amino-3-(1,9-diazabicyclo[4.3.0]nona-2,4,6,8-tetraen-7-yl)propanoic acid

>  <TYPE>  (806) 
Backbone

>  <CLASS>  (806) 
alpha

>  <ANALOG>  (806) 
Phe

>  <MOL_WT>  (806) 
205.21699999999998

>  <LOGP>  (806) 
0.28869999999999946

>  <TPSA>  (806) 
80.61999999999999

>  <POPULARITY>  (806) 
2.7

>  <PROTECTED>  (806) 
TRUE

>  <SMILES>  (806) 
N[C@@H](Cc2(cnn1(ccccc12)))C(=O)O

>  <INCHIKEY>  (806) 
KPOIYQLWQBUZIS-QMMMGPOBSA-N

$$$$
Ala_pyrazolopyridinyl
     RDKit          2D

 15 16  0  0  0  0  0  0  0  0999 V2000
    2.3960   -1.7012    0.0000 N   0  0  0  0  0  0  0  0  0  0  0  0
    2.3823   -0.2013    0.0000 C   0  0  0  0  0  0  0  0  0  0  0  0
    1.0765    0.5368    0.0000 C   0  0  0  0  0  0  0  0  0  0  0  0
   -0.2156   -0.2250    0.0000 C   0  0  0  0  0  0  0  0  0  0  0  0
   -0.2020   -1.7249    0.0000 C   0  0  0  0  0  0  0  0  0  0  0  0
   -1.4941   -2.4867    0.0000 C   0  0  0  0  0  0  0  0  0  0  0  0
   -2.7999   -1.7486    0.0000 N   0  0  0  0  0  0  0  0  0  0  0  0
   -2.8136   -0.2486    0.0000 C   0  0  0  0  0  0  0  0  0  0  0  0
   -3.9374    0.7448    0.0000 N   0  0  0  0  0  0  0  0  0  0  0  0
   -3.3398    2.1207    0.0000 N   0  0  0  0  0  0  0  0  0  0  0  0
   -1.8467    1.9775    0.0000 C   0  0  0  0  0  0  0  0  0  0  0  0
   -1.5214    0.5132    0.0000 C   0  0  0  0  0  0  0  0  0  0  0  0
    3.6745    0.5605    0.0000 C   0  0  0  0  0  0  0  0  0  0  0  0
    3.6608    2.0605    0.0000 O   0  0  0  0  0  0  0  0  0  0  0  0
    4.9803   -0.1776    0.0000 O   0  0  0  0  0  0  0  0  0  0  0  0
  2  1  1  1
  2  3  1  0
  3  4  1  0
  4  5  1  0
  5  6  2  0
  6  7  1  0
  7  8  2  0
  8  9  1  0
  9 10  1  0
 10 11  2  0
 11 12  1  0
  2 13  1  0
 13 14  2  0
 13 15  1  0
 12  8  1  0
 12  4  2  0
M  END
>  <rName>  (807) 
Ala_pyrazolopyridinyl

>  <PQ_SYMBOL>  (807) 
Ala_pyrazolopyridinyl

>  <FULL_NAME>  (807) 
(S)-2-amino-3-(1H-pyrazolo[3,4-b]pyridin-4-yl)propanoic acid

>  <IUPAC_CONDENSED>  (807) 
Ala(pyrazolopyridinyl)

>  <IUPAC>  (807) 
(2S)-2-amino-3-(2,8,9-triazabicyclo[4.3.0]nona-1(6),2,4,7-tetraen-5-yl)propanoic acid

>  <TYPE>  (807) 
Backbone

>  <CLASS>  (807) 
alpha

>  <ANALOG>  (807) 
Phe

>  <MOL_WT>  (807) 
206.20499999999998

>  <LOGP>  (807) 
-0.08770000000000039

>  <TPSA>  (807) 
104.89

>  <POPULARITY>  (807) 
2.4

>  <PROTECTED>  (807) 
TRUE

>  <SMILES>  (807) 
N[C@@H](Cc2(ccnc1([nH]ncc12)))C(=O)O

>  <INCHIKEY>  (807) 
GYCRZNVIRVOGOG-ZETCQYMHSA-N

$$$$
Ala_pyren1yl
     RDKit          2D

 22 25  0  0  0  0  0  0  0  0999 V2000
   -4.1937   -1.5901    0.0000 N   0  0  0  0  0  0  0  0  0  0  0  0
   -4.0904   -0.0937    0.0000 C   0  0  0  0  0  0  0  0  0  0  0  0
   -2.7428    0.5651    0.0000 C   0  0  0  0  0  0  0  0  0  0  0  0
   -1.4985   -0.2725    0.0000 C   0  0  0  0  0  0  0  0  0  0  0  0
   -1.6017   -1.7689    0.0000 C   0  0  0  0  0  0  0  0  0  0  0  0
   -0.3574   -2.6066    0.0000 C   0  0  0  0  0  0  0  0  0  0  0  0
    0.9902   -1.9478    0.0000 C   0  0  0  0  0  0  0  0  0  0  0  0
    2.2345   -2.7854    0.0000 C   0  0  0  0  0  0  0  0  0  0  0  0
    3.5821   -2.1266    0.0000 C   0  0  0  0  0  0  0  0  0  0  0  0
    3.6853   -0.6302    0.0000 C   0  0  0  0  0  0  0  0  0  0  0  0
    5.0329    0.0286    0.0000 C   0  0  0  0  0  0  0  0  0  0  0  0
    5.1362    1.5251    0.0000 C   0  0  0  0  0  0  0  0  0  0  0  0
    3.8918    2.3627    0.0000 C   0  0  0  0  0  0  0  0  0  0  0  0
    2.5443    1.7039    0.0000 C   0  0  0  0  0  0  0  0  0  0  0  0
    1.2999    2.5416    0.0000 C   0  0  0  0  0  0  0  0  0  0  0  0
   -0.0477    1.8827    0.0000 C   0  0  0  0  0  0  0  0  0  0  0  0
   -0.1509    0.3863    0.0000 C   0  0  0  0  0  0  0  0  0  0  0  0
    1.0934   -0.4513    0.0000 C   0  0  0  0  0  0  0  0  0  0  0  0
    2.4410    0.2075    0.0000 C   0  0  0  0  0  0  0  0  0  0  0  0
   -5.3347    0.7440    0.0000 C   0  0  0  0  0  0  0  0  0  0  0  0
   -5.2315    2.2404    0.0000 O   0  0  0  0  0  0  0  0  0  0  0  0
   -6.6823    0.0852    0.0000 O   0  0  0  0  0  0  0  0  0  0  0  0
  2  1  1  6
  2  3  1  0
  3  4  1  0
  4  5  1  0
  5  6  2  0
  6  7  1  0
  7  8  2  0
  8  9  1  0
  9 10  2  0
 10 11  1  0
 11 12  2  0
 12 13  1  0
 13 14  2  0
 14 15  1  0
 15 16  2  0
 16 17  1  0
 17 18  1  0
 18 19  2  0
  2 20  1  0
 20 21  2  0
 20 22  1  0
 17  4  2  0
 18  7  1  0
 19 10  1  0
 19 14  1  0
M  END
>  <rName>  (808) 
Ala_pyren1yl

>  <PQ_SYMBOL>  (808) 
Ala_pyren1yl

>  <FULL_NAME>  (808) 
1-Pyrenylalanine

>  <IUPAC_CONDENSED>  (808) 
Ala(pyren-1-yl)

>  <IUPAC>  (808) 
(2S)-2-amino-3-pyren-1-ylpropanoic acid

>  <TYPE>  (808) 
Backbone

>  <CLASS>  (808) 
alpha

>  <ANALOG>  (808) 
Phe

>  <MOL_WT>  (808) 
289.334

>  <LOGP>  (808) 
3.538400000000002

>  <TPSA>  (808) 
63.32000000000001

>  <POPULARITY>  (808) 
5.2

>  <PROTECTED>  (808) 
TRUE

>  <SMILES>  (808) 
N[C@@H](Cc1(ccc2(ccc3(cccc4(ccc1c2c34)))))C(=O)O

>  <INCHIKEY>  (808) 
VTMOPDBUZPBOPL-INIZCTEOSA-N

$$$$
Ala_pyrid2yl_3F
     RDKit          2D

 13 13  0  0  0  0  0  0  0  0999 V2000
   -1.4864    1.8099    0.0000 N   0  0  0  0  0  0  0  0  0  0  0  0
   -1.7669    0.3364    0.0000 C   0  0  0  0  0  0  0  0  0  0  0  0
   -0.6311   -0.6433    0.0000 C   0  0  0  0  0  0  0  0  0  0  0  0
    0.7853   -0.1495    0.0000 C   0  0  0  0  0  0  0  0  0  0  0  0
    1.0658    1.3241    0.0000 N   0  0  0  0  0  0  0  0  0  0  0  0
    2.4822    1.8179    0.0000 C   0  0  0  0  0  0  0  0  0  0  0  0
    3.6181    0.8382    0.0000 C   0  0  0  0  0  0  0  0  0  0  0  0
    3.3376   -0.6353    0.0000 C   0  0  0  0  0  0  0  0  0  0  0  0
    1.9212   -1.1292    0.0000 C   0  0  0  0  0  0  0  0  0  0  0  0
    1.6407   -2.6027    0.0000 F   0  0  0  0  0  0  0  0  0  0  0  0
   -3.1833   -0.1575    0.0000 C   0  0  0  0  0  0  0  0  0  0  0  0
   -3.4638   -1.6310    0.0000 O   0  0  0  0  0  0  0  0  0  0  0  0
   -4.3192    0.8222    0.0000 O   0  0  0  0  0  0  0  0  0  0  0  0
  2  1  1  1
  2  3  1  0
  3  4  1  0
  4  5  2  0
  5  6  1  0
  6  7  2  0
  7  8  1  0
  8  9  2  0
  9 10  1  0
  2 11  1  0
 11 12  2  0
 11 13  1  0
  9  4  1  0
M  END
>  <rName>  (809) 
Ala_pyrid2yl_3F

>  <PQ_SYMBOL>  (809) 
Ala_pyrid2yl_3F

>  <FULL_NAME>  (809) 
(S)-2-amino-3-(3-fluoropyridin-2-yl)propanoic acid

>  <IUPAC_CONDENSED>  (809) 
Ala(pyrid-2-yl(3-F))

>  <IUPAC>  (809) 
(2S)-2-amino-3-(3-fluoropyridin-2-yl)propanoic acid

>  <TYPE>  (809) 
Backbone

>  <CLASS>  (809) 
alpha

>  <ANALOG>  (809) 
Phe

>  <MOL_WT>  (809) 
184.16999999999996

>  <LOGP>  (809) 
0.17509999999999953

>  <TPSA>  (809) 
76.21

>  <POPULARITY>  (809) 
3.3

>  <PROTECTED>  (809) 
TRUE

>  <SMILES>  (809) 
N[C@@H](Cc1(ncccc1F))C(=O)O

>  <INCHIKEY>  (809) 
NKPHSFPWSMDVDY-LURJTMIESA-N

$$$$
Ala_pyrid2yl_3Me
     RDKit          2D

 13 13  0  0  0  0  0  0  0  0999 V2000
   -1.4864    1.8099    0.0000 N   0  0  0  0  0  0  0  0  0  0  0  0
   -1.7669    0.3364    0.0000 C   0  0  0  0  0  0  0  0  0  0  0  0
   -0.6311   -0.6433    0.0000 C   0  0  0  0  0  0  0  0  0  0  0  0
    0.7853   -0.1495    0.0000 C   0  0  0  0  0  0  0  0  0  0  0  0
    1.0658    1.3241    0.0000 N   0  0  0  0  0  0  0  0  0  0  0  0
    2.4822    1.8179    0.0000 C   0  0  0  0  0  0  0  0  0  0  0  0
    3.6181    0.8382    0.0000 C   0  0  0  0  0  0  0  0  0  0  0  0
    3.3376   -0.6353    0.0000 C   0  0  0  0  0  0  0  0  0  0  0  0
    1.9212   -1.1292    0.0000 C   0  0  0  0  0  0  0  0  0  0  0  0
    1.6407   -2.6027    0.0000 C   0  0  0  0  0  0  0  0  0  0  0  0
   -3.1833   -0.1575    0.0000 C   0  0  0  0  0  0  0  0  0  0  0  0
   -3.4638   -1.6310    0.0000 O   0  0  0  0  0  0  0  0  0  0  0  0
   -4.3192    0.8222    0.0000 O   0  0  0  0  0  0  0  0  0  0  0  0
  2  1  1  1
  2  3  1  0
  3  4  1  0
  4  5  2  0
  5  6  1  0
  6  7  2  0
  7  8  1  0
  8  9  2  0
  9 10  1  0
  2 11  1  0
 11 12  2  0
 11 13  1  0
  9  4  1  0
M  END
>  <rName>  (810) 
Ala_pyrid2yl_3Me

>  <PQ_SYMBOL>  (810) 
Ala_pyrid2yl_3Me

>  <FULL_NAME>  (810) 
(S)-2-amino-3-(3-methylpyridin-2-yl)propanoic acid

>  <IUPAC_CONDENSED>  (810) 
Ala(pyrid-2-yl(3-Me))

>  <IUPAC>  (810) 
(2S)-2-amino-3-(3-methylpyridin-2-yl)propanoic acid

>  <TYPE>  (810) 
Backbone

>  <CLASS>  (810) 
alpha

>  <ANALOG>  (810) 
Phe

>  <MOL_WT>  (810) 
180.20699999999997

>  <LOGP>  (810) 
0.34441999999999967

>  <TPSA>  (810) 
76.21

>  <POPULARITY>  (810) 
5.0

>  <PROTECTED>  (810) 
TRUE

>  <SMILES>  (810) 
N[C@@H](Cc1(ncccc1C))C(=O)O

>  <INCHIKEY>  (810) 
OHRRKEYAYSAHJG-ZETCQYMHSA-N

$$$$
Ala_pyrid2yl_3OMe
     RDKit          2D

 14 14  0  0  0  0  0  0  0  0999 V2000
   -1.9781    1.7869    0.0000 N   0  0  0  0  0  0  0  0  0  0  0  0
   -2.0323    0.2879    0.0000 C   0  0  0  0  0  0  0  0  0  0  0  0
   -0.7612   -0.5086    0.0000 C   0  0  0  0  0  0  0  0  0  0  0  0
    0.5641    0.1940    0.0000 C   0  0  0  0  0  0  0  0  0  0  0  0
    0.6183    1.6931    0.0000 N   0  0  0  0  0  0  0  0  0  0  0  0
    1.9435    2.3957    0.0000 C   0  0  0  0  0  0  0  0  0  0  0  0
    3.2146    1.5993    0.0000 C   0  0  0  0  0  0  0  0  0  0  0  0
    3.1605    0.1002    0.0000 C   0  0  0  0  0  0  0  0  0  0  0  0
    1.8352   -0.6024    0.0000 C   0  0  0  0  0  0  0  0  0  0  0  0
    1.7811   -2.1014    0.0000 O   0  0  0  0  0  0  0  0  0  0  0  0
    3.0522   -2.8978    0.0000 C   0  0  0  0  0  0  0  0  0  0  0  0
   -3.3575   -0.4148    0.0000 C   0  0  0  0  0  0  0  0  0  0  0  0
   -3.4117   -1.9138    0.0000 O   0  0  0  0  0  0  0  0  0  0  0  0
   -4.6287    0.3817    0.0000 O   0  0  0  0  0  0  0  0  0  0  0  0
  2  1  1  1
  2  3  1  0
  3  4  1  0
  4  5  2  0
  5  6  1  0
  6  7  2  0
  7  8  1  0
  8  9  2  0
  9 10  1  0
 10 11  1  0
  2 12  1  0
 12 13  2  0
 12 14  1  0
  9  4  1  0
M  END
>  <rName>  (811) 
Ala_pyrid2yl_3OMe

>  <PQ_SYMBOL>  (811) 
Ala_pyrid2yl_3OMe

>  <FULL_NAME>  (811) 
(S)-2-amino-3-(3-methoxypyridin-2-yl)propanoic acid

>  <IUPAC_CONDENSED>  (811) 
Ala(pyrid-2-yl(3-OMe))

>  <IUPAC>  (811) 
(2S)-2-amino-3-(3-methoxypyridin-2-yl)propanoic acid

>  <TYPE>  (811) 
Backbone

>  <CLASS>  (811) 
alpha

>  <ANALOG>  (811) 
Phe

>  <MOL_WT>  (811) 
196.20599999999996

>  <LOGP>  (811) 
0.044599999999999695

>  <TPSA>  (811) 
85.44000000000001

>  <POPULARITY>  (811) 
2.7

>  <PROTECTED>  (811) 
TRUE

>  <SMILES>  (811) 
N[C@@H](Cc1(ncccc1OC))C(=O)O

>  <INCHIKEY>  (811) 
WTCMOJAUPHVFPZ-LURJTMIESA-N

$$$$
Ala_pyrid2yl_4Cl
     RDKit          2D

 13 13  0  0  0  0  0  0  0  0999 V2000
   -1.2997    1.6200    0.0000 N   0  0  0  0  0  0  0  0  0  0  0  0
   -1.8436    0.2221    0.0000 C   0  0  0  0  0  0  0  0  0  0  0  0
   -0.9049   -0.9479    0.0000 C   0  0  0  0  0  0  0  0  0  0  0  0
    0.5777   -0.7200    0.0000 C   0  0  0  0  0  0  0  0  0  0  0  0
    1.1215    0.6779    0.0000 C   0  0  0  0  0  0  0  0  0  0  0  0
    2.6041    0.9059    0.0000 C   0  0  0  0  0  0  0  0  0  0  0  0
    3.1480    2.3038    0.0000 Cl  0  0  0  0  0  0  0  0  0  0  0  0
    3.5428   -0.2641    0.0000 C   0  0  0  0  0  0  0  0  0  0  0  0
    2.9989   -1.6621    0.0000 C   0  0  0  0  0  0  0  0  0  0  0  0
    1.5163   -1.8900    0.0000 N   0  0  0  0  0  0  0  0  0  0  0  0
   -3.3262   -0.0059    0.0000 C   0  0  0  0  0  0  0  0  0  0  0  0
   -3.8701   -1.4038    0.0000 O   0  0  0  0  0  0  0  0  0  0  0  0
   -4.2649    1.1641    0.0000 O   0  0  0  0  0  0  0  0  0  0  0  0
  2  1  1  1
  2  3  1  0
  3  4  1  0
  4  5  1  0
  5  6  2  0
  6  7  1  0
  6  8  1  0
  8  9  2  0
  9 10  1  0
  2 11  1  0
 11 12  2  0
 11 13  1  0
 10  4  2  0
M  END
>  <rName>  (812) 
Ala_pyrid2yl_4Cl

>  <PQ_SYMBOL>  (812) 
Ala_pyrid2yl_4Cl

>  <FULL_NAME>  (812) 
(2S)-2-amino-3-(4-chloropyridin-2-yl)propanoic acid

>  <IUPAC_CONDENSED>  (812) 
Ala(pyrid-2-yl(4-Cl))

>  <IUPAC>  (812) 
(2S)-2-amino-3-(4-chloro-2-pyridinyl)propanoic acid

>  <TYPE>  (812) 
Backbone

>  <CLASS>  (812) 
alpha

>  <ANALOG>  (812) 
Phe

>  <MOL_WT>  (812) 
200.625

>  <LOGP>  (812) 
0.6894

>  <TPSA>  (812) 
76.21

>  <POPULARITY>  (812) 
2.2

>  <PROTECTED>  (812) 
TRUE

>  <SMILES>  (812) 
N[C@@H](Cc1(cc(Cl)ccn1))C(=O)O

>  <INCHIKEY>  (812) 
UTZVTTFNVLLUKZ-ZETCQYMHSA-N

$$$$
Ala_pyrid2yl_4Me
     RDKit          2D

 13 13  0  0  0  0  0  0  0  0999 V2000
   -1.2997    1.6200    0.0000 N   0  0  0  0  0  0  0  0  0  0  0  0
   -1.8436    0.2221    0.0000 C   0  0  0  0  0  0  0  0  0  0  0  0
   -0.9049   -0.9479    0.0000 C   0  0  0  0  0  0  0  0  0  0  0  0
    0.5777   -0.7200    0.0000 C   0  0  0  0  0  0  0  0  0  0  0  0
    1.1215    0.6779    0.0000 C   0  0  0  0  0  0  0  0  0  0  0  0
    2.6041    0.9059    0.0000 C   0  0  0  0  0  0  0  0  0  0  0  0
    3.1480    2.3038    0.0000 C   0  0  0  0  0  0  0  0  0  0  0  0
    3.5428   -0.2641    0.0000 C   0  0  0  0  0  0  0  0  0  0  0  0
    2.9989   -1.6621    0.0000 C   0  0  0  0  0  0  0  0  0  0  0  0
    1.5163   -1.8900    0.0000 N   0  0  0  0  0  0  0  0  0  0  0  0
   -3.3262   -0.0059    0.0000 C   0  0  0  0  0  0  0  0  0  0  0  0
   -3.8701   -1.4038    0.0000 O   0  0  0  0  0  0  0  0  0  0  0  0
   -4.2649    1.1641    0.0000 O   0  0  0  0  0  0  0  0  0  0  0  0
  2  1  1  1
  2  3  1  0
  3  4  1  0
  4  5  1  0
  5  6  2  0
  6  7  1  0
  6  8  1  0
  8  9  2  0
  9 10  1  0
  2 11  1  0
 11 12  2  0
 11 13  1  0
 10  4  2  0
M  END
>  <rName>  (813) 
Ala_pyrid2yl_4Me

>  <PQ_SYMBOL>  (813) 
Ala_pyrid2yl_4Me

>  <FULL_NAME>  (813) 
(S)-2-amino-3-(4-methylpyridin-2-yl)propanoic acid

>  <IUPAC_CONDENSED>  (813) 
Ala(pyrid-2-yl(4-Me))

>  <IUPAC>  (813) 
(2S)-2-amino-3-(4-methylpyridin-2-yl)propanoic acid

>  <TYPE>  (813) 
Backbone

>  <CLASS>  (813) 
alpha

>  <ANALOG>  (813) 
Phe

>  <MOL_WT>  (813) 
180.20699999999997

>  <LOGP>  (813) 
0.3444200000000001

>  <TPSA>  (813) 
76.21

>  <POPULARITY>  (813) 
5.4

>  <PROTECTED>  (813) 
TRUE

>  <SMILES>  (813) 
N[C@@H](Cc1(cc(C)ccn1))C(=O)O

>  <INCHIKEY>  (813) 
YRWVUIFELULWFC-QMMMGPOBSA-N

$$$$
Ala_pyrid2yl_5Br
     RDKit          2D

 13 13  0  0  0  0  0  0  0  0999 V2000
   -1.5766    1.6851    0.0000 N   0  0  0  0  0  0  0  0  0  0  0  0
   -2.0128    0.2500    0.0000 C   0  0  0  0  0  0  0  0  0  0  0  0
   -0.9880   -0.8454    0.0000 C   0  0  0  0  0  0  0  0  0  0  0  0
    0.4730   -0.5055    0.0000 C   0  0  0  0  0  0  0  0  0  0  0  0
    0.9092    0.9296    0.0000 C   0  0  0  0  0  0  0  0  0  0  0  0
    2.3702    1.2695    0.0000 C   0  0  0  0  0  0  0  0  0  0  0  0
    3.3950    0.1741    0.0000 C   0  0  0  0  0  0  0  0  0  0  0  0
    4.8560    0.5140    0.0000 Br  0  0  0  0  0  0  0  0  0  0  0  0
    2.9588   -1.2611    0.0000 C   0  0  0  0  0  0  0  0  0  0  0  0
    1.4978   -1.6009    0.0000 N   0  0  0  0  0  0  0  0  0  0  0  0
   -3.4738   -0.0899    0.0000 C   0  0  0  0  0  0  0  0  0  0  0  0
   -3.9100   -1.5250    0.0000 O   0  0  0  0  0  0  0  0  0  0  0  0
   -4.4986    1.0055    0.0000 O   0  0  0  0  0  0  0  0  0  0  0  0
  2  1  1  1
  2  3  1  0
  3  4  1  0
  4  5  1  0
  5  6  2  0
  6  7  1  0
  7  8  1  0
  7  9  2  0
  9 10  1  0
  2 11  1  0
 11 12  2  0
 11 13  1  0
 10  4  2  0
M  END
>  <rName>  (814) 
Ala_pyrid2yl_5Br

>  <PQ_SYMBOL>  (814) 
Ala_pyrid2yl_5Br

>  <FULL_NAME>  (814) 
(2S)-2-amino-3-(5-bromopyridin-2-yl)propanoic acid

>  <IUPAC_CONDENSED>  (814) 
Ala(pyrid-2-yl(5-Br))

>  <IUPAC>  (814) 
(2S)-2-amino-3-(5-bromopyridin-2-yl)propanoic acid

>  <TYPE>  (814) 
Backbone

>  <CLASS>  (814) 
alpha

>  <ANALOG>  (814) 
Phe

>  <MOL_WT>  (814) 
245.07599999999996

>  <LOGP>  (814) 
0.7985

>  <TPSA>  (814) 
76.21

>  <POPULARITY>  (814) 
4.3

>  <PROTECTED>  (814) 
TRUE

>  <SMILES>  (814) 
N[C@@H](Cc1(ccc(Br)cn1))C(=O)O

>  <INCHIKEY>  (814) 
KGYVEAZKKOLWLQ-ZETCQYMHSA-N

$$$$
Ala_pyrid2yl_5F
     RDKit          2D

 13 13  0  0  0  0  0  0  0  0999 V2000
   -1.5766    1.6851    0.0000 N   0  0  0  0  0  0  0  0  0  0  0  0
   -2.0128    0.2500    0.0000 C   0  0  0  0  0  0  0  0  0  0  0  0
   -0.9880   -0.8454    0.0000 C   0  0  0  0  0  0  0  0  0  0  0  0
    0.4730   -0.5055    0.0000 C   0  0  0  0  0  0  0  0  0  0  0  0
    0.9092    0.9296    0.0000 C   0  0  0  0  0  0  0  0  0  0  0  0
    2.3702    1.2695    0.0000 C   0  0  0  0  0  0  0  0  0  0  0  0
    3.3950    0.1741    0.0000 C   0  0  0  0  0  0  0  0  0  0  0  0
    4.8560    0.5140    0.0000 F   0  0  0  0  0  0  0  0  0  0  0  0
    2.9588   -1.2611    0.0000 C   0  0  0  0  0  0  0  0  0  0  0  0
    1.4978   -1.6009    0.0000 N   0  0  0  0  0  0  0  0  0  0  0  0
   -3.4738   -0.0899    0.0000 C   0  0  0  0  0  0  0  0  0  0  0  0
   -3.9100   -1.5250    0.0000 O   0  0  0  0  0  0  0  0  0  0  0  0
   -4.4986    1.0055    0.0000 O   0  0  0  0  0  0  0  0  0  0  0  0
  2  1  1  1
  2  3  1  0
  3  4  1  0
  4  5  1  0
  5  6  2  0
  6  7  1  0
  7  8  1  0
  7  9  2  0
  9 10  1  0
  2 11  1  0
 11 12  2  0
 11 13  1  0
 10  4  2  0
M  END
>  <rName>  (815) 
Ala_pyrid2yl_5F

>  <PQ_SYMBOL>  (815) 
Ala_pyrid2yl_5F

>  <FULL_NAME>  (815) 
(S)-2-amino-3-(5-fluoropyridin-2-yl)propanoic acid

>  <IUPAC_CONDENSED>  (815) 
Ala(pyrid-2-yl(5-F))

>  <IUPAC>  (815) 
(2S)-2-amino-3-(5-fluoropyridin-2-yl)propanoic acid

>  <TYPE>  (815) 
Backbone

>  <CLASS>  (815) 
alpha

>  <ANALOG>  (815) 
Phe

>  <MOL_WT>  (815) 
184.16999999999996

>  <LOGP>  (815) 
0.17509999999999998

>  <TPSA>  (815) 
76.21

>  <POPULARITY>  (815) 
2.9

>  <PROTECTED>  (815) 
TRUE

>  <SMILES>  (815) 
N[C@@H](Cc1(ccc(F)cn1))C(=O)O

>  <INCHIKEY>  (815) 
YZUVKRZLMIRVEE-ZETCQYMHSA-N

$$$$
Ala_pyrid2yl_5Me
     RDKit          2D

 13 13  0  0  0  0  0  0  0  0999 V2000
   -1.5766    1.6851    0.0000 N   0  0  0  0  0  0  0  0  0  0  0  0
   -2.0128    0.2500    0.0000 C   0  0  0  0  0  0  0  0  0  0  0  0
   -0.9880   -0.8454    0.0000 C   0  0  0  0  0  0  0  0  0  0  0  0
    0.4730   -0.5055    0.0000 C   0  0  0  0  0  0  0  0  0  0  0  0
    0.9092    0.9296    0.0000 C   0  0  0  0  0  0  0  0  0  0  0  0
    2.3702    1.2695    0.0000 C   0  0  0  0  0  0  0  0  0  0  0  0
    3.3950    0.1741    0.0000 C   0  0  0  0  0  0  0  0  0  0  0  0
    4.8560    0.5140    0.0000 C   0  0  0  0  0  0  0  0  0  0  0  0
    2.9588   -1.2611    0.0000 C   0  0  0  0  0  0  0  0  0  0  0  0
    1.4978   -1.6009    0.0000 N   0  0  0  0  0  0  0  0  0  0  0  0
   -3.4738   -0.0899    0.0000 C   0  0  0  0  0  0  0  0  0  0  0  0
   -3.9100   -1.5250    0.0000 O   0  0  0  0  0  0  0  0  0  0  0  0
   -4.4986    1.0055    0.0000 O   0  0  0  0  0  0  0  0  0  0  0  0
  2  1  1  1
  2  3  1  0
  3  4  1  0
  4  5  1  0
  5  6  2  0
  6  7  1  0
  7  8  1  0
  7  9  2  0
  9 10  1  0
  2 11  1  0
 11 12  2  0
 11 13  1  0
 10  4  2  0
M  END
>  <rName>  (816) 
Ala_pyrid2yl_5Me

>  <PQ_SYMBOL>  (816) 
Ala_pyrid2yl_5Me

>  <FULL_NAME>  (816) 
(S)-2-amino-3-(5-methylpyridin-2-yl)propanoic acid

>  <IUPAC_CONDENSED>  (816) 
Ala(pyrid-2-yl(5-Me))

>  <IUPAC>  (816) 
(2S)-2-amino-3-(5-methylpyridin-2-yl)propanoic acid

>  <TYPE>  (816) 
Backbone

>  <CLASS>  (816) 
alpha

>  <ANALOG>  (816) 
Phe

>  <MOL_WT>  (816) 
180.20699999999997

>  <LOGP>  (816) 
0.3444200000000001

>  <TPSA>  (816) 
76.21

>  <POPULARITY>  (816) 
3.8

>  <PROTECTED>  (816) 
TRUE

>  <SMILES>  (816) 
N[C@@H](Cc1(ccc(C)cn1))C(=O)O

>  <INCHIKEY>  (816) 
KGYQCBBDLIEYEA-QMMMGPOBSA-N

$$$$
Ala_pyrid2yl_6Me
     RDKit          2D

 13 13  0  0  0  0  0  0  0  0999 V2000
   -1.7680    1.6690    0.0000 N   0  0  0  0  0  0  0  0  0  0  0  0
   -1.9932    0.1860    0.0000 C   0  0  0  0  0  0  0  0  0  0  0  0
   -0.8215   -0.7506    0.0000 C   0  0  0  0  0  0  0  0  0  0  0  0
    0.5754   -0.2041    0.0000 C   0  0  0  0  0  0  0  0  0  0  0  0
    0.8006    1.2789    0.0000 C   0  0  0  0  0  0  0  0  0  0  0  0
    2.1976    1.8254    0.0000 C   0  0  0  0  0  0  0  0  0  0  0  0
    3.3693    0.8888    0.0000 C   0  0  0  0  0  0  0  0  0  0  0  0
    3.1441   -0.5942    0.0000 C   0  0  0  0  0  0  0  0  0  0  0  0
    4.3158   -1.5307    0.0000 C   0  0  0  0  0  0  0  0  0  0  0  0
    1.7472   -1.1406    0.0000 N   0  0  0  0  0  0  0  0  0  0  0  0
   -3.3901   -0.3605    0.0000 C   0  0  0  0  0  0  0  0  0  0  0  0
   -3.6153   -1.8435    0.0000 O   0  0  0  0  0  0  0  0  0  0  0  0
   -4.5618    0.5760    0.0000 O   0  0  0  0  0  0  0  0  0  0  0  0
  2  1  1  1
  2  3  1  0
  3  4  1  0
  4  5  2  0
  5  6  1  0
  6  7  2  0
  7  8  1  0
  8  9  1  0
  8 10  2  0
  2 11  1  0
 11 12  2  0
 11 13  1  0
 10  4  1  0
M  END
>  <rName>  (817) 
Ala_pyrid2yl_6Me

>  <PQ_SYMBOL>  (817) 
Ala_pyrid2yl_6Me

>  <FULL_NAME>  (817) 
(S)-2-amino-3-(6-methylpyridin-2-yl)propanoic acid

>  <IUPAC_CONDENSED>  (817) 
Ala(pyrid-2-yl(6-Me))

>  <IUPAC>  (817) 
(2S)-2-amino-3-(6-methylpyridin-2-yl)propanoic acid

>  <TYPE>  (817) 
Backbone

>  <CLASS>  (817) 
alpha

>  <ANALOG>  (817) 
Phe

>  <MOL_WT>  (817) 
180.20699999999997

>  <LOGP>  (817) 
0.3444200000000001

>  <TPSA>  (817) 
76.21

>  <POPULARITY>  (817) 
4.7

>  <PROTECTED>  (817) 
TRUE

>  <SMILES>  (817) 
N[C@@H](Cc1(cccc(C)n1))C(=O)O

>  <INCHIKEY>  (817) 
QNUVTERAUDHHKC-QMMMGPOBSA-N

$$$$
Ala_pyrid2yl_6OMe
     RDKit          2D

 14 14  0  0  0  0  0  0  0  0999 V2000
   -2.2742    1.6194    0.0000 N   0  0  0  0  0  0  0  0  0  0  0  0
   -2.3172    0.1200    0.0000 C   0  0  0  0  0  0  0  0  0  0  0  0
   -1.0402   -0.6669    0.0000 C   0  0  0  0  0  0  0  0  0  0  0  0
    0.2798    0.0456    0.0000 C   0  0  0  0  0  0  0  0  0  0  0  0
    0.3228    1.5450    0.0000 C   0  0  0  0  0  0  0  0  0  0  0  0
    1.6428    2.2574    0.0000 C   0  0  0  0  0  0  0  0  0  0  0  0
    2.9198    1.4705    0.0000 C   0  0  0  0  0  0  0  0  0  0  0  0
    2.8768   -0.0289    0.0000 C   0  0  0  0  0  0  0  0  0  0  0  0
    4.1538   -0.8158    0.0000 O   0  0  0  0  0  0  0  0  0  0  0  0
    4.1108   -2.3152    0.0000 C   0  0  0  0  0  0  0  0  0  0  0  0
    1.5568   -0.7414    0.0000 N   0  0  0  0  0  0  0  0  0  0  0  0
   -3.6372   -0.5924    0.0000 C   0  0  0  0  0  0  0  0  0  0  0  0
   -3.6802   -2.0918    0.0000 O   0  0  0  0  0  0  0  0  0  0  0  0
   -4.9142    0.1945    0.0000 O   0  0  0  0  0  0  0  0  0  0  0  0
  2  1  1  1
  2  3  1  0
  3  4  1  0
  4  5  1  0
  5  6  2  0
  6  7  1  0
  7  8  2  0
  8  9  1  0
  9 10  1  0
  8 11  1  0
  2 12  1  0
 12 13  2  0
 12 14  1  0
 11  4  2  0
M  END
>  <rName>  (818) 
Ala_pyrid2yl_6OMe

>  <PQ_SYMBOL>  (818) 
Ala_pyrid2yl_6OMe

>  <FULL_NAME>  (818) 
(S)-2-amino-3-(6-methoxypyridin-2-yl)propanoic acid

>  <IUPAC_CONDENSED>  (818) 
Ala(pyrid-2-yl(6-OMe))

>  <IUPAC>  (818) 
(2S)-2-amino-3-(6-methoxypyridin-2-yl)propanoic acid

>  <TYPE>  (818) 
Backbone

>  <CLASS>  (818) 
alpha

>  <ANALOG>  (818) 
Phe

>  <MOL_WT>  (818) 
196.20599999999996

>  <LOGP>  (818) 
0.044599999999999695

>  <TPSA>  (818) 
85.44000000000001

>  <POPULARITY>  (818) 
2.9

>  <PROTECTED>  (818) 
TRUE

>  <SMILES>  (818) 
N[C@@H](Cc1(cccc(OC)n1))C(=O)O

>  <INCHIKEY>  (818) 
PMLQHGHTTVPZNG-ZETCQYMHSA-N

$$$$
Ala_pyrid3yl_2Cl
     RDKit          2D

 13 13  0  0  0  0  0  0  0  0999 V2000
   -1.4864    1.8099    0.0000 N   0  0  0  0  0  0  0  0  0  0  0  0
   -1.7669    0.3364    0.0000 C   0  0  0  0  0  0  0  0  0  0  0  0
   -0.6311   -0.6433    0.0000 C   0  0  0  0  0  0  0  0  0  0  0  0
    0.7853   -0.1495    0.0000 C   0  0  0  0  0  0  0  0  0  0  0  0
    1.0658    1.3241    0.0000 C   0  0  0  0  0  0  0  0  0  0  0  0
    2.4822    1.8179    0.0000 C   0  0  0  0  0  0  0  0  0  0  0  0
    3.6181    0.8382    0.0000 C   0  0  0  0  0  0  0  0  0  0  0  0
    3.3376   -0.6353    0.0000 N   0  0  0  0  0  0  0  0  0  0  0  0
    1.9212   -1.1292    0.0000 C   0  0  0  0  0  0  0  0  0  0  0  0
    1.6407   -2.6027    0.0000 Cl  0  0  0  0  0  0  0  0  0  0  0  0
   -3.1833   -0.1575    0.0000 C   0  0  0  0  0  0  0  0  0  0  0  0
   -3.4638   -1.6310    0.0000 O   0  0  0  0  0  0  0  0  0  0  0  0
   -4.3192    0.8222    0.0000 O   0  0  0  0  0  0  0  0  0  0  0  0
  2  1  1  1
  2  3  1  0
  3  4  1  0
  4  5  2  0
  5  6  1  0
  6  7  2  0
  7  8  1  0
  8  9  2  0
  9 10  1  0
  2 11  1  0
 11 12  2  0
 11 13  1  0
  9  4  1  0
M  END
>  <rName>  (819) 
Ala_pyrid3yl_2Cl

>  <PQ_SYMBOL>  (819) 
Ala_pyrid3yl_2Cl

>  <FULL_NAME>  (819) 
(S)-2-amino-3-(2-chloropyridin-3-yl)propanoic acid

>  <IUPAC_CONDENSED>  (819) 
Ala(pyrid-3-yl(2-Cl))

>  <IUPAC>  (819) 
(2S)-2-amino-3-(2-chloropyridin-3-yl)propanoic acid

>  <TYPE>  (819) 
Backbone

>  <CLASS>  (819) 
alpha

>  <ANALOG>  (819) 
Phe

>  <MOL_WT>  (819) 
200.62499999999997

>  <LOGP>  (819) 
0.6894

>  <TPSA>  (819) 
76.21

>  <POPULARITY>  (819) 
3.0

>  <PROTECTED>  (819) 
TRUE

>  <SMILES>  (819) 
N[C@@H](Cc1(cccnc1Cl))C(=O)O

>  <INCHIKEY>  (819) 
AUQSTZZDULUDDX-LURJTMIESA-N

$$$$
Ala_pyrid3yl_2F
     RDKit          2D

 13 13  0  0  0  0  0  0  0  0999 V2000
   -1.4864    1.8099    0.0000 N   0  0  0  0  0  0  0  0  0  0  0  0
   -1.7669    0.3364    0.0000 C   0  0  0  0  0  0  0  0  0  0  0  0
   -0.6311   -0.6433    0.0000 C   0  0  0  0  0  0  0  0  0  0  0  0
    0.7853   -0.1495    0.0000 C   0  0  0  0  0  0  0  0  0  0  0  0
    1.0658    1.3241    0.0000 C   0  0  0  0  0  0  0  0  0  0  0  0
    2.4822    1.8179    0.0000 C   0  0  0  0  0  0  0  0  0  0  0  0
    3.6181    0.8382    0.0000 C   0  0  0  0  0  0  0  0  0  0  0  0
    3.3376   -0.6353    0.0000 N   0  0  0  0  0  0  0  0  0  0  0  0
    1.9212   -1.1292    0.0000 C   0  0  0  0  0  0  0  0  0  0  0  0
    1.6407   -2.6027    0.0000 F   0  0  0  0  0  0  0  0  0  0  0  0
   -3.1833   -0.1575    0.0000 C   0  0  0  0  0  0  0  0  0  0  0  0
   -3.4638   -1.6310    0.0000 O   0  0  0  0  0  0  0  0  0  0  0  0
   -4.3192    0.8222    0.0000 O   0  0  0  0  0  0  0  0  0  0  0  0
  2  1  1  1
  2  3  1  0
  3  4  1  0
  4  5  2  0
  5  6  1  0
  6  7  2  0
  7  8  1  0
  8  9  2  0
  9 10  1  0
  2 11  1  0
 11 12  2  0
 11 13  1  0
  9  4  1  0
M  END
>  <rName>  (820) 
Ala_pyrid3yl_2F

>  <PQ_SYMBOL>  (820) 
Ala_pyrid3yl_2F

>  <FULL_NAME>  (820) 
(S)-2-amino-3-(2-fluoropyridin-3-yl)propanoic acid

>  <IUPAC_CONDENSED>  (820) 
Ala(pyrid-3-yl(2-F))

>  <IUPAC>  (820) 
(2S)-2-amino-3-(2-fluoropyridin-3-yl)propanoic acid

>  <TYPE>  (820) 
Backbone

>  <CLASS>  (820) 
alpha

>  <ANALOG>  (820) 
Phe

>  <MOL_WT>  (820) 
184.16999999999996

>  <LOGP>  (820) 
0.17509999999999998

>  <TPSA>  (820) 
76.21

>  <POPULARITY>  (820) 
2.9

>  <PROTECTED>  (820) 
TRUE

>  <SMILES>  (820) 
N[C@@H](Cc1(cccnc1F))C(=O)O

>  <INCHIKEY>  (820) 
FUIYXOOSTLSUNT-LURJTMIESA-N

$$$$
Ala_pyrid3yl_2Me
     RDKit          2D

 13 13  0  0  0  0  0  0  0  0999 V2000
   -1.4864    1.8099    0.0000 N   0  0  0  0  0  0  0  0  0  0  0  0
   -1.7669    0.3364    0.0000 C   0  0  0  0  0  0  0  0  0  0  0  0
   -0.6311   -0.6433    0.0000 C   0  0  0  0  0  0  0  0  0  0  0  0
    0.7853   -0.1495    0.0000 C   0  0  0  0  0  0  0  0  0  0  0  0
    1.0658    1.3241    0.0000 C   0  0  0  0  0  0  0  0  0  0  0  0
    2.4822    1.8179    0.0000 C   0  0  0  0  0  0  0  0  0  0  0  0
    3.6181    0.8382    0.0000 C   0  0  0  0  0  0  0  0  0  0  0  0
    3.3376   -0.6353    0.0000 N   0  0  0  0  0  0  0  0  0  0  0  0
    1.9212   -1.1292    0.0000 C   0  0  0  0  0  0  0  0  0  0  0  0
    1.6407   -2.6027    0.0000 C   0  0  0  0  0  0  0  0  0  0  0  0
   -3.1833   -0.1575    0.0000 C   0  0  0  0  0  0  0  0  0  0  0  0
   -3.4638   -1.6310    0.0000 O   0  0  0  0  0  0  0  0  0  0  0  0
   -4.3192    0.8222    0.0000 O   0  0  0  0  0  0  0  0  0  0  0  0
  2  1  1  1
  2  3  1  0
  3  4  1  0
  4  5  2  0
  5  6  1  0
  6  7  2  0
  7  8  1  0
  8  9  2  0
  9 10  1  0
  2 11  1  0
 11 12  2  0
 11 13  1  0
  9  4  1  0
M  END
>  <rName>  (821) 
Ala_pyrid3yl_2Me

>  <PQ_SYMBOL>  (821) 
Ala_pyrid3yl_2Me

>  <FULL_NAME>  (821) 
(2S)-2-amino-3-(2-methylpyridin-3-yl)propanoic acid

>  <IUPAC_CONDENSED>  (821) 
Ala(pyrid-3-yl(2-Me))

>  <IUPAC>  (821) 
(2S)-2-amino-3-(2-methyl-3-pyridinyl)propanoic acid

>  <TYPE>  (821) 
Backbone

>  <CLASS>  (821) 
alpha

>  <ANALOG>  (821) 
Phe

>  <MOL_WT>  (821) 
180.20699999999997

>  <LOGP>  (821) 
0.3444200000000001

>  <TPSA>  (821) 
76.21

>  <POPULARITY>  (821) 
2.2

>  <PROTECTED>  (821) 
TRUE

>  <SMILES>  (821) 
N[C@@H](Cc1(cccnc1C))C(=O)O

>  <INCHIKEY>  (821) 
UNSSAEKZPYMJDO-QMMMGPOBSA-N

$$$$
Ala_pyrid3yl_2OMe
     RDKit          2D

 14 14  0  0  0  0  0  0  0  0999 V2000
   -1.9781    1.7869    0.0000 N   0  0  0  0  0  0  0  0  0  0  0  0
   -2.0323    0.2879    0.0000 C   0  0  0  0  0  0  0  0  0  0  0  0
   -0.7612   -0.5086    0.0000 C   0  0  0  0  0  0  0  0  0  0  0  0
    0.5641    0.1940    0.0000 C   0  0  0  0  0  0  0  0  0  0  0  0
    0.6183    1.6931    0.0000 C   0  0  0  0  0  0  0  0  0  0  0  0
    1.9435    2.3957    0.0000 C   0  0  0  0  0  0  0  0  0  0  0  0
    3.2146    1.5993    0.0000 C   0  0  0  0  0  0  0  0  0  0  0  0
    3.1605    0.1002    0.0000 N   0  0  0  0  0  0  0  0  0  0  0  0
    1.8352   -0.6024    0.0000 C   0  0  0  0  0  0  0  0  0  0  0  0
    1.7811   -2.1014    0.0000 O   0  0  0  0  0  0  0  0  0  0  0  0
    3.0522   -2.8978    0.0000 C   0  0  0  0  0  0  0  0  0  0  0  0
   -3.3575   -0.4148    0.0000 C   0  0  0  0  0  0  0  0  0  0  0  0
   -3.4117   -1.9138    0.0000 O   0  0  0  0  0  0  0  0  0  0  0  0
   -4.6287    0.3817    0.0000 O   0  0  0  0  0  0  0  0  0  0  0  0
  2  1  1  1
  2  3  1  0
  3  4  1  0
  4  5  2  0
  5  6  1  0
  6  7  2  0
  7  8  1  0
  8  9  2  0
  9 10  1  0
 10 11  1  0
  2 12  1  0
 12 13  2  0
 12 14  1  0
  9  4  1  0
M  END
>  <rName>  (822) 
Ala_pyrid3yl_2OMe

>  <PQ_SYMBOL>  (822) 
Ala_pyrid3yl_2OMe

>  <FULL_NAME>  (822) 
(S)-2-amino-3-(2-methoxypyridin-3-yl)propanoic acid

>  <IUPAC_CONDENSED>  (822) 
Ala(pyrid-3-yl(2-OMe))

>  <IUPAC>  (822) 
(2S)-2-amino-3-(2-methoxypyridin-3-yl)propanoic acid

>  <TYPE>  (822) 
Backbone

>  <CLASS>  (822) 
alpha

>  <ANALOG>  (822) 
Phe

>  <MOL_WT>  (822) 
196.20599999999996

>  <LOGP>  (822) 
0.04460000000000014

>  <TPSA>  (822) 
85.44000000000001

>  <POPULARITY>  (822) 
3.1

>  <PROTECTED>  (822) 
TRUE

>  <SMILES>  (822) 
N[C@@H](Cc1(cccnc1OC))C(=O)O

>  <INCHIKEY>  (822) 
ULITZCFOLFYDQG-ZETCQYMHSA-N

$$$$
Ala_pyrid3yl_4OMe
     RDKit          2D

 14 14  0  0  0  0  0  0  0  0999 V2000
   -1.9781    1.7869    0.0000 N   0  0  0  0  0  0  0  0  0  0  0  0
   -2.0323    0.2879    0.0000 C   0  0  0  0  0  0  0  0  0  0  0  0
   -0.7612   -0.5086    0.0000 C   0  0  0  0  0  0  0  0  0  0  0  0
    0.5641    0.1940    0.0000 C   0  0  0  0  0  0  0  0  0  0  0  0
    0.6183    1.6931    0.0000 C   0  0  0  0  0  0  0  0  0  0  0  0
    1.9435    2.3957    0.0000 N   0  0  0  0  0  0  0  0  0  0  0  0
    3.2146    1.5993    0.0000 C   0  0  0  0  0  0  0  0  0  0  0  0
    3.1605    0.1002    0.0000 C   0  0  0  0  0  0  0  0  0  0  0  0
    1.8352   -0.6024    0.0000 C   0  0  0  0  0  0  0  0  0  0  0  0
    1.7811   -2.1014    0.0000 O   0  0  0  0  0  0  0  0  0  0  0  0
    3.0522   -2.8978    0.0000 C   0  0  0  0  0  0  0  0  0  0  0  0
   -3.3575   -0.4148    0.0000 C   0  0  0  0  0  0  0  0  0  0  0  0
   -3.4117   -1.9138    0.0000 O   0  0  0  0  0  0  0  0  0  0  0  0
   -4.6287    0.3817    0.0000 O   0  0  0  0  0  0  0  0  0  0  0  0
  2  1  1  1
  2  3  1  0
  3  4  1  0
  4  5  1  0
  5  6  2  0
  6  7  1  0
  7  8  2  0
  8  9  1  0
  9 10  1  0
 10 11  1  0
  2 12  1  0
 12 13  2  0
 12 14  1  0
  9  4  2  0
M  END
>  <rName>  (823) 
Ala_pyrid3yl_4OMe

>  <PQ_SYMBOL>  (823) 
Ala_pyrid3yl_4OMe

>  <FULL_NAME>  (823) 
(S)-2-amino-3-(4-methoxypyridin-3-yl)propanoic acid

>  <IUPAC_CONDENSED>  (823) 
Ala(pyrid-3-yl(4-OMe))

>  <IUPAC>  (823) 
(2S)-2-amino-3-(4-methoxypyridin-3-yl)propanoic acid

>  <TYPE>  (823) 
Backbone

>  <CLASS>  (823) 
alpha

>  <ANALOG>  (823) 
Phe

>  <MOL_WT>  (823) 
196.20599999999996

>  <LOGP>  (823) 
0.044599999999999695

>  <TPSA>  (823) 
85.44000000000001

>  <POPULARITY>  (823) 
2.7

>  <PROTECTED>  (823) 
TRUE

>  <SMILES>  (823) 
N[C@@H](Cc1(cnccc1OC))C(=O)O

>  <INCHIKEY>  (823) 
SAAHEFJIUZRTJT-ZETCQYMHSA-N

$$$$
Ala_pyrid3yl_5OMe
     RDKit          2D

 14 14  0  0  0  0  0  0  0  0999 V2000
   -2.2742    1.6194    0.0000 N   0  0  0  0  0  0  0  0  0  0  0  0
   -2.3172    0.1200    0.0000 C   0  0  0  0  0  0  0  0  0  0  0  0
   -1.0402   -0.6669    0.0000 C   0  0  0  0  0  0  0  0  0  0  0  0
    0.2798    0.0456    0.0000 C   0  0  0  0  0  0  0  0  0  0  0  0
    0.3228    1.5450    0.0000 C   0  0  0  0  0  0  0  0  0  0  0  0
    1.6428    2.2574    0.0000 N   0  0  0  0  0  0  0  0  0  0  0  0
    2.9198    1.4705    0.0000 C   0  0  0  0  0  0  0  0  0  0  0  0
    2.8768   -0.0289    0.0000 C   0  0  0  0  0  0  0  0  0  0  0  0
    4.1538   -0.8158    0.0000 O   0  0  0  0  0  0  0  0  0  0  0  0
    4.1108   -2.3152    0.0000 C   0  0  0  0  0  0  0  0  0  0  0  0
    1.5568   -0.7414    0.0000 C   0  0  0  0  0  0  0  0  0  0  0  0
   -3.6372   -0.5924    0.0000 C   0  0  0  0  0  0  0  0  0  0  0  0
   -3.6802   -2.0918    0.0000 O   0  0  0  0  0  0  0  0  0  0  0  0
   -4.9142    0.1945    0.0000 O   0  0  0  0  0  0  0  0  0  0  0  0
  2  1  1  1
  2  3  1  0
  3  4  1  0
  4  5  1  0
  5  6  2  0
  6  7  1  0
  7  8  2  0
  8  9  1  0
  9 10  1  0
  8 11  1  0
  2 12  1  0
 12 13  2  0
 12 14  1  0
 11  4  2  0
M  END
>  <rName>  (824) 
Ala_pyrid3yl_5OMe

>  <PQ_SYMBOL>  (824) 
Ala_pyrid3yl_5OMe

>  <FULL_NAME>  (824) 
(S)-2-amino-3-(5-methoxypyridin-3-yl)propanoic acid

>  <IUPAC_CONDENSED>  (824) 
Ala(pyrid-3-yl(5-OMe))

>  <IUPAC>  (824) 
(2S)-2-amino-3-(5-methoxypyridin-3-yl)propanoic acid

>  <TYPE>  (824) 
Backbone

>  <CLASS>  (824) 
alpha

>  <ANALOG>  (824) 
Phe

>  <MOL_WT>  (824) 
196.206

>  <LOGP>  (824) 
0.044599999999999695

>  <TPSA>  (824) 
85.44000000000001

>  <POPULARITY>  (824) 
3.0

>  <PROTECTED>  (824) 
TRUE

>  <SMILES>  (824) 
N[C@@H](Cc1(cncc(OC)c1))C(=O)O

>  <INCHIKEY>  (824) 
RZSVPGOEDVAABX-QMMMGPOBSA-N

$$$$
Ala_pyrid3yl_6Cl
     RDKit          2D

 13 13  0  0  0  0  0  0  0  0999 V2000
   -1.5766    1.6851    0.0000 N   0  0  0  0  0  0  0  0  0  0  0  0
   -2.0128    0.2500    0.0000 C   0  0  0  0  0  0  0  0  0  0  0  0
   -0.9880   -0.8454    0.0000 C   0  0  0  0  0  0  0  0  0  0  0  0
    0.4730   -0.5055    0.0000 C   0  0  0  0  0  0  0  0  0  0  0  0
    0.9092    0.9296    0.0000 C   0  0  0  0  0  0  0  0  0  0  0  0
    2.3702    1.2695    0.0000 C   0  0  0  0  0  0  0  0  0  0  0  0
    3.3950    0.1741    0.0000 C   0  0  0  0  0  0  0  0  0  0  0  0
    4.8560    0.5140    0.0000 Cl  0  0  0  0  0  0  0  0  0  0  0  0
    2.9588   -1.2611    0.0000 N   0  0  0  0  0  0  0  0  0  0  0  0
    1.4978   -1.6009    0.0000 C   0  0  0  0  0  0  0  0  0  0  0  0
   -3.4738   -0.0899    0.0000 C   0  0  0  0  0  0  0  0  0  0  0  0
   -3.9100   -1.5250    0.0000 O   0  0  0  0  0  0  0  0  0  0  0  0
   -4.4986    1.0055    0.0000 O   0  0  0  0  0  0  0  0  0  0  0  0
  2  1  1  1
  2  3  1  0
  3  4  1  0
  4  5  1  0
  5  6  2  0
  6  7  1  0
  7  8  1  0
  7  9  2  0
  9 10  1  0
  2 11  1  0
 11 12  2  0
 11 13  1  0
 10  4  2  0
M  END
>  <rName>  (825) 
Ala_pyrid3yl_6Cl

>  <PQ_SYMBOL>  (825) 
Ala_pyrid3yl_6Cl

>  <FULL_NAME>  (825) 
(S)-2-amino-3-(6-chloropyridin-3-yl)propanoic acid

>  <IUPAC_CONDENSED>  (825) 
Ala(pyrid-3-yl(6-Cl))

>  <IUPAC>  (825) 
(2S)-2-amino-3-(6-chloropyridin-3-yl)propanoic acid

>  <TYPE>  (825) 
Backbone

>  <CLASS>  (825) 
alpha

>  <ANALOG>  (825) 
Phe

>  <MOL_WT>  (825) 
200.625

>  <LOGP>  (825) 
0.6894

>  <TPSA>  (825) 
76.21

>  <POPULARITY>  (825) 
3.2

>  <PROTECTED>  (825) 
TRUE

>  <SMILES>  (825) 
N[C@@H](Cc1(ccc(Cl)nc1))C(=O)O

>  <INCHIKEY>  (825) 
UKRRFOGHAISFEZ-LURJTMIESA-N

$$$$
Ala_pyrid3yl_6Me
     RDKit          2D

 13 13  0  0  0  0  0  0  0  0999 V2000
   -1.5766    1.6851    0.0000 N   0  0  0  0  0  0  0  0  0  0  0  0
   -2.0128    0.2500    0.0000 C   0  0  0  0  0  0  0  0  0  0  0  0
   -0.9880   -0.8454    0.0000 C   0  0  0  0  0  0  0  0  0  0  0  0
    0.4730   -0.5055    0.0000 C   0  0  0  0  0  0  0  0  0  0  0  0
    0.9092    0.9296    0.0000 C   0  0  0  0  0  0  0  0  0  0  0  0
    2.3702    1.2695    0.0000 C   0  0  0  0  0  0  0  0  0  0  0  0
    3.3950    0.1741    0.0000 C   0  0  0  0  0  0  0  0  0  0  0  0
    4.8560    0.5140    0.0000 C   0  0  0  0  0  0  0  0  0  0  0  0
    2.9588   -1.2611    0.0000 N   0  0  0  0  0  0  0  0  0  0  0  0
    1.4978   -1.6009    0.0000 C   0  0  0  0  0  0  0  0  0  0  0  0
   -3.4738   -0.0899    0.0000 C   0  0  0  0  0  0  0  0  0  0  0  0
   -3.9100   -1.5250    0.0000 O   0  0  0  0  0  0  0  0  0  0  0  0
   -4.4986    1.0055    0.0000 O   0  0  0  0  0  0  0  0  0  0  0  0
  2  1  1  1
  2  3  1  0
  3  4  1  0
  4  5  1  0
  5  6  2  0
  6  7  1  0
  7  8  1  0
  7  9  2  0
  9 10  1  0
  2 11  1  0
 11 12  2  0
 11 13  1  0
 10  4  2  0
M  END
>  <rName>  (826) 
Ala_pyrid3yl_6Me

>  <PQ_SYMBOL>  (826) 
Ala_pyrid3yl_6Me

>  <FULL_NAME>  (826) 
(S)-2-amino-3-(6-methylpyridin-3-yl)propanoic acid

>  <IUPAC_CONDENSED>  (826) 
Ala(pyrid-3-yl(6-Me))

>  <IUPAC>  (826) 
(2S)-2-amino-3-(6-methylpyridin-3-yl)propanoic acid

>  <TYPE>  (826) 
Backbone

>  <CLASS>  (826) 
alpha

>  <ANALOG>  (826) 
Phe

>  <MOL_WT>  (826) 
180.207

>  <LOGP>  (826) 
0.3444200000000001

>  <TPSA>  (826) 
76.21

>  <POPULARITY>  (826) 
4.1

>  <PROTECTED>  (826) 
TRUE

>  <SMILES>  (826) 
N[C@@H](Cc1(ccc(C)nc1))C(=O)O

>  <INCHIKEY>  (826) 
GDSXXYKEDGEVSD-QMMMGPOBSA-N

$$$$
Ala_pyrid3yl_6OMe
     RDKit          2D

 14 14  0  0  0  0  0  0  0  0999 V2000
   -2.0397    1.6757    0.0000 N   0  0  0  0  0  0  0  0  0  0  0  0
   -2.4395    0.2299    0.0000 C   0  0  0  0  0  0  0  0  0  0  0  0
   -1.3873   -0.8392    0.0000 C   0  0  0  0  0  0  0  0  0  0  0  0
    0.0646   -0.4625    0.0000 C   0  0  0  0  0  0  0  0  0  0  0  0
    0.4644    0.9832    0.0000 C   0  0  0  0  0  0  0  0  0  0  0  0
    1.9164    1.3598    0.0000 C   0  0  0  0  0  0  0  0  0  0  0  0
    2.9685    0.2907    0.0000 C   0  0  0  0  0  0  0  0  0  0  0  0
    4.4205    0.6674    0.0000 O   0  0  0  0  0  0  0  0  0  0  0  0
    5.4726   -0.4017    0.0000 C   0  0  0  0  0  0  0  0  0  0  0  0
    2.5687   -1.1550    0.0000 N   0  0  0  0  0  0  0  0  0  0  0  0
    1.1168   -1.5316    0.0000 C   0  0  0  0  0  0  0  0  0  0  0  0
   -3.8914   -0.1467    0.0000 C   0  0  0  0  0  0  0  0  0  0  0  0
   -4.2912   -1.5924    0.0000 O   0  0  0  0  0  0  0  0  0  0  0  0
   -4.9436    0.9224    0.0000 O   0  0  0  0  0  0  0  0  0  0  0  0
  2  1  1  1
  2  3  1  0
  3  4  1  0
  4  5  1  0
  5  6  2  0
  6  7  1  0
  7  8  1  0
  8  9  1  0
  7 10  2  0
 10 11  1  0
  2 12  1  0
 12 13  2  0
 12 14  1  0
 11  4  2  0
M  END
>  <rName>  (827) 
Ala_pyrid3yl_6OMe

>  <PQ_SYMBOL>  (827) 
Ala_pyrid3yl_6OMe

>  <FULL_NAME>  (827) 
(S)-2-amino-3-(6-methoxypyridin-3-yl)propanoic acid

>  <IUPAC_CONDENSED>  (827) 
Ala(pyrid-3-yl(6-OMe))

>  <IUPAC>  (827) 
(2S)-2-amino-3-(6-methoxypyridin-3-yl)propanoic acid

>  <TYPE>  (827) 
Backbone

>  <CLASS>  (827) 
alpha

>  <ANALOG>  (827) 
Phe

>  <MOL_WT>  (827) 
196.20599999999996

>  <LOGP>  (827) 
0.044599999999999695

>  <TPSA>  (827) 
85.44000000000001

>  <POPULARITY>  (827) 
5.6

>  <PROTECTED>  (827) 
TRUE

>  <SMILES>  (827) 
N[C@@H](Cc1(ccc(OC)nc1))C(=O)O

>  <INCHIKEY>  (827) 
VJKOXBUJHKCZEC-ZETCQYMHSA-N

$$$$
Ala_pyrid4yl_2Cl
     RDKit          2D

 13 13  0  0  0  0  0  0  0  0999 V2000
   -1.7680    1.6690    0.0000 N   0  0  0  0  0  0  0  0  0  0  0  0
   -1.9932    0.1860    0.0000 C   0  0  0  0  0  0  0  0  0  0  0  0
   -0.8215   -0.7506    0.0000 C   0  0  0  0  0  0  0  0  0  0  0  0
    0.5754   -0.2041    0.0000 C   0  0  0  0  0  0  0  0  0  0  0  0
    0.8006    1.2789    0.0000 C   0  0  0  0  0  0  0  0  0  0  0  0
    2.1976    1.8254    0.0000 C   0  0  0  0  0  0  0  0  0  0  0  0
    3.3693    0.8888    0.0000 N   0  0  0  0  0  0  0  0  0  0  0  0
    3.1441   -0.5942    0.0000 C   0  0  0  0  0  0  0  0  0  0  0  0
    4.3158   -1.5307    0.0000 Cl  0  0  0  0  0  0  0  0  0  0  0  0
    1.7472   -1.1406    0.0000 C   0  0  0  0  0  0  0  0  0  0  0  0
   -3.3901   -0.3605    0.0000 C   0  0  0  0  0  0  0  0  0  0  0  0
   -3.6153   -1.8435    0.0000 O   0  0  0  0  0  0  0  0  0  0  0  0
   -4.5618    0.5760    0.0000 O   0  0  0  0  0  0  0  0  0  0  0  0
  2  1  1  1
  2  3  1  0
  3  4  1  0
  4  5  1  0
  5  6  2  0
  6  7  1  0
  7  8  2  0
  8  9  1  0
  8 10  1  0
  2 11  1  0
 11 12  2  0
 11 13  1  0
 10  4  2  0
M  END
>  <rName>  (828) 
Ala_pyrid4yl_2Cl

>  <PQ_SYMBOL>  (828) 
Ala_pyrid4yl_2Cl

>  <FULL_NAME>  (828) 
(S)-2-amino-3-(2-chloropyridin-4-yl)propanoic acid

>  <IUPAC_CONDENSED>  (828) 
Ala(pyrid-4-yl(2-Cl))

>  <IUPAC>  (828) 
(2S)-2-amino-3-(2-chloropyridin-4-yl)propanoic acid

>  <TYPE>  (828) 
Backbone

>  <CLASS>  (828) 
alpha

>  <ANALOG>  (828) 
Phe

>  <MOL_WT>  (828) 
200.625

>  <LOGP>  (828) 
0.6894

>  <TPSA>  (828) 
76.21

>  <POPULARITY>  (828) 
4.0

>  <PROTECTED>  (828) 
TRUE

>  <SMILES>  (828) 
N[C@@H](Cc1(ccnc(Cl)c1))C(=O)O

>  <INCHIKEY>  (828) 
LHQLWGWKBFFKJA-LURJTMIESA-N

$$$$
Ala_pyrid4yl_3Br
     RDKit          2D

 13 13  0  0  0  0  0  0  0  0999 V2000
   -1.4864    1.8099    0.0000 N   0  0  0  0  0  0  0  0  0  0  0  0
   -1.7669    0.3364    0.0000 C   0  0  0  0  0  0  0  0  0  0  0  0
   -0.6311   -0.6433    0.0000 C   0  0  0  0  0  0  0  0  0  0  0  0
    0.7853   -0.1495    0.0000 C   0  0  0  0  0  0  0  0  0  0  0  0
    1.0658    1.3241    0.0000 C   0  0  0  0  0  0  0  0  0  0  0  0
    2.4822    1.8179    0.0000 C   0  0  0  0  0  0  0  0  0  0  0  0
    3.6181    0.8382    0.0000 N   0  0  0  0  0  0  0  0  0  0  0  0
    3.3376   -0.6353    0.0000 C   0  0  0  0  0  0  0  0  0  0  0  0
    1.9212   -1.1292    0.0000 C   0  0  0  0  0  0  0  0  0  0  0  0
    1.6407   -2.6027    0.0000 Br  0  0  0  0  0  0  0  0  0  0  0  0
   -3.1833   -0.1575    0.0000 C   0  0  0  0  0  0  0  0  0  0  0  0
   -3.4638   -1.6310    0.0000 O   0  0  0  0  0  0  0  0  0  0  0  0
   -4.3192    0.8222    0.0000 O   0  0  0  0  0  0  0  0  0  0  0  0
  2  1  1  1
  2  3  1  0
  3  4  1  0
  4  5  1  0
  5  6  2  0
  6  7  1  0
  7  8  2  0
  8  9  1  0
  9 10  1  0
  2 11  1  0
 11 12  2  0
 11 13  1  0
  9  4  2  0
M  END
>  <rName>  (829) 
Ala_pyrid4yl_3Br

>  <PQ_SYMBOL>  (829) 
Ala_pyrid4yl_3Br

>  <FULL_NAME>  (829) 
(2S)-2-Amino-3-(3-bromopyridin-4-YL)propanoic acid

>  <IUPAC_CONDENSED>  (829) 
Ala(pyrid-4-yl(3-Br))

>  <IUPAC>  (829) 
(2S)-2-amino-3-(3-bromopyridin-4-yl)propanoic acid

>  <TYPE>  (829) 
Backbone

>  <CLASS>  (829) 
alpha

>  <ANALOG>  (829) 
Phe

>  <MOL_WT>  (829) 
245.07599999999996

>  <LOGP>  (829) 
0.7985

>  <TPSA>  (829) 
76.21

>  <POPULARITY>  (829) 
2.8

>  <PROTECTED>  (829) 
TRUE

>  <SMILES>  (829) 
N[C@@H](Cc1(ccncc1Br))C(=O)O

>  <INCHIKEY>  (829) 
VGVPQWNGYUSCES-ZETCQYMHSA-N

$$$$
Ala_pyridazin3yl
     RDKit          2D

 12 12  0  0  0  0  0  0  0  0999 V2000
   -1.2391    1.6805    0.0000 N   0  0  0  0  0  0  0  0  0  0  0  0
   -1.6184    0.2292    0.0000 C   0  0  0  0  0  0  0  0  0  0  0  0
   -0.5513   -0.8249    0.0000 C   0  0  0  0  0  0  0  0  0  0  0  0
    0.8952   -0.4278    0.0000 C   0  0  0  0  0  0  0  0  0  0  0  0
    1.2745    1.0235    0.0000 C   0  0  0  0  0  0  0  0  0  0  0  0
    2.7210    1.4206    0.0000 C   0  0  0  0  0  0  0  0  0  0  0  0
    3.7882    0.3665    0.0000 C   0  0  0  0  0  0  0  0  0  0  0  0
    3.4088   -1.0848    0.0000 N   0  0  0  0  0  0  0  0  0  0  0  0
    1.9624   -1.4819    0.0000 N   0  0  0  0  0  0  0  0  0  0  0  0
   -3.0649   -0.1679    0.0000 C   0  0  0  0  0  0  0  0  0  0  0  0
   -3.4442   -1.6191    0.0000 O   0  0  0  0  0  0  0  0  0  0  0  0
   -4.1321    0.8862    0.0000 O   0  0  0  0  0  0  0  0  0  0  0  0
  2  1  1  1
  2  3  1  0
  3  4  1  0
  4  5  2  0
  5  6  1  0
  6  7  2  0
  7  8  1  0
  8  9  2  0
  2 10  1  0
 10 11  2  0
 10 12  1  0
  9  4  1  0
M  END
>  <rName>  (830) 
Ala_pyridazin3yl

>  <PQ_SYMBOL>  (830) 
Ala_pyridazin3yl

>  <FULL_NAME>  (830) 
(S)-2-Amino-3-(pyridazin-3-yl)propanoic acid

>  <IUPAC_CONDENSED>  (830) 
Ala(pyridazin-3-yl)

>  <IUPAC>  (830) 
(2S)-2-amino-3-(pyridazin-3-yl)propanoic acid

>  <TYPE>  (830) 
Backbone

>  <CLASS>  (830) 
alpha

>  <ANALOG>  (830) 
Phe

>  <MOL_WT>  (830) 
167.16799999999998

>  <LOGP>  (830) 
-0.569

>  <TPSA>  (830) 
89.10000000000001

>  <POPULARITY>  (830) 
3.6

>  <PROTECTED>  (830) 
TRUE

>  <SMILES>  (830) 
N[C@@H](Cc1(cccnn1))C(=O)O

>  <INCHIKEY>  (830) 
BGMINVIHGGTWEC-LURJTMIESA-N

$$$$
Ala_pyridazin3yl_6Cl
     RDKit          2D

 13 13  0  0  0  0  0  0  0  0999 V2000
   -1.5766    1.6851    0.0000 N   0  0  0  0  0  0  0  0  0  0  0  0
   -2.0128    0.2500    0.0000 C   0  0  0  0  0  0  0  0  0  0  0  0
   -0.9880   -0.8454    0.0000 C   0  0  0  0  0  0  0  0  0  0  0  0
    0.4730   -0.5055    0.0000 C   0  0  0  0  0  0  0  0  0  0  0  0
    0.9092    0.9296    0.0000 C   0  0  0  0  0  0  0  0  0  0  0  0
    2.3702    1.2695    0.0000 C   0  0  0  0  0  0  0  0  0  0  0  0
    3.3950    0.1741    0.0000 C   0  0  0  0  0  0  0  0  0  0  0  0
    4.8560    0.5140    0.0000 Cl  0  0  0  0  0  0  0  0  0  0  0  0
    2.9588   -1.2611    0.0000 N   0  0  0  0  0  0  0  0  0  0  0  0
    1.4978   -1.6009    0.0000 N   0  0  0  0  0  0  0  0  0  0  0  0
   -3.4738   -0.0899    0.0000 C   0  0  0  0  0  0  0  0  0  0  0  0
   -3.9100   -1.5250    0.0000 O   0  0  0  0  0  0  0  0  0  0  0  0
   -4.4986    1.0055    0.0000 O   0  0  0  0  0  0  0  0  0  0  0  0
  2  1  1  1
  2  3  1  0
  3  4  1  0
  4  5  1  0
  5  6  2  0
  6  7  1  0
  7  8  1  0
  7  9  2  0
  9 10  1  0
  2 11  1  0
 11 12  2  0
 11 13  1  0
 10  4  2  0
M  END
>  <rName>  (831) 
Ala_pyridazin3yl_6Cl

>  <PQ_SYMBOL>  (831) 
Ala_pyridazin3yl_6Cl

>  <FULL_NAME>  (831) 
(S)-2-amino-3-(6-chloropyridazin-3-yl)propanoic acid

>  <IUPAC_CONDENSED>  (831) 
Ala(pyridazin-3-yl(6-Cl))

>  <IUPAC>  (831) 
(2S)-2-amino-3-(6-chloropyridazin-3-yl)propanoic acid

>  <TYPE>  (831) 
Backbone

>  <CLASS>  (831) 
alpha

>  <ANALOG>  (831) 
Phe

>  <MOL_WT>  (831) 
201.613

>  <LOGP>  (831) 
0.08439999999999975

>  <TPSA>  (831) 
89.10000000000001

>  <POPULARITY>  (831) 
2.6

>  <PROTECTED>  (831) 
TRUE

>  <SMILES>  (831) 
N[C@@H](Cc1(ccc(Cl)nn1))C(=O)O

>  <INCHIKEY>  (831) 
DDCIPAULZBTVPC-YFKPBYRVSA-N

$$$$
Ala_pyridazin3yl_6Me
     RDKit          2D

 13 13  0  0  0  0  0  0  0  0999 V2000
   -1.5766    1.6851    0.0000 N   0  0  0  0  0  0  0  0  0  0  0  0
   -2.0128    0.2500    0.0000 C   0  0  0  0  0  0  0  0  0  0  0  0
   -0.9880   -0.8454    0.0000 C   0  0  0  0  0  0  0  0  0  0  0  0
    0.4730   -0.5055    0.0000 C   0  0  0  0  0  0  0  0  0  0  0  0
    0.9092    0.9296    0.0000 C   0  0  0  0  0  0  0  0  0  0  0  0
    2.3702    1.2695    0.0000 C   0  0  0  0  0  0  0  0  0  0  0  0
    3.3950    0.1741    0.0000 C   0  0  0  0  0  0  0  0  0  0  0  0
    4.8560    0.5140    0.0000 C   0  0  0  0  0  0  0  0  0  0  0  0
    2.9588   -1.2611    0.0000 N   0  0  0  0  0  0  0  0  0  0  0  0
    1.4978   -1.6009    0.0000 N   0  0  0  0  0  0  0  0  0  0  0  0
   -3.4738   -0.0899    0.0000 C   0  0  0  0  0  0  0  0  0  0  0  0
   -3.9100   -1.5250    0.0000 O   0  0  0  0  0  0  0  0  0  0  0  0
   -4.4986    1.0055    0.0000 O   0  0  0  0  0  0  0  0  0  0  0  0
  2  1  1  1
  2  3  1  0
  3  4  1  0
  4  5  1  0
  5  6  2  0
  6  7  1  0
  7  8  1  0
  7  9  2  0
  9 10  1  0
  2 11  1  0
 11 12  2  0
 11 13  1  0
 10  4  2  0
M  END
>  <rName>  (832) 
Ala_pyridazin3yl_6Me

>  <PQ_SYMBOL>  (832) 
Ala_pyridazin3yl_6Me

>  <FULL_NAME>  (832) 
(S)-2-amino-3-(6-methylpyridazin-3-yl)propanoic acid

>  <IUPAC_CONDENSED>  (832) 
Ala(pyridazin-3-yl(6-Me))

>  <IUPAC>  (832) 
(2S)-2-amino-3-(6-methylpyridazin-3-yl)propanoic acid

>  <TYPE>  (832) 
Backbone

>  <CLASS>  (832) 
alpha

>  <ANALOG>  (832) 
Phe

>  <MOL_WT>  (832) 
181.19499999999996

>  <LOGP>  (832) 
-0.2605800000000001

>  <TPSA>  (832) 
89.10000000000001

>  <POPULARITY>  (832) 
2.8

>  <PROTECTED>  (832) 
TRUE

>  <SMILES>  (832) 
N[C@@H](Cc1(ccc(C)nn1))C(=O)O

>  <INCHIKEY>  (832) 
GFVRFYYOWLCGEZ-ZETCQYMHSA-N

$$$$
Ala_pyridazin4yl
     RDKit          2D

 12 12  0  0  0  0  0  0  0  0999 V2000
   -1.2391    1.6805    0.0000 N   0  0  0  0  0  0  0  0  0  0  0  0
   -1.6184    0.2292    0.0000 C   0  0  0  0  0  0  0  0  0  0  0  0
   -0.5513   -0.8249    0.0000 C   0  0  0  0  0  0  0  0  0  0  0  0
    0.8952   -0.4278    0.0000 C   0  0  0  0  0  0  0  0  0  0  0  0
    1.2745    1.0235    0.0000 C   0  0  0  0  0  0  0  0  0  0  0  0
    2.7210    1.4206    0.0000 C   0  0  0  0  0  0  0  0  0  0  0  0
    3.7882    0.3665    0.0000 N   0  0  0  0  0  0  0  0  0  0  0  0
    3.4088   -1.0848    0.0000 N   0  0  0  0  0  0  0  0  0  0  0  0
    1.9624   -1.4819    0.0000 C   0  0  0  0  0  0  0  0  0  0  0  0
   -3.0649   -0.1679    0.0000 C   0  0  0  0  0  0  0  0  0  0  0  0
   -3.4442   -1.6191    0.0000 O   0  0  0  0  0  0  0  0  0  0  0  0
   -4.1321    0.8862    0.0000 O   0  0  0  0  0  0  0  0  0  0  0  0
  2  1  1  1
  2  3  1  0
  3  4  1  0
  4  5  1  0
  5  6  2  0
  6  7  1  0
  7  8  2  0
  8  9  1  0
  2 10  1  0
 10 11  2  0
 10 12  1  0
  9  4  2  0
M  END
>  <rName>  (833) 
Ala_pyridazin4yl

>  <PQ_SYMBOL>  (833) 
Ala_pyridazin4yl

>  <FULL_NAME>  (833) 
β-(pyridazin-4-yl)-L-alanine

>  <IUPAC_CONDENSED>  (833) 
Ala(pyridazin-4-yl)

>  <IUPAC>  (833) 
(2S)-2-amino-3-(pyridazin-4-yl)propanoic acid

>  <TYPE>  (833) 
Backbone

>  <CLASS>  (833) 
alpha

>  <ANALOG>  (833) 
Phe

>  <MOL_WT>  (833) 
167.16799999999998

>  <LOGP>  (833) 
-0.5690000000000004

>  <TPSA>  (833) 
89.10000000000001

>  <POPULARITY>  (833) 
3.9

>  <PROTECTED>  (833) 
TRUE

>  <SMILES>  (833) 
N[C@@H](Cc1(ccnnc1))C(=O)O

>  <INCHIKEY>  (833) 
IOIQFYKCCUDSQT-LURJTMIESA-N

$$$$
Ala_pyrimid2yl
     RDKit          2D

 12 12  0  0  0  0  0  0  0  0999 V2000
   -1.2391    1.6805    0.0000 N   0  0  0  0  0  0  0  0  0  0  0  0
   -1.6184    0.2292    0.0000 C   0  0  0  0  0  0  0  0  0  0  0  0
   -0.5513   -0.8249    0.0000 C   0  0  0  0  0  0  0  0  0  0  0  0
    0.8952   -0.4278    0.0000 C   0  0  0  0  0  0  0  0  0  0  0  0
    1.2745    1.0235    0.0000 N   0  0  0  0  0  0  0  0  0  0  0  0
    2.7210    1.4206    0.0000 C   0  0  0  0  0  0  0  0  0  0  0  0
    3.7882    0.3665    0.0000 C   0  0  0  0  0  0  0  0  0  0  0  0
    3.4088   -1.0848    0.0000 C   0  0  0  0  0  0  0  0  0  0  0  0
    1.9624   -1.4819    0.0000 N   0  0  0  0  0  0  0  0  0  0  0  0
   -3.0649   -0.1679    0.0000 C   0  0  0  0  0  0  0  0  0  0  0  0
   -3.4442   -1.6191    0.0000 O   0  0  0  0  0  0  0  0  0  0  0  0
   -4.1321    0.8862    0.0000 O   0  0  0  0  0  0  0  0  0  0  0  0
  2  1  1  1
  2  3  1  0
  3  4  1  0
  4  5  2  0
  5  6  1  0
  6  7  2  0
  7  8  1  0
  8  9  2  0
  2 10  1  0
 10 11  2  0
 10 12  1  0
  9  4  1  0
M  END
>  <rName>  (834) 
Ala_pyrimid2yl

>  <PQ_SYMBOL>  (834) 
Ala_pyrimid2yl

>  <FULL_NAME>  (834) 
(2S)-2-amino-3-(pyrimidin-2-yl)propanoic acid

>  <IUPAC_CONDENSED>  (834) 
Ala(pyrimid-2-yl)

>  <IUPAC>  (834) 
(2S)-2-amino-3-(pyrimidin-2-yl)propanoic acid

>  <TYPE>  (834) 
Backbone

>  <CLASS>  (834) 
alpha

>  <ANALOG>  (834) 
Phe

>  <MOL_WT>  (834) 
167.16799999999998

>  <LOGP>  (834) 
-0.5690000000000004

>  <TPSA>  (834) 
89.10000000000001

>  <POPULARITY>  (834) 
4.4

>  <PROTECTED>  (834) 
TRUE

>  <SMILES>  (834) 
N[C@@H](Cc1(ncccn1))C(=O)O

>  <INCHIKEY>  (834) 
XCNOBDDQOATTBY-YFKPBYRVSA-N

$$$$
Ala_pyrimid2yl_5Br
     RDKit          2D

 13 13  0  0  0  0  0  0  0  0999 V2000
   -1.5766    1.6851    0.0000 N   0  0  0  0  0  0  0  0  0  0  0  0
   -2.0128    0.2500    0.0000 C   0  0  0  0  0  0  0  0  0  0  0  0
   -0.9880   -0.8454    0.0000 C   0  0  0  0  0  0  0  0  0  0  0  0
    0.4730   -0.5055    0.0000 C   0  0  0  0  0  0  0  0  0  0  0  0
    0.9092    0.9296    0.0000 N   0  0  0  0  0  0  0  0  0  0  0  0
    2.3702    1.2695    0.0000 C   0  0  0  0  0  0  0  0  0  0  0  0
    3.3950    0.1741    0.0000 C   0  0  0  0  0  0  0  0  0  0  0  0
    4.8560    0.5140    0.0000 Br  0  0  0  0  0  0  0  0  0  0  0  0
    2.9588   -1.2611    0.0000 C   0  0  0  0  0  0  0  0  0  0  0  0
    1.4978   -1.6009    0.0000 N   0  0  0  0  0  0  0  0  0  0  0  0
   -3.4738   -0.0899    0.0000 C   0  0  0  0  0  0  0  0  0  0  0  0
   -3.9100   -1.5250    0.0000 O   0  0  0  0  0  0  0  0  0  0  0  0
   -4.4986    1.0055    0.0000 O   0  0  0  0  0  0  0  0  0  0  0  0
  2  1  1  1
  2  3  1  0
  3  4  1  0
  4  5  1  0
  5  6  2  0
  6  7  1  0
  7  8  1  0
  7  9  2  0
  9 10  1  0
  2 11  1  0
 11 12  2  0
 11 13  1  0
 10  4  2  0
M  END
>  <rName>  (835) 
Ala_pyrimid2yl_5Br

>  <PQ_SYMBOL>  (835) 
Ala_pyrimid2yl_5Br

>  <FULL_NAME>  (835) 
N[C@@H](Cc1ncc(Br)cn1)C(=O)O

>  <IUPAC_CONDENSED>  (835) 
Ala(pyrimid-2-yl(5-Br))

>  <IUPAC>  (835) 
(2S)-2-amino-3-(5-bromopyrimidin-2-yl)propanoic acid

>  <TYPE>  (835) 
Backbone

>  <CLASS>  (835) 
alpha

>  <ANALOG>  (835) 
Phe

>  <MOL_WT>  (835) 
246.064

>  <LOGP>  (835) 
0.1934999999999995

>  <TPSA>  (835) 
89.10000000000001

>  <POPULARITY>  (835) 
2.6

>  <PROTECTED>  (835) 
TRUE

>  <SMILES>  (835) 
N[C@@H](Cc1(ncc(Br)cn1))C(=O)O

>  <INCHIKEY>  (835) 
USQUKRXAKLHTRW-YFKPBYRVSA-N

$$$$
Ala_pyrimid2yl_5CF3
     RDKit          2D

 16 16  0  0  0  0  0  0  0  0999 V2000
   -2.5021    1.6866    0.0000 N   0  0  0  0  0  0  0  0  0  0  0  0
   -3.0051    0.2735    0.0000 C   0  0  0  0  0  0  0  0  0  0  0  0
   -2.0328   -0.8687    0.0000 C   0  0  0  0  0  0  0  0  0  0  0  0
   -0.5574   -0.5977    0.0000 C   0  0  0  0  0  0  0  0  0  0  0  0
   -0.0545    0.8155    0.0000 N   0  0  0  0  0  0  0  0  0  0  0  0
    1.4208    1.0865    0.0000 C   0  0  0  0  0  0  0  0  0  0  0  0
    2.3932   -0.0557    0.0000 C   0  0  0  0  0  0  0  0  0  0  0  0
    1.8902   -1.4688    0.0000 C   0  0  0  0  0  0  0  0  0  0  0  0
    0.4149   -1.7398    0.0000 N   0  0  0  0  0  0  0  0  0  0  0  0
    3.8685    0.2153    0.0000 C   0  0  0  0  0  0  0  0  0  0  0  0
    5.3438    0.4863    0.0000 F   0  0  0  0  0  0  0  0  0  0  0  0
    4.1395   -1.2600    0.0000 F   0  0  0  0  0  0  0  0  0  0  0  0
    3.5975    1.6906    0.0000 F   0  0  0  0  0  0  0  0  0  0  0  0
   -4.4804    0.0025    0.0000 C   0  0  0  0  0  0  0  0  0  0  0  0
   -4.9834   -1.4107    0.0000 O   0  0  0  0  0  0  0  0  0  0  0  0
   -5.4528    1.1446    0.0000 O   0  0  0  0  0  0  0  0  0  0  0  0
  2  1  1  1
  2  3  1  0
  3  4  1  0
  4  5  1  0
  5  6  2  0
  6  7  1  0
  7  8  2  0
  8  9  1  0
  7 10  1  0
 10 11  1  0
 10 12  1  0
 10 13  1  0
  2 14  1  0
 14 15  2  0
 14 16  1  0
  9  4  2  0
M  END
>  <rName>  (836) 
Ala_pyrimid2yl_5CF3

>  <PQ_SYMBOL>  (836) 
Ala_pyrimid2yl_5CF3

>  <FULL_NAME>  (836) 
(S)-2-amino-3-(5-(trifluoromethyl)pyrimidin-2-yl)propanoic acid

>  <IUPAC_CONDENSED>  (836) 
Ala(pyrimid-2-yl(5-CF3))

>  <IUPAC>  (836) 
(2S)-2-amino-3-(5-(trifluoromethyl)pyrimidin-2-yl)propanoic acid

>  <TYPE>  (836) 
Backbone

>  <CLASS>  (836) 
alpha

>  <ANALOG>  (836) 
Phe

>  <MOL_WT>  (836) 
235.16499999999996

>  <LOGP>  (836) 
0.44979999999999953

>  <TPSA>  (836) 
89.10000000000001

>  <POPULARITY>  (836) 
2.4

>  <PROTECTED>  (836) 
TRUE

>  <SMILES>  (836) 
N[C@@H](Cc1(ncc(cn1)C(F)(F)F))C(=O)O

>  <INCHIKEY>  (836) 
AYVJTVGTIXPXRW-YFKPBYRVSA-N

$$$$
Ala_pyrimid4yl
     RDKit          2D

 12 12  0  0  0  0  0  0  0  0999 V2000
   -1.2391    1.6805    0.0000 N   0  0  0  0  0  0  0  0  0  0  0  0
   -1.6184    0.2292    0.0000 C   0  0  0  0  0  0  0  0  0  0  0  0
   -0.5513   -0.8249    0.0000 C   0  0  0  0  0  0  0  0  0  0  0  0
    0.8952   -0.4278    0.0000 C   0  0  0  0  0  0  0  0  0  0  0  0
    1.2745    1.0235    0.0000 C   0  0  0  0  0  0  0  0  0  0  0  0
    2.7210    1.4206    0.0000 C   0  0  0  0  0  0  0  0  0  0  0  0
    3.7882    0.3665    0.0000 N   0  0  0  0  0  0  0  0  0  0  0  0
    3.4088   -1.0848    0.0000 C   0  0  0  0  0  0  0  0  0  0  0  0
    1.9624   -1.4819    0.0000 N   0  0  0  0  0  0  0  0  0  0  0  0
   -3.0649   -0.1679    0.0000 C   0  0  0  0  0  0  0  0  0  0  0  0
   -3.4442   -1.6191    0.0000 O   0  0  0  0  0  0  0  0  0  0  0  0
   -4.1321    0.8862    0.0000 O   0  0  0  0  0  0  0  0  0  0  0  0
  2  1  1  1
  2  3  1  0
  3  4  1  0
  4  5  1  0
  5  6  2  0
  6  7  1  0
  7  8  2  0
  8  9  1  0
  2 10  1  0
 10 11  2  0
 10 12  1  0
  9  4  2  0
M  END
>  <rName>  (837) 
Ala_pyrimid4yl

>  <PQ_SYMBOL>  (837) 
Ala_pyrimid4yl

>  <FULL_NAME>  (837) 
(s)-2-Amino-3-(pyrimidin-4-yl)propanoic acid

>  <IUPAC_CONDENSED>  (837) 
Ala(pyrimid-4-yl)

>  <IUPAC>  (837) 
(2S)-2-amino-3-(pyrimidin-4-yl)propanoic acid

>  <TYPE>  (837) 
Backbone

>  <CLASS>  (837) 
alpha

>  <ANALOG>  (837) 
Phe

>  <MOL_WT>  (837) 
167.16799999999998

>  <LOGP>  (837) 
-0.569

>  <TPSA>  (837) 
89.10000000000001

>  <POPULARITY>  (837) 
3.5

>  <PROTECTED>  (837) 
TRUE

>  <SMILES>  (837) 
N[C@@H](Cc1(ccncn1))C(=O)O

>  <INCHIKEY>  (837) 
VPAWHCGYWCVBBF-LURJTMIESA-N

$$$$
Ala_pyrimid4yl_2SMe
     RDKit          2D

 14 14  0  0  0  0  0  0  0  0999 V2000
   -2.2742    1.6194    0.0000 N   0  0  0  0  0  0  0  0  0  0  0  0
   -2.3172    0.1200    0.0000 C   0  0  0  0  0  0  0  0  0  0  0  0
   -1.0402   -0.6669    0.0000 C   0  0  0  0  0  0  0  0  0  0  0  0
    0.2798    0.0456    0.0000 C   0  0  0  0  0  0  0  0  0  0  0  0
    0.3228    1.5450    0.0000 C   0  0  0  0  0  0  0  0  0  0  0  0
    1.6428    2.2574    0.0000 C   0  0  0  0  0  0  0  0  0  0  0  0
    2.9198    1.4705    0.0000 N   0  0  0  0  0  0  0  0  0  0  0  0
    2.8768   -0.0289    0.0000 C   0  0  0  0  0  0  0  0  0  0  0  0
    1.5568   -0.7414    0.0000 N   0  0  0  0  0  0  0  0  0  0  0  0
    4.1538   -0.8158    0.0000 S   0  0  0  0  0  0  0  0  0  0  0  0
    4.1108   -2.3152    0.0000 C   0  0  0  0  0  0  0  0  0  0  0  0
   -3.6372   -0.5924    0.0000 C   0  0  0  0  0  0  0  0  0  0  0  0
   -3.6802   -2.0918    0.0000 O   0  0  0  0  0  0  0  0  0  0  0  0
   -4.9142    0.1945    0.0000 O   0  0  0  0  0  0  0  0  0  0  0  0
  2  1  1  1
  2  3  1  0
  3  4  1  0
  4  5  1  0
  5  6  2  0
  6  7  1  0
  7  8  2  0
  8  9  1  0
  8 10  1  0
 10 11  1  0
  2 12  1  0
 12 13  2  0
 12 14  1  0
  9  4  2  0
M  END
>  <rName>  (838) 
Ala_pyrimid4yl_2SMe

>  <PQ_SYMBOL>  (838) 
Ala_pyrimid4yl_2SMe

>  <FULL_NAME>  (838) 
(S)-2-amino-3-(2-(methylthio)pyrimidin-4-yl)propanoic acid

>  <IUPAC_CONDENSED>  (838) 
Ala(pyrimid-4-yl(2-SMe))

>  <IUPAC>  (838) 
(2S)-2-amino-3-(2-(methylsulfanyl)pyrimidin-4-yl)propanoic acid

>  <TYPE>  (838) 
Backbone

>  <CLASS>  (838) 
alpha

>  <ANALOG>  (838) 
Phe

>  <MOL_WT>  (838) 
213.26199999999997

>  <LOGP>  (838) 
0.15289999999999976

>  <TPSA>  (838) 
89.10000000000001

>  <POPULARITY>  (838) 
2.7

>  <PROTECTED>  (838) 
TRUE

>  <SMILES>  (838) 
N[C@@H](Cc1(ccnc(n1)SC))C(=O)O

>  <INCHIKEY>  (838) 
GRFRLBPIABADAZ-LURJTMIESA-N

$$$$
Ala_pyrimid4yl_6SMe
     RDKit          2D

 14 14  0  0  0  0  0  0  0  0999 V2000
   -1.4396    1.6301    0.0000 N   0  0  0  0  0  0  0  0  0  0  0  0
   -2.1525    0.3103    0.0000 C   0  0  0  0  0  0  0  0  0  0  0  0
   -1.3660   -0.9669    0.0000 C   0  0  0  0  0  0  0  0  0  0  0  0
    0.1334   -0.9245    0.0000 C   0  0  0  0  0  0  0  0  0  0  0  0
    0.8463    0.3953    0.0000 C   0  0  0  0  0  0  0  0  0  0  0  0
    2.3457    0.4377    0.0000 C   0  0  0  0  0  0  0  0  0  0  0  0
    3.1322   -0.8396    0.0000 N   0  0  0  0  0  0  0  0  0  0  0  0
    2.4192   -2.1593    0.0000 C   0  0  0  0  0  0  0  0  0  0  0  0
    0.9198   -2.2018    0.0000 N   0  0  0  0  0  0  0  0  0  0  0  0
    3.0586    1.7575    0.0000 S   0  0  0  0  0  0  0  0  0  0  0  0
    4.5580    1.7999    0.0000 C   0  0  0  0  0  0  0  0  0  0  0  0
   -3.6519    0.2679    0.0000 C   0  0  0  0  0  0  0  0  0  0  0  0
   -4.3648   -1.0519    0.0000 O   0  0  0  0  0  0  0  0  0  0  0  0
   -4.4384    1.5452    0.0000 O   0  0  0  0  0  0  0  0  0  0  0  0
  2  1  1  1
  2  3  1  0
  3  4  1  0
  4  5  2  0
  5  6  1  0
  6  7  2  0
  7  8  1  0
  8  9  2  0
  6 10  1  0
 10 11  1  0
  2 12  1  0
 12 13  2  0
 12 14  1  0
  9  4  1  0
M  END
>  <rName>  (839) 
Ala_pyrimid4yl_6SMe

>  <PQ_SYMBOL>  (839) 
Ala_pyrimid4yl_6SMe

>  <FULL_NAME>  (839) 
(S)-2-amino-3-(6-(methylthio)pyrimidin-4-yl)propanoic acid

>  <IUPAC_CONDENSED>  (839) 
Ala(pyrimid-4-yl(6-SMe))

>  <IUPAC>  (839) 
(2S)-2-amino-3-(6-(methylsulfanyl)pyrimidin-4-yl)propanoic acid

>  <TYPE>  (839) 
Backbone

>  <CLASS>  (839) 
alpha

>  <ANALOG>  (839) 
Phe

>  <MOL_WT>  (839) 
213.26199999999997

>  <LOGP>  (839) 
0.1529000000000002

>  <TPSA>  (839) 
89.10000000000001

>  <POPULARITY>  (839) 
2.2

>  <PROTECTED>  (839) 
TRUE

>  <SMILES>  (839) 
N[C@@H](Cc1(cc(ncn1)SC))C(=O)O

>  <INCHIKEY>  (839) 
NDAGRIIWLZEAIH-LURJTMIESA-N

$$$$
Ala_pyrimid5yl
     RDKit          2D

 12 12  0  0  0  0  0  0  0  0999 V2000
   -1.2391    1.6805    0.0000 N   0  0  0  0  0  0  0  0  0  0  0  0
   -1.6184    0.2292    0.0000 C   0  0  0  0  0  0  0  0  0  0  0  0
   -0.5513   -0.8249    0.0000 C   0  0  0  0  0  0  0  0  0  0  0  0
    0.8952   -0.4278    0.0000 C   0  0  0  0  0  0  0  0  0  0  0  0
    1.2745    1.0235    0.0000 C   0  0  0  0  0  0  0  0  0  0  0  0
    2.7210    1.4206    0.0000 N   0  0  0  0  0  0  0  0  0  0  0  0
    3.7882    0.3665    0.0000 C   0  0  0  0  0  0  0  0  0  0  0  0
    3.4088   -1.0848    0.0000 N   0  0  0  0  0  0  0  0  0  0  0  0
    1.9624   -1.4819    0.0000 C   0  0  0  0  0  0  0  0  0  0  0  0
   -3.0649   -0.1679    0.0000 C   0  0  0  0  0  0  0  0  0  0  0  0
   -3.4442   -1.6191    0.0000 O   0  0  0  0  0  0  0  0  0  0  0  0
   -4.1321    0.8862    0.0000 O   0  0  0  0  0  0  0  0  0  0  0  0
  2  1  1  1
  2  3  1  0
  3  4  1  0
  4  5  2  0
  5  6  1  0
  6  7  2  0
  7  8  1  0
  8  9  2  0
  2 10  1  0
 10 11  2  0
 10 12  1  0
  9  4  1  0
M  END
>  <rName>  (840) 
Ala_pyrimid5yl

>  <PQ_SYMBOL>  (840) 
Ala_pyrimid5yl

>  <FULL_NAME>  (840) 
β-(pyrimidin-5-yl)-L-alanine

>  <IUPAC_CONDENSED>  (840) 
Ala(pyrimid-5-yl)

>  <IUPAC>  (840) 
(2S)-2-amino-3-(pyrimidin-5-yl)propanoic acid

>  <TYPE>  (840) 
Backbone

>  <CLASS>  (840) 
alpha

>  <ANALOG>  (840) 
Phe

>  <MOL_WT>  (840) 
167.16799999999998

>  <LOGP>  (840) 
-0.5690000000000004

>  <TPSA>  (840) 
89.10000000000001

>  <POPULARITY>  (840) 
5.7

>  <PROTECTED>  (840) 
TRUE

>  <SMILES>  (840) 
N[C@@H](Cc1(cncnc1))C(=O)O

>  <INCHIKEY>  (840) 
UFURPNJIXOBVRS-LURJTMIESA-N

$$$$
Ala_pyrimid5yl_24diOMe
     RDKit          2D

 16 16  0  0  0  0  0  0  0  0999 V2000
   -2.3497    1.9414    0.0000 N   0  0  0  0  0  0  0  0  0  0  0  0
   -2.6382    0.4694    0.0000 C   0  0  0  0  0  0  0  0  0  0  0  0
   -1.5077   -0.5165    0.0000 C   0  0  0  0  0  0  0  0  0  0  0  0
   -0.0887   -0.0304    0.0000 C   0  0  0  0  0  0  0  0  0  0  0  0
    0.1999    1.4416    0.0000 C   0  0  0  0  0  0  0  0  0  0  0  0
    1.6189    1.9277    0.0000 N   0  0  0  0  0  0  0  0  0  0  0  0
    2.7494    0.9418    0.0000 C   0  0  0  0  0  0  0  0  0  0  0  0
    4.1685    1.4279    0.0000 O   0  0  0  0  0  0  0  0  0  0  0  0
    5.2990    0.4420    0.0000 C   0  0  0  0  0  0  0  0  0  0  0  0
    2.4609   -0.5302    0.0000 N   0  0  0  0  0  0  0  0  0  0  0  0
    1.0418   -1.0163    0.0000 C   0  0  0  0  0  0  0  0  0  0  0  0
    0.7532   -2.4883    0.0000 O   0  0  0  0  0  0  0  0  0  0  0  0
    1.8837   -3.4742    0.0000 C   0  0  0  0  0  0  0  0  0  0  0  0
   -4.0573   -0.0166    0.0000 C   0  0  0  0  0  0  0  0  0  0  0  0
   -4.3459   -1.4886    0.0000 O   0  0  0  0  0  0  0  0  0  0  0  0
   -5.1878    0.9693    0.0000 O   0  0  0  0  0  0  0  0  0  0  0  0
  2  1  1  1
  2  3  1  0
  3  4  1  0
  4  5  1  0
  5  6  2  0
  6  7  1  0
  7  8  1  0
  8  9  1  0
  7 10  2  0
 10 11  1  0
 11 12  1  0
 12 13  1  0
  2 14  1  0
 14 15  2  0
 14 16  1  0
 11  4  2  0
M  END
>  <rName>  (841) 
Ala_pyrimid5yl_24diOMe

>  <PQ_SYMBOL>  (841) 
Ala_pyrimid5yl_24diOMe

>  <FULL_NAME>  (841) 
(S)-2-amino-3-(2,4-dimethoxypyrimidin-5-yl)propanoic acid

>  <IUPAC_CONDENSED>  (841) 
Ala(pyrimid-5-yl(2,4-diOMe))

>  <IUPAC>  (841) 
(2S)-2-amino-3-(2,4-dimethoxypyrimidin-5-yl)propanoic acid

>  <TYPE>  (841) 
Backbone

>  <CLASS>  (841) 
alpha

>  <ANALOG>  (841) 
Phe

>  <MOL_WT>  (841) 
227.21999999999997

>  <LOGP>  (841) 
-0.5518000000000001

>  <TPSA>  (841) 
107.56000000000002

>  <POPULARITY>  (841) 
2.5

>  <PROTECTED>  (841) 
TRUE

>  <SMILES>  (841) 
N[C@@H](Cc1(cnc(OC)nc1OC))C(=O)O

>  <INCHIKEY>  (841) 
JYTTUNITGWYPBZ-LURJTMIESA-N

$$$$
Ala_pyrimid5yl_2Cl
     RDKit          2D

 13 13  0  0  0  0  0  0  0  0999 V2000
   -1.5766    1.6851    0.0000 N   0  0  0  0  0  0  0  0  0  0  0  0
   -2.0128    0.2500    0.0000 C   0  0  0  0  0  0  0  0  0  0  0  0
   -0.9880   -0.8454    0.0000 C   0  0  0  0  0  0  0  0  0  0  0  0
    0.4730   -0.5055    0.0000 C   0  0  0  0  0  0  0  0  0  0  0  0
    0.9092    0.9296    0.0000 C   0  0  0  0  0  0  0  0  0  0  0  0
    2.3702    1.2695    0.0000 N   0  0  0  0  0  0  0  0  0  0  0  0
    3.3950    0.1741    0.0000 C   0  0  0  0  0  0  0  0  0  0  0  0
    4.8560    0.5140    0.0000 Cl  0  0  0  0  0  0  0  0  0  0  0  0
    2.9588   -1.2611    0.0000 N   0  0  0  0  0  0  0  0  0  0  0  0
    1.4978   -1.6009    0.0000 C   0  0  0  0  0  0  0  0  0  0  0  0
   -3.4738   -0.0899    0.0000 C   0  0  0  0  0  0  0  0  0  0  0  0
   -3.9100   -1.5250    0.0000 O   0  0  0  0  0  0  0  0  0  0  0  0
   -4.4986    1.0055    0.0000 O   0  0  0  0  0  0  0  0  0  0  0  0
  2  1  1  1
  2  3  1  0
  3  4  1  0
  4  5  1  0
  5  6  2  0
  6  7  1  0
  7  8  1  0
  7  9  2  0
  9 10  1  0
  2 11  1  0
 11 12  2  0
 11 13  1  0
 10  4  2  0
M  END
>  <rName>  (842) 
Ala_pyrimid5yl_2Cl

>  <PQ_SYMBOL>  (842) 
Ala_pyrimid5yl_2Cl

>  <FULL_NAME>  (842) 
(S)-2-amino-3-(2-chloropyrimidin-5-yl)propanoic acid

>  <IUPAC_CONDENSED>  (842) 
Ala(pyrimid-5-yl(2-Cl))

>  <IUPAC>  (842) 
(2S)-2-amino-3-(2-chloropyrimidin-5-yl)propanoic acid

>  <TYPE>  (842) 
Backbone

>  <CLASS>  (842) 
alpha

>  <ANALOG>  (842) 
Phe

>  <MOL_WT>  (842) 
201.613

>  <LOGP>  (842) 
0.0844000000000002

>  <TPSA>  (842) 
89.10000000000001

>  <POPULARITY>  (842) 
2.7

>  <PROTECTED>  (842) 
TRUE

>  <SMILES>  (842) 
N[C@@H](Cc1(cnc(Cl)nc1))C(=O)O

>  <INCHIKEY>  (842) 
XUMJZQKSRIHVPX-YFKPBYRVSA-N

$$$$
Ala_pyrimid5yl_2NH2
     RDKit          2D

 13 13  0  0  0  0  0  0  0  0999 V2000
   -1.5766    1.6851    0.0000 N   0  0  0  0  0  0  0  0  0  0  0  0
   -2.0128    0.2500    0.0000 C   0  0  0  0  0  0  0  0  0  0  0  0
   -0.9880   -0.8454    0.0000 C   0  0  0  0  0  0  0  0  0  0  0  0
    0.4730   -0.5055    0.0000 C   0  0  0  0  0  0  0  0  0  0  0  0
    0.9092    0.9296    0.0000 C   0  0  0  0  0  0  0  0  0  0  0  0
    2.3702    1.2695    0.0000 N   0  0  0  0  0  0  0  0  0  0  0  0
    3.3950    0.1741    0.0000 C   0  0  0  0  0  0  0  0  0  0  0  0
    4.8560    0.5140    0.0000 N   0  0  0  0  0  0  0  0  0  0  0  0
    2.9588   -1.2611    0.0000 N   0  0  0  0  0  0  0  0  0  0  0  0
    1.4978   -1.6009    0.0000 C   0  0  0  0  0  0  0  0  0  0  0  0
   -3.4738   -0.0899    0.0000 C   0  0  0  0  0  0  0  0  0  0  0  0
   -3.9100   -1.5250    0.0000 O   0  0  0  0  0  0  0  0  0  0  0  0
   -4.4986    1.0055    0.0000 O   0  0  0  0  0  0  0  0  0  0  0  0
  2  1  1  1
  2  3  1  0
  3  4  1  0
  4  5  1  0
  5  6  2  0
  6  7  1  0
  7  8  1  0
  7  9  2  0
  9 10  1  0
  2 11  1  0
 11 12  2  0
 11 13  1  0
 10  4  2  0
M  END
>  <rName>  (843) 
Ala_pyrimid5yl_2NH2

>  <PQ_SYMBOL>  (843) 
Ala_pyrimid5yl_2NH2

>  <FULL_NAME>  (843) 
(S)-2-amino-3-(2-aminopyrimidin-5-yl)propanoic acid

>  <IUPAC_CONDENSED>  (843) 
Ala(pyrimid-5-yl(2-NH2))

>  <IUPAC>  (843) 
(2S)-2-amino-3-(2-aminopyrimidin-5-yl)propanoic acid

>  <TYPE>  (843) 
Backbone

>  <CLASS>  (843) 
alpha

>  <ANALOG>  (843) 
Phe

>  <MOL_WT>  (843) 
182.18300000000002

>  <LOGP>  (843) 
-0.9867999999999995

>  <TPSA>  (843) 
115.11999999999999

>  <POPULARITY>  (843) 
3.1

>  <PROTECTED>  (843) 
TRUE

>  <SMILES>  (843) 
N[C@@H](Cc1(cnc(N)nc1))C(=O)O

>  <INCHIKEY>  (843) 
FTJNUKPPWFTTBK-YFKPBYRVSA-N

$$$$
Ala_pyrimid5yl_2OMe
     RDKit          2D

 14 14  0  0  0  0  0  0  0  0999 V2000
   -2.0397    1.6757    0.0000 N   0  0  0  0  0  0  0  0  0  0  0  0
   -2.4395    0.2299    0.0000 C   0  0  0  0  0  0  0  0  0  0  0  0
   -1.3873   -0.8392    0.0000 C   0  0  0  0  0  0  0  0  0  0  0  0
    0.0646   -0.4625    0.0000 C   0  0  0  0  0  0  0  0  0  0  0  0
    0.4644    0.9832    0.0000 C   0  0  0  0  0  0  0  0  0  0  0  0
    1.9164    1.3598    0.0000 N   0  0  0  0  0  0  0  0  0  0  0  0
    2.9685    0.2907    0.0000 C   0  0  0  0  0  0  0  0  0  0  0  0
    4.4205    0.6674    0.0000 O   0  0  0  0  0  0  0  0  0  0  0  0
    5.4726   -0.4017    0.0000 C   0  0  0  0  0  0  0  0  0  0  0  0
    2.5687   -1.1550    0.0000 N   0  0  0  0  0  0  0  0  0  0  0  0
    1.1168   -1.5316    0.0000 C   0  0  0  0  0  0  0  0  0  0  0  0
   -3.8914   -0.1467    0.0000 C   0  0  0  0  0  0  0  0  0  0  0  0
   -4.2912   -1.5924    0.0000 O   0  0  0  0  0  0  0  0  0  0  0  0
   -4.9436    0.9224    0.0000 O   0  0  0  0  0  0  0  0  0  0  0  0
  2  1  1  1
  2  3  1  0
  3  4  1  0
  4  5  1  0
  5  6  2  0
  6  7  1  0
  7  8  1  0
  8  9  1  0
  7 10  2  0
 10 11  1  0
  2 12  1  0
 12 13  2  0
 12 14  1  0
 11  4  2  0
M  END
>  <rName>  (844) 
Ala_pyrimid5yl_2OMe

>  <PQ_SYMBOL>  (844) 
Ala_pyrimid5yl_2OMe

>  <FULL_NAME>  (844) 
(S)-2-amino-3-(2-methoxypyrimidin-5-yl)propanoic acid

>  <IUPAC_CONDENSED>  (844) 
Ala(pyrimid-5-yl(2-OMe))

>  <IUPAC>  (844) 
(2S)-2-amino-3-(2-methoxypyrimidin-5-yl)propanoic acid

>  <TYPE>  (844) 
Backbone

>  <CLASS>  (844) 
alpha

>  <ANALOG>  (844) 
Phe

>  <MOL_WT>  (844) 
197.194

>  <LOGP>  (844) 
-0.5604

>  <TPSA>  (844) 
98.33

>  <POPULARITY>  (844) 
4.1

>  <PROTECTED>  (844) 
TRUE

>  <SMILES>  (844) 
N[C@@H](Cc1(cnc(OC)nc1))C(=O)O

>  <INCHIKEY>  (844) 
VEYAOPBCJJVULL-LURJTMIESA-N

$$$$
Ala_pyrrol1yl
     RDKit          2D

 11 11  0  0  0  0  0  0  0  0999 V2000
   -0.9461    1.6947    0.0000 N   0  0  0  0  0  0  0  0  0  0  0  0
   -1.3100    0.2395    0.0000 C   0  0  0  0  0  0  0  0  0  0  0  0
   -0.2317   -0.8032    0.0000 C   0  0  0  0  0  0  0  0  0  0  0  0
    1.2105   -0.3908    0.0000 N   0  0  0  0  0  0  0  0  0  0  0  0
    2.3919   -1.3151    0.0000 C   0  0  0  0  0  0  0  0  0  0  0  0
    3.6360   -0.4772    0.0000 C   0  0  0  0  0  0  0  0  0  0  0  0
    3.2236    0.9650    0.0000 C   0  0  0  0  0  0  0  0  0  0  0  0
    1.7245    1.0184    0.0000 C   0  0  0  0  0  0  0  0  0  0  0  0
   -2.7522   -0.1729    0.0000 C   0  0  0  0  0  0  0  0  0  0  0  0
   -3.1161   -1.6281    0.0000 O   0  0  0  0  0  0  0  0  0  0  0  0
   -3.8304    0.8698    0.0000 O   0  0  0  0  0  0  0  0  0  0  0  0
  2  1  1  1
  2  3  1  0
  3  4  1  0
  4  5  1  0
  5  6  2  0
  6  7  1  0
  7  8  2  0
  2  9  1  0
  9 10  2  0
  9 11  1  0
  8  4  1  0
M  END
>  <rName>  (845) 
Ala_pyrrol1yl

>  <PQ_SYMBOL>  (845) 
Ala_pyrrol1yl

>  <FULL_NAME>  (845) 
(2S)-2-amino-3-pyrrol-1-ylpropanoic acid

>  <IUPAC_CONDENSED>  (845) 
Ala(pyrrol-1-yl)

>  <IUPAC>  (845) 
(2S)-2-amino-3-pyrrol-1-ylpropanoic acid

>  <TYPE>  (845) 
Backbone

>  <CLASS>  (845) 
alpha

>  <ANALOG>  (845) 
Phe

>  <MOL_WT>  (845) 
154.16899999999995

>  <LOGP>  (845) 
-0.10000000000000037

>  <TPSA>  (845) 
68.25

>  <POPULARITY>  (845) 
2.2

>  <PROTECTED>  (845) 
TRUE

>  <SMILES>  (845) 
N[C@@H](Cn1(cccc1))C(=O)O

>  <INCHIKEY>  (845) 
VDHXLTBUWWQUPL-LURJTMIESA-N

$$$$
Ala_pyrrolidino_2oxo
     RDKit          2D

 12 12  0  0  0  0  0  0  0  0999 V2000
    1.3420    1.7952    0.0000 N   0  0  0  0  0  0  0  0  0  0  0  0
    1.5471    0.3093    0.0000 C   0  0  0  0  0  0  0  0  0  0  0  0
    0.3629   -0.6113    0.0000 C   0  0  0  0  0  0  0  0  0  0  0  0
   -1.0265   -0.0460    0.0000 N   0  0  0  0  0  0  0  0  0  0  0  0
   -1.3859    1.4103    0.0000 C   0  0  0  0  0  0  0  0  0  0  0  0
   -2.8819    1.5186    0.0000 C   0  0  0  0  0  0  0  0  0  0  0  0
   -3.4473    0.1292    0.0000 C   0  0  0  0  0  0  0  0  0  0  0  0
   -2.3005   -0.8378    0.0000 C   0  0  0  0  0  0  0  0  0  0  0  0
   -2.4088   -2.3339    0.0000 O   0  0  0  0  0  0  0  0  0  0  0  0
    2.9365   -0.2560    0.0000 C   0  0  0  0  0  0  0  0  0  0  0  0
    3.1417   -1.7420    0.0000 O   0  0  0  0  0  0  0  0  0  0  0  0
    4.1208    0.6646    0.0000 O   0  0  0  0  0  0  0  0  0  0  0  0
  2  1  1  6
  2  3  1  0
  3  4  1  0
  4  5  1  0
  5  6  1  0
  6  7  1  0
  7  8  1  0
  8  9  2  0
  2 10  1  0
 10 11  2  0
 10 12  1  0
  8  4  1  0
M  END
>  <rName>  (846) 
Ala_pyrrolidino_2oxo

>  <PQ_SYMBOL>  (846) 
Ala_pyrrolidino_2oxo

>  <FULL_NAME>  (846) 
(2S)-2-amino-3-(2-oxopyrrolidin-1-yl)propanoic acid

>  <IUPAC_CONDENSED>  (846) 
Ala(pyrrolidino(2-oxo))

>  <IUPAC>  (846) 
(2S)-2-amino-3-(2-oxopyrrolidin-1-yl)propanoic acid

>  <TYPE>  (846) 
Backbone

>  <CLASS>  (846) 
alpha

>  <ANALOG>  (846) 
X

>  <MOL_WT>  (846) 
172.184

>  <LOGP>  (846) 
-0.9792999999999998

>  <TPSA>  (846) 
83.63

>  <POPULARITY>  (846) 
2.2

>  <PROTECTED>  (846) 
TRUE

>  <SMILES>  (846) 
N[C@@H](CN1(CCCC1=O))C(=O)O

>  <INCHIKEY>  (846) 
XRBTZHZASNOAJX-YFKPBYRVSA-N

$$$$
Ala_quinolin2yl
     RDKit          2D

 16 17  0  0  0  0  0  0  0  0999 V2000
   -2.0722    1.6358    0.0000 N   0  0  0  0  0  0  0  0  0  0  0  0
   -2.7778    0.3121    0.0000 C   0  0  0  0  0  0  0  0  0  0  0  0
   -1.9842   -0.9608    0.0000 C   0  0  0  0  0  0  0  0  0  0  0  0
   -0.4851   -0.9100    0.0000 C   0  0  0  0  0  0  0  0  0  0  0  0
    0.3084   -2.1829    0.0000 C   0  0  0  0  0  0  0  0  0  0  0  0
    1.8076   -2.1322    0.0000 C   0  0  0  0  0  0  0  0  0  0  0  0
    2.5132   -0.8085    0.0000 C   0  0  0  0  0  0  0  0  0  0  0  0
    4.0123   -0.7577    0.0000 C   0  0  0  0  0  0  0  0  0  0  0  0
    4.7179    0.5659    0.0000 C   0  0  0  0  0  0  0  0  0  0  0  0
    3.9244    1.8388    0.0000 C   0  0  0  0  0  0  0  0  0  0  0  0
    2.4253    1.7881    0.0000 C   0  0  0  0  0  0  0  0  0  0  0  0
    1.7196    0.4644    0.0000 C   0  0  0  0  0  0  0  0  0  0  0  0
    0.2205    0.4136    0.0000 N   0  0  0  0  0  0  0  0  0  0  0  0
   -4.2769    0.2614    0.0000 C   0  0  0  0  0  0  0  0  0  0  0  0
   -4.9825   -1.0623    0.0000 O   0  0  0  0  0  0  0  0  0  0  0  0
   -5.0704    1.5343    0.0000 O   0  0  0  0  0  0  0  0  0  0  0  0
  2  1  1  1
  2  3  1  0
  3  4  1  0
  4  5  1  0
  5  6  2  0
  6  7  1  0
  7  8  2  0
  8  9  1  0
  9 10  2  0
 10 11  1  0
 11 12  2  0
 12 13  1  0
  2 14  1  0
 14 15  2  0
 14 16  1  0
 12  7  1  0
 13  4  2  0
M  END
>  <rName>  (847) 
Ala_quinolin2yl

>  <PQ_SYMBOL>  (847) 
Ala_quinolin2yl

>  <FULL_NAME>  (847) 
3-(2-Quinolyl)-L-Alanine

>  <IUPAC_CONDENSED>  (847) 
Ala(quinolin-2-yl)

>  <IUPAC>  (847) 
(2S)-2-amino-3-(2-azabicyclo[4.4.0]deca-1,3,5,7,9-pentaen-3-yl)propanoic acid

>  <TYPE>  (847) 
Backbone

>  <CLASS>  (847) 
alpha

>  <ANALOG>  (847) 
Phe

>  <MOL_WT>  (847) 
216.23999999999998

>  <LOGP>  (847) 
1.1892

>  <TPSA>  (847) 
76.21

>  <POPULARITY>  (847) 
7.2

>  <PROTECTED>  (847) 
TRUE

>  <SMILES>  (847) 
N[C@@H](Cc2(ccc1(ccccc1n2)))C(=O)O

>  <INCHIKEY>  (847) 
CRSSRGSNAKKNNI-JTQLQIEISA-N

$$$$
Ala_quinolin3yl
     RDKit          2D

 16 17  0  0  0  0  0  0  0  0999 V2000
   -2.0722    1.6358    0.0000 N   0  0  0  0  0  0  0  0  0  0  0  0
   -2.7778    0.3121    0.0000 C   0  0  0  0  0  0  0  0  0  0  0  0
   -1.9842   -0.9608    0.0000 C   0  0  0  0  0  0  0  0  0  0  0  0
   -0.4851   -0.9100    0.0000 C   0  0  0  0  0  0  0  0  0  0  0  0
    0.3084   -2.1829    0.0000 C   0  0  0  0  0  0  0  0  0  0  0  0
    1.8076   -2.1322    0.0000 N   0  0  0  0  0  0  0  0  0  0  0  0
    2.5132   -0.8085    0.0000 C   0  0  0  0  0  0  0  0  0  0  0  0
    4.0123   -0.7577    0.0000 C   0  0  0  0  0  0  0  0  0  0  0  0
    4.7179    0.5659    0.0000 C   0  0  0  0  0  0  0  0  0  0  0  0
    3.9244    1.8388    0.0000 C   0  0  0  0  0  0  0  0  0  0  0  0
    2.4253    1.7881    0.0000 C   0  0  0  0  0  0  0  0  0  0  0  0
    1.7196    0.4644    0.0000 C   0  0  0  0  0  0  0  0  0  0  0  0
    0.2205    0.4136    0.0000 C   0  0  0  0  0  0  0  0  0  0  0  0
   -4.2769    0.2614    0.0000 C   0  0  0  0  0  0  0  0  0  0  0  0
   -4.9825   -1.0623    0.0000 O   0  0  0  0  0  0  0  0  0  0  0  0
   -5.0704    1.5343    0.0000 O   0  0  0  0  0  0  0  0  0  0  0  0
  2  1  1  1
  2  3  1  0
  3  4  1  0
  4  5  1  0
  5  6  2  0
  6  7  1  0
  7  8  2  0
  8  9  1  0
  9 10  2  0
 10 11  1  0
 11 12  2  0
 12 13  1  0
  2 14  1  0
 14 15  2  0
 14 16  1  0
 12  7  1  0
 13  4  2  0
M  END
>  <rName>  (848) 
Ala_quinolin3yl

>  <PQ_SYMBOL>  (848) 
Ala_quinolin3yl

>  <FULL_NAME>  (848) 
3-(3-quinolyl)-L-Alanine

>  <IUPAC_CONDENSED>  (848) 
Ala(quinolin-3-yl)

>  <IUPAC>  (848) 
(2S)-2-amino-3-(2-azabicyclo[4.4.0]deca-1,3,5,7,9-pentaen-4-yl)propanoic acid

>  <TYPE>  (848) 
Backbone

>  <CLASS>  (848) 
alpha

>  <ANALOG>  (848) 
Phe

>  <MOL_WT>  (848) 
216.23999999999998

>  <LOGP>  (848) 
1.1892000000000003

>  <TPSA>  (848) 
76.21

>  <POPULARITY>  (848) 
5.6

>  <PROTECTED>  (848) 
TRUE

>  <SMILES>  (848) 
N[C@@H](Cc2(cnc1(ccccc1c2)))C(=O)O

>  <INCHIKEY>  (848) 
KWWSORXERGAEGJ-JTQLQIEISA-N

$$$$
Ala_quinolin4yl
     RDKit          2D

 16 17  0  0  0  0  0  0  0  0999 V2000
   -2.7457   -1.6512    0.0000 N   0  0  0  0  0  0  0  0  0  0  0  0
   -2.6203   -0.1565    0.0000 C   0  0  0  0  0  0  0  0  0  0  0  0
   -1.2631    0.4823    0.0000 C   0  0  0  0  0  0  0  0  0  0  0  0
   -0.0314   -0.3737    0.0000 C   0  0  0  0  0  0  0  0  0  0  0  0
   -0.1568   -1.8684    0.0000 C   0  0  0  0  0  0  0  0  0  0  0  0
    1.0750   -2.7244    0.0000 C   0  0  0  0  0  0  0  0  0  0  0  0
    2.4322   -2.0856    0.0000 N   0  0  0  0  0  0  0  0  0  0  0  0
    2.5576   -0.5909    0.0000 C   0  0  0  0  0  0  0  0  0  0  0  0
    3.9148    0.0479    0.0000 C   0  0  0  0  0  0  0  0  0  0  0  0
    4.0402    1.5426    0.0000 C   0  0  0  0  0  0  0  0  0  0  0  0
    2.8084    2.3986    0.0000 C   0  0  0  0  0  0  0  0  0  0  0  0
    1.4512    1.7598    0.0000 C   0  0  0  0  0  0  0  0  0  0  0  0
    1.3258    0.2651    0.0000 C   0  0  0  0  0  0  0  0  0  0  0  0
   -3.8521    0.6995    0.0000 C   0  0  0  0  0  0  0  0  0  0  0  0
   -3.7267    2.1942    0.0000 O   0  0  0  0  0  0  0  0  0  0  0  0
   -5.2093    0.0607    0.0000 O   0  0  0  0  0  0  0  0  0  0  0  0
  2  1  1  6
  2  3  1  0
  3  4  1  0
  4  5  2  0
  5  6  1  0
  6  7  2  0
  7  8  1  0
  8  9  2  0
  9 10  1  0
 10 11  2  0
 11 12  1  0
 12 13  2  0
  2 14  1  0
 14 15  2  0
 14 16  1  0
 13  8  1  0
 13  4  1  0
M  END
>  <rName>  (849) 
Ala_quinolin4yl

>  <PQ_SYMBOL>  (849) 
Ala_quinolin4yl

>  <FULL_NAME>  (849) 
3-(4-quinolyl)-L-Alanine

>  <IUPAC_CONDENSED>  (849) 
Ala(quinolin-4-yl)

>  <IUPAC>  (849) 
(2S)-2-amino-3-(quinolin-4-yl)propanoic acid

>  <TYPE>  (849) 
Backbone

>  <CLASS>  (849) 
alpha

>  <ANALOG>  (849) 
Phe

>  <MOL_WT>  (849) 
216.23999999999998

>  <LOGP>  (849) 
1.1892

>  <TPSA>  (849) 
76.21

>  <POPULARITY>  (849) 
5.0

>  <PROTECTED>  (849) 
TRUE

>  <SMILES>  (849) 
N[C@@H](Cc2(ccnc1(ccccc12)))C(=O)O

>  <INCHIKEY>  (849) 
ZUYBRQWHZZVAHM-JTQLQIEISA-N

$$$$
Ala_quinolin4yl_2Me
     RDKit          2D

 17 18  0  0  0  0  0  0  0  0999 V2000
   -2.7304   -1.5370    0.0000 N   0  0  0  0  0  0  0  0  0  0  0  0
   -2.6775   -0.0379    0.0000 C   0  0  0  0  0  0  0  0  0  0  0  0
   -1.3528    0.6658    0.0000 C   0  0  0  0  0  0  0  0  0  0  0  0
   -0.0810   -0.1296    0.0000 C   0  0  0  0  0  0  0  0  0  0  0  0
   -0.1340   -1.6286    0.0000 C   0  0  0  0  0  0  0  0  0  0  0  0
    1.1378   -2.4240    0.0000 C   0  0  0  0  0  0  0  0  0  0  0  0
    1.0849   -3.9231    0.0000 C   0  0  0  0  0  0  0  0  0  0  0  0
    2.4625   -1.7203    0.0000 N   0  0  0  0  0  0  0  0  0  0  0  0
    2.5154   -0.2212    0.0000 C   0  0  0  0  0  0  0  0  0  0  0  0
    3.8401    0.4825    0.0000 C   0  0  0  0  0  0  0  0  0  0  0  0
    3.8930    1.9815    0.0000 C   0  0  0  0  0  0  0  0  0  0  0  0
    2.6213    2.7769    0.0000 C   0  0  0  0  0  0  0  0  0  0  0  0
    1.2966    2.0732    0.0000 C   0  0  0  0  0  0  0  0  0  0  0  0
    1.2437    0.5741    0.0000 C   0  0  0  0  0  0  0  0  0  0  0  0
   -3.9493    0.7575    0.0000 C   0  0  0  0  0  0  0  0  0  0  0  0
   -3.8963    2.2565    0.0000 O   0  0  0  0  0  0  0  0  0  0  0  0
   -5.2740    0.0538    0.0000 O   0  0  0  0  0  0  0  0  0  0  0  0
  2  1  1  6
  2  3  1  0
  3  4  1  0
  4  5  2  0
  5  6  1  0
  6  7  1  0
  6  8  2  0
  8  9  1  0
  9 10  2  0
 10 11  1  0
 11 12  2  0
 12 13  1  0
 13 14  2  0
  2 15  1  0
 15 16  2  0
 15 17  1  0
 14  4  1  0
 14  9  1  0
M  END
>  <rName>  (850) 
Ala_quinolin4yl_2Me

>  <PQ_SYMBOL>  (850) 
Ala_quinolin4yl_2Me

>  <FULL_NAME>  (850) 
(2S)-2-amino-3-(2-methylquinolin-4-yl)propanoic acid

>  <IUPAC_CONDENSED>  (850) 
Ala(quinolin-4-yl(2-Me))

>  <IUPAC>  (850) 
(2S)-2-amino-3-(2-methylquinolin-4-yl)propanoic acid

>  <TYPE>  (850) 
Backbone

>  <CLASS>  (850) 
alpha

>  <ANALOG>  (850) 
Phe

>  <MOL_WT>  (850) 
230.267

>  <LOGP>  (850) 
1.4976200000000002

>  <TPSA>  (850) 
76.21

>  <POPULARITY>  (850) 
2.8

>  <PROTECTED>  (850) 
TRUE

>  <SMILES>  (850) 
N[C@@H](Cc1(cc(C)nc2(ccccc12)))C(=O)O

>  <INCHIKEY>  (850) 
BMRTYMNERRJGFE-NSHDSACASA-N

$$$$
Ala_quinolin6yl
     RDKit          2D

 16 17  0  0  0  0  0  0  0  0999 V2000
   -2.0722    1.6358    0.0000 N   0  0  0  0  0  0  0  0  0  0  0  0
   -2.7778    0.3121    0.0000 C   0  0  0  0  0  0  0  0  0  0  0  0
   -1.9842   -0.9608    0.0000 C   0  0  0  0  0  0  0  0  0  0  0  0
   -0.4851   -0.9100    0.0000 C   0  0  0  0  0  0  0  0  0  0  0  0
    0.3084   -2.1829    0.0000 C   0  0  0  0  0  0  0  0  0  0  0  0
    1.8076   -2.1322    0.0000 C   0  0  0  0  0  0  0  0  0  0  0  0
    2.5132   -0.8085    0.0000 C   0  0  0  0  0  0  0  0  0  0  0  0
    4.0123   -0.7577    0.0000 N   0  0  0  0  0  0  0  0  0  0  0  0
    4.7179    0.5659    0.0000 C   0  0  0  0  0  0  0  0  0  0  0  0
    3.9244    1.8388    0.0000 C   0  0  0  0  0  0  0  0  0  0  0  0
    2.4253    1.7881    0.0000 C   0  0  0  0  0  0  0  0  0  0  0  0
    1.7196    0.4644    0.0000 C   0  0  0  0  0  0  0  0  0  0  0  0
    0.2205    0.4136    0.0000 C   0  0  0  0  0  0  0  0  0  0  0  0
   -4.2769    0.2614    0.0000 C   0  0  0  0  0  0  0  0  0  0  0  0
   -4.9825   -1.0623    0.0000 O   0  0  0  0  0  0  0  0  0  0  0  0
   -5.0704    1.5343    0.0000 O   0  0  0  0  0  0  0  0  0  0  0  0
  2  1  1  1
  2  3  1  0
  3  4  1  0
  4  5  1  0
  5  6  2  0
  6  7  1  0
  7  8  2  0
  8  9  1  0
  9 10  2  0
 10 11  1  0
 11 12  2  0
 12 13  1  0
  2 14  1  0
 14 15  2  0
 14 16  1  0
 12  7  1  0
 13  4  2  0
M  END
>  <rName>  (851) 
Ala_quinolin6yl

>  <PQ_SYMBOL>  (851) 
Ala_quinolin6yl

>  <FULL_NAME>  (851) 
(S)-2-Amino-3-(quinolin-6-yl)propanoic acid

>  <IUPAC_CONDENSED>  (851) 
Ala(quinolin-6-yl)

>  <IUPAC>  (851) 
(2S)-2-amino-3-(quinolin-6-yl)propanoic acid

>  <TYPE>  (851) 
Backbone

>  <CLASS>  (851) 
alpha

>  <ANALOG>  (851) 
Phe

>  <MOL_WT>  (851) 
216.23999999999998

>  <LOGP>  (851) 
1.1892

>  <TPSA>  (851) 
76.21

>  <POPULARITY>  (851) 
5.4

>  <PROTECTED>  (851) 
TRUE

>  <SMILES>  (851) 
N[C@@H](Cc2(ccc1(ncccc1c2)))C(=O)O

>  <INCHIKEY>  (851) 
GVUXWMQJDJQMLK-JTQLQIEISA-N

$$$$
Ala_quinolin6yl_2Me
     RDKit          2D

 17 18  0  0  0  0  0  0  0  0999 V2000
   -3.0886    1.6988    0.0000 N   0  0  0  0  0  0  0  0  0  0  0  0
   -3.3834    0.2280    0.0000 C   0  0  0  0  0  0  0  0  0  0  0  0
   -2.2570   -0.7626    0.0000 C   0  0  0  0  0  0  0  0  0  0  0  0
   -0.8359   -0.2824    0.0000 C   0  0  0  0  0  0  0  0  0  0  0  0
   -0.5412    1.1883    0.0000 C   0  0  0  0  0  0  0  0  0  0  0  0
    0.8799    1.6685    0.0000 C   0  0  0  0  0  0  0  0  0  0  0  0
    2.0062    0.6778    0.0000 C   0  0  0  0  0  0  0  0  0  0  0  0
    3.4273    1.1580    0.0000 N   0  0  0  0  0  0  0  0  0  0  0  0
    4.5537    0.1674    0.0000 C   0  0  0  0  0  0  0  0  0  0  0  0
    5.9747    0.6475    0.0000 C   0  0  0  0  0  0  0  0  0  0  0  0
    4.2589   -1.3034    0.0000 C   0  0  0  0  0  0  0  0  0  0  0  0
    2.8379   -1.7835    0.0000 C   0  0  0  0  0  0  0  0  0  0  0  0
    1.7115   -0.7929    0.0000 C   0  0  0  0  0  0  0  0  0  0  0  0
    0.2904   -1.2731    0.0000 C   0  0  0  0  0  0  0  0  0  0  0  0
   -4.8044   -0.2521    0.0000 C   0  0  0  0  0  0  0  0  0  0  0  0
   -5.0992   -1.7229    0.0000 O   0  0  0  0  0  0  0  0  0  0  0  0
   -5.9308    0.7385    0.0000 O   0  0  0  0  0  0  0  0  0  0  0  0
  2  1  1  1
  2  3  1  0
  3  4  1  0
  4  5  1  0
  5  6  2  0
  6  7  1  0
  7  8  2  0
  8  9  1  0
  9 10  1  0
  9 11  2  0
 11 12  1  0
 12 13  2  0
 13 14  1  0
  2 15  1  0
 15 16  2  0
 15 17  1  0
 13  7  1  0
 14  4  2  0
M  END
>  <rName>  (852) 
Ala_quinolin6yl_2Me

>  <PQ_SYMBOL>  (852) 
Ala_quinolin6yl_2Me

>  <FULL_NAME>  (852) 
(S)-2-amino-3-(2-methylquinolin-6-yl)propanoic acid

>  <IUPAC_CONDENSED>  (852) 
Ala(quinolin-6-yl(2-Me))

>  <IUPAC>  (852) 
(2S)-2-amino-3-(2-methylquinolin-6-yl)propanoic acid

>  <TYPE>  (852) 
Backbone

>  <CLASS>  (852) 
alpha

>  <ANALOG>  (852) 
Phe

>  <MOL_WT>  (852) 
230.267

>  <LOGP>  (852) 
1.4976200000000002

>  <TPSA>  (852) 
76.21

>  <POPULARITY>  (852) 
5.1

>  <PROTECTED>  (852) 
TRUE

>  <SMILES>  (852) 
N[C@@H](Cc2(ccc1(nc(C)ccc1c2)))C(=O)O

>  <INCHIKEY>  (852) 
VTHJEFJVDSNDCV-NSHDSACASA-N

$$$$
Ala_quinolin8yl
     RDKit          2D

 16 17  0  0  0  0  0  0  0  0999 V2000
   -2.7457   -1.6512    0.0000 N   0  0  0  0  0  0  0  0  0  0  0  0
   -2.6203   -0.1565    0.0000 C   0  0  0  0  0  0  0  0  0  0  0  0
   -1.2631    0.4823    0.0000 C   0  0  0  0  0  0  0  0  0  0  0  0
   -0.0314   -0.3737    0.0000 C   0  0  0  0  0  0  0  0  0  0  0  0
   -0.1568   -1.8684    0.0000 C   0  0  0  0  0  0  0  0  0  0  0  0
    1.0750   -2.7244    0.0000 C   0  0  0  0  0  0  0  0  0  0  0  0
    2.4322   -2.0856    0.0000 C   0  0  0  0  0  0  0  0  0  0  0  0
    2.5576   -0.5909    0.0000 C   0  0  0  0  0  0  0  0  0  0  0  0
    3.9148    0.0479    0.0000 C   0  0  0  0  0  0  0  0  0  0  0  0
    4.0402    1.5426    0.0000 C   0  0  0  0  0  0  0  0  0  0  0  0
    2.8084    2.3986    0.0000 C   0  0  0  0  0  0  0  0  0  0  0  0
    1.4512    1.7598    0.0000 N   0  0  0  0  0  0  0  0  0  0  0  0
    1.3258    0.2651    0.0000 C   0  0  0  0  0  0  0  0  0  0  0  0
   -3.8521    0.6995    0.0000 C   0  0  0  0  0  0  0  0  0  0  0  0
   -3.7267    2.1942    0.0000 O   0  0  0  0  0  0  0  0  0  0  0  0
   -5.2093    0.0607    0.0000 O   0  0  0  0  0  0  0  0  0  0  0  0
  2  1  1  6
  2  3  1  0
  3  4  1  0
  4  5  2  0
  5  6  1  0
  6  7  2  0
  7  8  1  0
  8  9  2  0
  9 10  1  0
 10 11  2  0
 11 12  1  0
 12 13  2  0
  2 14  1  0
 14 15  2  0
 14 16  1  0
 13  8  1  0
 13  4  1  0
M  END
>  <rName>  (853) 
Ala_quinolin8yl

>  <PQ_SYMBOL>  (853) 
Ala_quinolin8yl

>  <FULL_NAME>  (853) 
(S)-2-amino-3-(quinolin-8-yl)propanoic acid

>  <IUPAC_CONDENSED>  (853) 
Ala(quinolin-8-yl)

>  <IUPAC>  (853) 
(2S)-2-amino-3-(2-azabicyclo[4.4.0]deca-1,3,5,7,9-pentaen-10-yl)propanoic acid

>  <TYPE>  (853) 
Backbone

>  <CLASS>  (853) 
alpha

>  <ANALOG>  (853) 
Phe

>  <MOL_WT>  (853) 
216.23999999999998

>  <LOGP>  (853) 
1.1892

>  <TPSA>  (853) 
76.21

>  <POPULARITY>  (853) 
6.3

>  <PROTECTED>  (853) 
TRUE

>  <SMILES>  (853) 
N[C@@H](Cc2(cccc1(cccnc12)))C(=O)O

>  <INCHIKEY>  (853) 
IMFYLYWEXLUDKO-JTQLQIEISA-N

$$$$
Ala_quinolin8yl_5Br
     RDKit          2D

 17 18  0  0  0  0  0  0  0  0999 V2000
   -2.7953   -1.7721    0.0000 N   0  0  0  0  0  0  0  0  0  0  0  0
   -2.8228   -0.2723    0.0000 C   0  0  0  0  0  0  0  0  0  0  0  0
   -1.5377    0.5013    0.0000 C   0  0  0  0  0  0  0  0  0  0  0  0
   -0.2252   -0.2248    0.0000 C   0  0  0  0  0  0  0  0  0  0  0  0
   -0.1977   -1.7245    0.0000 C   0  0  0  0  0  0  0  0  0  0  0  0
    1.1149   -2.4506    0.0000 C   0  0  0  0  0  0  0  0  0  0  0  0
    2.4000   -1.6769    0.0000 C   0  0  0  0  0  0  0  0  0  0  0  0
    3.7125   -2.4030    0.0000 Br  0  0  0  0  0  0  0  0  0  0  0  0
    2.3725   -0.1772    0.0000 C   0  0  0  0  0  0  0  0  0  0  0  0
    3.6576    0.5965    0.0000 C   0  0  0  0  0  0  0  0  0  0  0  0
    3.6301    2.0963    0.0000 C   0  0  0  0  0  0  0  0  0  0  0  0
    2.3175    2.8223    0.0000 C   0  0  0  0  0  0  0  0  0  0  0  0
    1.0324    2.0487    0.0000 N   0  0  0  0  0  0  0  0  0  0  0  0
    1.0599    0.5489    0.0000 C   0  0  0  0  0  0  0  0  0  0  0  0
   -4.1354    0.4537    0.0000 C   0  0  0  0  0  0  0  0  0  0  0  0
   -4.1628    1.9535    0.0000 O   0  0  0  0  0  0  0  0  0  0  0  0
   -5.4204   -0.3199    0.0000 O   0  0  0  0  0  0  0  0  0  0  0  0
  2  1  1  6
  2  3  1  0
  3  4  1  0
  4  5  2  0
  5  6  1  0
  6  7  2  0
  7  8  1  0
  7  9  1  0
  9 10  2  0
 10 11  1  0
 11 12  2  0
 12 13  1  0
 13 14  2  0
  2 15  1  0
 15 16  2  0
 15 17  1  0
 14  4  1  0
 14  9  1  0
M  END
>  <rName>  (854) 
Ala_quinolin8yl_5Br

>  <PQ_SYMBOL>  (854) 
Ala_quinolin8yl_5Br

>  <FULL_NAME>  (854) 
(2S)-2-amino-3-(5-bromoquinolin-8-yl)propanoic acid

>  <IUPAC_CONDENSED>  (854) 
Ala(quinolin-8-yl(5-Br))

>  <IUPAC>  (854) 
(2S)-2-amino-3-(7-bromo-2-azabicyclo[4.4.0]deca-1,3,5,7,9-pentaen-10-yl)propanoic acid

>  <TYPE>  (854) 
Backbone

>  <CLASS>  (854) 
alpha

>  <ANALOG>  (854) 
Phe

>  <MOL_WT>  (854) 
295.136

>  <LOGP>  (854) 
1.9517000000000002

>  <TPSA>  (854) 
76.21

>  <POPULARITY>  (854) 
2.8

>  <PROTECTED>  (854) 
TRUE

>  <SMILES>  (854) 
N[C@@H](Cc1(ccc(Br)c2(cccnc12)))C(=O)O

>  <INCHIKEY>  (854) 
ZMHJWHUUQABWFX-JTQLQIEISA-N

$$$$
Ala_tBu
     RDKit          2D

 10  9  0  0  0  0  0  0  0  0999 V2000
    0.5029   -1.7542    0.0000 N   0  0  0  0  0  0  0  0  0  0  0  0
    0.7450   -0.2738    0.0000 C   0  0  0  0  0  0  0  0  0  0  0  0
   -0.4160    0.6760    0.0000 C   0  0  0  0  0  0  0  0  0  0  0  0
   -1.8190    0.1455    0.0000 C   0  0  0  0  0  0  0  0  0  0  0  0
   -2.3495    1.5485    0.0000 C   0  0  0  0  0  0  0  0  0  0  0  0
   -1.2885   -1.2576    0.0000 C   0  0  0  0  0  0  0  0  0  0  0  0
   -3.2221   -0.3850    0.0000 C   0  0  0  0  0  0  0  0  0  0  0  0
    2.1480    0.2567    0.0000 C   0  0  0  0  0  0  0  0  0  0  0  0
    2.3901    1.7370    0.0000 O   0  0  0  0  0  0  0  0  0  0  0  0
    3.3090   -0.6932    0.0000 O   0  0  0  0  0  0  0  0  0  0  0  0
  2  1  1  1
  2  3  1  0
  3  4  1  0
  4  5  1  0
  4  6  1  0
  4  7  1  0
  2  8  1  0
  8  9  2  0
  8 10  1  0
M  END
>  <rName>  (855) 
Ala_tBu

>  <PQ_SYMBOL>  (855) 
Ala_tBu

>  <FULL_NAME>  (855) 
4-Methyl-L-Leucine

>  <IUPAC_CONDENSED>  (855) 
Ala(tBu)

>  <IUPAC>  (855) 
(2S)-2-amino-4,4-dimethylpentanoic acid

>  <TYPE>  (855) 
Backbone

>  <CLASS>  (855) 
alpha

>  <ANALOG>  (855) 
Leu

>  <MOL_WT>  (855) 
145.202

>  <LOGP>  (855) 
0.8344999999999998

>  <TPSA>  (855) 
63.32000000000001

>  <POPULARITY>  (855) 
22.2

>  <PROTECTED>  (855) 
TRUE

>  <SMILES>  (855) 
N[C@@H](CC(C)(C)C)C(=O)O

>  <INCHIKEY>  (855) 
LPBSHGLDBQBSPI-YFKPBYRVSA-N

$$$$
Ala_tetrahydropyran4yl
     RDKit          2D

 12 12  0  0  0  0  0  0  0  0999 V2000
   -1.2391    1.6805    0.0000 N   0  0  0  0  0  0  0  0  0  0  0  0
   -1.6184    0.2292    0.0000 C   0  0  0  0  0  0  0  0  0  0  0  0
   -0.5513   -0.8249    0.0000 C   0  0  0  0  0  0  0  0  0  0  0  0
    0.8952   -0.4278    0.0000 C   0  0  0  0  0  0  0  0  0  0  0  0
    1.2745    1.0235    0.0000 C   0  0  0  0  0  0  0  0  0  0  0  0
    2.7210    1.4206    0.0000 C   0  0  0  0  0  0  0  0  0  0  0  0
    3.7882    0.3665    0.0000 O   0  0  0  0  0  0  0  0  0  0  0  0
    3.4088   -1.0848    0.0000 C   0  0  0  0  0  0  0  0  0  0  0  0
    1.9624   -1.4819    0.0000 C   0  0  0  0  0  0  0  0  0  0  0  0
   -3.0649   -0.1679    0.0000 C   0  0  0  0  0  0  0  0  0  0  0  0
   -3.4442   -1.6191    0.0000 O   0  0  0  0  0  0  0  0  0  0  0  0
   -4.1321    0.8862    0.0000 O   0  0  0  0  0  0  0  0  0  0  0  0
  2  1  1  1
  2  3  1  0
  3  4  1  0
  4  5  1  0
  5  6  1  0
  6  7  1  0
  7  8  1  0
  8  9  1  0
  2 10  1  0
 10 11  2  0
 10 12  1  0
  9  4  1  0
M  END
>  <rName>  (856) 
Ala_tetrahydropyran4yl

>  <PQ_SYMBOL>  (856) 
Ala_tetrahydropyran4yl

>  <FULL_NAME>  (856) 
(2S)-2-amino-3-(oxan-4-yl)propanoic acid

>  <IUPAC_CONDENSED>  (856) 
Ala(tetrahydropyran-4-yl)

>  <IUPAC>  (856) 
(2S)-2-amino-3-(oxan-4-yl)propanoic acid

>  <TYPE>  (856) 
Backbone

>  <CLASS>  (856) 
alpha

>  <ANALOG>  (856) 
X

>  <MOL_WT>  (856) 
173.212

>  <LOGP>  (856) 
0.2149999999999998

>  <TPSA>  (856) 
72.55

>  <POPULARITY>  (856) 
7.7

>  <PROTECTED>  (856) 
TRUE

>  <SMILES>  (856) 
N[C@@H](CC1(CCOCC1))C(=O)O

>  <INCHIKEY>  (856) 
JSHHRIISICNOLM-ZETCQYMHSA-N

$$$$
Ala_tetrahydroquinolinyl
     RDKit          2D

 16 17  0  0  0  0  0  0  0  0999 V2000
   -2.7457   -1.6512    0.0000 N   0  0  0  0  0  0  0  0  0  0  0  0
   -2.6203   -0.1565    0.0000 C   0  0  0  0  0  0  0  0  0  0  0  0
   -1.2631    0.4823    0.0000 C   0  0  0  0  0  0  0  0  0  0  0  0
   -0.0314   -0.3737    0.0000 N   0  0  0  0  0  0  0  0  0  0  0  0
   -0.1568   -1.8684    0.0000 C   0  0  0  0  0  0  0  0  0  0  0  0
    1.0750   -2.7244    0.0000 C   0  0  0  0  0  0  0  0  0  0  0  0
    2.4322   -2.0856    0.0000 C   0  0  0  0  0  0  0  0  0  0  0  0
    2.5576   -0.5909    0.0000 C   0  0  0  0  0  0  0  0  0  0  0  0
    3.9148    0.0479    0.0000 C   0  0  0  0  0  0  0  0  0  0  0  0
    4.0402    1.5426    0.0000 C   0  0  0  0  0  0  0  0  0  0  0  0
    2.8084    2.3986    0.0000 C   0  0  0  0  0  0  0  0  0  0  0  0
    1.4512    1.7598    0.0000 C   0  0  0  0  0  0  0  0  0  0  0  0
    1.3258    0.2651    0.0000 C   0  0  0  0  0  0  0  0  0  0  0  0
   -3.8521    0.6995    0.0000 C   0  0  0  0  0  0  0  0  0  0  0  0
   -3.7267    2.1942    0.0000 O   0  0  0  0  0  0  0  0  0  0  0  0
   -5.2093    0.0607    0.0000 O   0  0  0  0  0  0  0  0  0  0  0  0
  2  1  1  6
  2  3  1  0
  3  4  1  0
  4  5  1  0
  5  6  1  0
  6  7  1  0
  7  8  1  0
  8  9  2  0
  9 10  1  0
 10 11  2  0
 11 12  1  0
 12 13  2  0
  2 14  1  0
 14 15  2  0
 14 16  1  0
 13  8  1  0
 13  4  1  0
M  END
>  <rName>  (857) 
Ala_tetrahydroquinolinyl

>  <PQ_SYMBOL>  (857) 
Ala_tetrahydroquinolinyl

>  <FULL_NAME>  (857) 
(S)-2-amino-3-(3,4-dihydroquinolin-1(2H)-yl)propanoic acid

>  <IUPAC_CONDENSED>  (857) 
Ala(tetrahydroquinolinyl)

>  <IUPAC>  (857) 
(2S)-2-amino-3-(2-azabicyclo[4.4.0]deca-1(10),6,8-trien-2-yl)propanoic acid

>  <TYPE>  (857) 
Backbone

>  <CLASS>  (857) 
alpha

>  <ANALOG>  (857) 
X

>  <MOL_WT>  (857) 
220.272

>  <LOGP>  (857) 
0.8510999999999995

>  <TPSA>  (857) 
66.56

>  <POPULARITY>  (857) 
5.6

>  <PROTECTED>  (857) 
TRUE

>  <SMILES>  (857) 
N[C@@H](CN2(CCCc1(ccccc12)))C(=O)O

>  <INCHIKEY>  (857) 
PDGLZBZYTYRBBE-JTQLQIEISA-N

$$$$
Ala_tetrazol5yl
     RDKit          2D

 11 11  0  0  0  0  0  0  0  0999 V2000
   -0.9461    1.6947    0.0000 N   0  0  0  0  0  0  0  0  0  0  0  0
   -1.3100    0.2395    0.0000 C   0  0  0  0  0  0  0  0  0  0  0  0
   -0.2317   -0.8032    0.0000 C   0  0  0  0  0  0  0  0  0  0  0  0
    1.2105   -0.3908    0.0000 C   0  0  0  0  0  0  0  0  0  0  0  0
    2.3919   -1.3151    0.0000 N   0  0  0  0  0  0  0  0  0  0  0  0
    3.6360   -0.4772    0.0000 N   0  0  0  0  0  0  0  0  0  0  0  0
    3.2236    0.9650    0.0000 N   0  0  0  0  0  0  0  0  0  0  0  0
    1.7245    1.0184    0.0000 N   0  0  0  0  0  0  0  0  0  0  0  0
   -2.7522   -0.1729    0.0000 C   0  0  0  0  0  0  0  0  0  0  0  0
   -3.1161   -1.6281    0.0000 O   0  0  0  0  0  0  0  0  0  0  0  0
   -3.8304    0.8698    0.0000 O   0  0  0  0  0  0  0  0  0  0  0  0
  2  1  1  1
  2  3  1  0
  3  4  1  0
  4  5  2  0
  5  6  1  0
  6  7  2  0
  7  8  1  0
  2  9  1  0
  9 10  2  0
  9 11  1  0
  8  4  1  0
M  END
>  <rName>  (858) 
Ala_tetrazol5yl

>  <PQ_SYMBOL>  (858) 
Ala_tetrazol5yl

>  <FULL_NAME>  (858) 
3-tetrazol-5-yl-L-alanine

>  <IUPAC_CONDENSED>  (858) 
Ala(tetrazol-5-yl)

>  <IUPAC>  (858) 
(2S)-2-amino-3-(1H-tetrazol-5-yl)propanoic acid

>  <TYPE>  (858) 
Backbone

>  <CLASS>  (858) 
alpha

>  <ANALOG>  (858) 
Phe

>  <MOL_WT>  (858) 
157.133

>  <LOGP>  (858) 
-1.8459000000000003

>  <TPSA>  (858) 
117.77999999999999

>  <POPULARITY>  (858) 
6.1

>  <PROTECTED>  (858) 
TRUE

>  <SMILES>  (858) 
N[C@@H](Cc1(nnn[nH]1))C(=O)O

>  <INCHIKEY>  (858) 
UHDMAEPGMOIEHH-REOHCLBHSA-N

$$$$
Ala_thiazol2yl
     RDKit          2D

 11 11  0  0  0  0  0  0  0  0999 V2000
   -0.9461    1.6947    0.0000 N   0  0  0  0  0  0  0  0  0  0  0  0
   -1.3100    0.2395    0.0000 C   0  0  0  0  0  0  0  0  0  0  0  0
   -0.2317   -0.8032    0.0000 C   0  0  0  0  0  0  0  0  0  0  0  0
    1.2105   -0.3908    0.0000 C   0  0  0  0  0  0  0  0  0  0  0  0
    2.3919   -1.3151    0.0000 N   0  0  0  0  0  0  0  0  0  0  0  0
    3.6360   -0.4772    0.0000 C   0  0  0  0  0  0  0  0  0  0  0  0
    3.2236    0.9650    0.0000 C   0  0  0  0  0  0  0  0  0  0  0  0
    1.7245    1.0184    0.0000 S   0  0  0  0  0  0  0  0  0  0  0  0
   -2.7522   -0.1729    0.0000 C   0  0  0  0  0  0  0  0  0  0  0  0
   -3.1161   -1.6281    0.0000 O   0  0  0  0  0  0  0  0  0  0  0  0
   -3.8304    0.8698    0.0000 O   0  0  0  0  0  0  0  0  0  0  0  0
  2  1  1  1
  2  3  1  0
  3  4  1  0
  4  5  2  0
  5  6  1  0
  6  7  2  0
  7  8  1  0
  2  9  1  0
  9 10  2  0
  9 11  1  0
  8  4  1  0
M  END
>  <rName>  (859) 
Ala_thiazol2yl

>  <PQ_SYMBOL>  (859) 
Ala_thiazol2yl

>  <FULL_NAME>  (859) 
β-(thiazol-2-yl)-L-alanine

>  <IUPAC_CONDENSED>  (859) 
Ala(thiazol-2-yl)

>  <IUPAC>  (859) 
(2S)-2-amino-3-(thiazol-2-yl)propanoic acid

>  <TYPE>  (859) 
Backbone

>  <CLASS>  (859) 
alpha

>  <ANALOG>  (859) 
Phe

>  <MOL_WT>  (859) 
172.20899999999997

>  <LOGP>  (859) 
0.09749999999999986

>  <TPSA>  (859) 
76.21

>  <POPULARITY>  (859) 
9.4

>  <PROTECTED>  (859) 
TRUE

>  <SMILES>  (859) 
N[C@@H](Cc1(nccs1))C(=O)O

>  <INCHIKEY>  (859) 
PXFXXRSFSGRBRT-BYPYZUCNSA-N

$$$$
Ala_thiazol5yl
     RDKit          2D

 11 11  0  0  0  0  0  0  0  0999 V2000
   -0.9461    1.6947    0.0000 N   0  0  0  0  0  0  0  0  0  0  0  0
   -1.3100    0.2395    0.0000 C   0  0  0  0  0  0  0  0  0  0  0  0
   -0.2317   -0.8032    0.0000 C   0  0  0  0  0  0  0  0  0  0  0  0
    1.2105   -0.3908    0.0000 C   0  0  0  0  0  0  0  0  0  0  0  0
    2.3919   -1.3151    0.0000 C   0  0  0  0  0  0  0  0  0  0  0  0
    3.6360   -0.4772    0.0000 N   0  0  0  0  0  0  0  0  0  0  0  0
    3.2236    0.9650    0.0000 C   0  0  0  0  0  0  0  0  0  0  0  0
    1.7245    1.0184    0.0000 S   0  0  0  0  0  0  0  0  0  0  0  0
   -2.7522   -0.1729    0.0000 C   0  0  0  0  0  0  0  0  0  0  0  0
   -3.1161   -1.6281    0.0000 O   0  0  0  0  0  0  0  0  0  0  0  0
   -3.8304    0.8698    0.0000 O   0  0  0  0  0  0  0  0  0  0  0  0
  2  1  1  1
  2  3  1  0
  3  4  1  0
  4  5  2  0
  5  6  1  0
  6  7  2  0
  7  8  1  0
  2  9  1  0
  9 10  2  0
  9 11  1  0
  8  4  1  0
M  END
>  <rName>  (860) 
Ala_thiazol5yl

>  <PQ_SYMBOL>  (860) 
Ala_thiazol5yl

>  <FULL_NAME>  (860) 
Thiazole-histidine

>  <IUPAC_CONDENSED>  (860) 
Ala(thiazol-5-yl)

>  <IUPAC>  (860) 
(2S)-2-amino-3-(thiazol-5-yl)propanoic acid

>  <TYPE>  (860) 
Backbone

>  <CLASS>  (860) 
alpha

>  <ANALOG>  (860) 
Phe

>  <MOL_WT>  (860) 
172.20899999999997

>  <LOGP>  (860) 
0.09749999999999986

>  <TPSA>  (860) 
76.21

>  <POPULARITY>  (860) 
8.9

>  <PROTECTED>  (860) 
TRUE

>  <SMILES>  (860) 
N[C@@H](Cc1(cncs1))C(=O)O

>  <INCHIKEY>  (860) 
XEGDVXZYFYKJJR-YFKPBYRVSA-N

$$$$
Ala_thien2yl_3Br
     RDKit          2D

 12 12  0  0  0  0  0  0  0  0999 V2000
   -0.9675    1.5404    0.0000 N   0  0  0  0  0  0  0  0  0  0  0  0
   -1.3813    0.0986    0.0000 C   0  0  0  0  0  0  0  0  0  0  0  0
   -0.3395   -0.9807    0.0000 C   0  0  0  0  0  0  0  0  0  0  0  0
    1.1160   -0.6181    0.0000 C   0  0  0  0  0  0  0  0  0  0  0  0
    2.2649   -1.5825    0.0000 S   0  0  0  0  0  0  0  0  0  0  0  0
    3.5371   -0.7879    0.0000 C   0  0  0  0  0  0  0  0  0  0  0  0
    3.1745    0.6676    0.0000 C   0  0  0  0  0  0  0  0  0  0  0  0
    1.6782    0.7725    0.0000 C   0  0  0  0  0  0  0  0  0  0  0  0
    0.8836    2.0448    0.0000 Br  0  0  0  0  0  0  0  0  0  0  0  0
   -2.8368   -0.2640    0.0000 C   0  0  0  0  0  0  0  0  0  0  0  0
   -3.2506   -1.7058    0.0000 O   0  0  0  0  0  0  0  0  0  0  0  0
   -3.8786    0.8152    0.0000 O   0  0  0  0  0  0  0  0  0  0  0  0
  2  1  1  1
  2  3  1  0
  3  4  1  0
  4  5  1  0
  5  6  1  0
  6  7  2  0
  7  8  1  0
  8  9  1  0
  2 10  1  0
 10 11  2  0
 10 12  1  0
  8  4  2  0
M  END
>  <rName>  (861) 
Ala_thien2yl_3Br

>  <PQ_SYMBOL>  (861) 
Ala_thien2yl_3Br

>  <FULL_NAME>  (861) 
(2S)-2-amino-3-(3-bromothiophen-2-yl)propanoic acid

>  <IUPAC_CONDENSED>  (861) 
Ala(thien-2-yl(3-Br))

>  <IUPAC>  (861) 
(2S)-2-amino-3-(3-bromothiophen-2-yl)propanoic acid

>  <TYPE>  (861) 
Backbone

>  <CLASS>  (861) 
alpha

>  <ANALOG>  (861) 
Phe

>  <MOL_WT>  (861) 
250.11699999999996

>  <LOGP>  (861) 
1.465

>  <TPSA>  (861) 
63.32000000000001

>  <POPULARITY>  (861) 
2.2

>  <PROTECTED>  (861) 
TRUE

>  <SMILES>  (861) 
N[C@@H](Cc1(sccc1Br))C(=O)O

>  <INCHIKEY>  (861) 
LROMXNHLKPFYBJ-YFKPBYRVSA-N

$$$$
Ala_thien2yl_3Cl
     RDKit          2D

 12 12  0  0  0  0  0  0  0  0999 V2000
   -0.9675    1.5404    0.0000 N   0  0  0  0  0  0  0  0  0  0  0  0
   -1.3813    0.0986    0.0000 C   0  0  0  0  0  0  0  0  0  0  0  0
   -0.3395   -0.9807    0.0000 C   0  0  0  0  0  0  0  0  0  0  0  0
    1.1160   -0.6181    0.0000 C   0  0  0  0  0  0  0  0  0  0  0  0
    2.2649   -1.5825    0.0000 S   0  0  0  0  0  0  0  0  0  0  0  0
    3.5371   -0.7879    0.0000 C   0  0  0  0  0  0  0  0  0  0  0  0
    3.1745    0.6676    0.0000 C   0  0  0  0  0  0  0  0  0  0  0  0
    1.6782    0.7725    0.0000 C   0  0  0  0  0  0  0  0  0  0  0  0
    0.8836    2.0448    0.0000 Cl  0  0  0  0  0  0  0  0  0  0  0  0
   -2.8368   -0.2640    0.0000 C   0  0  0  0  0  0  0  0  0  0  0  0
   -3.2506   -1.7058    0.0000 O   0  0  0  0  0  0  0  0  0  0  0  0
   -3.8786    0.8152    0.0000 O   0  0  0  0  0  0  0  0  0  0  0  0
  2  1  1  1
  2  3  1  0
  3  4  1  0
  4  5  1  0
  5  6  1  0
  6  7  2  0
  7  8  1  0
  8  9  1  0
  2 10  1  0
 10 11  2  0
 10 12  1  0
  8  4  2  0
M  END
>  <rName>  (862) 
Ala_thien2yl_3Cl

>  <PQ_SYMBOL>  (862) 
Ala_thien2yl_3Cl

>  <FULL_NAME>  (862) 
(2S)-2-amino-3-(3-chlorothiophen-2-yl)propanoic acid

>  <IUPAC_CONDENSED>  (862) 
Ala(thien-2-yl(3-Cl))

>  <IUPAC>  (862) 
(2S)-2-amino-3-(3-chlorothiophen-2-yl)propanoic acid

>  <TYPE>  (862) 
Backbone

>  <CLASS>  (862) 
alpha

>  <ANALOG>  (862) 
Phe

>  <MOL_WT>  (862) 
205.66599999999997

>  <LOGP>  (862) 
1.3559

>  <TPSA>  (862) 
63.32000000000001

>  <POPULARITY>  (862) 
2.2

>  <PROTECTED>  (862) 
TRUE

>  <SMILES>  (862) 
N[C@@H](Cc1(sccc1Cl))C(=O)O

>  <INCHIKEY>  (862) 
XQEDKUDVLNCBIW-YFKPBYRVSA-N

$$$$
Ala_thien2yl_5Br
     RDKit          2D

 12 12  0  0  0  0  0  0  0  0999 V2000
   -1.1070    1.6556    0.0000 N   0  0  0  0  0  0  0  0  0  0  0  0
   -1.6374    0.2525    0.0000 C   0  0  0  0  0  0  0  0  0  0  0  0
   -0.6875   -0.9084    0.0000 C   0  0  0  0  0  0  0  0  0  0  0  0
    0.7928   -0.6662    0.0000 C   0  0  0  0  0  0  0  0  0  0  0  0
    1.8589   -1.7215    0.0000 C   0  0  0  0  0  0  0  0  0  0  0  0
    3.1919   -1.0337    0.0000 C   0  0  0  0  0  0  0  0  0  0  0  0
    2.9497    0.4466    0.0000 C   0  0  0  0  0  0  0  0  0  0  0  0
    4.0050    1.5127    0.0000 Br  0  0  0  0  0  0  0  0  0  0  0  0
    1.4670    0.6737    0.0000 S   0  0  0  0  0  0  0  0  0  0  0  0
   -3.1177    0.0103    0.0000 C   0  0  0  0  0  0  0  0  0  0  0  0
   -3.6481   -1.3928    0.0000 O   0  0  0  0  0  0  0  0  0  0  0  0
   -4.0676    1.1712    0.0000 O   0  0  0  0  0  0  0  0  0  0  0  0
  2  1  1  1
  2  3  1  0
  3  4  1  0
  4  5  2  0
  5  6  1  0
  6  7  2  0
  7  8  1  0
  7  9  1  0
  2 10  1  0
 10 11  2  0
 10 12  1  0
  9  4  1  0
M  END
>  <rName>  (863) 
Ala_thien2yl_5Br

>  <PQ_SYMBOL>  (863) 
Ala_thien2yl_5Br

>  <FULL_NAME>  (863) 
3-(5-bromothiophen-2-yl)-L-alanine

>  <IUPAC_CONDENSED>  (863) 
Ala(thien-2-yl(5-Br))

>  <IUPAC>  (863) 
(2S)-2-amino-3-(5-bromothiophen-2-yl)propanoic acid

>  <TYPE>  (863) 
Backbone

>  <CLASS>  (863) 
alpha

>  <ANALOG>  (863) 
Phe

>  <MOL_WT>  (863) 
250.11699999999996

>  <LOGP>  (863) 
1.465

>  <TPSA>  (863) 
63.32000000000001

>  <POPULARITY>  (863) 
11.9

>  <PROTECTED>  (863) 
TRUE

>  <SMILES>  (863) 
N[C@@H](Cc1(ccc(Br)s1))C(=O)O

>  <INCHIKEY>  (863) 
LKORPMMOJAJYLC-YFKPBYRVSA-N

$$$$
Ala_thien2yl_5Cl
     RDKit          2D

 12 12  0  0  0  0  0  0  0  0999 V2000
   -1.1070    1.6556    0.0000 N   0  0  0  0  0  0  0  0  0  0  0  0
   -1.6374    0.2525    0.0000 C   0  0  0  0  0  0  0  0  0  0  0  0
   -0.6875   -0.9084    0.0000 C   0  0  0  0  0  0  0  0  0  0  0  0
    0.7928   -0.6662    0.0000 C   0  0  0  0  0  0  0  0  0  0  0  0
    1.8589   -1.7215    0.0000 C   0  0  0  0  0  0  0  0  0  0  0  0
    3.1919   -1.0337    0.0000 C   0  0  0  0  0  0  0  0  0  0  0  0
    2.9497    0.4466    0.0000 C   0  0  0  0  0  0  0  0  0  0  0  0
    4.0050    1.5127    0.0000 Cl  0  0  0  0  0  0  0  0  0  0  0  0
    1.4670    0.6737    0.0000 S   0  0  0  0  0  0  0  0  0  0  0  0
   -3.1177    0.0103    0.0000 C   0  0  0  0  0  0  0  0  0  0  0  0
   -3.6481   -1.3928    0.0000 O   0  0  0  0  0  0  0  0  0  0  0  0
   -4.0676    1.1712    0.0000 O   0  0  0  0  0  0  0  0  0  0  0  0
  2  1  1  1
  2  3  1  0
  3  4  1  0
  4  5  2  0
  5  6  1  0
  6  7  2  0
  7  8  1  0
  7  9  1  0
  2 10  1  0
 10 11  2  0
 10 12  1  0
  9  4  1  0
M  END
>  <rName>  (864) 
Ala_thien2yl_5Cl

>  <PQ_SYMBOL>  (864) 
Ala_thien2yl_5Cl

>  <FULL_NAME>  (864) 
3-(5-Chlorothien-2-yl)-L-Alanine

>  <IUPAC_CONDENSED>  (864) 
Ala(thien-2-yl(5-Cl))

>  <IUPAC>  (864) 
(2S)-2-amino-3-(5-chlorothiophen-2-yl)propanoic acid

>  <TYPE>  (864) 
Backbone

>  <CLASS>  (864) 
alpha

>  <ANALOG>  (864) 
Phe

>  <MOL_WT>  (864) 
205.666

>  <LOGP>  (864) 
1.3559

>  <TPSA>  (864) 
63.32000000000001

>  <POPULARITY>  (864) 
3.0

>  <PROTECTED>  (864) 
TRUE

>  <SMILES>  (864) 
N[C@@H](Cc1(ccc(Cl)s1))C(=O)O

>  <INCHIKEY>  (864) 
KBRYNRGWSFULRU-YFKPBYRVSA-N

$$$$
Ala_thien2yl_5Me
     RDKit          2D

 12 12  0  0  0  0  0  0  0  0999 V2000
   -1.1070    1.6556    0.0000 N   0  0  0  0  0  0  0  0  0  0  0  0
   -1.6374    0.2525    0.0000 C   0  0  0  0  0  0  0  0  0  0  0  0
   -0.6875   -0.9084    0.0000 C   0  0  0  0  0  0  0  0  0  0  0  0
    0.7928   -0.6662    0.0000 C   0  0  0  0  0  0  0  0  0  0  0  0
    1.8589   -1.7215    0.0000 C   0  0  0  0  0  0  0  0  0  0  0  0
    3.1919   -1.0337    0.0000 C   0  0  0  0  0  0  0  0  0  0  0  0
    2.9497    0.4466    0.0000 C   0  0  0  0  0  0  0  0  0  0  0  0
    4.0050    1.5127    0.0000 C   0  0  0  0  0  0  0  0  0  0  0  0
    1.4670    0.6737    0.0000 S   0  0  0  0  0  0  0  0  0  0  0  0
   -3.1177    0.0103    0.0000 C   0  0  0  0  0  0  0  0  0  0  0  0
   -3.6481   -1.3928    0.0000 O   0  0  0  0  0  0  0  0  0  0  0  0
   -4.0676    1.1712    0.0000 O   0  0  0  0  0  0  0  0  0  0  0  0
  2  1  1  1
  2  3  1  0
  3  4  1  0
  4  5  2  0
  5  6  1  0
  6  7  2  0
  7  8  1  0
  7  9  1  0
  2 10  1  0
 10 11  2  0
 10 12  1  0
  9  4  1  0
M  END
>  <rName>  (865) 
Ala_thien2yl_5Me

>  <PQ_SYMBOL>  (865) 
Ala_thien2yl_5Me

>  <FULL_NAME>  (865) 
(S)-2-amino-3-(5-methylthiophen-2-yl)propanoic acid

>  <IUPAC_CONDENSED>  (865) 
Ala(thien-2-yl(5-Me))

>  <IUPAC>  (865) 
(2S)-2-amino-3-(5-methylthiophen-2-yl)propanoic acid

>  <TYPE>  (865) 
Backbone

>  <CLASS>  (865) 
alpha

>  <ANALOG>  (865) 
Phe

>  <MOL_WT>  (865) 
185.24799999999996

>  <LOGP>  (865) 
1.01092

>  <TPSA>  (865) 
63.32000000000001

>  <POPULARITY>  (865) 
4.4

>  <PROTECTED>  (865) 
TRUE

>  <SMILES>  (865) 
N[C@@H](Cc1(ccc(C)s1))C(=O)O

>  <INCHIKEY>  (865) 
KNSCRQAEJYEVMU-ZETCQYMHSA-N

$$$$
Ala_thien3yl_5Br
     RDKit          2D

 12 12  0  0  0  0  0  0  0  0999 V2000
   -1.1070    1.6556    0.0000 N   0  0  0  0  0  0  0  0  0  0  0  0
   -1.6374    0.2525    0.0000 C   0  0  0  0  0  0  0  0  0  0  0  0
   -0.6875   -0.9084    0.0000 C   0  0  0  0  0  0  0  0  0  0  0  0
    0.7928   -0.6662    0.0000 C   0  0  0  0  0  0  0  0  0  0  0  0
    1.8589   -1.7215    0.0000 C   0  0  0  0  0  0  0  0  0  0  0  0
    3.1919   -1.0337    0.0000 S   0  0  0  0  0  0  0  0  0  0  0  0
    2.9497    0.4466    0.0000 C   0  0  0  0  0  0  0  0  0  0  0  0
    4.0050    1.5127    0.0000 Br  0  0  0  0  0  0  0  0  0  0  0  0
    1.4670    0.6737    0.0000 C   0  0  0  0  0  0  0  0  0  0  0  0
   -3.1177    0.0103    0.0000 C   0  0  0  0  0  0  0  0  0  0  0  0
   -3.6481   -1.3928    0.0000 O   0  0  0  0  0  0  0  0  0  0  0  0
   -4.0676    1.1712    0.0000 O   0  0  0  0  0  0  0  0  0  0  0  0
  2  1  1  1
  2  3  1  0
  3  4  1  0
  4  5  2  0
  5  6  1  0
  6  7  1  0
  7  8  1  0
  7  9  2  0
  2 10  1  0
 10 11  2  0
 10 12  1  0
  9  4  1  0
M  END
>  <rName>  (866) 
Ala_thien3yl_5Br

>  <PQ_SYMBOL>  (866) 
Ala_thien3yl_5Br

>  <FULL_NAME>  (866) 
(2S)-2-amino-3-(5-bromothiophen-3-yl)propanoic acid

>  <IUPAC_CONDENSED>  (866) 
Ala(thien-3-yl(5-Br))

>  <IUPAC>  (866) 
(2S)-2-amino-3-(5-bromothiophen-3-yl)propanoic acid

>  <TYPE>  (866) 
Backbone

>  <CLASS>  (866) 
alpha

>  <ANALOG>  (866) 
Phe

>  <MOL_WT>  (866) 
250.117

>  <LOGP>  (866) 
1.4650000000000003

>  <TPSA>  (866) 
63.32000000000001

>  <POPULARITY>  (866) 
3.0

>  <PROTECTED>  (866) 
TRUE

>  <SMILES>  (866) 
N[C@@H](Cc1(csc(Br)c1))C(=O)O

>  <INCHIKEY>  (866) 
AIKYXJKPTHOFIR-YFKPBYRVSA-N

$$$$
Ala_triazol1yl
     RDKit          2D

 11 11  0  0  0  0  0  0  0  0999 V2000
   -0.9461    1.6947    0.0000 N   0  0  0  0  0  0  0  0  0  0  0  0
   -1.3100    0.2395    0.0000 C   0  0  0  0  0  0  0  0  0  0  0  0
   -0.2317   -0.8032    0.0000 C   0  0  0  0  0  0  0  0  0  0  0  0
    1.2105   -0.3908    0.0000 N   0  0  0  0  0  0  0  0  0  0  0  0
    2.3919   -1.3151    0.0000 C   0  0  0  0  0  0  0  0  0  0  0  0
    3.6360   -0.4772    0.0000 C   0  0  0  0  0  0  0  0  0  0  0  0
    3.2236    0.9650    0.0000 N   0  0  0  0  0  0  0  0  0  0  0  0
    1.7245    1.0184    0.0000 N   0  0  0  0  0  0  0  0  0  0  0  0
   -2.7522   -0.1729    0.0000 C   0  0  0  0  0  0  0  0  0  0  0  0
   -3.1161   -1.6281    0.0000 O   0  0  0  0  0  0  0  0  0  0  0  0
   -3.8304    0.8698    0.0000 O   0  0  0  0  0  0  0  0  0  0  0  0
  2  1  1  1
  2  3  1  0
  3  4  1  0
  4  5  1  0
  5  6  2  0
  6  7  1  0
  7  8  2  0
  2  9  1  0
  9 10  2  0
  9 11  1  0
  8  4  1  0
M  END
>  <rName>  (867) 
Ala_triazol1yl

>  <PQ_SYMBOL>  (867) 
Ala_triazol1yl

>  <FULL_NAME>  (867) 
3-(1H-1,2,3-triazol-1-yl)-L-alanine

>  <IUPAC_CONDENSED>  (867) 
Ala(triazol-1-yl)

>  <IUPAC>  (867) 
(2S)-2-amino-3-(1H-1,2,3-triazol-1-yl)propanoic acid

>  <TYPE>  (867) 
Backbone

>  <CLASS>  (867) 
alpha

>  <ANALOG>  (867) 
Phe

>  <MOL_WT>  (867) 
156.14499999999998

>  <LOGP>  (867) 
-1.3100000000000005

>  <TPSA>  (867) 
94.03000000000002

>  <POPULARITY>  (867) 
8.6

>  <PROTECTED>  (867) 
TRUE

>  <SMILES>  (867) 
N[C@@H](Cn1(ccnn1))C(=O)O

>  <INCHIKEY>  (867) 
WSEIPIFXCRDQNL-BYPYZUCNSA-N

$$$$
Ala_triazolopyridinyl
     RDKit          2D

 15 16  0  0  0  0  0  0  0  0999 V2000
    2.4169   -1.6715    0.0000 N   0  0  0  0  0  0  0  0  0  0  0  0
    2.6919   -0.1969    0.0000 C   0  0  0  0  0  0  0  0  0  0  0  0
    1.5524    0.7786    0.0000 C   0  0  0  0  0  0  0  0  0  0  0  0
    0.1379    0.2795    0.0000 C   0  0  0  0  0  0  0  0  0  0  0  0
   -0.1372   -1.1951    0.0000 C   0  0  0  0  0  0  0  0  0  0  0  0
   -1.5517   -1.6942    0.0000 C   0  0  0  0  0  0  0  0  0  0  0  0
   -2.6912   -0.7188    0.0000 C   0  0  0  0  0  0  0  0  0  0  0  0
   -4.1786   -0.9129    0.0000 N   0  0  0  0  0  0  0  0  0  0  0  0
   -4.8228    0.4417    0.0000 C   0  0  0  0  0  0  0  0  0  0  0  0
   -3.7336    1.4730    0.0000 N   0  0  0  0  0  0  0  0  0  0  0  0
   -2.4162    0.7558    0.0000 N   0  0  0  0  0  0  0  0  0  0  0  0
   -1.0016    1.2549    0.0000 C   0  0  0  0  0  0  0  0  0  0  0  0
    4.1064    0.3022    0.0000 C   0  0  0  0  0  0  0  0  0  0  0  0
    4.3814    1.7768    0.0000 O   0  0  0  0  0  0  0  0  0  0  0  0
    5.2459   -0.6732    0.0000 O   0  0  0  0  0  0  0  0  0  0  0  0
  2  1  1  1
  2  3  1  0
  3  4  1  0
  4  5  1  0
  5  6  2  0
  6  7  1  0
  7  8  2  0
  8  9  1  0
  9 10  2  0
 10 11  1  0
 11 12  1  0
  2 13  1  0
 13 14  2  0
 13 15  1  0
 11  7  1  0
 12  4  2  0
M  END
>  <rName>  (868) 
Ala_triazolopyridinyl

>  <PQ_SYMBOL>  (868) 
Ala_triazolopyridinyl

>  <FULL_NAME>  (868) 
(S)-3-([1,2,4]triazolo[1,5-a]pyridin-6-yl)-2-aminopropanoic acid

>  <IUPAC_CONDENSED>  (868) 
Ala(triazolopyridinyl)

>  <IUPAC>  (868) 
(2S)-2-amino-3-(1,7,9-triazabicyclo[4.3.0]nona-2,4,6,8-tetraen-3-yl)propanoic acid

>  <TYPE>  (868) 
Backbone

>  <CLASS>  (868) 
alpha

>  <ANALOG>  (868) 
Phe

>  <MOL_WT>  (868) 
206.20499999999998

>  <LOGP>  (868) 
-0.3163000000000003

>  <TPSA>  (868) 
93.51

>  <POPULARITY>  (868) 
2.4

>  <PROTECTED>  (868) 
TRUE

>  <SMILES>  (868) 
N[C@@H](Cc2(ccc1(ncnn1c2)))C(=O)O

>  <INCHIKEY>  (868) 
BOPYRCRTQDXTKX-ZETCQYMHSA-N

$$$$
Ala_uracil1yl
     RDKit          2D

 14 14  0  0  0  0  0  0  0  0999 V2000
   -1.7174    1.8436    0.0000 N   0  0  0  0  0  0  0  0  0  0  0  0
   -2.1036    0.3942    0.0000 C   0  0  0  0  0  0  0  0  0  0  0  0
   -1.0414   -0.6650    0.0000 C   0  0  0  0  0  0  0  0  0  0  0  0
    0.4069   -0.2747    0.0000 N   0  0  0  0  0  0  0  0  0  0  0  0
    0.7931    1.1747    0.0000 C   0  0  0  0  0  0  0  0  0  0  0  0
    2.2415    1.5649    0.0000 C   0  0  0  0  0  0  0  0  0  0  0  0
    3.3036    0.5057    0.0000 C   0  0  0  0  0  0  0  0  0  0  0  0
    4.7520    0.8960    0.0000 O   0  0  0  0  0  0  0  0  0  0  0  0
    2.9174   -0.9437    0.0000 N   0  0  0  0  0  0  0  0  0  0  0  0
    1.4691   -1.3339    0.0000 C   0  0  0  0  0  0  0  0  0  0  0  0
    1.0829   -2.7834    0.0000 O   0  0  0  0  0  0  0  0  0  0  0  0
   -3.5519    0.0039    0.0000 C   0  0  0  0  0  0  0  0  0  0  0  0
   -3.9381   -1.4455    0.0000 O   0  0  0  0  0  0  0  0  0  0  0  0
   -4.6140    1.0631    0.0000 O   0  0  0  0  0  0  0  0  0  0  0  0
  2  1  1  1
  2  3  1  0
  3  4  1  0
  4  5  1  0
  5  6  2  0
  6  7  1  0
  7  8  2  0
  7  9  1  0
  9 10  1  0
 10 11  2  0
  2 12  1  0
 12 13  2  0
 12 14  1  0
 10  4  1  0
M  END
>  <rName>  (869) 
Ala_uracil1yl

>  <PQ_SYMBOL>  (869) 
Ala_uracil1yl

>  <FULL_NAME>  (869) 
alpha-amino-2,4-dioxopyrimidinepropanoic acid

>  <IUPAC_CONDENSED>  (869) 
Ala(uracil-1-yl)

>  <IUPAC>  (869) 
(2S)-2-amino-3-(2,4-dioxo-1,3-diazacyclohex-5-en-1-yl)propanoic acid

>  <TYPE>  (869) 
Backbone

>  <CLASS>  (869) 
alpha

>  <ANALOG>  (869) 
Phe

>  <MOL_WT>  (869) 
199.16599999999997

>  <LOGP>  (869) 
-2.0515

>  <TPSA>  (869) 
118.17999999999999

>  <POPULARITY>  (869) 
8.8

>  <PROTECTED>  (869) 
FALSE

>  <SMILES>  (869) 
N[C@@H](Cn1(ccc(=O)[nH]c1=O))C(=O)O

>  <INCHIKEY>  (869) 
FACUYWPMDKTVFU-BYPYZUCNSA-N

$$$$
AlatBu-OMe
     RDKit          2D

 11 10  0  0  0  0  0  0  0  0999 V2000
   -0.0978    1.7382    0.0000 N   0  0  0  0  0  0  0  0  0  0  0  0
   -0.3201    0.2548    0.0000 C   0  0  0  0  0  0  0  0  0  0  0  0
   -1.7159   -0.2945    0.0000 C   0  0  0  0  0  0  0  0  0  0  0  0
   -1.9381   -1.7779    0.0000 O   0  0  0  0  0  0  0  0  0  0  0  0
   -2.8895    0.6397    0.0000 O   0  0  0  0  0  0  0  0  0  0  0  0
   -4.2853    0.0904    0.0000 C   0  0  0  0  0  0  0  0  0  0  0  0
    0.8535   -0.6794    0.0000 C   0  0  0  0  0  0  0  0  0  0  0  0
    2.2493   -0.1301    0.0000 C   0  0  0  0  0  0  0  0  0  0  0  0
    2.7986   -1.5260    0.0000 C   0  0  0  0  0  0  0  0  0  0  0  0
    1.7001    1.2657    0.0000 C   0  0  0  0  0  0  0  0  0  0  0  0
    3.6452    0.4191    0.0000 C   0  0  0  0  0  0  0  0  0  0  0  0
  2  1  1  1
  2  3  1  0
  3  4  2  0
  3  5  1  0
  5  6  1  0
  2  7  1  0
  7  8  1  0
  8  9  1  0
  8 10  1  0
  8 11  1  0
M  END
>  <rName>  (870) 
AlatBu-OMe

>  <PQ_SYMBOL>  (870) 
AlatBu-OMe

>  <FULL_NAME>  (870) 
methyl (2S)-2-amino-4,4-dimethylpentanoate

>  <IUPAC_CONDENSED>  (870) 
Ala(tBu)-OMe

>  <IUPAC>  (870) 
methyl (2S)-2-amino-4,4-dimethylpentanoate

>  <TYPE>  (870) 
C-term cap

>  <CLASS>  (870) 
c_cap

>  <ANALOG>  (870) 
X

>  <MOL_WT>  (870) 
159.22899999999998

>  <LOGP>  (870) 
0.9228999999999996

>  <TPSA>  (870) 
52.32000000000001

>  <POPULARITY>  (870) 
9.4

>  <PROTECTED>  (870) 
TRUE

>  <SMILES>  (870) 
N[C@H](C(=O)OC)CC(C)(C)C

>  <INCHIKEY>  (870) 
AHLUWXPHJXOHIQ-LURJTMIESA-N

$$$$
Am
     RDKit          2D

  1  0  0  0  0  0  0  0  0  0999 V2000
    0.0000    0.0000    0.0000 N   0  0  0  0  0  0  0  0  0  0  0  0
M  END
>  <rName>  (871) 
Am

>  <PQ_SYMBOL>  (871) 
Am

>  <FULL_NAME>  (871) 
Amine

>  <IUPAC_CONDENSED>  (871) 
Amide

>  <IUPAC>  (871) 
azane

>  <TYPE>  (871) 
C-term cap

>  <CLASS>  (871) 
c_cap

>  <ANALOG>  (871) 
X

>  <MOL_WT>  (871) 
17.031

>  <LOGP>  (871) 
0.16199999999999998

>  <TPSA>  (871) 
35.0

>  <POPULARITY>  (871) 
26.9

>  <PROTECTED>  (871) 
FALSE

>  <SMILES>  (871) 
N

>  <INCHIKEY>  (871) 
QGZKDVFQNNGYKY-UHFFFAOYSA-N

$$$$
Aoda
     RDKit          2D

 14 13  0  0  0  0  0  0  0  0999 V2000
    3.4434   -1.8746    0.0000 N   0  0  0  0  0  0  0  0  0  0  0  0
    3.5124   -0.3762    0.0000 C   0  0  0  0  0  0  0  0  0  0  0  0
    2.2492    0.4328    0.0000 C   0  0  0  0  0  0  0  0  0  0  0  0
    0.9171   -0.2567    0.0000 C   0  0  0  0  0  0  0  0  0  0  0  0
   -0.3461    0.5522    0.0000 C   0  0  0  0  0  0  0  0  0  0  0  0
   -1.6783   -0.1373    0.0000 C   0  0  0  0  0  0  0  0  0  0  0  0
   -2.9415    0.6717    0.0000 C   0  0  0  0  0  0  0  0  0  0  0  0
   -4.2736   -0.0178    0.0000 C   0  0  0  0  0  0  0  0  0  0  0  0
   -4.3426   -1.5162    0.0000 O   0  0  0  0  0  0  0  0  0  0  0  0
   -5.5368    0.7911    0.0000 C   0  0  0  0  0  0  0  0  0  0  0  0
   -6.8689    0.1016    0.0000 C   0  0  0  0  0  0  0  0  0  0  0  0
    4.8445    0.3133    0.0000 C   0  0  0  0  0  0  0  0  0  0  0  0
    4.9135    1.8117    0.0000 O   0  0  0  0  0  0  0  0  0  0  0  0
    6.1077   -0.4956    0.0000 O   0  0  0  0  0  0  0  0  0  0  0  0
  2  1  1  1
  2  3  1  0
  3  4  1  0
  4  5  1  0
  5  6  1  0
  6  7  1  0
  7  8  1  0
  8  9  2  0
  8 10  1  0
 10 11  1  0
  2 12  1  0
 12 13  2  0
 12 14  1  0
M  END
>  <rName>  (872) 
Aoda

>  <PQ_SYMBOL>  (872) 
Aoda

>  <FULL_NAME>  (872) 
(2S)-2-amino-8-oxodecanoic acid

>  <IUPAC_CONDENSED>  (872) 
Aoda

>  <IUPAC>  (872) 
(2S)-2-amino-8-oxodecanoic acid

>  <TYPE>  (872) 
Backbone

>  <CLASS>  (872) 
alpha

>  <ANALOG>  (872) 
X

>  <MOL_WT>  (872) 
201.266

>  <LOGP>  (872) 
1.3278999999999996

>  <TPSA>  (872) 
80.39

>  <POPULARITY>  (872) 
14.2

>  <PROTECTED>  (872) 
FALSE

>  <SMILES>  (872) 
N[C@@H](CCCCCC(=O)CC)C(=O)O

>  <INCHIKEY>  (872) 
OUGZJFOMQFQKAD-VIFPVBQESA-N

$$$$
Apm
     RDKit          2D

 12 11  0  0  0  0  0  0  0  0999 V2000
    2.4617   -1.9005    0.0000 N   0  0  0  0  0  0  0  0  0  0  0  0
    2.4001   -0.4018    0.0000 C   0  0  0  0  0  0  0  0  0  0  0  0
    1.0713    0.2943    0.0000 C   0  0  0  0  0  0  0  0  0  0  0  0
   -0.1958   -0.5085    0.0000 C   0  0  0  0  0  0  0  0  0  0  0  0
   -1.5245    0.1875    0.0000 C   0  0  0  0  0  0  0  0  0  0  0  0
   -2.7917   -0.6152    0.0000 C   0  0  0  0  0  0  0  0  0  0  0  0
   -4.1204    0.0808    0.0000 C   0  0  0  0  0  0  0  0  0  0  0  0
   -4.1820    1.5796    0.0000 O   0  0  0  0  0  0  0  0  0  0  0  0
   -5.3876   -0.7219    0.0000 O   0  0  0  0  0  0  0  0  0  0  0  0
    3.6672    0.4010    0.0000 C   0  0  0  0  0  0  0  0  0  0  0  0
    3.6056    1.8997    0.0000 O   0  0  0  0  0  0  0  0  0  0  0  0
    4.9960   -0.2950    0.0000 O   0  0  0  0  0  0  0  0  0  0  0  0
  2  1  1  1
  2  3  1  0
  3  4  1  0
  4  5  1  0
  5  6  1  0
  6  7  1  0
  7  8  2  0
  7  9  1  0
  2 10  1  0
 10 11  2  0
 10 12  1  0
M  END
>  <rName>  (873) 
Apm

>  <PQ_SYMBOL>  (873) 
Apm

>  <FULL_NAME>  (873) 
L-Aminopimelic acid, 6-carboxy-L-norleucine

>  <IUPAC_CONDENSED>  (873) 
Apm

>  <IUPAC>  (873) 
(2S)-2-aminoheptanedioic acid

>  <TYPE>  (873) 
Backbone

>  <CLASS>  (873) 
alpha

>  <ANALOG>  (873) 
X

>  <MOL_WT>  (873) 
175.184

>  <LOGP>  (873) 
0.04329999999999956

>  <TPSA>  (873) 
100.62000000000002

>  <POPULARITY>  (873) 
13.3

>  <PROTECTED>  (873) 
TRUE

>  <SMILES>  (873) 
N[C@@H](CCCCC(=O)O)C(=O)O

>  <INCHIKEY>  (873) 
JUQLUIFNNFIIKC-YFKPBYRVSA-N

$$$$
Apm_CO2H
     RDKit          2D

 15 14  0  0  0  0  0  0  0  0999 V2000
   -2.8032    1.7499    0.0000 N   0  0  0  0  0  0  0  0  0  0  0  0
   -2.9334    0.2555    0.0000 C   0  0  0  0  0  0  0  0  0  0  0  0
   -1.7043   -0.6044    0.0000 C   0  0  0  0  0  0  0  0  0  0  0  0
   -0.3451    0.0301    0.0000 C   0  0  0  0  0  0  0  0  0  0  0  0
    0.8840   -0.8298    0.0000 C   0  0  0  0  0  0  0  0  0  0  0  0
    2.2432   -0.1954    0.0000 C   0  0  0  0  0  0  0  0  0  0  0  0
    3.4722   -1.0553    0.0000 C   0  0  0  0  0  0  0  0  0  0  0  0
    3.3421   -2.5496    0.0000 O   0  0  0  0  0  0  0  0  0  0  0  0
    4.8314   -0.4209    0.0000 O   0  0  0  0  0  0  0  0  0  0  0  0
    2.3733    1.2989    0.0000 C   0  0  0  0  0  0  0  0  0  0  0  0
    1.1443    2.1588    0.0000 O   0  0  0  0  0  0  0  0  0  0  0  0
    3.7326    1.9334    0.0000 O   0  0  0  0  0  0  0  0  0  0  0  0
   -4.2926   -0.3789    0.0000 C   0  0  0  0  0  0  0  0  0  0  0  0
   -4.4228   -1.8733    0.0000 O   0  0  0  0  0  0  0  0  0  0  0  0
   -5.5217    0.4810    0.0000 O   0  0  0  0  0  0  0  0  0  0  0  0
  2  1  1  1
  2  3  1  0
  3  4  1  0
  4  5  1  0
  5  6  1  0
  6  7  1  0
  7  8  2  0
  7  9  1  0
  6 10  1  0
 10 11  2  0
 10 12  1  0
  2 13  1  0
 13 14  2  0
 13 15  1  0
M  END
>  <rName>  (874) 
Apm_CO2H

>  <PQ_SYMBOL>  (874) 
Apm_CO2H

>  <FULL_NAME>  (874) 
Apm(CO2H)

>  <IUPAC_CONDENSED>  (874) 
Apm(CO2H)

>  <IUPAC>  (874) 
(2S)-2-amino-6-carboxyheptanedioic acid

>  <TYPE>  (874) 
Backbone

>  <CLASS>  (874) 
alpha

>  <ANALOG>  (874) 
X

>  <MOL_WT>  (874) 
219.19299999999998

>  <LOGP>  (874) 
-0.6459999999999999

>  <TPSA>  (874) 
137.92000000000002

>  <POPULARITY>  (874) 
3.5

>  <PROTECTED>  (874) 
TRUE

>  <SMILES>  (874) 
N[C@@H](CCCC(C(=O)O)C(=O)O)C(=O)O

>  <INCHIKEY>  (874) 
ZEEURUSKXZCCBN-YFKPBYRVSA-N

$$$$
Apm_NH2
     RDKit          2D

 12 11  0  0  0  0  0  0  0  0999 V2000
    2.4617   -1.9005    0.0000 N   0  0  0  0  0  0  0  0  0  0  0  0
    2.4001   -0.4018    0.0000 C   0  0  0  0  0  0  0  0  0  0  0  0
    1.0713    0.2943    0.0000 C   0  0  0  0  0  0  0  0  0  0  0  0
   -0.1958   -0.5085    0.0000 C   0  0  0  0  0  0  0  0  0  0  0  0
   -1.5245    0.1875    0.0000 C   0  0  0  0  0  0  0  0  0  0  0  0
   -2.7917   -0.6152    0.0000 C   0  0  0  0  0  0  0  0  0  0  0  0
   -4.1204    0.0808    0.0000 C   0  0  0  0  0  0  0  0  0  0  0  0
   -4.1820    1.5796    0.0000 O   0  0  0  0  0  0  0  0  0  0  0  0
   -5.3876   -0.7219    0.0000 N   0  0  0  0  0  0  0  0  0  0  0  0
    3.6672    0.4010    0.0000 C   0  0  0  0  0  0  0  0  0  0  0  0
    3.6056    1.8997    0.0000 O   0  0  0  0  0  0  0  0  0  0  0  0
    4.9960   -0.2950    0.0000 O   0  0  0  0  0  0  0  0  0  0  0  0
  2  1  1  1
  2  3  1  0
  3  4  1  0
  4  5  1  0
  5  6  1  0
  6  7  1  0
  7  8  2  0
  7  9  1  0
  2 10  1  0
 10 11  2  0
 10 12  1  0
M  END
>  <rName>  (875) 
Apm_NH2

>  <PQ_SYMBOL>  (875) 
Apm_NH2

>  <FULL_NAME>  (875) 
(2S)-2,7-diamino-7-oxoheptanoic acid

>  <IUPAC_CONDENSED>  (875) 
Apm(NH2)

>  <IUPAC>  (875) 
(2S)-2-amino-6-carbamoylhexanoic acid

>  <TYPE>  (875) 
Backbone

>  <CLASS>  (875) 
alpha

>  <ANALOG>  (875) 
Lys

>  <MOL_WT>  (875) 
174.2

>  <LOGP>  (875) 
-0.5559999999999996

>  <TPSA>  (875) 
106.41000000000001

>  <POPULARITY>  (875) 
8.5

>  <PROTECTED>  (875) 
TRUE

>  <SMILES>  (875) 
N[C@@H](CCCCC(=O)N)C(=O)O

>  <INCHIKEY>  (875) 
QTNACZLPTBPOOG-YFKPBYRVSA-N

$$$$
Arg-Gly
     RDKit          2D

 16 15  0  0  0  0  0  0  0  0999 V2000
    3.1012   -0.2036    0.0000 N   0  0  0  0  0  0  0  0  0  0  0  0
    1.7627    0.4733    0.0000 C   0  0  0  0  0  0  0  0  0  0  0  0
    1.6796    1.9710    0.0000 O   0  0  0  0  0  0  0  0  0  0  0  0
    0.5072   -0.3474    0.0000 C   0  0  0  0  0  0  0  0  0  0  0  0
    0.5902   -1.8451    0.0000 N   0  0  0  0  0  0  0  0  0  0  0  0
   -0.8314    0.3295    0.0000 C   0  0  0  0  0  0  0  0  0  0  0  0
   -2.0869   -0.4913    0.0000 C   0  0  0  0  0  0  0  0  0  0  0  0
   -3.4255    0.1856    0.0000 C   0  0  0  0  0  0  0  0  0  0  0  0
   -4.6810   -0.6352    0.0000 N   0  0  0  0  0  0  0  0  0  0  0  0
   -6.0196    0.0417    0.0000 C   0  0  0  0  0  0  0  0  0  0  0  0
   -6.1027    1.5394    0.0000 N   0  0  0  0  0  0  0  0  0  0  0  0
   -7.2751   -0.7791    0.0000 N   0  0  0  0  0  0  0  0  0  0  0  0
    4.3568    0.6172    0.0000 C   0  0  0  0  0  0  0  0  0  0  0  0
    5.6953   -0.0597    0.0000 C   0  0  0  0  0  0  0  0  0  0  0  0
    5.7784   -1.5574    0.0000 O   0  0  0  0  0  0  0  0  0  0  0  0
    6.9508    0.7611    0.0000 O   0  0  0  0  0  0  0  0  0  0  0  0
  1  2  1  0
  2  3  2  0
  2  4  1  0
  4  5  1  1
  4  6  1  0
  6  7  1  0
  7  8  1  0
  8  9  1  0
  9 10  1  0
 10 11  2  0
 10 12  1  0
  1 13  1  0
 13 14  1  0
 14 15  2  0
 14 16  1  0
M  END
>  <rName>  (876) 
Arg-Gly

>  <PQ_SYMBOL>  (876) 
Arg-Gly

>  <FULL_NAME>  (876) 
L-arginylglycine

>  <IUPAC_CONDENSED>  (876) 
Arg-Gly

>  <IUPAC>  (876) 
2-((1S)-1-amino-4-(((amino)(imino)methyl)amino)butylcarbonylamino)acetic acid

>  <TYPE>  (876) 
Backbone

>  <CLASS>  (876) 
alpha

>  <ANALOG>  (876) 
Gly

>  <MOL_WT>  (876) 
231.256

>  <LOGP>  (876) 
-2.222229999999998

>  <TPSA>  (876) 
154.32

>  <POPULARITY>  (876) 
12.7

>  <PROTECTED>  (876) 
TRUE

>  <SMILES>  (876) 
N(C(=O)[C@@H](N)CCCNC(=N)N)CC(=O)O

>  <INCHIKEY>  (876) 
XUUXCWCKKCZEAW-YFKPBYRVSA-N

$$$$
Arg-Me
     RDKit          2D

 12 11  0  0  0  0  0  0  0  0999 V2000
   -2.4617   -1.9005    0.0000 N   0  0  0  0  0  0  0  0  0  0  0  0
   -2.4001   -0.4018    0.0000 C   0  0  0  0  0  0  0  0  0  0  0  0
   -3.6672    0.4010    0.0000 C   0  0  0  0  0  0  0  0  0  0  0  0
   -3.6056    1.8997    0.0000 O   0  0  0  0  0  0  0  0  0  0  0  0
   -4.9960   -0.2950    0.0000 C   0  0  0  0  0  0  0  0  0  0  0  0
   -1.0713    0.2943    0.0000 C   0  0  0  0  0  0  0  0  0  0  0  0
    0.1958   -0.5085    0.0000 C   0  0  0  0  0  0  0  0  0  0  0  0
    1.5245    0.1875    0.0000 C   0  0  0  0  0  0  0  0  0  0  0  0
    2.7917   -0.6152    0.0000 N   0  0  0  0  0  0  0  0  0  0  0  0
    4.1204    0.0808    0.0000 C   0  0  0  0  0  0  0  0  0  0  0  0
    5.3876   -0.7219    0.0000 N   0  0  0  0  0  0  0  0  0  0  0  0
    4.1820    1.5796    0.0000 N   0  0  0  0  0  0  0  0  0  0  0  0
  2  1  1  6
  2  3  1  0
  3  4  2  0
  3  5  1  0
  2  6  1  0
  6  7  1  0
  7  8  1  0
  8  9  1  0
  9 10  2  0
 10 11  1  0
 10 12  1  0
M  END
>  <rName>  (877) 
Arg-Me

>  <PQ_SYMBOL>  (877) 
Arg-Me

>  <FULL_NAME>  (877) 
Arginine methyl

>  <IUPAC_CONDENSED>  (877) 
Arg-Me

>  <IUPAC>  (877) 
(3S)-3-amino-6-((diaminomethylidene)amino)hexan-2-one

>  <TYPE>  (877) 
C-term cap

>  <CLASS>  (877) 
c_cap

>  <ANALOG>  (877) 
X

>  <MOL_WT>  (877) 
172.232

>  <LOGP>  (877) 
-1.0436999999999987

>  <TPSA>  (877) 
107.49

>  <POPULARITY>  (877) 
9.1

>  <PROTECTED>  (877) 
FALSE

>  <SMILES>  (877) 
N[C@H](C(=O)C)CCCN=C(N)N

>  <INCHIKEY>  (877) 
GCCQNSQKSSOQIR-LURJTMIESA-N

$$$$
Arg-NH2
     RDKit          2D

 12 11  0  0  0  0  0  0  0  0999 V2000
    2.4617   -1.9005    0.0000 N   0  0  0  0  0  0  0  0  0  0  0  0
    2.4001   -0.4018    0.0000 C   0  0  0  0  0  0  0  0  0  0  0  0
    3.6672    0.4010    0.0000 C   0  0  0  0  0  0  0  0  0  0  0  0
    3.6056    1.8997    0.0000 O   0  0  0  0  0  0  0  0  0  0  0  0
    4.9960   -0.2950    0.0000 N   0  0  0  0  0  0  0  0  0  0  0  0
    1.0713    0.2943    0.0000 C   0  0  0  0  0  0  0  0  0  0  0  0
   -0.1958   -0.5085    0.0000 C   0  0  0  0  0  0  0  0  0  0  0  0
   -1.5245    0.1875    0.0000 C   0  0  0  0  0  0  0  0  0  0  0  0
   -2.7917   -0.6152    0.0000 N   0  0  0  0  0  0  0  0  0  0  0  0
   -4.1204    0.0808    0.0000 C   0  0  0  0  0  0  0  0  0  0  0  0
   -4.1820    1.5796    0.0000 N   0  0  0  0  0  0  0  0  0  0  0  0
   -5.3876   -0.7219    0.0000 N   0  0  0  0  0  0  0  0  0  0  0  0
  2  1  1  1
  2  3  1  0
  3  4  2  0
  3  5  1  0
  2  6  1  0
  6  7  1  0
  7  8  1  0
  8  9  1  0
  9 10  1  0
 10 11  2  0
 10 12  1  0
M  END
>  <rName>  (878) 
Arg-NH2

>  <PQ_SYMBOL>  (878) 
Arg-NH2

>  <FULL_NAME>  (878) 
ARGININEAMIDE

>  <IUPAC_CONDENSED>  (878) 
Arg-NH2

>  <IUPAC>  (878) 
(2S)-2-amino-5-(((amino)(imino)methyl)amino)pentanamide

>  <TYPE>  (878) 
C-term cap

>  <CLASS>  (878) 
c_cap

>  <ANALOG>  (878) 
X

>  <MOL_WT>  (878) 
173.22000000000003

>  <LOGP>  (878) 
-1.9377299999999993

>  <TPSA>  (878) 
131.01000000000002

>  <POPULARITY>  (878) 
22.5

>  <PROTECTED>  (878) 
FALSE

>  <SMILES>  (878) 
N[C@H](C(=O)N)CCCNC(=N)N

>  <INCHIKEY>  (878) 
ULEBESPCVWBNIF-BYPYZUCNSA-N

$$$$
Arg-OMe
     RDKit          2D

 13 12  0  0  0  0  0  0  0  0999 V2000
    1.9446   -1.9750    0.0000 N   0  0  0  0  0  0  0  0  0  0  0  0
    1.9101   -0.4754    0.0000 C   0  0  0  0  0  0  0  0  0  0  0  0
    3.1915    0.3044    0.0000 C   0  0  0  0  0  0  0  0  0  0  0  0
    3.1569    1.8040    0.0000 O   0  0  0  0  0  0  0  0  0  0  0  0
    4.5074   -0.4155    0.0000 O   0  0  0  0  0  0  0  0  0  0  0  0
    5.7889    0.3642    0.0000 C   0  0  0  0  0  0  0  0  0  0  0  0
    0.5941    0.2445    0.0000 C   0  0  0  0  0  0  0  0  0  0  0  0
   -0.6873   -0.5352    0.0000 C   0  0  0  0  0  0  0  0  0  0  0  0
   -2.0033    0.1847    0.0000 C   0  0  0  0  0  0  0  0  0  0  0  0
   -3.2847   -0.5951    0.0000 N   0  0  0  0  0  0  0  0  0  0  0  0
   -4.6007    0.1248    0.0000 C   0  0  0  0  0  0  0  0  0  0  0  0
   -5.8821   -0.6549    0.0000 N   0  0  0  0  0  0  0  0  0  0  0  0
   -4.6353    1.6244    0.0000 N   0  0  0  0  0  0  0  0  0  0  0  0
  2  1  1  1
  2  3  1  0
  3  4  2  0
  3  5  1  0
  5  6  1  0
  2  7  1  0
  7  8  1  0
  8  9  1  0
  9 10  1  0
 10 11  2  0
 11 12  1  0
 11 13  1  0
M  END
>  <rName>  (879) 
Arg-OMe

>  <PQ_SYMBOL>  (879) 
Arg-OMe

>  <FULL_NAME>  (879) 
L-Arginine methyl ester

>  <IUPAC_CONDENSED>  (879) 
Arg-OMe

>  <IUPAC>  (879) 
methyl (2S)-2-amino-5-((diaminomethylidene)amino)pentanoate

>  <TYPE>  (879) 
C-term cap

>  <CLASS>  (879) 
c_cap

>  <ANALOG>  (879) 
X

>  <MOL_WT>  (879) 
188.231

>  <LOGP>  (879) 
-1.459699999999998

>  <TPSA>  (879) 
116.72

>  <POPULARITY>  (879) 
12.6

>  <PROTECTED>  (879) 
TRUE

>  <SMILES>  (879) 
N[C@H](C(=O)OC)CCCN=C(N)N

>  <INCHIKEY>  (879) 
ZDLDXNCMJBOYJV-YFKPBYRVSA-N

$$$$
Arg-al
     RDKit          2D

 11 10  0  0  0  0  0  0  0  0999 V2000
    2.8941   -1.5462    0.0000 N   0  0  0  0  0  0  0  0  0  0  0  0
    2.7369   -0.0545    0.0000 C   0  0  0  0  0  0  0  0  0  0  0  0
    3.9503    0.8275    0.0000 C   0  0  0  0  0  0  0  0  0  0  0  0
    5.3207    0.2177    0.0000 O   0  0  0  0  0  0  0  0  0  0  0  0
    1.3665    0.5553    0.0000 C   0  0  0  0  0  0  0  0  0  0  0  0
    0.1532   -0.3267    0.0000 C   0  0  0  0  0  0  0  0  0  0  0  0
   -1.2173    0.2831    0.0000 C   0  0  0  0  0  0  0  0  0  0  0  0
   -2.4306   -0.5988    0.0000 N   0  0  0  0  0  0  0  0  0  0  0  0
   -3.8011    0.0110    0.0000 C   0  0  0  0  0  0  0  0  0  0  0  0
   -3.9582    1.5027    0.0000 N   0  0  0  0  0  0  0  0  0  0  0  0
   -5.0144   -0.8710    0.0000 N   0  0  0  0  0  0  0  0  0  0  0  0
  2  1  1  1
  2  3  1  0
  3  4  2  0
  2  5  1  0
  5  6  1  0
  6  7  1  0
  7  8  1  0
  8  9  1  0
  9 10  2  0
  9 11  1  0
M  END
>  <rName>  (880) 
Arg-al

>  <PQ_SYMBOL>  (880) 
Arg-al

>  <FULL_NAME>  (880) 
2-[(4S)-4-amino-5-oxopentyl]guanidine

>  <IUPAC_CONDENSED>  (880) 
Arg-al

>  <IUPAC>  (880) 
(2S)-2-amino-5-(((amino)(imino)methyl)amino)pentanal

>  <TYPE>  (880) 
C-term cap

>  <CLASS>  (880) 
c_cap

>  <ANALOG>  (880) 
X

>  <MOL_WT>  (880) 
158.205

>  <LOGP>  (880) 
-1.2241299999999988

>  <TPSA>  (880) 
104.99

>  <POPULARITY>  (880) 
30.7

>  <PROTECTED>  (880) 
FALSE

>  <SMILES>  (880) 
N[C@H](C=O)CCCNC(=N)N

>  <INCHIKEY>  (880) 
QJYRUYURLPTHLR-YFKPBYRVSA-N

$$$$
Arg-benzothiazol-2-yl
     RDKit          2D

 20 21  0  0  0  0  0  0  0  0999 V2000
   -0.3741    1.3134    0.0000 N   0  0  0  0  0  0  0  0  0  0  0  0
   -0.6676   -0.1576    0.0000 C   0  0  0  0  0  0  0  0  0  0  0  0
   -2.0883   -0.6389    0.0000 C   0  0  0  0  0  0  0  0  0  0  0  0
   -3.2154    0.3508    0.0000 C   0  0  0  0  0  0  0  0  0  0  0  0
   -4.6361   -0.1305    0.0000 C   0  0  0  0  0  0  0  0  0  0  0  0
   -5.7633    0.8591    0.0000 N   0  0  0  0  0  0  0  0  0  0  0  0
   -7.1840    0.3778    0.0000 C   0  0  0  0  0  0  0  0  0  0  0  0
   -7.4775   -1.0932    0.0000 N   0  0  0  0  0  0  0  0  0  0  0  0
   -8.3112    1.3675    0.0000 N   0  0  0  0  0  0  0  0  0  0  0  0
    0.4596   -1.1473    0.0000 C   0  0  0  0  0  0  0  0  0  0  0  0
    0.1661   -2.6183    0.0000 O   0  0  0  0  0  0  0  0  0  0  0  0
    1.8803   -0.6660    0.0000 C   0  0  0  0  0  0  0  0  0  0  0  0
    3.1047   -1.5324    0.0000 S   0  0  0  0  0  0  0  0  0  0  0  0
    4.3071   -0.6356    0.0000 C   0  0  0  0  0  0  0  0  0  0  0  0
    5.7781   -0.9291    0.0000 C   0  0  0  0  0  0  0  0  0  0  0  0
    6.7678    0.1980    0.0000 C   0  0  0  0  0  0  0  0  0  0  0  0
    6.2865    1.6187    0.0000 C   0  0  0  0  0  0  0  0  0  0  0  0
    4.8155    1.9122    0.0000 C   0  0  0  0  0  0  0  0  0  0  0  0
    3.8258    0.7850    0.0000 C   0  0  0  0  0  0  0  0  0  0  0  0
    2.3259    0.7663    0.0000 N   0  0  0  0  0  0  0  0  0  0  0  0
  2  1  1  6
  2  3  1  0
  3  4  1  0
  4  5  1  0
  5  6  1  0
  6  7  1  0
  7  8  2  0
  7  9  1  0
  2 10  1  0
 10 11  2  0
 10 12  1  0
 12 13  1  0
 13 14  1  0
 14 15  2  0
 15 16  1  0
 16 17  2  0
 17 18  1  0
 18 19  2  0
 19 20  1  0
 19 14  1  0
 20 12  2  0
M  END
>  <rName>  (881) 
Arg-benzothiazol-2-yl

>  <PQ_SYMBOL>  (881) 
Arg-benzothiazol-2-yl

>  <FULL_NAME>  (881) 
2-[(4S)-4-amino-5-(1,3-benzothiazol-2-yl)-5-oxopentyl]guanidine

>  <IUPAC_CONDENSED>  (881) 
Arg-benzothiazol-2-yl

>  <IUPAC>  (881) 
(2S)-2-amino-5-(((amino)(imino)methyl)amino)-1-(benzothiazol-2-yl)pentan-1-one

>  <TYPE>  (881) 
C-term cap

>  <CLASS>  (881) 
c_cap

>  <ANALOG>  (881) 
X

>  <MOL_WT>  (881) 
291.38000000000005

>  <LOGP>  (881) 
1.0695699999999997

>  <TPSA>  (881) 
117.88000000000001

>  <POPULARITY>  (881) 
15.5

>  <PROTECTED>  (881) 
FALSE

>  <SMILES>  (881) 
N[C@@H](CCCNC(=N)N)C(=O)c2sc1ccccc1n2

>  <INCHIKEY>  (881) 
MAJHCCQPIDXPAN-QMMMGPOBSA-N

$$$$
Arg-benzothiazol-2-yl_6CO2H
     RDKit          2D

 23 24  0  0  0  0  0  0  0  0999 V2000
   -1.5210    1.3291    0.0000 N   0  0  0  0  0  0  0  0  0  0  0  0
   -1.8053   -0.1437    0.0000 C   0  0  0  0  0  0  0  0  0  0  0  0
   -3.2229   -0.6339    0.0000 C   0  0  0  0  0  0  0  0  0  0  0  0
   -4.3563    0.3487    0.0000 C   0  0  0  0  0  0  0  0  0  0  0  0
   -5.7739   -0.1415    0.0000 C   0  0  0  0  0  0  0  0  0  0  0  0
   -6.9073    0.8411    0.0000 N   0  0  0  0  0  0  0  0  0  0  0  0
   -8.3249    0.3509    0.0000 C   0  0  0  0  0  0  0  0  0  0  0  0
   -8.6092   -1.1219    0.0000 N   0  0  0  0  0  0  0  0  0  0  0  0
   -9.4583    1.3335    0.0000 N   0  0  0  0  0  0  0  0  0  0  0  0
   -0.6720   -1.1263    0.0000 C   0  0  0  0  0  0  0  0  0  0  0  0
   -0.9562   -2.5991    0.0000 O   0  0  0  0  0  0  0  0  0  0  0  0
    0.7457   -0.6361    0.0000 C   0  0  0  0  0  0  0  0  0  0  0  0
    1.9755   -1.4948    0.0000 S   0  0  0  0  0  0  0  0  0  0  0  0
    3.1723   -0.5905    0.0000 C   0  0  0  0  0  0  0  0  0  0  0  0
    4.6451   -0.8748    0.0000 C   0  0  0  0  0  0  0  0  0  0  0  0
    5.6277    0.2585    0.0000 C   0  0  0  0  0  0  0  0  0  0  0  0
    5.1375    1.6762    0.0000 C   0  0  0  0  0  0  0  0  0  0  0  0
    3.6647    1.9604    0.0000 C   0  0  0  0  0  0  0  0  0  0  0  0
    2.6821    0.8271    0.0000 C   0  0  0  0  0  0  0  0  0  0  0  0
    1.1824    0.7989    0.0000 N   0  0  0  0  0  0  0  0  0  0  0  0
    7.1005   -0.0258    0.0000 C   0  0  0  0  0  0  0  0  0  0  0  0
    8.0831    1.1076    0.0000 O   0  0  0  0  0  0  0  0  0  0  0  0
    7.5907   -1.4434    0.0000 O   0  0  0  0  0  0  0  0  0  0  0  0
  2  1  1  6
  2  3  1  0
  3  4  1  0
  4  5  1  0
  5  6  1  0
  6  7  1  0
  7  8  2  0
  7  9  1  0
  2 10  1  0
 10 11  2  0
 10 12  1  0
 12 13  1  0
 13 14  1  0
 14 15  1  0
 15 16  2  0
 16 17  1  0
 17 18  2  0
 18 19  1  0
 19 20  1  0
 16 21  1  0
 21 22  2  0
 21 23  1  0
 19 14  2  0
 20 12  2  0
M  END
>  <rName>  (882) 
Arg-benzothiazol-2-yl_6CO2H

>  <PQ_SYMBOL>  (882) 
Arg-benzothiazol-2-yl_6CO2H

>  <FULL_NAME>  (882) 
2-[(2S)-2-amino-5-(diaminomethylideneamino)pentanoyl]-1,3-benzothiazole-6-carboxylic acid

>  <IUPAC_CONDENSED>  (882) 
Arg-benzothiazol-2-yl(6-CO2H)

>  <IUPAC>  (882) 
2-((2S)-2-amino-5-(((amino)(imino)methyl)amino)-pentanoyl)benzothiazole-6-carboxylic acid

>  <TYPE>  (882) 
C-term cap

>  <CLASS>  (882) 
c_cap

>  <ANALOG>  (882) 
X

>  <MOL_WT>  (882) 
335.38900000000007

>  <LOGP>  (882) 
0.7677700000000002

>  <TPSA>  (882) 
155.18

>  <POPULARITY>  (882) 
2.8

>  <PROTECTED>  (882) 
FALSE

>  <SMILES>  (882) 
N[C@@H](CCCNC(=N)N)C(=O)c2sc1cc(ccc1n2)C(=O)O

>  <INCHIKEY>  (882) 
FNGTVLJWXRDWAE-QMMMGPOBSA-N

$$$$
Arg_Bn
     RDKit          2D

 19 19  0  0  0  0  0  0  0  0999 V2000
   -5.5253    2.0719    0.0000 N   0  0  0  0  0  0  0  0  0  0  0  0
   -5.6466    0.5768    0.0000 C   0  0  0  0  0  0  0  0  0  0  0  0
   -4.4124   -0.2757    0.0000 C   0  0  0  0  0  0  0  0  0  0  0  0
   -3.0570    0.3668    0.0000 C   0  0  0  0  0  0  0  0  0  0  0  0
   -1.8229   -0.4858    0.0000 C   0  0  0  0  0  0  0  0  0  0  0  0
   -0.4675    0.1567    0.0000 N   0  0  0  0  0  0  0  0  0  0  0  0
    0.7667   -0.6958    0.0000 C   0  0  0  0  0  0  0  0  0  0  0  0
    0.6454   -2.1909    0.0000 N   0  0  0  0  0  0  0  0  0  0  0  0
    2.1221   -0.0533    0.0000 N   0  0  0  0  0  0  0  0  0  0  0  0
    3.3563   -0.9059    0.0000 C   0  0  0  0  0  0  0  0  0  0  0  0
    4.7117   -0.2634    0.0000 C   0  0  0  0  0  0  0  0  0  0  0  0
    4.8330    1.2317    0.0000 C   0  0  0  0  0  0  0  0  0  0  0  0
    6.1884    1.8742    0.0000 C   0  0  0  0  0  0  0  0  0  0  0  0
    7.4225    1.0217    0.0000 C   0  0  0  0  0  0  0  0  0  0  0  0
    7.3013   -0.4734    0.0000 C   0  0  0  0  0  0  0  0  0  0  0  0
    5.9458   -1.1159    0.0000 C   0  0  0  0  0  0  0  0  0  0  0  0
   -7.0020   -0.0657    0.0000 C   0  0  0  0  0  0  0  0  0  0  0  0
   -7.1233   -1.5608    0.0000 O   0  0  0  0  0  0  0  0  0  0  0  0
   -8.2362    0.7869    0.0000 O   0  0  0  0  0  0  0  0  0  0  0  0
  2  1  1  1
  2  3  1  0
  3  4  1  0
  4  5  1  0
  5  6  1  0
  6  7  1  0
  7  8  2  0
  7  9  1  0
  9 10  1  0
 10 11  1  0
 11 12  2  0
 12 13  1  0
 13 14  2  0
 14 15  1  0
 15 16  2  0
  2 17  1  0
 17 18  2  0
 17 19  1  0
 16 11  1  0
M  END
>  <rName>  (883) 
Arg_Bn

>  <PQ_SYMBOL>  (883) 
Arg_Bn

>  <FULL_NAME>  (883) 
(2S)-2-amino-5-[(N-benzylcarbamimidoyl)amino]pentanoic acid

>  <IUPAC_CONDENSED>  (883) 
Arg(Bn)

>  <IUPAC>  (883) 
(2S)-2-amino-5-(((benzylamino)(imino)methyl)amino)pentanoic acid

>  <TYPE>  (883) 
Backbone

>  <CLASS>  (883) 
alpha

>  <ANALOG>  (883) 
Arg

>  <MOL_WT>  (883) 
264.329

>  <LOGP>  (883) 
0.4926700000000001

>  <TPSA>  (883) 
111.23

>  <POPULARITY>  (883) 
6.1

>  <PROTECTED>  (883) 
TRUE

>  <SMILES>  (883) 
N[C@@H](CCCNC(=N)NCc1(ccccc1))C(=O)O

>  <INCHIKEY>  (883) 
RGVYGAURICNHGI-NSHDSACASA-N

$$$$
Arg_CH2CF3
     RDKit          2D

 17 16  0  0  0  0  0  0  0  0999 V2000
   -4.6891    1.9726    0.0000 N   0  0  0  0  0  0  0  0  0  0  0  0
   -4.7272    0.4731    0.0000 C   0  0  0  0  0  0  0  0  0  0  0  0
   -3.4476   -0.3096    0.0000 C   0  0  0  0  0  0  0  0  0  0  0  0
   -2.1299    0.4072    0.0000 C   0  0  0  0  0  0  0  0  0  0  0  0
   -0.8504   -0.3756    0.0000 C   0  0  0  0  0  0  0  0  0  0  0  0
    0.4673    0.3412    0.0000 N   0  0  0  0  0  0  0  0  0  0  0  0
    1.7469   -0.4416    0.0000 C   0  0  0  0  0  0  0  0  0  0  0  0
    1.7088   -1.9411    0.0000 N   0  0  0  0  0  0  0  0  0  0  0  0
    3.0645    0.2752    0.0000 N   0  0  0  0  0  0  0  0  0  0  0  0
    4.3441   -0.5075    0.0000 C   0  0  0  0  0  0  0  0  0  0  0  0
    5.6618    0.2093    0.0000 C   0  0  0  0  0  0  0  0  0  0  0  0
    6.9794    0.9260    0.0000 F   0  0  0  0  0  0  0  0  0  0  0  0
    6.3786   -1.1084    0.0000 F   0  0  0  0  0  0  0  0  0  0  0  0
    4.9450    1.5269    0.0000 F   0  0  0  0  0  0  0  0  0  0  0  0
   -6.0448   -0.2437    0.0000 C   0  0  0  0  0  0  0  0  0  0  0  0
   -6.0829   -1.7432    0.0000 O   0  0  0  0  0  0  0  0  0  0  0  0
   -7.3244    0.5391    0.0000 O   0  0  0  0  0  0  0  0  0  0  0  0
  2  1  1  1
  2  3  1  0
  3  4  1  0
  4  5  1  0
  5  6  1  0
  6  7  1  0
  7  8  2  0
  7  9  1  0
  9 10  1  0
 10 11  1  0
 11 12  1  0
 11 13  1  0
 11 14  1  0
  2 15  1  0
 15 16  2  0
 15 17  1  0
M  END
>  <rName>  (884) 
Arg_CH2CF3

>  <PQ_SYMBOL>  (884) 
Arg_CH2CF3

>  <FULL_NAME>  (884) 
(2S)-2-amino-5-[[N'-(2,2,2-trifluoroethyl)carbamimidoyl]amino]pentanoic acid

>  <IUPAC_CONDENSED>  (884) 
Arg(CH2CF3)

>  <IUPAC>  (884) 
(2S)-2-amino-5-(((imino)((2,2,2-trifluoroethyl)amino)methyl)amino)pentanoic acid

>  <TYPE>  (884) 
Backbone

>  <CLASS>  (884) 
alpha

>  <ANALOG>  (884) 
Arg

>  <MOL_WT>  (884) 
256.22799999999995

>  <LOGP>  (884) 
-0.1452300000000007

>  <TPSA>  (884) 
111.23

>  <POPULARITY>  (884) 
6.4

>  <PROTECTED>  (884) 
TRUE

>  <SMILES>  (884) 
N[C@@H](CCCNC(=N)NCC(F)(F)F)C(=O)O

>  <INCHIKEY>  (884) 
VGNPGMUVLKJSNX-YFKPBYRVSA-N

$$$$
Arg_CONHBuNH2
     RDKit          2D

 20 19  0  0  0  0  0  0  0  0999 V2000
   -6.4500    1.9997    0.0000 N   0  0  0  0  0  0  0  0  0  0  0  0
   -6.4354    0.4998    0.0000 C   0  0  0  0  0  0  0  0  0  0  0  0
   -5.1291   -0.2375    0.0000 C   0  0  0  0  0  0  0  0  0  0  0  0
   -3.8375    0.5251    0.0000 C   0  0  0  0  0  0  0  0  0  0  0  0
   -2.5312   -0.2122    0.0000 C   0  0  0  0  0  0  0  0  0  0  0  0
   -1.2395    0.5504    0.0000 N   0  0  0  0  0  0  0  0  0  0  0  0
    0.0668   -0.1869    0.0000 C   0  0  0  0  0  0  0  0  0  0  0  0
    0.0814   -1.6868    0.0000 N   0  0  0  0  0  0  0  0  0  0  0  0
    1.3584    0.5758    0.0000 N   0  0  0  0  0  0  0  0  0  0  0  0
    2.6647   -0.1615    0.0000 C   0  0  0  0  0  0  0  0  0  0  0  0
    2.6794   -1.6615    0.0000 O   0  0  0  0  0  0  0  0  0  0  0  0
    3.9564    0.6011    0.0000 N   0  0  0  0  0  0  0  0  0  0  0  0
    5.2627   -0.1362    0.0000 C   0  0  0  0  0  0  0  0  0  0  0  0
    6.5543    0.6264    0.0000 C   0  0  0  0  0  0  0  0  0  0  0  0
    7.8606   -0.1109    0.0000 C   0  0  0  0  0  0  0  0  0  0  0  0
    9.1523    0.6518    0.0000 C   0  0  0  0  0  0  0  0  0  0  0  0
   10.4586   -0.0855    0.0000 N   0  0  0  0  0  0  0  0  0  0  0  0
   -7.7271   -0.2628    0.0000 C   0  0  0  0  0  0  0  0  0  0  0  0
   -7.7125   -1.7628    0.0000 O   0  0  0  0  0  0  0  0  0  0  0  0
   -9.0334    0.4745    0.0000 O   0  0  0  0  0  0  0  0  0  0  0  0
  2  1  1  1
  2  3  1  0
  3  4  1  0
  4  5  1  0
  5  6  1  0
  6  7  2  0
  7  8  1  0
  7  9  1  0
  9 10  1  0
 10 11  2  0
 10 12  1  0
 12 13  1  0
 13 14  1  0
 14 15  1  0
 15 16  1  0
 16 17  1  0
  2 18  1  0
 18 19  2  0
 18 20  1  0
M  END
>  <rName>  (885) 
Arg_CONHBuNH2

>  <PQ_SYMBOL>  (885) 
Arg_CONHBuNH2

>  <FULL_NAME>  (885) 
Arg(CONHBuNH2)

>  <IUPAC_CONDENSED>  (885) 
Arg(CONHBuNH2)

>  <IUPAC>  (885) 
(2S)-2-amino-5-(((amino)(((4-aminobutyl)carbamoyl)amino)methylidene)amino)pentanoic acid

>  <TYPE>  (885) 
Backbone

>  <CLASS>  (885) 
alpha

>  <ANALOG>  (885) 
Arg

>  <MOL_WT>  (885) 
288.352

>  <LOGP>  (885) 
-1.4686999999999966

>  <TPSA>  (885) 
168.85

>  <POPULARITY>  (885) 
2.2

>  <PROTECTED>  (885) 
TRUE

>  <SMILES>  (885) 
N[C@@H](CCC/N=C(\N)NC(=O)NCCCCN)C(=O)O

>  <INCHIKEY>  (885) 
ZYJCUFUUTQTPFK-QMMMGPOBSA-N

$$$$
Arg_CONHPEG2NH2
     RDKit          2D

 24 23  0  0  0  0  0  0  0  0999 V2000
   -8.7128    2.0380    0.0000 N   0  0  0  0  0  0  0  0  0  0  0  0
   -8.7140    0.5380    0.0000 C   0  0  0  0  0  0  0  0  0  0  0  0
   -7.4155   -0.2130    0.0000 C   0  0  0  0  0  0  0  0  0  0  0  0
   -6.1159    0.5360    0.0000 C   0  0  0  0  0  0  0  0  0  0  0  0
   -4.8174   -0.2150    0.0000 C   0  0  0  0  0  0  0  0  0  0  0  0
   -3.5178    0.5340    0.0000 N   0  0  0  0  0  0  0  0  0  0  0  0
   -2.2194   -0.2170    0.0000 C   0  0  0  0  0  0  0  0  0  0  0  0
   -2.2205   -1.7170    0.0000 N   0  0  0  0  0  0  0  0  0  0  0  0
   -0.9197    0.5320    0.0000 N   0  0  0  0  0  0  0  0  0  0  0  0
    0.3787   -0.2190    0.0000 C   0  0  0  0  0  0  0  0  0  0  0  0
    0.3776   -1.7190    0.0000 O   0  0  0  0  0  0  0  0  0  0  0  0
    1.6783    0.5299    0.0000 N   0  0  0  0  0  0  0  0  0  0  0  0
    2.9768   -0.2211    0.0000 C   0  0  0  0  0  0  0  0  0  0  0  0
    4.2764    0.5279    0.0000 C   0  0  0  0  0  0  0  0  0  0  0  0
    5.5749   -0.2231    0.0000 O   0  0  0  0  0  0  0  0  0  0  0  0
    6.8745    0.5259    0.0000 C   0  0  0  0  0  0  0  0  0  0  0  0
    8.1729   -0.2251    0.0000 C   0  0  0  0  0  0  0  0  0  0  0  0
    9.4726    0.5239    0.0000 O   0  0  0  0  0  0  0  0  0  0  0  0
   10.7710   -0.2271    0.0000 C   0  0  0  0  0  0  0  0  0  0  0  0
   12.0706    0.5219    0.0000 C   0  0  0  0  0  0  0  0  0  0  0  0
   13.3691   -0.2291    0.0000 N   0  0  0  0  0  0  0  0  0  0  0  0
  -10.0136   -0.2110    0.0000 C   0  0  0  0  0  0  0  0  0  0  0  0
  -10.0147   -1.7110    0.0000 O   0  0  0  0  0  0  0  0  0  0  0  0
  -11.3120    0.5400    0.0000 O   0  0  0  0  0  0  0  0  0  0  0  0
  2  1  1  1
  2  3  1  0
  3  4  1  0
  4  5  1  0
  5  6  1  0
  6  7  2  0
  7  8  1  0
  7  9  1  0
  9 10  1  0
 10 11  2  0
 10 12  1  0
 12 13  1  0
 13 14  1  0
 14 15  1  0
 15 16  1  0
 16 17  1  0
 17 18  1  0
 18 19  1  0
 19 20  1  0
 20 21  1  0
  2 22  1  0
 22 23  2  0
 22 24  1  0
M  END
>  <rName>  (886) 
Arg_CONHPEG2NH2

>  <PQ_SYMBOL>  (886) 
Arg_CONHPEG2NH2

>  <FULL_NAME>  (886) 
Arg(CONH-PEG2-NH2)

>  <IUPAC_CONDENSED>  (886) 
Arg(CONH-PEG2-NH2)

>  <IUPAC>  (886) 
(2S)-2-amino-5-(((amino)(((2-((2-((2-aminoethyl)oxy)ethyl)oxy)ethyl)carbamoyl)amino)methylidene)amino)pentanoic acid

>  <TYPE>  (886) 
Backbone

>  <CLASS>  (886) 
alpha

>  <ANALOG>  (886) 
Arg

>  <MOL_WT>  (886) 
348.40400000000017

>  <LOGP>  (886) 
-2.2156999999999947

>  <TPSA>  (886) 
187.31

>  <POPULARITY>  (886) 
2.2

>  <PROTECTED>  (886) 
TRUE

>  <SMILES>  (886) 
N[C@@H](CCC/N=C(\N)NC(=O)NCCOCCOCCN)C(=O)O

>  <INCHIKEY>  (886) 
ULJBKTRBMNCCPW-JTQLQIEISA-N

$$$$
Arg_Me
     RDKit          2D

 13 12  0  0  0  0  0  0  0  0999 V2000
    2.9765    1.9013    0.0000 N   0  0  0  0  0  0  0  0  0  0  0  0
    2.9164    0.4025    0.0000 C   0  0  0  0  0  0  0  0  0  0  0  0
    1.5883   -0.2947    0.0000 C   0  0  0  0  0  0  0  0  0  0  0  0
    0.3204    0.5068    0.0000 C   0  0  0  0  0  0  0  0  0  0  0  0
   -1.0077   -0.1905    0.0000 C   0  0  0  0  0  0  0  0  0  0  0  0
   -2.2756    0.6110    0.0000 N   0  0  0  0  0  0  0  0  0  0  0  0
   -3.6037   -0.0863    0.0000 C   0  0  0  0  0  0  0  0  0  0  0  0
   -3.6639   -1.5850    0.0000 N   0  0  0  0  0  0  0  0  0  0  0  0
   -4.8716    0.7153    0.0000 N   0  0  0  0  0  0  0  0  0  0  0  0
   -6.1997    0.0180    0.0000 C   0  0  0  0  0  0  0  0  0  0  0  0
    4.1843   -0.3990    0.0000 C   0  0  0  0  0  0  0  0  0  0  0  0
    4.1241   -1.8978    0.0000 O   0  0  0  0  0  0  0  0  0  0  0  0
    5.5123    0.2983    0.0000 O   0  0  0  0  0  0  0  0  0  0  0  0
  2  1  1  6
  2  3  1  0
  3  4  1  0
  4  5  1  0
  5  6  1  0
  6  7  1  0
  7  8  2  0
  7  9  1  0
  9 10  1  0
  2 11  1  0
 11 12  2  0
 11 13  1  0
M  END
>  <rName>  (887) 
Arg_Me

>  <PQ_SYMBOL>  (887) 
Arg_Me

>  <FULL_NAME>  (887) 
N-Monomethyl-L-Arginine, Tilarginine

>  <IUPAC_CONDENSED>  (887) 
Arg(Me)

>  <IUPAC>  (887) 
(2S)-2-amino-5-(((imino)(methylamino)methyl)amino)pentanoic acid

>  <TYPE>  (887) 
Backbone

>  <CLASS>  (887) 
alpha

>  <ANALOG>  (887) 
Arg

>  <MOL_WT>  (887) 
188.231

>  <LOGP>  (887) 
-1.0777299999999987

>  <TPSA>  (887) 
111.23

>  <POPULARITY>  (887) 
34.4

>  <PROTECTED>  (887) 
TRUE

>  <SMILES>  (887) 
N[C@@H](CCCNC(=N)NC)C(=O)O

>  <INCHIKEY>  (887) 
NTNWOCRCBQPEKQ-YFKPBYRVSA-N

$$$$
Arg_Me2
     RDKit          2D

 14 13  0  0  0  0  0  0  0  0999 V2000
    3.2228   -1.9173    0.0000 N   0  0  0  0  0  0  0  0  0  0  0  0
    3.2424   -0.4174    0.0000 C   0  0  0  0  0  0  0  0  0  0  0  0
    1.9533    0.3495    0.0000 C   0  0  0  0  0  0  0  0  0  0  0  0
    0.6446   -0.3835    0.0000 C   0  0  0  0  0  0  0  0  0  0  0  0
   -0.6446    0.3835    0.0000 C   0  0  0  0  0  0  0  0  0  0  0  0
   -1.9533   -0.3495    0.0000 N   0  0  0  0  0  0  0  0  0  0  0  0
   -3.2424    0.4174    0.0000 C   0  0  0  0  0  0  0  0  0  0  0  0
   -3.2228    1.9173    0.0000 N   0  0  0  0  0  0  0  0  0  0  0  0
   -4.5511   -0.3155    0.0000 N   0  0  0  0  0  0  0  0  0  0  0  0
   -5.8403    0.4514    0.0000 C   0  0  0  0  0  0  0  0  0  0  0  0
   -4.5708   -1.8154    0.0000 C   0  0  0  0  0  0  0  0  0  0  0  0
    4.5511    0.3155    0.0000 C   0  0  0  0  0  0  0  0  0  0  0  0
    4.5708    1.8154    0.0000 O   0  0  0  0  0  0  0  0  0  0  0  0
    5.8403   -0.4514    0.0000 O   0  0  0  0  0  0  0  0  0  0  0  0
  2  1  1  1
  2  3  1  0
  3  4  1  0
  4  5  1  0
  5  6  1  0
  6  7  1  0
  7  8  2  0
  7  9  1  0
  9 10  1  0
  9 11  1  0
  2 12  1  0
 12 13  2  0
 12 14  1  0
M  END
>  <rName>  (888) 
Arg_Me2

>  <PQ_SYMBOL>  (888) 
Arg_Me2

>  <FULL_NAME>  (888) 
NG,NG-Dimethyl-L-Arginine

>  <IUPAC_CONDENSED>  (888) 
Arg(Me2)

>  <IUPAC>  (888) 
(2S)-2-amino-5-(((dimethylamino)(imino)methyl)amino)pentanoic acid

>  <TYPE>  (888) 
Backbone

>  <CLASS>  (888) 
alpha

>  <ANALOG>  (888) 
Arg

>  <MOL_WT>  (888) 
202.258

>  <LOGP>  (888) 
-0.7355299999999985

>  <TPSA>  (888) 
102.44000000000001

>  <POPULARITY>  (888) 
25.6

>  <PROTECTED>  (888) 
TRUE

>  <SMILES>  (888) 
N[C@@H](CCCNC(=N)N(C)C)C(=O)O

>  <INCHIKEY>  (888) 
YDGMGEXADBMOMJ-LURJTMIESA-N

$$$$
Arg_Me_Me
     RDKit          2D

 14 13  0  0  0  0  0  0  0  0999 V2000
   -2.9844    2.0134    0.0000 N   0  0  0  0  0  0  0  0  0  0  0  0
   -2.9732    0.5134    0.0000 C   0  0  0  0  0  0  0  0  0  0  0  0
   -1.6685   -0.2268    0.0000 C   0  0  0  0  0  0  0  0  0  0  0  0
   -0.3752    0.5329    0.0000 C   0  0  0  0  0  0  0  0  0  0  0  0
    0.9295   -0.2073    0.0000 C   0  0  0  0  0  0  0  0  0  0  0  0
    2.2228    0.5524    0.0000 N   0  0  0  0  0  0  0  0  0  0  0  0
    3.5275   -0.1878    0.0000 C   0  0  0  0  0  0  0  0  0  0  0  0
    4.8208    0.5719    0.0000 N   0  0  0  0  0  0  0  0  0  0  0  0
    4.8096    2.0719    0.0000 C   0  0  0  0  0  0  0  0  0  0  0  0
    3.5387   -1.6878    0.0000 N   0  0  0  0  0  0  0  0  0  0  0  0
    2.2454   -2.4475    0.0000 C   0  0  0  0  0  0  0  0  0  0  0  0
   -4.2665   -0.2463    0.0000 C   0  0  0  0  0  0  0  0  0  0  0  0
   -4.2553   -1.7463    0.0000 O   0  0  0  0  0  0  0  0  0  0  0  0
   -5.5712    0.4939    0.0000 O   0  0  0  0  0  0  0  0  0  0  0  0
  2  1  1  1
  2  3  1  0
  3  4  1  0
  4  5  1  0
  5  6  1  0
  6  7  1  0
  7  8  2  3
  8  9  1  0
  7 10  1  0
 10 11  1  0
  2 12  1  0
 12 13  2  0
 12 14  1  0
M  END
>  <rName>  (889) 
Arg_Me_Me

>  <PQ_SYMBOL>  (889) 
Arg_Me_Me

>  <FULL_NAME>  (889) 
N3,N4-dimethylarginine

>  <IUPAC_CONDENSED>  (889) 
Arg(Me,Me)

>  <IUPAC>  (889) 
(2S)-2-amino-5-(((methylamino)(methylimino)methyl)amino)pentanoic acid

>  <TYPE>  (889) 
Backbone

>  <CLASS>  (889) 
alpha

>  <ANALOG>  (889) 
Arg

>  <MOL_WT>  (889) 
202.258

>  <LOGP>  (889) 
-1.0266999999999982

>  <TPSA>  (889) 
99.74

>  <POPULARITY>  (889) 
13.5

>  <PROTECTED>  (889) 
TRUE

>  <SMILES>  (889) 
N[C@@H](CCCNC(=NC)NC)C(=O)O

>  <INCHIKEY>  (889) 
HVPFXCBJHIIJGS-LURJTMIESA-N

$$$$
Arg_NH2
     RDKit          2D

 13 12  0  0  0  0  0  0  0  0999 V2000
    3.0360   -1.8485    0.0000 N   0  0  0  0  0  0  0  0  0  0  0  0
    2.8599   -0.3589    0.0000 C   0  0  0  0  0  0  0  0  0  0  0  0
    1.4817    0.2333    0.0000 C   0  0  0  0  0  0  0  0  0  0  0  0
    0.2798   -0.6640    0.0000 C   0  0  0  0  0  0  0  0  0  0  0  0
   -1.0984   -0.0718    0.0000 C   0  0  0  0  0  0  0  0  0  0  0  0
   -2.3003   -0.9692    0.0000 N   0  0  0  0  0  0  0  0  0  0  0  0
   -3.6785   -0.3769    0.0000 C   0  0  0  0  0  0  0  0  0  0  0  0
   -4.8804   -1.2743    0.0000 N   0  0  0  0  0  0  0  0  0  0  0  0
   -3.8546    1.1127    0.0000 N   0  0  0  0  0  0  0  0  0  0  0  0
   -5.2328    1.7049    0.0000 N   0  0  0  0  0  0  0  0  0  0  0  0
    4.0618    0.5385    0.0000 C   0  0  0  0  0  0  0  0  0  0  0  0
    3.8857    2.0281    0.0000 O   0  0  0  0  0  0  0  0  0  0  0  0
    5.4400   -0.0538    0.0000 O   0  0  0  0  0  0  0  0  0  0  0  0
  2  1  1  1
  2  3  1  0
  3  4  1  0
  4  5  1  0
  5  6  1  0
  6  7  1  0
  7  8  2  0
  7  9  1  0
  9 10  1  0
  2 11  1  0
 11 12  2  0
 11 13  1  0
M  END
>  <rName>  (890) 
Arg_NH2

>  <PQ_SYMBOL>  (890) 
Arg_NH2

>  <FULL_NAME>  (890) 
N(G)-Aminoarginine

>  <IUPAC_CONDENSED>  (890) 
Arg(NH2)

>  <IUPAC>  (890) 
(2S)-2-amino-5-[[amino(hydrazinyl)methylidene]amino]pentanoic acid

>  <TYPE>  (890) 
Backbone

>  <CLASS>  (890) 
alpha

>  <ANALOG>  (890) 
Arg

>  <MOL_WT>  (890) 
189.219

>  <LOGP>  (890) 
-1.833829999999998

>  <TPSA>  (890) 
137.24999999999997

>  <POPULARITY>  (890) 
3.5

>  <PROTECTED>  (890) 
TRUE

>  <SMILES>  (890) 
N[C@@H](CCCNC(=N)NN)C(=O)O

>  <INCHIKEY>  (890) 
NCHSYZVVWKVWFQ-BYPYZUCNSA-N

$$$$
Arg_NO2
     RDKit          2D

 15 14  0  0  0  0  0  0  0  0999 V2000
    4.0072   -1.7471    0.0000 N   0  0  0  0  0  0  0  0  0  0  0  0
    3.6921   -0.2806    0.0000 C   0  0  0  0  0  0  0  0  0  0  0  0
    2.2644    0.1798    0.0000 C   0  0  0  0  0  0  0  0  0  0  0  0
    1.1520   -0.8264    0.0000 C   0  0  0  0  0  0  0  0  0  0  0  0
   -0.2757   -0.3661    0.0000 C   0  0  0  0  0  0  0  0  0  0  0  0
   -1.3881   -1.3723    0.0000 N   0  0  0  0  0  0  0  0  0  0  0  0
   -2.8157   -0.9119    0.0000 C   0  0  0  0  0  0  0  0  0  0  0  0
   -3.9282   -1.9181    0.0000 N   0  0  0  0  0  0  0  0  0  0  0  0
   -3.1309    0.5546    0.0000 N   0  0  0  0  0  0  0  0  0  0  0  0
   -4.5585    1.0150    0.0000 N   0  0  0  0  0  0  0  0  0  0  0  0
   -5.6710    0.0088    0.0000 O   0  0  0  0  0  0  0  0  0  0  0  0
   -4.8736    2.4815    0.0000 O   0  0  0  0  0  0  0  0  0  0  0  0
    4.8045    0.7256    0.0000 C   0  0  0  0  0  0  0  0  0  0  0  0
    4.4894    2.1921    0.0000 O   0  0  0  0  0  0  0  0  0  0  0  0
    6.2321    0.2652    0.0000 O   0  0  0  0  0  0  0  0  0  0  0  0
  2  1  1  1
  2  3  1  0
  3  4  1  0
  4  5  1  0
  5  6  1  0
  6  7  1  0
  7  8  2  0
  7  9  1  0
  9 10  1  0
 10 11  2  0
 10 12  1  0
  2 13  1  0
 13 14  2  0
 13 15  1  0
M  CHG  2  10   1  12  -1
M  END
>  <rName>  (891) 
Arg_NO2

>  <PQ_SYMBOL>  (891) 
Arg_NO2

>  <FULL_NAME>  (891) 
N-Omega-Nitro-L-Arginine

>  <IUPAC_CONDENSED>  (891) 
Arg(NO2)

>  <IUPAC>  (891) 
(2S)-2-amino-5-(((imino)(((oxido)(oxo)ammonio)amino)methyl)amino)pentanoic acid

>  <TYPE>  (891) 
Backbone

>  <CLASS>  (891) 
alpha

>  <ANALOG>  (891) 
Arg

>  <MOL_WT>  (891) 
219.201

>  <LOGP>  (891) 
-1.5158299999999985

>  <TPSA>  (891) 
154.36999999999998

>  <POPULARITY>  (891) 
12.1

>  <PROTECTED>  (891) 
TRUE

>  <SMILES>  (891) 
N[C@@H](CCCNC(=N)N[N+](=O)[O-])C(=O)O

>  <INCHIKEY>  (891) 
MRAUNPAHJZDYCK-BYPYZUCNSA-N

$$$$
Arg_OH
     RDKit          2D

 13 12  0  0  0  0  0  0  0  0999 V2000
    3.0360   -1.8485    0.0000 N   0  0  0  0  0  0  0  0  0  0  0  0
    2.8599   -0.3589    0.0000 C   0  0  0  0  0  0  0  0  0  0  0  0
    1.4817    0.2333    0.0000 C   0  0  0  0  0  0  0  0  0  0  0  0
    0.2798   -0.6640    0.0000 C   0  0  0  0  0  0  0  0  0  0  0  0
   -1.0984   -0.0718    0.0000 C   0  0  0  0  0  0  0  0  0  0  0  0
   -2.3003   -0.9692    0.0000 N   0  0  0  0  0  0  0  0  0  0  0  0
   -3.6785   -0.3769    0.0000 C   0  0  0  0  0  0  0  0  0  0  0  0
   -4.8804   -1.2743    0.0000 N   0  0  0  0  0  0  0  0  0  0  0  0
   -3.8546    1.1127    0.0000 N   0  0  0  0  0  0  0  0  0  0  0  0
   -5.2328    1.7049    0.0000 O   0  0  0  0  0  0  0  0  0  0  0  0
    4.0618    0.5385    0.0000 C   0  0  0  0  0  0  0  0  0  0  0  0
    3.8857    2.0281    0.0000 O   0  0  0  0  0  0  0  0  0  0  0  0
    5.4400   -0.0538    0.0000 O   0  0  0  0  0  0  0  0  0  0  0  0
  2  1  1  1
  2  3  1  0
  3  4  1  0
  4  5  1  0
  5  6  1  0
  6  7  1  0
  7  8  2  0
  7  9  1  0
  9 10  1  0
  2 11  1  0
 11 12  2  0
 11 13  1  0
M  END
>  <rName>  (892) 
Arg_OH

>  <PQ_SYMBOL>  (892) 
Arg_OH

>  <FULL_NAME>  (892) 
(2S)-2-amino-5-[[amino-(hydroxyamino)methylidene]amino]pentanoic acid

>  <IUPAC_CONDENSED>  (892) 
Arg(OH)

>  <IUPAC>  (892) 
(2S)-2-amino-5-(((hydroxyamino)(imino)methyl)amino)pentanoic acid

>  <TYPE>  (892) 
Backbone

>  <CLASS>  (892) 
alpha

>  <ANALOG>  (892) 
Arg

>  <MOL_WT>  (892) 
190.203

>  <LOGP>  (892) 
-1.3183299999999987

>  <TPSA>  (892) 
131.45999999999998

>  <POPULARITY>  (892) 
21.3

>  <PROTECTED>  (892) 
TRUE

>  <SMILES>  (892) 
N[C@@H](CCCNC(=N)NO)C(=O)O

>  <INCHIKEY>  (892) 
FQWRAVYMZULPNK-BYPYZUCNSA-N

$$$$
Arg_Ph
     RDKit          2D

 18 18  0  0  0  0  0  0  0  0999 V2000
   -5.2541   -1.8328    0.0000 N   0  0  0  0  0  0  0  0  0  0  0  0
   -5.1088   -0.3399    0.0000 C   0  0  0  0  0  0  0  0  0  0  0  0
   -3.7432    0.2807    0.0000 C   0  0  0  0  0  0  0  0  0  0  0  0
   -2.5229   -0.5916    0.0000 C   0  0  0  0  0  0  0  0  0  0  0  0
   -1.1573    0.0289    0.0000 C   0  0  0  0  0  0  0  0  0  0  0  0
    0.0629   -0.8434    0.0000 N   0  0  0  0  0  0  0  0  0  0  0  0
    1.4285   -0.2228    0.0000 C   0  0  0  0  0  0  0  0  0  0  0  0
    1.5739    1.2701    0.0000 N   0  0  0  0  0  0  0  0  0  0  0  0
    2.6488   -1.0951    0.0000 N   0  0  0  0  0  0  0  0  0  0  0  0
    4.0144   -0.4746    0.0000 C   0  0  0  0  0  0  0  0  0  0  0  0
    4.1597    1.0184    0.0000 C   0  0  0  0  0  0  0  0  0  0  0  0
    5.5253    1.6390    0.0000 C   0  0  0  0  0  0  0  0  0  0  0  0
    6.7456    0.7666    0.0000 C   0  0  0  0  0  0  0  0  0  0  0  0
    6.6002   -0.7263    0.0000 C   0  0  0  0  0  0  0  0  0  0  0  0
    5.2346   -1.3469    0.0000 C   0  0  0  0  0  0  0  0  0  0  0  0
   -6.3290    0.5324    0.0000 C   0  0  0  0  0  0  0  0  0  0  0  0
   -6.1837    2.0254    0.0000 O   0  0  0  0  0  0  0  0  0  0  0  0
   -7.6946   -0.0881    0.0000 O   0  0  0  0  0  0  0  0  0  0  0  0
  2  1  1  6
  2  3  1  0
  3  4  1  0
  4  5  1  0
  5  6  1  0
  6  7  1  0
  7  8  2  0
  7  9  1  0
  9 10  1  0
 10 11  2  0
 11 12  1  0
 12 13  2  0
 13 14  1  0
 14 15  2  0
  2 16  1  0
 16 17  2  0
 16 18  1  0
 15 10  1  0
M  END
>  <rName>  (893) 
Arg_Ph

>  <PQ_SYMBOL>  (893) 
Arg_Ph

>  <FULL_NAME>  (893) 
Arg(Ph)

>  <IUPAC_CONDENSED>  (893) 
Arg(Ph)

>  <IUPAC>  (893) 
(2S)-2-amino-5-(((imino)(phenylamino)methyl)amino)pentanoic acid

>  <TYPE>  (893) 
Backbone

>  <CLASS>  (893) 
alpha

>  <ANALOG>  (893) 
Arg

>  <MOL_WT>  (893) 
250.30200000000002

>  <LOGP>  (893) 
0.8149699999999993

>  <TPSA>  (893) 
111.23

>  <POPULARITY>  (893) 
3.5

>  <PROTECTED>  (893) 
TRUE

>  <SMILES>  (893) 
N[C@@H](CCCNC(=N)Nc1(ccccc1))C(=O)O

>  <INCHIKEY>  (893) 
KHLNQIZXLSGZAA-JTQLQIEISA-N

$$$$
Arg_PrN3
     RDKit          2D

 18 17  0  0  0  0  0  0  0  0999 V2000
    5.7499   -1.9006    0.0000 N   0  0  0  0  0  0  0  0  0  0  0  0
    5.7130   -0.4010    0.0000 C   0  0  0  0  0  0  0  0  0  0  0  0
    4.3958    0.3168    0.0000 C   0  0  0  0  0  0  0  0  0  0  0  0
    3.1157   -0.4650    0.0000 C   0  0  0  0  0  0  0  0  0  0  0  0
    1.7985    0.2527    0.0000 C   0  0  0  0  0  0  0  0  0  0  0  0
    0.5184   -0.5291    0.0000 N   0  0  0  0  0  0  0  0  0  0  0  0
   -0.7987    0.1887    0.0000 C   0  0  0  0  0  0  0  0  0  0  0  0
   -0.8357    1.6883    0.0000 N   0  0  0  0  0  0  0  0  0  0  0  0
   -2.0789   -0.5931    0.0000 N   0  0  0  0  0  0  0  0  0  0  0  0
   -3.3960    0.1247    0.0000 C   0  0  0  0  0  0  0  0  0  0  0  0
   -4.6762   -0.6571    0.0000 C   0  0  0  0  0  0  0  0  0  0  0  0
   -5.9933    0.0607    0.0000 C   0  0  0  0  0  0  0  0  0  0  0  0
   -7.2735   -0.7211    0.0000 N   0  0  0  0  0  0  0  0  0  0  0  0
   -8.5906   -0.0034    0.0000 N   0  0  0  0  0  0  0  0  0  0  0  0
   -9.9077    0.7144    0.0000 N   0  0  0  0  0  0  0  0  0  0  0  0
    6.9931    0.3808    0.0000 C   0  0  0  0  0  0  0  0  0  0  0  0
    6.9561    1.8803    0.0000 O   0  0  0  0  0  0  0  0  0  0  0  0
    8.3102   -0.3370    0.0000 O   0  0  0  0  0  0  0  0  0  0  0  0
  2  1  1  1
  2  3  1  0
  3  4  1  0
  4  5  1  0
  5  6  1  0
  6  7  1  0
  7  8  2  0
  7  9  1  0
  9 10  1  0
 10 11  1  0
 11 12  1  0
 12 13  1  0
 13 14  2  0
 14 15  2  0
  2 16  1  0
 16 17  2  0
 16 18  1  0
M  CHG  2  14   1  15  -1
M  END
>  <rName>  (894) 
Arg_PrN3

>  <PQ_SYMBOL>  (894) 
Arg_PrN3

>  <FULL_NAME>  (894) 
Arg(PrN3)

>  <IUPAC_CONDENSED>  (894) 
Arg(PrN3)

>  <IUPAC>  (894) 
(2S)-2-amino-5-((((3-azidopropyl)amino)(imino)methyl)amino)pentanoic acid

>  <TYPE>  (894) 
Backbone

>  <CLASS>  (894) 
alpha

>  <ANALOG>  (894) 
Arg

>  <MOL_WT>  (894) 
257.29799999999994

>  <LOGP>  (894) 
-0.00712999999999947

>  <TPSA>  (894) 
159.98999999999998

>  <POPULARITY>  (894) 
2.2

>  <PROTECTED>  (894) 
TRUE

>  <SMILES>  (894) 
N[C@@H](CCCNC(=N)NCCCN=[N+]=[N-])C(=O)O

>  <INCHIKEY>  (894) 
OVKKFHKSRICYSM-ZETCQYMHSA-N

$$$$
Arg_b_bdiMe
     RDKit          2D

 14 13  0  0  0  0  0  0  0  0999 V2000
    3.5946    1.3782    0.0000 N   0  0  0  0  0  0  0  0  0  0  0  0
    2.4829    0.3711    0.0000 C   0  0  0  0  0  0  0  0  0  0  0  0
    1.0549    0.8304    0.0000 C   0  0  0  0  0  0  0  0  0  0  0  0
    1.5141    2.2583    0.0000 C   0  0  0  0  0  0  0  0  0  0  0  0
    0.5956   -0.5976    0.0000 C   0  0  0  0  0  0  0  0  0  0  0  0
   -0.3731    1.2896    0.0000 C   0  0  0  0  0  0  0  0  0  0  0  0
   -1.4848    0.2826    0.0000 C   0  0  0  0  0  0  0  0  0  0  0  0
   -2.9128    0.7418    0.0000 N   0  0  0  0  0  0  0  0  0  0  0  0
   -4.0245   -0.2652    0.0000 C   0  0  0  0  0  0  0  0  0  0  0  0
   -3.7082   -1.7315    0.0000 N   0  0  0  0  0  0  0  0  0  0  0  0
   -5.4524    0.1940    0.0000 N   0  0  0  0  0  0  0  0  0  0  0  0
    2.7991   -1.0952    0.0000 C   0  0  0  0  0  0  0  0  0  0  0  0
    1.6874   -2.1022    0.0000 O   0  0  0  0  0  0  0  0  0  0  0  0
    4.2271   -1.5544    0.0000 O   0  0  0  0  0  0  0  0  0  0  0  0
  2  1  1  6
  2  3  1  0
  3  4  1  0
  3  5  1  0
  3  6  1  0
  6  7  1  0
  7  8  1  0
  8  9  1  0
  9 10  2  0
  9 11  1  0
  2 12  1  0
 12 13  2  0
 12 14  1  0
M  END
>  <rName>  (895) 
Arg_b_bdiMe

>  <PQ_SYMBOL>  (895) 
Arg_b_bdiMe

>  <FULL_NAME>  (895) 
(2S)-2-amino-5-(diaminomethylideneamino)-3,3-dimethylpentanoic acid

>  <IUPAC_CONDENSED>  (895) 
Arg(b,b-diMe)

>  <IUPAC>  (895) 
(2S)-2-amino-5-(diaminomethylideneamino)-3,3-dimethylpentanoic acid

>  <TYPE>  (895) 
Backbone

>  <CLASS>  (895) 
alpha

>  <ANALOG>  (895) 
Arg

>  <MOL_WT>  (895) 
202.25799999999998

>  <LOGP>  (895) 
-0.7023299999999986

>  <TPSA>  (895) 
125.22000000000001

>  <POPULARITY>  (895) 
2.2

>  <PROTECTED>  (895) 
TRUE

>  <SMILES>  (895) 
N[C@@H](C(C)(C)CCNC(=N)N)C(=O)O

>  <INCHIKEY>  (895) 
QWJRHXCHVGBNFR-RXMQYKEDSA-N

$$$$
Arg_cPr
     RDKit          2D

 15 15  0  0  0  0  0  0  0  0999 V2000
   -4.0082   -1.8726    0.0000 N   0  0  0  0  0  0  0  0  0  0  0  0
   -3.9078   -0.3760    0.0000 C   0  0  0  0  0  0  0  0  0  0  0  0
   -2.5615    0.2854    0.0000 C   0  0  0  0  0  0  0  0  0  0  0  0
   -1.3156   -0.5498    0.0000 C   0  0  0  0  0  0  0  0  0  0  0  0
    0.0307    0.1116    0.0000 C   0  0  0  0  0  0  0  0  0  0  0  0
    1.2767   -0.7237    0.0000 N   0  0  0  0  0  0  0  0  0  0  0  0
    2.6230   -0.0623    0.0000 C   0  0  0  0  0  0  0  0  0  0  0  0
    2.7234    1.4344    0.0000 N   0  0  0  0  0  0  0  0  0  0  0  0
    3.8689   -0.8975    0.0000 N   0  0  0  0  0  0  0  0  0  0  0  0
    5.2152   -0.2361    0.0000 C   0  0  0  0  0  0  0  0  0  0  0  0
    6.7119   -0.3365    0.0000 C   0  0  0  0  0  0  0  0  0  0  0  0
    6.0505    1.0098    0.0000 C   0  0  0  0  0  0  0  0  0  0  0  0
   -5.1538    0.4593    0.0000 C   0  0  0  0  0  0  0  0  0  0  0  0
   -5.0534    1.9559    0.0000 O   0  0  0  0  0  0  0  0  0  0  0  0
   -6.5001   -0.2021    0.0000 O   0  0  0  0  0  0  0  0  0  0  0  0
  2  1  1  6
  2  3  1  0
  3  4  1  0
  4  5  1  0
  5  6  1  0
  6  7  1  0
  7  8  2  0
  7  9  1  0
  9 10  1  0
 10 11  1  0
 11 12  1  0
  2 13  1  0
 13 14  2  0
 13 15  1  0
 12 10  1  0
M  END
>  <rName>  (896) 
Arg_cPr

>  <PQ_SYMBOL>  (896) 
Arg_cPr

>  <FULL_NAME>  (896) 
(2S)-2-amino-5-[[amino-(cyclopropylamino)methylidene]amino]pentanoic acid

>  <IUPAC_CONDENSED>  (896) 
Arg(cPr)

>  <IUPAC>  (896) 
(2S)-2-amino-5-(((cyclopropylamino)(imino)methyl)amino)pentanoic acid

>  <TYPE>  (896) 
Backbone

>  <CLASS>  (896) 
alpha

>  <ANALOG>  (896) 
Arg

>  <MOL_WT>  (896) 
214.26899999999998

>  <LOGP>  (896) 
-0.5451299999999988

>  <TPSA>  (896) 
111.23

>  <POPULARITY>  (896) 
4.8

>  <PROTECTED>  (896) 
TRUE

>  <SMILES>  (896) 
N[C@@H](CCCNC(=N)NC1(CC1))C(=O)O

>  <INCHIKEY>  (896) 
HXGYVYKZSPFEOY-ZETCQYMHSA-N

$$$$
Arg_prop2ynyl
     RDKit          2D

 15 14  0  0  0  0  0  0  0  0999 V2000
   -3.9398   -1.9894    0.0000 N   0  0  0  0  0  0  0  0  0  0  0  0
   -3.9737   -0.4898    0.0000 C   0  0  0  0  0  0  0  0  0  0  0  0
   -2.6919    0.2893    0.0000 C   0  0  0  0  0  0  0  0  0  0  0  0
   -1.3763   -0.4312    0.0000 C   0  0  0  0  0  0  0  0  0  0  0  0
   -0.0945    0.3480    0.0000 C   0  0  0  0  0  0  0  0  0  0  0  0
    1.2212   -0.3725    0.0000 N   0  0  0  0  0  0  0  0  0  0  0  0
    2.5029    0.4066    0.0000 C   0  0  0  0  0  0  0  0  0  0  0  0
    2.4691    1.9062    0.0000 N   0  0  0  0  0  0  0  0  0  0  0  0
    3.8186   -0.3139    0.0000 N   0  0  0  0  0  0  0  0  0  0  0  0
    5.1004    0.4652    0.0000 C   0  0  0  0  0  0  0  0  0  0  0  0
    6.4160   -0.2553    0.0000 C   0  0  0  0  0  0  0  0  0  0  0  0
    7.7316   -0.9758    0.0000 C   0  0  0  0  0  0  0  0  0  0  0  0
   -5.2893    0.2307    0.0000 C   0  0  0  0  0  0  0  0  0  0  0  0
   -5.3232    1.7303    0.0000 O   0  0  0  0  0  0  0  0  0  0  0  0
   -6.5711   -0.5484    0.0000 O   0  0  0  0  0  0  0  0  0  0  0  0
  2  1  1  6
  2  3  1  0
  3  4  1  0
  4  5  1  0
  5  6  1  0
  6  7  1  0
  7  8  2  0
  7  9  1  0
  9 10  1  0
 10 11  1  0
 11 12  3  0
  2 13  1  0
 13 14  2  0
 13 15  1  0
M  END
>  <rName>  (897) 
Arg_prop2ynyl

>  <PQ_SYMBOL>  (897) 
Arg_prop2ynyl

>  <FULL_NAME>  (897) 
N-omega-propargyl-L-arginine

>  <IUPAC_CONDENSED>  (897) 
Arg(prop-2-ynyl)

>  <IUPAC>  (897) 
(2S)-2-amino-5-[[amino-(prop-2-ynylamino)methylidene]amino]pentanoic acid

>  <TYPE>  (897) 
Backbone

>  <CLASS>  (897) 
alpha

>  <ANALOG>  (897) 
Arg

>  <MOL_WT>  (897) 
212.253

>  <LOGP>  (897) 
-1.0743299999999987

>  <TPSA>  (897) 
111.23

>  <POPULARITY>  (897) 
3.5

>  <PROTECTED>  (897) 
TRUE

>  <SMILES>  (897) 
N[C@@H](CCCNC(=N)NCC#C)C(=O)O

>  <INCHIKEY>  (897) 
IAYULXZCALADJD-ZETCQYMHSA-N

$$$$
Arg_pyrrolidino
     RDKit          2D

 16 16  0  0  0  0  0  0  0  0999 V2000
   -3.9368    1.9889    0.0000 N   0  0  0  0  0  0  0  0  0  0  0  0
   -4.0539    0.4935    0.0000 C   0  0  0  0  0  0  0  0  0  0  0  0
   -2.8174   -0.3556    0.0000 C   0  0  0  0  0  0  0  0  0  0  0  0
   -1.4638    0.2908    0.0000 C   0  0  0  0  0  0  0  0  0  0  0  0
   -0.2272   -0.5583    0.0000 C   0  0  0  0  0  0  0  0  0  0  0  0
    1.1264    0.0880    0.0000 N   0  0  0  0  0  0  0  0  0  0  0  0
    2.3629   -0.7611    0.0000 C   0  0  0  0  0  0  0  0  0  0  0  0
    2.2459   -2.2565    0.0000 N   0  0  0  0  0  0  0  0  0  0  0  0
    3.7166   -0.1148    0.0000 N   0  0  0  0  0  0  0  0  0  0  0  0
    5.0351   -0.8300    0.0000 C   0  0  0  0  0  0  0  0  0  0  0  0
    6.1227    0.2030    0.0000 C   0  0  0  0  0  0  0  0  0  0  0  0
    5.4764    1.5566    0.0000 C   0  0  0  0  0  0  0  0  0  0  0  0
    3.9893    1.3602    0.0000 C   0  0  0  0  0  0  0  0  0  0  0  0
   -5.4075   -0.1528    0.0000 C   0  0  0  0  0  0  0  0  0  0  0  0
   -5.5246   -1.6482    0.0000 O   0  0  0  0  0  0  0  0  0  0  0  0
   -6.6441    0.6963    0.0000 O   0  0  0  0  0  0  0  0  0  0  0  0
  2  1  1  1
  2  3  1  0
  3  4  1  0
  4  5  1  0
  5  6  1  0
  6  7  1  0
  7  8  2  0
  7  9  1  0
  9 10  1  0
 10 11  1  0
 11 12  1  0
 12 13  1  0
  2 14  1  0
 14 15  2  0
 14 16  1  0
 13  9  1  0
M  END
>  <rName>  (898) 
Arg_pyrrolidino

>  <PQ_SYMBOL>  (898) 
Arg_pyrrolidino

>  <FULL_NAME>  (898) 
(S)-2-amino-5-(pyrrolidine-1-carboximidamido)pentanoic acid

>  <IUPAC_CONDENSED>  (898) 
Arg(pyrrolidino)

>  <IUPAC>  (898) 
(2S)-2-amino-5-(((imino)pyrrolidin-1-ylmethyl)amino)pentanoic acid

>  <TYPE>  (898) 
Backbone

>  <CLASS>  (898) 
alpha

>  <ANALOG>  (898) 
Arg

>  <MOL_WT>  (898) 
228.29599999999996

>  <LOGP>  (898) 
-0.20132999999999895

>  <TPSA>  (898) 
102.44000000000001

>  <POPULARITY>  (898) 
4.9

>  <PROTECTED>  (898) 
TRUE

>  <SMILES>  (898) 
N[C@@H](CCCNC(=N)N1(CCCC1))C(=O)O

>  <INCHIKEY>  (898) 
HDXHWGSPJWIYMM-QMMMGPOBSA-N

$$$$
Asn-Gly
     RDKit          2D

 13 12  0  0  0  0  0  0  0  0999 V2000
   -1.3967   -0.1401    0.0000 N   0  0  0  0  0  0  0  0  0  0  0  0
   -0.1111    0.6328    0.0000 C   0  0  0  0  0  0  0  0  0  0  0  0
   -0.1376    2.1325    0.0000 O   0  0  0  0  0  0  0  0  0  0  0  0
    1.2010   -0.0942    0.0000 C   0  0  0  0  0  0  0  0  0  0  0  0
    1.2275   -1.5939    0.0000 N   0  0  0  0  0  0  0  0  0  0  0  0
    2.4865    0.6786    0.0000 C   0  0  0  0  0  0  0  0  0  0  0  0
    3.7986   -0.0483    0.0000 C   0  0  0  0  0  0  0  0  0  0  0  0
    3.8251   -1.5481    0.0000 O   0  0  0  0  0  0  0  0  0  0  0  0
    5.0842    0.7245    0.0000 N   0  0  0  0  0  0  0  0  0  0  0  0
   -2.7088    0.5869    0.0000 C   0  0  0  0  0  0  0  0  0  0  0  0
   -3.9944   -0.1860    0.0000 C   0  0  0  0  0  0  0  0  0  0  0  0
   -3.9679   -1.6857    0.0000 O   0  0  0  0  0  0  0  0  0  0  0  0
   -5.3065    0.5410    0.0000 O   0  0  0  0  0  0  0  0  0  0  0  0
  1  2  1  0
  2  3  2  0
  2  4  1  0
  4  5  1  6
  4  6  1  0
  6  7  1  0
  7  8  2  0
  7  9  1  0
  1 10  1  0
 10 11  1  0
 11 12  2  0
 11 13  1  0
M  END
>  <rName>  (899) 
Asn-Gly

>  <PQ_SYMBOL>  (899) 
Asn-Gly

>  <FULL_NAME>  (899) 
L-asparaginylglycine

>  <IUPAC_CONDENSED>  (899) 
Asn-Gly

>  <IUPAC>  (899) 
2-((1S)-1,3-diamino-3-oxopropylcarbonylamino)acetic acid

>  <TYPE>  (899) 
Backbone

>  <CLASS>  (899) 
alpha

>  <ANALOG>  (899) 
Gly

>  <MOL_WT>  (899) 
189.17099999999996

>  <LOGP>  (899) 
-2.6100999999999983

>  <TPSA>  (899) 
135.51

>  <POPULARITY>  (899) 
12.4

>  <PROTECTED>  (899) 
TRUE

>  <SMILES>  (899) 
N(C(=O)[C@@H](N)CC(=O)N)CC(=O)O

>  <INCHIKEY>  (899) 
KLKHFFMNGWULBN-VKHMYHEASA-N

$$$$
Asn_Bn_24_6triOMe
     RDKit          2D

 22 22  0  0  0  0  0  0  0  0999 V2000
   -5.0893   -1.7992    0.0000 N   0  0  0  0  0  0  0  0  0  0  0  0
   -4.9126   -0.3097    0.0000 C   0  0  0  0  0  0  0  0  0  0  0  0
   -3.5342    0.2820    0.0000 C   0  0  0  0  0  0  0  0  0  0  0  0
   -2.3326   -0.6158    0.0000 C   0  0  0  0  0  0  0  0  0  0  0  0
   -2.5093   -2.1054    0.0000 O   0  0  0  0  0  0  0  0  0  0  0  0
   -0.9542   -0.0241    0.0000 N   0  0  0  0  0  0  0  0  0  0  0  0
    0.2474   -0.9219    0.0000 C   0  0  0  0  0  0  0  0  0  0  0  0
    1.6257   -0.3302    0.0000 C   0  0  0  0  0  0  0  0  0  0  0  0
    1.8025    1.1593    0.0000 C   0  0  0  0  0  0  0  0  0  0  0  0
    0.6009    2.0572    0.0000 O   0  0  0  0  0  0  0  0  0  0  0  0
    0.7776    3.5467    0.0000 C   0  0  0  0  0  0  0  0  0  0  0  0
    3.1808    1.7510    0.0000 C   0  0  0  0  0  0  0  0  0  0  0  0
    4.3825    0.8532    0.0000 C   0  0  0  0  0  0  0  0  0  0  0  0
    5.7608    1.4449    0.0000 O   0  0  0  0  0  0  0  0  0  0  0  0
    6.9624    0.5471    0.0000 C   0  0  0  0  0  0  0  0  0  0  0  0
    4.2057   -0.6363    0.0000 C   0  0  0  0  0  0  0  0  0  0  0  0
    2.8274   -1.2281    0.0000 C   0  0  0  0  0  0  0  0  0  0  0  0
    2.6506   -2.7176    0.0000 O   0  0  0  0  0  0  0  0  0  0  0  0
    3.8522   -3.6154    0.0000 C   0  0  0  0  0  0  0  0  0  0  0  0
   -6.1142    0.5881    0.0000 C   0  0  0  0  0  0  0  0  0  0  0  0
   -5.9375    2.0777    0.0000 O   0  0  0  0  0  0  0  0  0  0  0  0
   -7.4926   -0.0036    0.0000 O   0  0  0  0  0  0  0  0  0  0  0  0
  2  1  1  6
  2  3  1  0
  3  4  1  0
  4  5  2  0
  4  6  1  0
  6  7  1  0
  7  8  1  0
  8  9  2  0
  9 10  1  0
 10 11  1  0
  9 12  1  0
 12 13  2  0
 13 14  1  0
 14 15  1  0
 13 16  1  0
 16 17  2  0
 17 18  1  0
 18 19  1  0
  2 20  1  0
 20 21  2  0
 20 22  1  0
 17  8  1  0
M  END
>  <rName>  (900) 
Asn_Bn_24_6triOMe

>  <PQ_SYMBOL>  (900) 
Asn_Bn_24_6triOMe

>  <FULL_NAME>  (900) 
N4-(2,4,6-trimethoxybenzyl)-L-asparagine

>  <IUPAC_CONDENSED>  (900) 
Asn(Bn(2,4,6-triOMe))

>  <IUPAC>  (900) 
(2S)-2-amino-3-(((2,4,6-trimethoxyphenyl)methyl)carbamoyl)propanoic acid

>  <TYPE>  (900) 
Backbone

>  <CLASS>  (900) 
alpha

>  <ANALOG>  (900) 
Asn

>  <MOL_WT>  (900) 
312.32200000000006

>  <LOGP>  (900) 
0.13059999999999977

>  <TPSA>  (900) 
120.11000000000003

>  <POPULARITY>  (900) 
2.5

>  <PROTECTED>  (900) 
TRUE

>  <SMILES>  (900) 
N[C@@H](CC(=O)NCc1(c(OC)cc(OC)cc1OC))C(=O)O

>  <INCHIKEY>  (900) 
KLGXGTMVEJCFQW-JTQLQIEISA-N

$$$$
Asn_BuNH2
     RDKit          2D

 14 13  0  0  0  0  0  0  0  0999 V2000
   -3.1411   -1.7393    0.0000 N   0  0  0  0  0  0  0  0  0  0  0  0
   -3.1530   -0.2394    0.0000 C   0  0  0  0  0  0  0  0  0  0  0  0
   -1.8600    0.5209    0.0000 C   0  0  0  0  0  0  0  0  0  0  0  0
   -0.5550   -0.2187    0.0000 C   0  0  0  0  0  0  0  0  0  0  0  0
   -0.5431   -1.7187    0.0000 O   0  0  0  0  0  0  0  0  0  0  0  0
    0.7380    0.5416    0.0000 N   0  0  0  0  0  0  0  0  0  0  0  0
    2.0430   -0.1980    0.0000 C   0  0  0  0  0  0  0  0  0  0  0  0
    3.3360    0.5623    0.0000 C   0  0  0  0  0  0  0  0  0  0  0  0
    4.6410   -0.1774    0.0000 C   0  0  0  0  0  0  0  0  0  0  0  0
    5.9340    0.5829    0.0000 C   0  0  0  0  0  0  0  0  0  0  0  0
    7.2390   -0.1567    0.0000 N   0  0  0  0  0  0  0  0  0  0  0  0
   -4.4580    0.5003    0.0000 C   0  0  0  0  0  0  0  0  0  0  0  0
   -4.4699    2.0002    0.0000 O   0  0  0  0  0  0  0  0  0  0  0  0
   -5.7510   -0.2600    0.0000 O   0  0  0  0  0  0  0  0  0  0  0  0
  2  1  1  6
  2  3  1  0
  3  4  1  0
  4  5  2  0
  4  6  1  0
  6  7  1  0
  7  8  1  0
  8  9  1  0
  9 10  1  0
 10 11  1  0
  2 12  1  0
 12 13  2  0
 12 14  1  0
M  END
>  <rName>  (901) 
Asn_BuNH2

>  <PQ_SYMBOL>  (901) 
Asn_BuNH2

>  <FULL_NAME>  (901) 
N4-(4-aminobutyl)-L-asparagine

>  <IUPAC_CONDENSED>  (901) 
Asn(BuNH2)

>  <IUPAC>  (901) 
(2S)-2-amino-3-((4-aminobutyl)carbamoyl)propanoic acid

>  <TYPE>  (901) 
Backbone

>  <CLASS>  (901) 
alpha

>  <ANALOG>  (901) 
Asn

>  <MOL_WT>  (901) 
203.24199999999996

>  <LOGP>  (901) 
-1.3564999999999987

>  <TPSA>  (901) 
118.44000000000001

>  <POPULARITY>  (901) 
7.4

>  <PROTECTED>  (901) 
TRUE

>  <SMILES>  (901) 
N[C@@H](CC(=O)NCCCCN)C(=O)O

>  <INCHIKEY>  (901) 
NZEJQLKTKVCSRQ-LURJTMIESA-N

$$$$
Asn_EDANS
     RDKit          2D

 26 27  0  0  0  0  0  0  0  0999 V2000
   -7.4773   -1.7396    0.0000 N   0  0  0  0  0  0  0  0  0  0  0  0
   -7.4501   -0.2398    0.0000 C   0  0  0  0  0  0  0  0  0  0  0  0
   -6.1376    0.4865    0.0000 C   0  0  0  0  0  0  0  0  0  0  0  0
   -4.8524   -0.2870    0.0000 C   0  0  0  0  0  0  0  0  0  0  0  0
   -4.8796   -1.7867    0.0000 O   0  0  0  0  0  0  0  0  0  0  0  0
   -3.5400    0.4393    0.0000 N   0  0  0  0  0  0  0  0  0  0  0  0
   -2.2548   -0.3341    0.0000 C   0  0  0  0  0  0  0  0  0  0  0  0
   -0.9423    0.3922    0.0000 C   0  0  0  0  0  0  0  0  0  0  0  0
    0.3429   -0.3813    0.0000 N   0  0  0  0  0  0  0  0  0  0  0  0
    1.6553    0.3450    0.0000 C   0  0  0  0  0  0  0  0  0  0  0  0
    1.6825    1.8448    0.0000 C   0  0  0  0  0  0  0  0  0  0  0  0
    2.9950    2.5711    0.0000 C   0  0  0  0  0  0  0  0  0  0  0  0
    4.2802    1.7976    0.0000 C   0  0  0  0  0  0  0  0  0  0  0  0
    4.2530    0.2978    0.0000 C   0  0  0  0  0  0  0  0  0  0  0  0
    5.5382   -0.4756    0.0000 C   0  0  0  0  0  0  0  0  0  0  0  0
    5.5109   -1.9754    0.0000 C   0  0  0  0  0  0  0  0  0  0  0  0
    4.1985   -2.7017    0.0000 C   0  0  0  0  0  0  0  0  0  0  0  0
    2.9133   -1.9282    0.0000 C   0  0  0  0  0  0  0  0  0  0  0  0
    2.9405   -0.4284    0.0000 C   0  0  0  0  0  0  0  0  0  0  0  0
    6.8506    0.2507    0.0000 S   0  0  0  0  0  0  0  0  0  0  0  0
    7.5769   -1.0618    0.0000 O   0  0  0  0  0  0  0  0  0  0  0  0
    6.1243    1.5631    0.0000 O   0  0  0  0  0  0  0  0  0  0  0  0
    8.1630    0.9770    0.0000 O   0  0  0  0  0  0  0  0  0  0  0  0
   -8.7353    0.5337    0.0000 C   0  0  0  0  0  0  0  0  0  0  0  0
   -8.7080    2.0334    0.0000 O   0  0  0  0  0  0  0  0  0  0  0  0
  -10.0477   -0.1926    0.0000 O   0  0  0  0  0  0  0  0  0  0  0  0
  2  1  1  6
  2  3  1  0
  3  4  1  0
  4  5  2  0
  4  6  1  0
  6  7  1  0
  7  8  1  0
  8  9  1  0
  9 10  1  0
 10 11  2  0
 11 12  1  0
 12 13  2  0
 13 14  1  0
 14 15  2  0
 15 16  1  0
 16 17  2  0
 17 18  1  0
 18 19  2  0
 15 20  1  0
 20 21  2  0
 20 22  2  0
 20 23  1  0
  2 24  1  0
 24 25  2  0
 24 26  1  0
 19 14  1  0
 19 10  1  0
M  END
>  <rName>  (902) 
Asn_EDANS

>  <PQ_SYMBOL>  (902) 
Asn_EDANS

>  <FULL_NAME>  (902) 
N4-(2-((5-sulfonaphthalen-1-yl)amino)ethyl)-L-asparagine

>  <IUPAC_CONDENSED>  (902) 
Asn(EDANS)

>  <IUPAC>  (902) 
(2S)-2-amino-3-((2-((5-sulfonaphthalen-1-yl)amino)ethyl)carbamoyl)propanoic acid

>  <TYPE>  (902) 
Backbone

>  <CLASS>  (902) 
alpha

>  <ANALOG>  (902) 
Asn

>  <MOL_WT>  (902) 
381.41000000000014

>  <LOGP>  (902) 
0.41659999999999975

>  <TPSA>  (902) 
158.82

>  <POPULARITY>  (902) 
5.0

>  <PROTECTED>  (902) 
TRUE

>  <SMILES>  (902) 
N[C@@H](CC(=O)NCCNc2(cccc1(c(cccc12)S(=O)(=O)O)))C(=O)O

>  <INCHIKEY>  (902) 
IQLIDZWGEYIYPJ-LBPRGKRZSA-N

$$$$
Asn_EtN3
     RDKit          2D

 14 13  0  0  0  0  0  0  0  0999 V2000
    3.2317    1.6812    0.0000 N   0  0  0  0  0  0  0  0  0  0  0  0
    3.1659    0.1826    0.0000 C   0  0  0  0  0  0  0  0  0  0  0  0
    1.8352   -0.5096    0.0000 C   0  0  0  0  0  0  0  0  0  0  0  0
    0.5703    0.2967    0.0000 C   0  0  0  0  0  0  0  0  0  0  0  0
    0.6362    1.7952    0.0000 O   0  0  0  0  0  0  0  0  0  0  0  0
   -0.7604   -0.3956    0.0000 N   0  0  0  0  0  0  0  0  0  0  0  0
   -2.0253    0.4107    0.0000 C   0  0  0  0  0  0  0  0  0  0  0  0
   -3.3560   -0.2815    0.0000 C   0  0  0  0  0  0  0  0  0  0  0  0
   -4.6208    0.5248    0.0000 N   0  0  0  0  0  0  0  0  0  0  0  0
   -5.9516   -0.1674    0.0000 N   0  0  0  0  0  0  0  0  0  0  0  0
   -7.2823   -0.8597    0.0000 N   0  0  0  0  0  0  0  0  0  0  0  0
    4.4307   -0.6237    0.0000 C   0  0  0  0  0  0  0  0  0  0  0  0
    4.3649   -2.1223    0.0000 O   0  0  0  0  0  0  0  0  0  0  0  0
    5.7614    0.0685    0.0000 O   0  0  0  0  0  0  0  0  0  0  0  0
  2  1  1  6
  2  3  1  0
  3  4  1  0
  4  5  2  0
  4  6  1  0
  6  7  1  0
  7  8  1  0
  8  9  1  0
  9 10  2  0
 10 11  2  0
  2 12  1  0
 12 13  2  0
 12 14  1  0
M  CHG  2  10   1  11  -1
M  END
>  <rName>  (903) 
Asn_EtN3

>  <PQ_SYMBOL>  (903) 
Asn_EtN3

>  <FULL_NAME>  (903) 
(2S)-2-amino-4-(2-azidoethylamino)-4-oxobutanoic acid

>  <IUPAC_CONDENSED>  (903) 
Asn(EtN3)

>  <IUPAC>  (903) 
(2S)-2-amino-4-(2-azidoethylamino)-4-oxobutanoic acid

>  <TYPE>  (903) 
Backbone

>  <CLASS>  (903) 
alpha

>  <ANALOG>  (903) 
Asn

>  <MOL_WT>  (903) 
201.186

>  <LOGP>  (903) 
-0.7851000000000004

>  <TPSA>  (903) 
141.18

>  <POPULARITY>  (903) 
3.5

>  <PROTECTED>  (903) 
TRUE

>  <SMILES>  (903) 
N[C@@H](CC(=O)NCCN=[N+]=[N-])C(=O)O

>  <INCHIKEY>  (903) 
YFLMEFKLGOCVGA-BYPYZUCNSA-N

$$$$
Asn_For
     RDKit          2D

 11 11  0  0  0  0  0  0  0  0999 V2000
    2.1818    0.0000    0.0000 N   0  0  0  0  0  0  0  0  0  0  0  0
    1.4318   -1.2990    0.0000 C   0  0  0  0  0  0  0  0  0  0  0  0
    2.1818   -2.5981    0.0000 O   0  0  0  0  0  0  0  0  0  0  0  0
   -0.0682   -1.2990    0.0000 N   0  0  0  0  0  0  0  0  0  0  0  0
   -0.8182    0.0000    0.0000 C   0  0  0  0  0  0  0  0  0  0  0  0
   -0.0682    1.2990    0.0000 C   0  0  0  0  0  0  0  0  0  0  0  0
    1.4318    1.2990    0.0000 C   0  0  0  0  0  0  0  0  0  0  0  0
    2.1818    2.5981    0.0000 O   0  0  0  0  0  0  0  0  0  0  0  0
   -2.3182    0.0000    0.0000 C   0  0  0  0  0  0  0  0  0  0  0  0
   -3.0682   -1.2990    0.0000 O   0  0  0  0  0  0  0  0  0  0  0  0
   -3.0682    1.2990    0.0000 O   0  0  0  0  0  0  0  0  0  0  0  0
  1  2  1  0
  2  3  2  0
  2  4  1  0
  4  5  1  0
  5  6  1  0
  6  7  1  0
  7  8  2  0
  5  9  1  6
  9 10  2  0
  9 11  1  0
  7  1  1  0
M  END
>  <rName>  (904) 
Asn_For

>  <PQ_SYMBOL>  (904) 
Asn_For

>  <FULL_NAME>  (904) 
(4S)-2,6-dioxo-1,3-diazinane-4-carboxylic acid

>  <IUPAC_CONDENSED>  (904) 
Asn(For)

>  <IUPAC>  (904) 
(4S)-2,6-dioxo-1,3-diazacyclohexane-4-carboxylic acid

>  <TYPE>  (904) 
N-term cap

>  <CLASS>  (904) 
n_cap

>  <ANALOG>  (904) 
X

>  <MOL_WT>  (904) 
158.113

>  <LOGP>  (904) 
-1.3309

>  <TPSA>  (904) 
95.50000000000001

>  <POPULARITY>  (904) 
10.6

>  <PROTECTED>  (904) 
TRUE

>  <SMILES>  (904) 
N1C(=O)N[C@@H](CC1=O)C(=O)O

>  <INCHIKEY>  (904) 
UFIVEPVSAGBUSI-REOHCLBHSA-N

$$$$
Asn_H2NBu
     RDKit          2D

 15 14  0  0  0  0  0  0  0  0999 V2000
    3.7401    1.7151    0.0000 N   0  0  0  0  0  0  0  0  0  0  0  0
    3.7261    0.2152    0.0000 C   0  0  0  0  0  0  0  0  0  0  0  0
    2.4201   -0.5227    0.0000 C   0  0  0  0  0  0  0  0  0  0  0  0
    1.1281    0.2395    0.0000 C   0  0  0  0  0  0  0  0  0  0  0  0
    1.1421    1.7394    0.0000 O   0  0  0  0  0  0  0  0  0  0  0  0
   -0.1779   -0.4984    0.0000 N   0  0  0  0  0  0  0  0  0  0  0  0
   -1.4698    0.2638    0.0000 C   0  0  0  0  0  0  0  0  0  0  0  0
   -2.7758   -0.4741    0.0000 C   0  0  0  0  0  0  0  0  0  0  0  0
   -4.0678    0.2881    0.0000 C   0  0  0  0  0  0  0  0  0  0  0  0
   -5.3738   -0.4498    0.0000 C   0  0  0  0  0  0  0  0  0  0  0  0
   -6.6658    0.3123    0.0000 C   0  0  0  0  0  0  0  0  0  0  0  0
   -7.9718   -0.4255    0.0000 N   0  0  0  0  0  0  0  0  0  0  0  0
    5.0181   -0.5469    0.0000 C   0  0  0  0  0  0  0  0  0  0  0  0
    5.0040   -2.0469    0.0000 O   0  0  0  0  0  0  0  0  0  0  0  0
    6.3240    0.1909    0.0000 O   0  0  0  0  0  0  0  0  0  0  0  0
  2  1  1  6
  2  3  1  0
  3  4  1  0
  4  5  2  0
  4  6  1  0
  6  7  1  0
  7  8  1  0
  8  9  1  0
  9 10  1  0
 10 11  1  0
 11 12  1  0
  2 13  1  0
 13 14  2  0
 13 15  1  0
M  END
>  <rName>  (905) 
Asn_H2NBu

>  <PQ_SYMBOL>  (905) 
Asn_H2NBu

>  <FULL_NAME>  (905) 
(2S)-2-amino-4-(5-aminopentylamino)-4-oxobutanoic acid

>  <IUPAC_CONDENSED>  (905) 
Asn(H2NBu)

>  <IUPAC>  (905) 
(2S)-2-amino-4-(5-aminopentylamino)-4-oxobutanoic acid

>  <TYPE>  (905) 
Backbone

>  <CLASS>  (905) 
alpha

>  <ANALOG>  (905) 
Asn

>  <MOL_WT>  (905) 
217.26899999999995

>  <LOGP>  (905) 
-0.966399999999999

>  <TPSA>  (905) 
118.44000000000001

>  <POPULARITY>  (905) 
2.2

>  <PROTECTED>  (905) 
TRUE

>  <SMILES>  (905) 
N[C@@H](CC(=O)NCCCCCN)C(=O)O

>  <INCHIKEY>  (905) 
BJEFCYPQLDNXRW-ZETCQYMHSA-N

$$$$
Asn_Me
     RDKit          2D

 10  9  0  0  0  0  0  0  0  0999 V2000
    0.8391   -1.7602    0.0000 N   0  0  0  0  0  0  0  0  0  0  0  0
    1.0145   -0.2705    0.0000 C   0  0  0  0  0  0  0  0  0  0  0  0
   -0.1878    0.6263    0.0000 C   0  0  0  0  0  0  0  0  0  0  0  0
   -1.5657    0.0334    0.0000 C   0  0  0  0  0  0  0  0  0  0  0  0
   -1.7412   -1.4563    0.0000 O   0  0  0  0  0  0  0  0  0  0  0  0
   -2.7681    0.9302    0.0000 N   0  0  0  0  0  0  0  0  0  0  0  0
   -4.1459    0.3373    0.0000 C   0  0  0  0  0  0  0  0  0  0  0  0
    2.3924    0.3223    0.0000 C   0  0  0  0  0  0  0  0  0  0  0  0
    2.5679    1.8120    0.0000 O   0  0  0  0  0  0  0  0  0  0  0  0
    3.5948   -0.5745    0.0000 O   0  0  0  0  0  0  0  0  0  0  0  0
  2  1  1  1
  2  3  1  0
  3  4  1  0
  4  5  2  0
  4  6  1  0
  6  7  1  0
  2  8  1  0
  8  9  2  0
  8 10  1  0
M  END
>  <rName>  (906) 
Asn_Me

>  <PQ_SYMBOL>  (906) 
Asn_Me

>  <FULL_NAME>  (906) 
N4-Methyl-L-Asparagine

>  <IUPAC_CONDENSED>  (906) 
Asn(Me)

>  <IUPAC>  (906) 
(2S)-2-amino-3-(methylcarbamoyl)propanoic acid

>  <TYPE>  (906) 
Backbone

>  <CLASS>  (906) 
alpha

>  <ANALOG>  (906) 
Asn

>  <MOL_WT>  (906) 
146.146

>  <LOGP>  (906) 
-1.4655999999999998

>  <TPSA>  (906) 
92.42

>  <POPULARITY>  (906) 
34.4

>  <PROTECTED>  (906) 
TRUE

>  <SMILES>  (906) 
N[C@@H](CC(=O)NC)C(=O)O

>  <INCHIKEY>  (906) 
CFRMVEKWKKDNAH-VKHMYHEASA-N

$$$$
Asn_Me2
     RDKit          2D

 11 10  0  0  0  0  0  0  0  0999 V2000
    1.2990    1.8409    0.0000 N   0  0  0  0  0  0  0  0  0  0  0  0
    1.2990    0.3409    0.0000 C   0  0  0  0  0  0  0  0  0  0  0  0
   -0.0000   -0.4091    0.0000 C   0  0  0  0  0  0  0  0  0  0  0  0
   -1.2990    0.3409    0.0000 C   0  0  0  0  0  0  0  0  0  0  0  0
   -1.2990    1.8409    0.0000 O   0  0  0  0  0  0  0  0  0  0  0  0
   -2.5981   -0.4091    0.0000 N   0  0  0  0  0  0  0  0  0  0  0  0
   -3.8971    0.3409    0.0000 C   0  0  0  0  0  0  0  0  0  0  0  0
   -2.5981   -1.9091    0.0000 C   0  0  0  0  0  0  0  0  0  0  0  0
    2.5981   -0.4091    0.0000 C   0  0  0  0  0  0  0  0  0  0  0  0
    2.5981   -1.9091    0.0000 O   0  0  0  0  0  0  0  0  0  0  0  0
    3.8971    0.3409    0.0000 O   0  0  0  0  0  0  0  0  0  0  0  0
  2  1  1  6
  2  3  1  0
  3  4  1  0
  4  5  2  0
  4  6  1  0
  6  7  1  0
  6  8  1  0
  2  9  1  0
  9 10  2  0
  9 11  1  0
M  END
>  <rName>  (907) 
Asn_Me2

>  <PQ_SYMBOL>  (907) 
Asn_Me2

>  <FULL_NAME>  (907) 
N4,N4-DIMETHYL-ASPARAGINE

>  <IUPAC_CONDENSED>  (907) 
Asn(Me2)

>  <IUPAC>  (907) 
(2S)-2-amino-3-(dimethylcarbamoyl)propanoic acid

>  <TYPE>  (907) 
Backbone

>  <CLASS>  (907) 
alpha

>  <ANALOG>  (907) 
X

>  <MOL_WT>  (907) 
160.173

>  <LOGP>  (907) 
-1.1233999999999995

>  <TPSA>  (907) 
83.63000000000001

>  <POPULARITY>  (907) 
16.0

>  <PROTECTED>  (907) 
TRUE

>  <SMILES>  (907) 
N[C@@H](CC(=O)N(C)C)C(=O)O

>  <INCHIKEY>  (907) 
AHEBZPSPUGRPFZ-BYPYZUCNSA-N

$$$$
Asn_NHMe
     RDKit          2D

 11 10  0  0  0  0  0  0  0  0999 V2000
   -1.4761   -1.7560    0.0000 N   0  0  0  0  0  0  0  0  0  0  0  0
   -1.5273   -0.2569    0.0000 C   0  0  0  0  0  0  0  0  0  0  0  0
   -0.2547    0.5371    0.0000 C   0  0  0  0  0  0  0  0  0  0  0  0
    1.0692   -0.1681    0.0000 C   0  0  0  0  0  0  0  0  0  0  0  0
    1.1205   -1.6672    0.0000 O   0  0  0  0  0  0  0  0  0  0  0  0
    2.3419    0.6259    0.0000 N   0  0  0  0  0  0  0  0  0  0  0  0
    3.6658   -0.0793    0.0000 N   0  0  0  0  0  0  0  0  0  0  0  0
    4.9384    0.7147    0.0000 C   0  0  0  0  0  0  0  0  0  0  0  0
   -2.8513    0.4482    0.0000 C   0  0  0  0  0  0  0  0  0  0  0  0
   -2.9025    1.9474    0.0000 O   0  0  0  0  0  0  0  0  0  0  0  0
   -4.1239   -0.3457    0.0000 O   0  0  0  0  0  0  0  0  0  0  0  0
  2  1  1  6
  2  3  1  0
  3  4  1  0
  4  5  2  0
  4  6  1  0
  6  7  1  0
  7  8  1  0
  2  9  1  0
  9 10  2  0
  9 11  1  0
M  END
>  <rName>  (908) 
Asn_NHMe

>  <PQ_SYMBOL>  (908) 
Asn_NHMe

>  <FULL_NAME>  (908) 
Asn(NHMe)

>  <IUPAC_CONDENSED>  (908) 
Asn(NHMe)

>  <IUPAC>  (908) 
(2S)-2-amino-4-(N'-methylhydrazinyl)-4-oxobutanoic acid

>  <TYPE>  (908) 
Backbone

>  <CLASS>  (908) 
alpha

>  <ANALOG>  (908) 
Asn

>  <MOL_WT>  (908) 
161.161

>  <LOGP>  (908) 
-1.9609999999999994

>  <TPSA>  (908) 
104.45

>  <POPULARITY>  (908) 
2.2

>  <PROTECTED>  (908) 
TRUE

>  <SMILES>  (908) 
N[C@@H](CC(=O)NNC)C(=O)O

>  <INCHIKEY>  (908) 
SZSPFYLEGWXYRN-VKHMYHEASA-N

$$$$
Asn_Ph
     RDKit          2D

 15 15  0  0  0  0  0  0  0  0999 V2000
   -2.7049    1.7446    0.0000 N   0  0  0  0  0  0  0  0  0  0  0  0
   -2.9395    0.2630    0.0000 C   0  0  0  0  0  0  0  0  0  0  0  0
   -1.7738   -0.6809    0.0000 C   0  0  0  0  0  0  0  0  0  0  0  0
   -0.3734   -0.1434    0.0000 C   0  0  0  0  0  0  0  0  0  0  0  0
   -0.1388    1.3382    0.0000 O   0  0  0  0  0  0  0  0  0  0  0  0
    0.7923   -1.0873    0.0000 N   0  0  0  0  0  0  0  0  0  0  0  0
    2.1927   -0.5497    0.0000 C   0  0  0  0  0  0  0  0  0  0  0  0
    2.4273    0.9318    0.0000 C   0  0  0  0  0  0  0  0  0  0  0  0
    3.8276    1.4694    0.0000 C   0  0  0  0  0  0  0  0  0  0  0  0
    4.9934    0.5254    0.0000 C   0  0  0  0  0  0  0  0  0  0  0  0
    4.7588   -0.9561    0.0000 C   0  0  0  0  0  0  0  0  0  0  0  0
    3.3584   -1.4937    0.0000 C   0  0  0  0  0  0  0  0  0  0  0  0
   -4.3399   -0.2746    0.0000 C   0  0  0  0  0  0  0  0  0  0  0  0
   -4.5745   -1.7561    0.0000 O   0  0  0  0  0  0  0  0  0  0  0  0
   -5.5056    0.6694    0.0000 O   0  0  0  0  0  0  0  0  0  0  0  0
  2  1  1  1
  2  3  1  0
  3  4  1  0
  4  5  2  0
  4  6  1  0
  6  7  1  0
  7  8  2  0
  8  9  1  0
  9 10  2  0
 10 11  1  0
 11 12  2  0
  2 13  1  0
 13 14  2  0
 13 15  1  0
 12  7  1  0
M  END
>  <rName>  (909) 
Asn_Ph

>  <PQ_SYMBOL>  (909) 
Asn_Ph

>  <FULL_NAME>  (909) 
(2S)-2-amino-4-anilino-4-oxobutanoic acid

>  <IUPAC_CONDENSED>  (909) 
Asn(Ph)

>  <IUPAC>  (909) 
(2S)-2-amino-4-anilino-4-oxobutanoic acid

>  <TYPE>  (909) 
Backbone

>  <CLASS>  (909) 
alpha

>  <ANALOG>  (909) 
Asn

>  <MOL_WT>  (909) 
208.21699999999998

>  <LOGP>  (909) 
0.42709999999999937

>  <TPSA>  (909) 
92.42

>  <POPULARITY>  (909) 
2.2

>  <PROTECTED>  (909) 
TRUE

>  <SMILES>  (909) 
N[C@@H](CC(=O)Nc1(ccccc1))C(=O)O

>  <INCHIKEY>  (909) 
MPAUCEQZKGWZGT-QMMMGPOBSA-N

$$$$
Asn_PrNH2
     RDKit          2D

 13 12  0  0  0  0  0  0  0  0999 V2000
    2.5981    1.7308    0.0000 N   0  0  0  0  0  0  0  0  0  0  0  0
    2.5981    0.2308    0.0000 C   0  0  0  0  0  0  0  0  0  0  0  0
    1.2990   -0.5192    0.0000 C   0  0  0  0  0  0  0  0  0  0  0  0
    0.0000    0.2308    0.0000 C   0  0  0  0  0  0  0  0  0  0  0  0
    0.0000    1.7308    0.0000 O   0  0  0  0  0  0  0  0  0  0  0  0
   -1.2990   -0.5192    0.0000 N   0  0  0  0  0  0  0  0  0  0  0  0
   -2.5981    0.2308    0.0000 C   0  0  0  0  0  0  0  0  0  0  0  0
   -3.8971   -0.5192    0.0000 C   0  0  0  0  0  0  0  0  0  0  0  0
   -5.1962    0.2308    0.0000 C   0  0  0  0  0  0  0  0  0  0  0  0
   -6.4952   -0.5192    0.0000 N   0  0  0  0  0  0  0  0  0  0  0  0
    3.8971   -0.5192    0.0000 C   0  0  0  0  0  0  0  0  0  0  0  0
    3.8971   -2.0192    0.0000 O   0  0  0  0  0  0  0  0  0  0  0  0
    5.1962    0.2308    0.0000 O   0  0  0  0  0  0  0  0  0  0  0  0
  2  1  1  6
  2  3  1  0
  3  4  1  0
  4  5  2  0
  4  6  1  0
  6  7  1  0
  7  8  1  0
  8  9  1  0
  9 10  1  0
  2 11  1  0
 11 12  2  0
 11 13  1  0
M  END
>  <rName>  (910) 
Asn_PrNH2

>  <PQ_SYMBOL>  (910) 
Asn_PrNH2

>  <FULL_NAME>  (910) 
(2S)-2-amino-4-(3-aminopropylamino)-4-oxobutanoic acid

>  <IUPAC_CONDENSED>  (910) 
Asn(PrNH2)

>  <IUPAC>  (910) 
(2S)-2-amino-4-(3-aminopropylamino)-4-oxobutanoic acid

>  <TYPE>  (910) 
Backbone

>  <CLASS>  (910) 
alpha

>  <ANALOG>  (910) 
Asn

>  <MOL_WT>  (910) 
189.21499999999997

>  <LOGP>  (910) 
-1.746599999999999

>  <TPSA>  (910) 
118.44000000000001

>  <POPULARITY>  (910) 
2.2

>  <PROTECTED>  (910) 
TRUE

>  <SMILES>  (910) 
N[C@@H](CC(=O)NCCCN)C(=O)O

>  <INCHIKEY>  (910) 
GKYHNHHAOAUARE-YFKPBYRVSA-N

$$$$
Asn_PyranoseNAc_RSRRR
     RDKit          2D

 23 23  0  0  0  0  0  0  0  0999 V2000
   -3.2750   -4.4926    0.0000 C   0  0  0  0  0  0  0  0  0  0  0  0
   -3.2565   -2.9927    0.0000 C   0  0  0  0  0  0  0  0  0  0  0  0
   -4.5462   -2.2267    0.0000 O   0  0  0  0  0  0  0  0  0  0  0  0
   -1.9483   -2.2588    0.0000 N   0  0  0  0  0  0  0  0  0  0  0  0
   -1.9298   -0.7589    0.0000 C   0  0  0  0  0  0  0  0  0  0  0  0
   -3.2195    0.0071    0.0000 C   0  0  0  0  0  0  0  0  0  0  0  0
   -4.5277   -0.7269    0.0000 O   0  0  0  0  0  0  0  0  0  0  0  0
   -3.2010    1.5070    0.0000 C   0  0  0  0  0  0  0  0  0  0  0  0
   -4.4907    2.2729    0.0000 O   0  0  0  0  0  0  0  0  0  0  0  0
   -1.8928    2.2409    0.0000 C   0  0  0  0  0  0  0  0  0  0  0  0
   -1.8743    3.7408    0.0000 C   0  0  0  0  0  0  0  0  0  0  0  0
   -0.5662    4.4747    0.0000 O   0  0  0  0  0  0  0  0  0  0  0  0
   -0.6031    1.4749    0.0000 O   0  0  0  0  0  0  0  0  0  0  0  0
   -0.6216   -0.0249    0.0000 C   0  0  0  0  0  0  0  0  0  0  0  0
    0.6681   -0.7909    0.0000 N   0  0  0  0  0  0  0  0  0  0  0  0
    1.9762   -0.0570    0.0000 C   0  0  0  0  0  0  0  0  0  0  0  0
    1.9947    1.4429    0.0000 O   0  0  0  0  0  0  0  0  0  0  0  0
    3.2659   -0.8229    0.0000 C   0  0  0  0  0  0  0  0  0  0  0  0
    4.5741   -0.0890    0.0000 C   0  0  0  0  0  0  0  0  0  0  0  0
    4.5926    1.4109    0.0000 N   0  0  0  0  0  0  0  0  0  0  0  0
    5.8638   -0.8550    0.0000 C   0  0  0  0  0  0  0  0  0  0  0  0
    5.8453   -2.3548    0.0000 O   0  0  0  0  0  0  0  0  0  0  0  0
    7.1720   -0.1210    0.0000 O   0  0  0  0  0  0  0  0  0  0  0  0
  1  2  1  0
  2  3  2  0
  2  4  1  0
  5  4  1  6
  5  6  1  0
  6  7  1  1
  6  8  1  0
  8  9  1  6
  8 10  1  0
 10 11  1  1
 11 12  1  0
 10 13  1  0
 13 14  1  0
 14 15  1  1
 15 16  1  0
 16 17  2  0
 16 18  1  0
 18 19  1  0
 19 20  1  6
 19 21  1  0
 21 22  2  0
 21 23  1  0
 14  5  1  0
M  END
>  <rName>  (911) 
Asn_PyranoseNAc_RSRRR

>  <PQ_SYMBOL>  (911) 
Asn_PyranoseNAc_RSRRR

>  <FULL_NAME>  (911) 
(2S)-4-[[(2R,3R,4R,5S,6R)-3-acetamido-4,5-dihydroxy-6-(hydroxymethyl)oxan-2-yl]amino]-2-amino-4-oxobutanoic acid

>  <IUPAC_CONDENSED>  (911) 
Asn(Pyranose-NAc(RSRRR))

>  <IUPAC>  (911) 
(2S)-4-[[(2R,3R,4R,5S,6R)-3-acetamido-4,5-dihydroxy-6-(hydroxymethyl)oxan-2-yl]amino]-2-amino-4-oxobutanoic acid

>  <TYPE>  (911) 
Backbone

>  <CLASS>  (911) 
alpha

>  <ANALOG>  (911) 
Asn

>  <MOL_WT>  (911) 
335.3130000000001

>  <LOGP>  (911) 
-4.151699999999995

>  <TPSA>  (911) 
191.44

>  <POPULARITY>  (911) 
4.6

>  <PROTECTED>  (911) 
TRUE

>  <SMILES>  (911) 
CC(=O)N[C@@H]1[C@@H](O)[C@H](O)[C@@H](CO)O[C@H]1NC(=O)C[C@H](N)C(=O)O

>  <INCHIKEY>  (911) 
YTTRPBWEMMPYSW-HRRFRDKFSA-N

$$$$
Asn_Pyranose_SRSRR
     RDKit          2D

 20 20  0  0  0  0  0  0  0  0999 V2000
   -3.7760    1.7057    0.0000 N   0  0  0  0  0  0  0  0  0  0  0  0
   -4.0545    0.2318    0.0000 C   0  0  0  0  0  0  0  0  0  0  0  0
   -2.9173   -0.7463    0.0000 C   0  0  0  0  0  0  0  0  0  0  0  0
   -1.5016   -0.2506    0.0000 C   0  0  0  0  0  0  0  0  0  0  0  0
   -1.2231    1.2234    0.0000 O   0  0  0  0  0  0  0  0  0  0  0  0
   -0.3644   -1.2287    0.0000 N   0  0  0  0  0  0  0  0  0  0  0  0
    1.0513   -0.7329    0.0000 C   0  0  0  0  0  0  0  0  0  0  0  0
    1.3298    0.7410    0.0000 O   0  0  0  0  0  0  0  0  0  0  0  0
    2.7455    1.2368    0.0000 C   0  0  0  0  0  0  0  0  0  0  0  0
    3.0240    2.7107    0.0000 C   0  0  0  0  0  0  0  0  0  0  0  0
    1.8868    3.6888    0.0000 O   0  0  0  0  0  0  0  0  0  0  0  0
    3.8827    0.2586    0.0000 C   0  0  0  0  0  0  0  0  0  0  0  0
    5.2984    0.7544    0.0000 O   0  0  0  0  0  0  0  0  0  0  0  0
    3.6042   -1.2153    0.0000 C   0  0  0  0  0  0  0  0  0  0  0  0
    4.7414   -2.1935    0.0000 O   0  0  0  0  0  0  0  0  0  0  0  0
    2.1885   -1.7111    0.0000 C   0  0  0  0  0  0  0  0  0  0  0  0
    1.9100   -3.1850    0.0000 O   0  0  0  0  0  0  0  0  0  0  0  0
   -5.4702   -0.2640    0.0000 C   0  0  0  0  0  0  0  0  0  0  0  0
   -5.7487   -1.7379    0.0000 O   0  0  0  0  0  0  0  0  0  0  0  0
   -6.6074    0.7142    0.0000 O   0  0  0  0  0  0  0  0  0  0  0  0
  2  1  1  1
  2  3  1  0
  3  4  1  0
  4  5  2  0
  4  6  1  0
  7  6  1  6
  7  8  1  0
  8  9  1  0
  9 10  1  6
 10 11  1  0
  9 12  1  0
 12 13  1  1
 12 14  1  0
 14 15  1  6
 14 16  1  0
 16 17  1  1
  2 18  1  0
 18 19  2  0
 18 20  1  0
 16  7  1  0
M  END
>  <rName>  (912) 
Asn_Pyranose_SRSRR

>  <PQ_SYMBOL>  (912) 
Asn_Pyranose_SRSRR

>  <FULL_NAME>  (912) 
N-Glycosyl-L-asparagine

>  <IUPAC_CONDENSED>  (912) 
Asn(Pyranose(SRSRR))

>  <IUPAC>  (912) 
(2S)-2-amino-4-oxo-4-[[(2R,3R,4S,5S,6R)-3,4,5-trihydroxy-6-(hydroxymethyl)oxan-2-yl]amino]butanoic acid

>  <TYPE>  (912) 
Backbone

>  <CLASS>  (912) 
alpha

>  <ANALOG>  (912) 
Asn

>  <MOL_WT>  (912) 
294.26000000000005

>  <LOGP>  (912) 
-4.295499999999995

>  <TPSA>  (912) 
182.57

>  <POPULARITY>  (912) 
2.2

>  <PROTECTED>  (912) 
TRUE

>  <SMILES>  (912) 
N[C@@H](CC(=O)N[C@@H]1(O[C@H](CO)[C@@H](O)[C@H](O)[C@H]1O))C(=O)O

>  <INCHIKEY>  (912) 
RDVZONQWDDILKB-ITZFQDDFSA-N

$$$$
Asn_cHex
     RDKit          2D

 15 15  0  0  0  0  0  0  0  0999 V2000
   -2.7049    1.7446    0.0000 N   0  0  0  0  0  0  0  0  0  0  0  0
   -2.9395    0.2630    0.0000 C   0  0  0  0  0  0  0  0  0  0  0  0
   -1.7738   -0.6809    0.0000 C   0  0  0  0  0  0  0  0  0  0  0  0
   -0.3734   -0.1434    0.0000 C   0  0  0  0  0  0  0  0  0  0  0  0
   -0.1388    1.3382    0.0000 O   0  0  0  0  0  0  0  0  0  0  0  0
    0.7923   -1.0873    0.0000 N   0  0  0  0  0  0  0  0  0  0  0  0
    2.1927   -0.5497    0.0000 C   0  0  0  0  0  0  0  0  0  0  0  0
    2.4273    0.9318    0.0000 C   0  0  0  0  0  0  0  0  0  0  0  0
    3.8276    1.4694    0.0000 C   0  0  0  0  0  0  0  0  0  0  0  0
    4.9934    0.5254    0.0000 C   0  0  0  0  0  0  0  0  0  0  0  0
    4.7588   -0.9561    0.0000 C   0  0  0  0  0  0  0  0  0  0  0  0
    3.3584   -1.4937    0.0000 C   0  0  0  0  0  0  0  0  0  0  0  0
   -4.3399   -0.2746    0.0000 C   0  0  0  0  0  0  0  0  0  0  0  0
   -4.5745   -1.7561    0.0000 O   0  0  0  0  0  0  0  0  0  0  0  0
   -5.5056    0.6694    0.0000 O   0  0  0  0  0  0  0  0  0  0  0  0
  2  1  1  1
  2  3  1  0
  3  4  1  0
  4  5  2  0
  4  6  1  0
  6  7  1  0
  7  8  1  0
  8  9  1  0
  9 10  1  0
 10 11  1  0
 11 12  1  0
  2 13  1  0
 13 14  2  0
 13 15  1  0
 12  7  1  0
M  END
>  <rName>  (913) 
Asn_cHex

>  <PQ_SYMBOL>  (913) 
Asn_cHex

>  <FULL_NAME>  (913) 
(2S)-2-amino-4-(cyclohexylamino)-4-oxobutanoic acid

>  <IUPAC_CONDENSED>  (913) 
Asn(cHex)

>  <IUPAC>  (913) 
(2S)-2-amino-4-(cyclohexylamino)-4-oxobutanoic acid

>  <TYPE>  (913) 
Backbone

>  <CLASS>  (913) 
alpha

>  <ANALOG>  (913) 
Asn

>  <MOL_WT>  (913) 
214.26499999999996

>  <LOGP>  (913) 
0.23729999999999934

>  <TPSA>  (913) 
92.42

>  <POPULARITY>  (913) 
2.2

>  <PROTECTED>  (913) 
TRUE

>  <SMILES>  (913) 
N[C@@H](CC(=O)NC1(CCCCC1))C(=O)O

>  <INCHIKEY>  (913) 
LSCIHXWJWUTMSV-QMMMGPOBSA-N

$$$$
Asn_dodecyl
     RDKit          2D

 21 20  0  0  0  0  0  0  0  0999 V2000
    7.3186    1.7053    0.0000 N   0  0  0  0  0  0  0  0  0  0  0  0
    7.3021    0.2053    0.0000 C   0  0  0  0  0  0  0  0  0  0  0  0
    5.9948   -0.5303    0.0000 C   0  0  0  0  0  0  0  0  0  0  0  0
    4.7041    0.2339    0.0000 C   0  0  0  0  0  0  0  0  0  0  0  0
    4.7207    1.7339    0.0000 O   0  0  0  0  0  0  0  0  0  0  0  0
    3.3969   -0.5017    0.0000 N   0  0  0  0  0  0  0  0  0  0  0  0
    2.1062    0.2625    0.0000 C   0  0  0  0  0  0  0  0  0  0  0  0
    0.7990   -0.4731    0.0000 C   0  0  0  0  0  0  0  0  0  0  0  0
   -0.4917    0.2911    0.0000 C   0  0  0  0  0  0  0  0  0  0  0  0
   -1.7989   -0.4445    0.0000 C   0  0  0  0  0  0  0  0  0  0  0  0
   -3.0896    0.3197    0.0000 C   0  0  0  0  0  0  0  0  0  0  0  0
   -4.3968   -0.4159    0.0000 C   0  0  0  0  0  0  0  0  0  0  0  0
   -5.6875    0.3483    0.0000 C   0  0  0  0  0  0  0  0  0  0  0  0
   -6.9947   -0.3873    0.0000 C   0  0  0  0  0  0  0  0  0  0  0  0
   -8.2855    0.3769    0.0000 C   0  0  0  0  0  0  0  0  0  0  0  0
   -9.5927   -0.3587    0.0000 C   0  0  0  0  0  0  0  0  0  0  0  0
  -10.8834    0.4055    0.0000 C   0  0  0  0  0  0  0  0  0  0  0  0
  -12.1906   -0.3301    0.0000 C   0  0  0  0  0  0  0  0  0  0  0  0
    8.5928   -0.5589    0.0000 C   0  0  0  0  0  0  0  0  0  0  0  0
    8.5763   -2.0588    0.0000 O   0  0  0  0  0  0  0  0  0  0  0  0
    9.9000    0.1767    0.0000 O   0  0  0  0  0  0  0  0  0  0  0  0
  2  1  1  6
  2  3  1  0
  3  4  1  0
  4  5  2  0
  4  6  1  0
  6  7  1  0
  7  8  1  0
  8  9  1  0
  9 10  1  0
 10 11  1  0
 11 12  1  0
 12 13  1  0
 13 14  1  0
 14 15  1  0
 15 16  1  0
 16 17  1  0
 17 18  1  0
  2 19  1  0
 19 20  2  0
 19 21  1  0
M  END
>  <rName>  (914) 
Asn_dodecyl

>  <PQ_SYMBOL>  (914) 
Asn_dodecyl

>  <FULL_NAME>  (914) 
(2S)-2-amino-4-(dodecylamino)-4-oxobutanoic acid

>  <IUPAC_CONDENSED>  (914) 
Asn(dodecyl)

>  <IUPAC>  (914) 
(2S)-2-amino-4-(dodecylamino)-4-oxobutanoic acid

>  <TYPE>  (914) 
Backbone

>  <CLASS>  (914) 
alpha

>  <ANALOG>  (914) 
Asn

>  <MOL_WT>  (914) 
300.4429999999999

>  <LOGP>  (914) 
2.825499999999999

>  <TPSA>  (914) 
92.42

>  <POPULARITY>  (914) 
2.2

>  <PROTECTED>  (914) 
TRUE

>  <SMILES>  (914) 
N[C@@H](CC(=O)NCCCCCCCCCCCC)C(=O)O

>  <INCHIKEY>  (914) 
OMPCWRUULBGZPZ-AWEZNQCLSA-N

$$$$
Asn_iPr_For
     RDKit          2D

 14 14  0  0  0  0  0  0  0  0999 V2000
    3.5357   -1.2990    0.0000 C   0  0  0  0  0  0  0  0  0  0  0  0
    2.7857    0.0000    0.0000 C   0  0  0  0  0  0  0  0  0  0  0  0
    3.5357    1.2990    0.0000 C   0  0  0  0  0  0  0  0  0  0  0  0
    1.2857    0.0000    0.0000 N   0  0  0  0  0  0  0  0  0  0  0  0
    0.5357   -1.2990    0.0000 C   0  0  0  0  0  0  0  0  0  0  0  0
    1.2857   -2.5981    0.0000 O   0  0  0  0  0  0  0  0  0  0  0  0
   -0.9643   -1.2990    0.0000 C   0  0  0  0  0  0  0  0  0  0  0  0
   -1.7143    0.0000    0.0000 C   0  0  0  0  0  0  0  0  0  0  0  0
   -0.9643    1.2990    0.0000 N   0  0  0  0  0  0  0  0  0  0  0  0
    0.5357    1.2990    0.0000 C   0  0  0  0  0  0  0  0  0  0  0  0
    1.2857    2.5981    0.0000 O   0  0  0  0  0  0  0  0  0  0  0  0
   -3.2143    0.0000    0.0000 C   0  0  0  0  0  0  0  0  0  0  0  0
   -3.9643   -1.2990    0.0000 O   0  0  0  0  0  0  0  0  0  0  0  0
   -3.9643    1.2990    0.0000 O   0  0  0  0  0  0  0  0  0  0  0  0
  1  2  1  0
  2  3  1  0
  2  4  1  0
  4  5  1  0
  5  6  2  0
  5  7  1  0
  7  8  1  0
  8  9  1  0
  9 10  1  0
 10 11  2  0
  8 12  1  1
 12 13  2  0
 12 14  1  0
 10  4  1  0
M  END
>  <rName>  (915) 
Asn_iPr_For

>  <PQ_SYMBOL>  (915) 
Asn_iPr_For

>  <FULL_NAME>  (915) 
(4S)-2,6-dioxo-1-propan-2-yl-1,3-diazinane-4-carboxylic acid

>  <IUPAC_CONDENSED>  (915) 
Asn(iPr,For)

>  <IUPAC>  (915) 
(4S)-2,6-dioxo-1-(propan-2-yl)-1,3-diazacyclohexane-4-carboxylic acid

>  <TYPE>  (915) 
N-term cap

>  <CLASS>  (915) 
n_cap

>  <ANALOG>  (915) 
X

>  <MOL_WT>  (915) 
200.194

>  <LOGP>  (915) 
-0.21010000000000023

>  <TPSA>  (915) 
86.71000000000001

>  <POPULARITY>  (915) 
5.2

>  <PROTECTED>  (915) 
TRUE

>  <SMILES>  (915) 
CC(C)N1C(=O)C[C@H](NC1=O)C(=O)O

>  <INCHIKEY>  (915) 
QMDDCUJEBOIACT-YFKPBYRVSA-N

$$$$
Asp-AMC
     RDKit          2D

 21 22  0  0  0  0  0  0  0  0999 V2000
   -4.0812   -1.8355    0.0000 N   0  0  0  0  0  0  0  0  0  0  0  0
   -3.8273   -0.3571    0.0000 C   0  0  0  0  0  0  0  0  0  0  0  0
   -2.4200    0.1621    0.0000 C   0  0  0  0  0  0  0  0  0  0  0  0
   -2.1660    1.6404    0.0000 O   0  0  0  0  0  0  0  0  0  0  0  0
   -1.2667   -0.7970    0.0000 N   0  0  0  0  0  0  0  0  0  0  0  0
    0.1406   -0.2778    0.0000 C   0  0  0  0  0  0  0  0  0  0  0  0
    0.3945    1.2005    0.0000 C   0  0  0  0  0  0  0  0  0  0  0  0
    1.8018    1.7197    0.0000 C   0  0  0  0  0  0  0  0  0  0  0  0
    2.9551    0.7606    0.0000 C   0  0  0  0  0  0  0  0  0  0  0  0
    4.3624    1.2798    0.0000 C   0  0  0  0  0  0  0  0  0  0  0  0
    4.6164    2.7582    0.0000 C   0  0  0  0  0  0  0  0  0  0  0  0
    5.5157    0.3207    0.0000 C   0  0  0  0  0  0  0  0  0  0  0  0
    5.2617   -1.1576    0.0000 C   0  0  0  0  0  0  0  0  0  0  0  0
    6.4150   -2.1168    0.0000 O   0  0  0  0  0  0  0  0  0  0  0  0
    3.8544   -1.6768    0.0000 O   0  0  0  0  0  0  0  0  0  0  0  0
    2.7011   -0.7177    0.0000 C   0  0  0  0  0  0  0  0  0  0  0  0
    1.2939   -1.2369    0.0000 C   0  0  0  0  0  0  0  0  0  0  0  0
   -4.9806    0.6020    0.0000 C   0  0  0  0  0  0  0  0  0  0  0  0
   -6.3878    0.0828    0.0000 C   0  0  0  0  0  0  0  0  0  0  0  0
   -6.6418   -1.3956    0.0000 O   0  0  0  0  0  0  0  0  0  0  0  0
   -7.5411    1.0419    0.0000 O   0  0  0  0  0  0  0  0  0  0  0  0
  2  1  1  1
  2  3  1  0
  3  4  2  0
  3  5  1  0
  5  6  1  0
  6  7  1  0
  7  8  2  0
  8  9  1  0
  9 10  1  0
 10 11  1  0
 10 12  2  0
 12 13  1  0
 13 14  2  0
 13 15  1  0
 15 16  1  0
 16 17  1  0
  2 18  1  0
 18 19  1  0
 19 20  2  0
 19 21  1  0
 16  9  2  0
 17  6  2  0
M  END
>  <rName>  (916) 
Asp-AMC

>  <PQ_SYMBOL>  (916) 
Asp-AMC

>  <FULL_NAME>  (916) 
(S)-3-amino-4-((4-methyl-2-oxo-2H-chromen-7-yl)amino)-4-oxobutanoic acid

>  <IUPAC_CONDENSED>  (916) 
Asp-AMC

>  <IUPAC>  (916) 
(3S)-3-amino-3-((5-methyl-3-oxo-2-oxabicyclo[4.4.0]deca-1(10),4,6,8-tetraen-9-yl)carbamoyl)propanoic acid

>  <TYPE>  (916) 
Backbone

>  <CLASS>  (916) 
beta

>  <ANALOG>  (916) 
X

>  <MOL_WT>  (916) 
290.275

>  <LOGP>  (916) 
0.84192

>  <TPSA>  (916) 
122.63000000000001

>  <POPULARITY>  (916) 
3.5

>  <PROTECTED>  (916) 
TRUE

>  <SMILES>  (916) 
N[C@H](C(=O)Nc2(ccc1(c(C)cc(=O)oc1c2)))CC(=O)O

>  <INCHIKEY>  (916) 
AAGPGZSFBVEQMU-JTQLQIEISA-N

$$$$
Asp-Gly
     RDKit          2D

 13 12  0  0  0  0  0  0  0  0999 V2000
   -1.3967   -0.1401    0.0000 N   0  0  0  0  0  0  0  0  0  0  0  0
   -0.1111    0.6328    0.0000 C   0  0  0  0  0  0  0  0  0  0  0  0
   -0.1376    2.1325    0.0000 O   0  0  0  0  0  0  0  0  0  0  0  0
    1.2010   -0.0942    0.0000 C   0  0  0  0  0  0  0  0  0  0  0  0
    1.2275   -1.5939    0.0000 N   0  0  0  0  0  0  0  0  0  0  0  0
    2.4865    0.6786    0.0000 C   0  0  0  0  0  0  0  0  0  0  0  0
    3.7986   -0.0483    0.0000 C   0  0  0  0  0  0  0  0  0  0  0  0
    3.8251   -1.5481    0.0000 O   0  0  0  0  0  0  0  0  0  0  0  0
    5.0842    0.7245    0.0000 O   0  0  0  0  0  0  0  0  0  0  0  0
   -2.7088    0.5869    0.0000 C   0  0  0  0  0  0  0  0  0  0  0  0
   -3.9944   -0.1860    0.0000 C   0  0  0  0  0  0  0  0  0  0  0  0
   -3.9679   -1.6857    0.0000 O   0  0  0  0  0  0  0  0  0  0  0  0
   -5.3065    0.5410    0.0000 O   0  0  0  0  0  0  0  0  0  0  0  0
  1  2  1  0
  2  3  2  0
  2  4  1  0
  4  5  1  6
  4  6  1  0
  6  7  1  0
  7  8  2  0
  7  9  1  0
  1 10  1  0
 10 11  1  0
 11 12  2  0
 11 13  1  0
M  END
>  <rName>  (917) 
Asp-Gly

>  <PQ_SYMBOL>  (917) 
Asp-Gly

>  <FULL_NAME>  (917) 
(S)-3-amino-4-((carboxymethyl)amino)-4-oxobutanoic acid

>  <IUPAC_CONDENSED>  (917) 
Asp-Gly

>  <IUPAC>  (917) 
(3S)-3-amino-3-((2-hydroxy-2-oxoethyl)carbamoyl)propanoic acid

>  <TYPE>  (917) 
Backbone

>  <CLASS>  (917) 
alpha

>  <ANALOG>  (917) 
Gly

>  <MOL_WT>  (917) 
190.155

>  <LOGP>  (917) 
-2.0107999999999997

>  <TPSA>  (917) 
129.72

>  <POPULARITY>  (917) 
14.2

>  <PROTECTED>  (917) 
TRUE

>  <SMILES>  (917) 
N(C(=O)[C@@H](N)CC(=O)O)CC(=O)O

>  <INCHIKEY>  (917) 
JHFNSBBHKSZXKB-VKHMYHEASA-N

$$$$
Asp-NH2
     RDKit          2D

  9  8  0  0  0  0  0  0  0  0999 V2000
   -0.2826   -1.7410    0.0000 N   0  0  0  0  0  0  0  0  0  0  0  0
   -0.5402   -0.2633    0.0000 C   0  0  0  0  0  0  0  0  0  0  0  0
   -1.9487    0.2525    0.0000 C   0  0  0  0  0  0  0  0  0  0  0  0
   -2.2062    1.7302    0.0000 O   0  0  0  0  0  0  0  0  0  0  0  0
   -3.0997   -0.7094    0.0000 N   0  0  0  0  0  0  0  0  0  0  0  0
    0.6108    0.6986    0.0000 C   0  0  0  0  0  0  0  0  0  0  0  0
    2.0193    0.1828    0.0000 C   0  0  0  0  0  0  0  0  0  0  0  0
    2.2769   -1.2950    0.0000 O   0  0  0  0  0  0  0  0  0  0  0  0
    3.1703    1.1447    0.0000 O   0  0  0  0  0  0  0  0  0  0  0  0
  2  1  1  6
  2  3  1  0
  3  4  2  0
  3  5  1  0
  2  6  1  0
  6  7  1  0
  7  8  2  0
  7  9  1  0
M  END
>  <rName>  (918) 
Asp-NH2

>  <PQ_SYMBOL>  (918) 
Asp-NH2

>  <FULL_NAME>  (918) 
(S)-3,4-diamino-4-oxobutanoic acid

>  <IUPAC_CONDENSED>  (918) 
Asp-NH2

>  <IUPAC>  (918) 
(3S)-3-amino-3-carbamoylpropanoic acid

>  <TYPE>  (918) 
Backbone

>  <CLASS>  (918) 
beta

>  <ANALOG>  (918) 
X

>  <MOL_WT>  (918) 
132.119

>  <LOGP>  (918) 
-1.7263000000000002

>  <TPSA>  (918) 
106.41000000000001

>  <POPULARITY>  (918) 
16.6

>  <PROTECTED>  (918) 
TRUE

>  <SMILES>  (918) 
N[C@H](C(=O)N)CC(=O)O

>  <INCHIKEY>  (918) 
PMLJIHNCYNOQEQ-REOHCLBHSA-N

$$$$
Asp-OBn
     RDKit          2D

 16 16  0  0  0  0  0  0  0  0999 V2000
   -2.2343    1.5490    0.0000 N   0  0  0  0  0  0  0  0  0  0  0  0
   -2.3581    0.0541    0.0000 C   0  0  0  0  0  0  0  0  0  0  0  0
   -3.7146   -0.5861    0.0000 C   0  0  0  0  0  0  0  0  0  0  0  0
   -4.9473    0.2685    0.0000 C   0  0  0  0  0  0  0  0  0  0  0  0
   -4.8235    1.7634    0.0000 O   0  0  0  0  0  0  0  0  0  0  0  0
   -6.3038   -0.3717    0.0000 O   0  0  0  0  0  0  0  0  0  0  0  0
   -1.1254   -0.8005    0.0000 C   0  0  0  0  0  0  0  0  0  0  0  0
   -1.2491   -2.2954    0.0000 O   0  0  0  0  0  0  0  0  0  0  0  0
    0.2311   -0.1602    0.0000 O   0  0  0  0  0  0  0  0  0  0  0  0
    1.4639   -1.0149    0.0000 C   0  0  0  0  0  0  0  0  0  0  0  0
    2.8204   -0.3746    0.0000 C   0  0  0  0  0  0  0  0  0  0  0  0
    2.9441    1.1203    0.0000 C   0  0  0  0  0  0  0  0  0  0  0  0
    4.3006    1.7605    0.0000 C   0  0  0  0  0  0  0  0  0  0  0  0
    5.5333    0.9059    0.0000 C   0  0  0  0  0  0  0  0  0  0  0  0
    5.4096   -0.5890    0.0000 C   0  0  0  0  0  0  0  0  0  0  0  0
    4.0531   -1.2293    0.0000 C   0  0  0  0  0  0  0  0  0  0  0  0
  2  1  1  6
  2  3  1  0
  3  4  1  0
  4  5  2  0
  4  6  1  0
  2  7  1  0
  7  8  2  0
  7  9  1  0
  9 10  1  0
 10 11  1  0
 11 12  2  0
 12 13  1  0
 13 14  2  0
 14 15  1  0
 15 16  2  0
 16 11  1  0
M  END
>  <rName>  (919) 
Asp-OBn

>  <PQ_SYMBOL>  (919) 
Asp-OBn

>  <FULL_NAME>  (919) 
L-Aspartic acid alpha-benzyl ester

>  <IUPAC_CONDENSED>  (919) 
Asp-OBn

>  <IUPAC>  (919) 
(3S)-3-amino-3-(benzyloxycarbonyl)propanoic acid

>  <TYPE>  (919) 
C-term cap

>  <CLASS>  (919) 
c_cap

>  <ANALOG>  (919) 
X

>  <MOL_WT>  (919) 
223.22799999999998

>  <LOGP>  (919) 
0.5317999999999996

>  <TPSA>  (919) 
89.62000000000002

>  <POPULARITY>  (919) 
7.6

>  <PROTECTED>  (919) 
TRUE

>  <SMILES>  (919) 
N[C@@H](CC(=O)O)C(=O)OCc1ccccc1

>  <INCHIKEY>  (919) 
NJSRYBIBUXBNSW-VIFPVBQESA-N

$$$$
Asp-OMe
     RDKit          2D

 10  9  0  0  0  0  0  0  0  0999 V2000
    0.1391    1.7243    0.0000 N   0  0  0  0  0  0  0  0  0  0  0  0
   -0.0935    0.2424    0.0000 C   0  0  0  0  0  0  0  0  0  0  0  0
   -1.4930   -0.2972    0.0000 C   0  0  0  0  0  0  0  0  0  0  0  0
   -1.7256   -1.7790    0.0000 O   0  0  0  0  0  0  0  0  0  0  0  0
   -2.6601    0.6451    0.0000 O   0  0  0  0  0  0  0  0  0  0  0  0
   -4.0597    0.1056    0.0000 C   0  0  0  0  0  0  0  0  0  0  0  0
    1.0736   -0.6999    0.0000 C   0  0  0  0  0  0  0  0  0  0  0  0
    2.4732   -0.1603    0.0000 C   0  0  0  0  0  0  0  0  0  0  0  0
    2.7057    1.3216    0.0000 O   0  0  0  0  0  0  0  0  0  0  0  0
    3.6403   -1.1026    0.0000 O   0  0  0  0  0  0  0  0  0  0  0  0
  2  1  1  1
  2  3  1  0
  3  4  2  0
  3  5  1  0
  5  6  1  0
  2  7  1  0
  7  8  1  0
  8  9  2  0
  8 10  1  0
M  END
>  <rName>  (920) 
Asp-OMe

>  <PQ_SYMBOL>  (920) 
Asp-OMe

>  <FULL_NAME>  (920) 
(3~{S})-3-azanyl-4-methoxy-4-oxidanylidene-butanoic acid

>  <IUPAC_CONDENSED>  (920) 
Asp-OMe

>  <IUPAC>  (920) 
(3S)-3-amino-3-(methoxycarbonyl)propanoic acid

>  <TYPE>  (920) 
Backbone

>  <CLASS>  (920) 
beta

>  <ANALOG>  (920) 
X

>  <MOL_WT>  (920) 
147.13

>  <LOGP>  (920) 
-1.0385999999999997

>  <TPSA>  (920) 
89.62000000000002

>  <POPULARITY>  (920) 
25.4

>  <PROTECTED>  (920) 
TRUE

>  <SMILES>  (920) 
N[C@H](C(=O)OC)CC(=O)O

>  <INCHIKEY>  (920) 
SWWBMHIMADRNIK-VKHMYHEASA-N

$$$$
Asp-Oallyl
     RDKit          2D

 12 11  0  0  0  0  0  0  0  0999 V2000
    1.0137    1.6688    0.0000 N   0  0  0  0  0  0  0  0  0  0  0  0
    0.8844    0.1744    0.0000 C   0  0  0  0  0  0  0  0  0  0  0  0
   -0.4745   -0.4608    0.0000 C   0  0  0  0  0  0  0  0  0  0  0  0
   -0.6039   -1.9552    0.0000 O   0  0  0  0  0  0  0  0  0  0  0  0
   -1.7040    0.3985    0.0000 O   0  0  0  0  0  0  0  0  0  0  0  0
   -3.0629   -0.2367    0.0000 C   0  0  0  0  0  0  0  0  0  0  0  0
   -4.2924    0.6225    0.0000 C   0  0  0  0  0  0  0  0  0  0  0  0
   -5.6513   -0.0126    0.0000 C   0  0  0  0  0  0  0  0  0  0  0  0
    2.1139   -0.6849    0.0000 C   0  0  0  0  0  0  0  0  0  0  0  0
    3.4728   -0.0497    0.0000 C   0  0  0  0  0  0  0  0  0  0  0  0
    3.6021    1.4447    0.0000 O   0  0  0  0  0  0  0  0  0  0  0  0
    4.7023   -0.9090    0.0000 O   0  0  0  0  0  0  0  0  0  0  0  0
  2  1  1  1
  2  3  1  0
  3  4  2  0
  3  5  1  0
  5  6  1  0
  6  7  1  0
  7  8  2  0
  2  9  1  0
  9 10  1  0
 10 11  2  0
 10 12  1  0
M  END
>  <rName>  (921) 
Asp-Oallyl

>  <PQ_SYMBOL>  (921) 
Asp-Oallyl

>  <FULL_NAME>  (921) 
(S)-4-(allyloxy)-3-amino-4-oxobutanoic acid

>  <IUPAC_CONDENSED>  (921) 
Asp-Oallyl

>  <IUPAC>  (921) 
(3S)-3-amino-3-(((prop-2-en-1-yl)oxy)carbonyl)propanoic acid

>  <TYPE>  (921) 
Backbone

>  <CLASS>  (921) 
beta

>  <ANALOG>  (921) 
X

>  <MOL_WT>  (921) 
173.16799999999998

>  <LOGP>  (921) 
-0.4824000000000002

>  <TPSA>  (921) 
89.62000000000002

>  <POPULARITY>  (921) 
4.9

>  <PROTECTED>  (921) 
TRUE

>  <SMILES>  (921) 
N[C@H](C(=O)OCC=C)CC(=O)O

>  <INCHIKEY>  (921) 
KHIQYWBMJLMXHH-YFKPBYRVSA-N

$$$$
AspNHOH-phosphoadenosine
     RDKit          2D

 32 34  0  0  0  0  0  0  0  0999 V2000
    7.2061   -1.0666    0.0000 N   0  0  0  0  0  0  0  0  0  0  0  0
    6.2251    0.0682    0.0000 C   0  0  0  0  0  0  0  0  0  0  0  0
    6.7174    1.4851    0.0000 C   0  0  0  0  0  0  0  0  0  0  0  0
    8.1906    1.7673    0.0000 C   0  0  0  0  0  0  0  0  0  0  0  0
    9.1716    0.6325    0.0000 O   0  0  0  0  0  0  0  0  0  0  0  0
    8.6829    3.1842    0.0000 N   0  0  0  0  0  0  0  0  0  0  0  0
   10.1561    3.4664    0.0000 O   0  0  0  0  0  0  0  0  0  0  0  0
    4.7519   -0.2140    0.0000 C   0  0  0  0  0  0  0  0  0  0  0  0
    3.7709    0.9208    0.0000 O   0  0  0  0  0  0  0  0  0  0  0  0
    4.2597   -1.6309    0.0000 O   0  0  0  0  0  0  0  0  0  0  0  0
    2.7864   -1.9131    0.0000 P   0  0  0  0  0  5  0  0  0  0  0  0
    2.5043   -0.4398    0.0000 O   0  0  0  0  0  0  0  0  0  0  0  0
    3.0686   -3.3863    0.0000 O   0  0  0  0  0  0  0  0  0  0  0  0
    1.3132   -2.1952    0.0000 O   0  0  0  0  0  0  0  0  0  0  0  0
    0.3322   -1.0604    0.0000 C   0  0  0  0  0  0  0  0  0  0  0  0
   -1.1410   -1.3426    0.0000 C   0  0  0  0  0  0  0  0  0  0  0  0
   -2.2352   -0.3166    0.0000 O   0  0  0  0  0  0  0  0  0  0  0  0
   -3.5491   -1.0402    0.0000 C   0  0  0  0  0  0  0  0  0  0  0  0
   -3.2670   -2.5134    0.0000 C   0  0  0  0  0  0  0  0  0  0  0  0
   -4.2930   -3.6076    0.0000 O   0  0  0  0  0  0  0  0  0  0  0  0
   -1.7787   -2.7003    0.0000 C   0  0  0  0  0  0  0  0  0  0  0  0
   -1.0551   -4.0142    0.0000 O   0  0  0  0  0  0  0  0  0  0  0  0
   -4.9068   -0.4025    0.0000 N   0  0  0  0  0  0  0  0  0  0  0  0
   -5.1890    1.0707    0.0000 C   0  0  0  0  0  0  0  0  0  0  0  0
   -4.2830    2.2662    0.0000 N   0  0  0  0  0  0  0  0  0  0  0  0
   -4.8653    3.6485    0.0000 C   0  0  0  0  0  0  0  0  0  0  0  0
   -6.3536    3.8355    0.0000 N   0  0  0  0  0  0  0  0  0  0  0  0
   -7.2596    2.6400    0.0000 C   0  0  0  0  0  0  0  0  0  0  0  0
   -8.7479    2.8269    0.0000 N   0  0  0  0  0  0  0  0  0  0  0  0
   -6.6773    1.2576    0.0000 C   0  0  0  0  0  0  0  0  0  0  0  0
   -7.3150   -0.1001    0.0000 N   0  0  0  0  0  0  0  0  0  0  0  0
   -6.2208   -1.1261    0.0000 C   0  0  0  0  0  0  0  0  0  0  0  0
  2  1  1  6
  2  3  1  0
  3  4  1  0
  4  5  2  0
  4  6  1  0
  6  7  1  0
  2  8  1  0
  8  9  2  0
  8 10  1  0
 10 11  1  0
 11 12  2  0
 11 13  1  1
 11 14  1  0
 14 15  1  0
 16 15  1  6
 16 17  1  0
 17 18  1  0
 18 19  1  0
 19 20  1  1
 19 21  1  0
 21 22  1  1
 18 23  1  6
 23 24  1  0
 24 25  2  0
 25 26  1  0
 26 27  2  0
 27 28  1  0
 28 29  1  0
 28 30  2  0
 30 31  1  0
 31 32  2  0
 30 24  1  0
 32 23  1  0
 21 16  1  0
M  END
>  <rName>  (922) 
AspNHOH-phosphoadenosine

>  <PQ_SYMBOL>  (922) 
AspNHOH-phosphoadenosine

>  <FULL_NAME>  (922) 
5'-O-[(R)-{[(2S)-2-amino-4-(hydroxyamino)-4-oxobutanoyl]oxy}(hydroxy)phosphoryl]adenosine

>  <IUPAC_CONDENSED>  (922) 
Asp(NHOH)-phosphoadenosine

>  <IUPAC>  (922) 
[[(2R,3S,4R,5R)-5-(6-aminopurin-9-yl)-3,4-dihydroxy-oxolan-2-yl]methoxy-hydroxy-phosphoryl] (2S)-2-amino-4-(hydroxyamino)-4-oxo-butanoate

>  <TYPE>  (922) 
C-term cap

>  <CLASS>  (922) 
c_cap

>  <ANALOG>  (922) 
X

>  <MOL_WT>  (922) 
477.3270000000001

>  <LOGP>  (922) 
-3.089299999999998

>  <TPSA>  (922) 
267.49

>  <POPULARITY>  (922) 
3.2

>  <PROTECTED>  (922) 
FALSE

>  <SMILES>  (922) 
N[C@@H](CC(=O)NO)C(=O)O[P@](=O)(O)OC[C@H]3O[C@H]([C@H](O)[C@@H]3O)n2c1ncnc(N)c1nc2

>  <INCHIKEY>  (922) 
LNQDDLRGTAFRLA-VWJPMABRSA-N

$$$$
Asp_33diMe
     RDKit          2D

 11 10  0  0  0  0  0  0  0  0999 V2000
   -1.2063    2.1026    0.0000 N   0  0  0  0  0  0  0  0  0  0  0  0
   -0.8727    0.6402    0.0000 C   0  0  0  0  0  0  0  0  0  0  0  0
    0.5605    0.1978    0.0000 C   0  0  0  0  0  0  0  0  0  0  0  0
    1.0029    1.6310    0.0000 C   0  0  0  0  0  0  0  0  0  0  0  0
    0.1181   -1.2355    0.0000 C   0  0  0  0  0  0  0  0  0  0  0  0
    1.9938   -0.2446    0.0000 C   0  0  0  0  0  0  0  0  0  0  0  0
    3.0936    0.7754    0.0000 O   0  0  0  0  0  0  0  0  0  0  0  0
    2.3273   -1.7071    0.0000 O   0  0  0  0  0  0  0  0  0  0  0  0
   -1.9725   -0.3799    0.0000 C   0  0  0  0  0  0  0  0  0  0  0  0
   -1.6390   -1.8424    0.0000 O   0  0  0  0  0  0  0  0  0  0  0  0
   -3.4058    0.0625    0.0000 O   0  0  0  0  0  0  0  0  0  0  0  0
  2  1  1  1
  2  3  1  0
  3  4  1  0
  3  5  1  0
  3  6  1  0
  6  7  2  0
  6  8  1  0
  2  9  1  0
  9 10  2  0
  9 11  1  0
M  END
>  <rName>  (923) 
Asp_33diMe

>  <PQ_SYMBOL>  (923) 
Asp_33diMe

>  <FULL_NAME>  (923) 
3,3-Dimethyl-L-Aspartic acid

>  <IUPAC_CONDENSED>  (923) 
Asp(3,3-diMe)

>  <IUPAC>  (923) 
(2S)-2-amino-3,3-dimethylbutanedioic acid

>  <TYPE>  (923) 
Backbone

>  <CLASS>  (923) 
alpha

>  <ANALOG>  (923) 
Asp

>  <MOL_WT>  (923) 
161.15699999999998

>  <LOGP>  (923) 
-0.4908999999999997

>  <TPSA>  (923) 
100.62000000000002

>  <POPULARITY>  (923) 
12.7

>  <PROTECTED>  (923) 
TRUE

>  <SMILES>  (923) 
N[C@@H](C(C)(C)C(=O)O)C(=O)O

>  <INCHIKEY>  (923) 
NWZACHOBRMGGPL-GSVOUGTGSA-N

$$$$
Asp_3ROH
     RDKit          2D

 10  9  0  0  0  0  0  0  0  0999 V2000
    0.3742    1.9487    0.0000 N   0  0  0  0  0  0  0  0  0  0  0  0
    0.5891    0.4642    0.0000 C   0  0  0  0  0  0  0  0  0  0  0  0
   -0.5891   -0.4642    0.0000 C   0  0  0  0  0  0  0  0  0  0  0  0
   -0.3742   -1.9487    0.0000 O   0  0  0  0  0  0  0  0  0  0  0  0
   -1.9822    0.0920    0.0000 C   0  0  0  0  0  0  0  0  0  0  0  0
   -2.1971    1.5765    0.0000 O   0  0  0  0  0  0  0  0  0  0  0  0
   -3.1604   -0.8364    0.0000 O   0  0  0  0  0  0  0  0  0  0  0  0
    1.9822   -0.0920    0.0000 C   0  0  0  0  0  0  0  0  0  0  0  0
    2.1971   -1.5765    0.0000 O   0  0  0  0  0  0  0  0  0  0  0  0
    3.1604    0.8364    0.0000 O   0  0  0  0  0  0  0  0  0  0  0  0
  2  1  1  6
  2  3  1  0
  3  4  1  1
  3  5  1  0
  5  6  2  0
  5  7  1  0
  2  8  1  0
  8  9  2  0
  8 10  1  0
M  END
>  <rName>  (924) 
Asp_3ROH

>  <PQ_SYMBOL>  (924) 
Asp_3ROH

>  <FULL_NAME>  (924) 
(2S,3R)-Hydroxy-L-Aspartic acid

>  <IUPAC_CONDENSED>  (924) 
Asp(3R-OH)

>  <IUPAC>  (924) 
(2S,3R)-2-amino-3-hydroxybutanedioic acid

>  <TYPE>  (924) 
Backbone

>  <CLASS>  (924) 
alpha

>  <ANALOG>  (924) 
Asp

>  <MOL_WT>  (924) 
149.102

>  <LOGP>  (924) 
-2.1561999999999997

>  <TPSA>  (924) 
120.85000000000001

>  <POPULARITY>  (924) 
15.3

>  <PROTECTED>  (924) 
TRUE

>  <SMILES>  (924) 
N[C@@H]([C@@H](O)C(=O)O)C(=O)O

>  <INCHIKEY>  (924) 
YYLQUHNPNCGKJQ-NHYDCYSISA-N

$$$$
Asp_OMe
     RDKit          2D

 10  9  0  0  0  0  0  0  0  0999 V2000
    0.8391   -1.7602    0.0000 N   0  0  0  0  0  0  0  0  0  0  0  0
    1.0145   -0.2705    0.0000 C   0  0  0  0  0  0  0  0  0  0  0  0
   -0.1878    0.6263    0.0000 C   0  0  0  0  0  0  0  0  0  0  0  0
   -1.5657    0.0334    0.0000 C   0  0  0  0  0  0  0  0  0  0  0  0
   -1.7412   -1.4563    0.0000 O   0  0  0  0  0  0  0  0  0  0  0  0
   -2.7681    0.9302    0.0000 O   0  0  0  0  0  0  0  0  0  0  0  0
   -4.1459    0.3373    0.0000 C   0  0  0  0  0  0  0  0  0  0  0  0
    2.3924    0.3223    0.0000 C   0  0  0  0  0  0  0  0  0  0  0  0
    2.5679    1.8120    0.0000 O   0  0  0  0  0  0  0  0  0  0  0  0
    3.5948   -0.5745    0.0000 O   0  0  0  0  0  0  0  0  0  0  0  0
  2  1  1  1
  2  3  1  0
  3  4  1  0
  4  5  2  0
  4  6  1  0
  6  7  1  0
  2  8  1  0
  8  9  2  0
  8 10  1  0
M  END
>  <rName>  (925) 
Asp_OMe

>  <PQ_SYMBOL>  (925) 
Asp_OMe

>  <FULL_NAME>  (925) 
4-Methyl hydrogen L-aspartate

>  <IUPAC_CONDENSED>  (925) 
Asp(OMe)

>  <IUPAC>  (925) 
(2S)-2-amino-3-(methoxycarbonyl)propanoic acid

>  <TYPE>  (925) 
Backbone

>  <CLASS>  (925) 
alpha

>  <ANALOG>  (925) 
Asp

>  <MOL_WT>  (925) 
147.13

>  <LOGP>  (925) 
-1.0386000000000002

>  <TPSA>  (925) 
89.62000000000002

>  <POPULARITY>  (925) 
22.6

>  <PROTECTED>  (925) 
TRUE

>  <SMILES>  (925) 
N[C@@H](CC(=O)OC)C(=O)O

>  <INCHIKEY>  (925) 
SBRYFUVVWOMLLP-VKHMYHEASA-N

$$$$
Asp_Oallyl
     RDKit          2D

 12 11  0  0  0  0  0  0  0  0999 V2000
    1.9988   -1.7558    0.0000 N   0  0  0  0  0  0  0  0  0  0  0  0
    2.0493   -0.2567    0.0000 C   0  0  0  0  0  0  0  0  0  0  0  0
    0.7763    0.5367    0.0000 C   0  0  0  0  0  0  0  0  0  0  0  0
   -0.5473   -0.1692    0.0000 C   0  0  0  0  0  0  0  0  0  0  0  0
   -0.5978   -1.6683    0.0000 O   0  0  0  0  0  0  0  0  0  0  0  0
   -1.8203    0.6242    0.0000 O   0  0  0  0  0  0  0  0  0  0  0  0
   -3.1439   -0.0816    0.0000 C   0  0  0  0  0  0  0  0  0  0  0  0
   -4.4169    0.7117    0.0000 C   0  0  0  0  0  0  0  0  0  0  0  0
   -5.7405    0.0059    0.0000 C   0  0  0  0  0  0  0  0  0  0  0  0
    3.3729    0.4491    0.0000 C   0  0  0  0  0  0  0  0  0  0  0  0
    3.4234    1.9483    0.0000 O   0  0  0  0  0  0  0  0  0  0  0  0
    4.6459   -0.3442    0.0000 O   0  0  0  0  0  0  0  0  0  0  0  0
  2  1  1  1
  2  3  1  0
  3  4  1  0
  4  5  2  0
  4  6  1  0
  6  7  1  0
  7  8  1  0
  8  9  2  0
  2 10  1  0
 10 11  2  0
 10 12  1  0
M  END
>  <rName>  (926) 
Asp_Oallyl

>  <PQ_SYMBOL>  (926) 
Asp_Oallyl

>  <FULL_NAME>  (926) 
(S)-4-(allyloxy)-2-amino-4-oxobutanoic acid

>  <IUPAC_CONDENSED>  (926) 
Asp(Oallyl)

>  <IUPAC>  (926) 
(2S)-2-amino-3-(((prop-2-en-1-yl)oxy)carbonyl)propanoic acid

>  <TYPE>  (926) 
Backbone

>  <CLASS>  (926) 
alpha

>  <ANALOG>  (926) 
Asp

>  <MOL_WT>  (926) 
173.16799999999998

>  <LOGP>  (926) 
-0.4824000000000002

>  <TPSA>  (926) 
89.62000000000002

>  <POPULARITY>  (926) 
4.7

>  <PROTECTED>  (926) 
TRUE

>  <SMILES>  (926) 
N[C@@H](CC(=O)OCC=C)C(=O)O

>  <INCHIKEY>  (926) 
NJVZTIBJVLBLOL-YFKPBYRVSA-N

$$$$
Asp_PEG3biotinyl
     RDKit          2D

 38 39  0  0  0  0  0  0  0  0999 V2000
  -16.5767   -1.3075    0.0000 N   0  0  0  0  0  0  0  0  0  0  0  0
  -16.4827    0.1896    0.0000 C   0  0  0  0  0  0  0  0  0  0  0  0
  -15.1392    0.8567    0.0000 C   0  0  0  0  0  0  0  0  0  0  0  0
  -13.8897    0.0268    0.0000 C   0  0  0  0  0  0  0  0  0  0  0  0
  -13.9837   -1.4702    0.0000 O   0  0  0  0  0  0  0  0  0  0  0  0
  -12.5463    0.6939    0.0000 N   0  0  0  0  0  0  0  0  0  0  0  0
  -11.2968   -0.1360    0.0000 C   0  0  0  0  0  0  0  0  0  0  0  0
   -9.9533    0.5311    0.0000 C   0  0  0  0  0  0  0  0  0  0  0  0
   -8.7038   -0.2988    0.0000 C   0  0  0  0  0  0  0  0  0  0  0  0
   -7.3603    0.3684    0.0000 O   0  0  0  0  0  0  0  0  0  0  0  0
   -6.1108   -0.4616    0.0000 C   0  0  0  0  0  0  0  0  0  0  0  0
   -4.7674    0.2056    0.0000 C   0  0  0  0  0  0  0  0  0  0  0  0
   -3.5179   -0.6243    0.0000 O   0  0  0  0  0  0  0  0  0  0  0  0
   -2.1744    0.0428    0.0000 C   0  0  0  0  0  0  0  0  0  0  0  0
   -0.9249   -0.7871    0.0000 C   0  0  0  0  0  0  0  0  0  0  0  0
    0.4186   -0.1200    0.0000 O   0  0  0  0  0  0  0  0  0  0  0  0
    1.6681   -0.9499    0.0000 C   0  0  0  0  0  0  0  0  0  0  0  0
    3.0116   -0.2828    0.0000 C   0  0  0  0  0  0  0  0  0  0  0  0
    4.2611   -1.1127    0.0000 C   0  0  0  0  0  0  0  0  0  0  0  0
    5.6045   -0.4456    0.0000 N   0  0  0  0  0  0  0  0  0  0  0  0
    6.8540   -1.2755    0.0000 C   0  0  0  0  0  0  0  0  0  0  0  0
    6.7600   -2.7726    0.0000 O   0  0  0  0  0  0  0  0  0  0  0  0
    8.1975   -0.6084    0.0000 C   0  0  0  0  0  0  0  0  0  0  0  0
    9.4470   -1.4383    0.0000 C   0  0  0  0  0  0  0  0  0  0  0  0
   10.7905   -0.7712    0.0000 C   0  0  0  0  0  0  0  0  0  0  0  0
   12.0400   -1.6011    0.0000 C   0  0  0  0  0  0  0  0  0  0  0  0
   13.3834   -0.9339    0.0000 C   0  0  0  0  0  0  0  0  0  0  0  0
   14.7128   -1.6287    0.0000 S   0  0  0  0  0  0  0  0  0  0  0  0
   15.7844   -0.5791    0.0000 C   0  0  0  0  0  0  0  0  0  0  0  0
   15.1173    0.7644    0.0000 C   0  0  0  0  0  0  0  0  0  0  0  0
   15.3672    2.2434    0.0000 N   0  0  0  0  0  0  0  0  0  0  0  0
   14.0378    2.9382    0.0000 C   0  0  0  0  0  0  0  0  0  0  0  0
   13.8185    4.4221    0.0000 O   0  0  0  0  0  0  0  0  0  0  0  0
   12.9663    1.8886    0.0000 N   0  0  0  0  0  0  0  0  0  0  0  0
   13.6334    0.5451    0.0000 C   0  0  0  0  0  0  0  0  0  0  0  0
  -17.7322    1.0195    0.0000 C   0  0  0  0  0  0  0  0  0  0  0  0
  -17.6382    2.5166    0.0000 O   0  0  0  0  0  0  0  0  0  0  0  0
  -19.0757    0.3524    0.0000 O   0  0  0  0  0  0  0  0  0  0  0  0
  2  1  1  6
  2  3  1  0
  3  4  1  0
  4  5  2  0
  4  6  1  0
  6  7  1  0
  7  8  1  0
  8  9  1  0
  9 10  1  0
 10 11  1  0
 11 12  1  0
 12 13  1  0
 13 14  1  0
 14 15  1  0
 15 16  1  0
 16 17  1  0
 17 18  1  0
 18 19  1  0
 19 20  1  0
 20 21  1  0
 21 22  2  0
 21 23  1  0
 23 24  1  0
 24 25  1  0
 25 26  1  0
 27 26  1  1
 27 28  1  0
 28 29  1  0
 30 29  1  1
 30 31  1  0
 31 32  1  0
 32 33  2  0
 32 34  1  0
 35 34  1  1
  2 36  1  0
 36 37  2  0
 36 38  1  0
 35 27  1  0
 35 30  1  0
M  END
>  <rName>  (927) 
Asp_PEG3biotinyl

>  <PQ_SYMBOL>  (927) 
Asp_PEG3biotinyl

>  <FULL_NAME>  (927) 
Asp(PEG3-biotinyl)

>  <IUPAC_CONDENSED>  (927) 
Asp(PEG3-biotinyl)

>  <IUPAC>  (927) 
(2S)-2-amino-3-((3-((2-((2-((3-(4-((1S,2S,5R)-7-oxo-3-thia-6,8-diazabicyclo[3.3.0]octan-2-yl)butylcarbonylamino)propyl)oxy)ethyl)oxy)ethyl)oxy)propyl)carbamoyl)propanoic acid

>  <TYPE>  (927) 
Backbone

>  <CLASS>  (927) 
alpha

>  <ANALOG>  (927) 
Arg

>  <MOL_WT>  (927) 
561.7020000000003

>  <LOGP>  (927) 
-0.4233999999999936

>  <TPSA>  (927) 
190.34

>  <POPULARITY>  (927) 
2.2

>  <PROTECTED>  (927) 
TRUE

>  <SMILES>  (927) 
N[C@@H](CC(=O)NCCCOCCOCCOCCCNC(=O)CCCC[C@@H]1(SC[C@@H]2(NC(=O)N[C@H]12)))C(=O)O

>  <INCHIKEY>  (927) 
WGEBBUDMCYARGF-OZIGNCPNSA-N

$$$$
Asp_Ph_2NH2
     RDKit          2D

 15 15  0  0  0  0  0  0  0  0999 V2000
   -2.7298   -1.7488    0.0000 N   0  0  0  0  0  0  0  0  0  0  0  0
   -2.5580   -0.2586    0.0000 C   0  0  0  0  0  0  0  0  0  0  0  0
   -1.1815    0.3376    0.0000 C   0  0  0  0  0  0  0  0  0  0  0  0
    0.0230   -0.5563    0.0000 C   0  0  0  0  0  0  0  0  0  0  0  0
   -0.1488   -2.0464    0.0000 O   0  0  0  0  0  0  0  0  0  0  0  0
    1.3994    0.0399    0.0000 C   0  0  0  0  0  0  0  0  0  0  0  0
    1.5713    1.5300    0.0000 C   0  0  0  0  0  0  0  0  0  0  0  0
    2.9477    2.1263    0.0000 C   0  0  0  0  0  0  0  0  0  0  0  0
    4.1523    1.2324    0.0000 C   0  0  0  0  0  0  0  0  0  0  0  0
    3.9804   -0.2577    0.0000 C   0  0  0  0  0  0  0  0  0  0  0  0
    2.6040   -0.8540    0.0000 C   0  0  0  0  0  0  0  0  0  0  0  0
    2.4321   -2.3441    0.0000 N   0  0  0  0  0  0  0  0  0  0  0  0
   -3.7625    0.6353    0.0000 C   0  0  0  0  0  0  0  0  0  0  0  0
   -3.5906    2.1254    0.0000 O   0  0  0  0  0  0  0  0  0  0  0  0
   -5.1389    0.0390    0.0000 O   0  0  0  0  0  0  0  0  0  0  0  0
  2  1  1  6
  2  3  1  0
  3  4  1  0
  4  5  2  0
  4  6  1  0
  6  7  2  0
  7  8  1  0
  8  9  2  0
  9 10  1  0
 10 11  2  0
 11 12  1  0
  2 13  1  0
 13 14  2  0
 13 15  1  0
 11  6  1  0
M  END
>  <rName>  (928) 
Asp_Ph_2NH2

>  <PQ_SYMBOL>  (928) 
Asp_Ph_2NH2

>  <FULL_NAME>  (928) 
L-Kynurenine

>  <IUPAC_CONDENSED>  (928) 
Asp(Ph(2-NH2))

>  <IUPAC>  (928) 
(2S)-2-amino-4-(2-aminophenyl)-4-oxobutanoic acid

>  <TYPE>  (928) 
Backbone

>  <CLASS>  (928) 
alpha

>  <ANALOG>  (928) 
Phe

>  <MOL_WT>  (928) 
208.21699999999996

>  <LOGP>  (928) 
0.2535000000000001

>  <TPSA>  (928) 
106.41000000000001

>  <POPULARITY>  (928) 
21.3

>  <PROTECTED>  (928) 
TRUE

>  <SMILES>  (928) 
N[C@@H](CC(=O)c1(ccccc1N))C(=O)O

>  <INCHIKEY>  (928) 
YGPSJZOEDVAXAB-QMMMGPOBSA-N

$$$$
Asp_piperidino
     RDKit          2D

 14 14  0  0  0  0  0  0  0  0999 V2000
   -2.6678   -1.7574    0.0000 N   0  0  0  0  0  0  0  0  0  0  0  0
   -2.4057   -0.2804    0.0000 C   0  0  0  0  0  0  0  0  0  0  0  0
   -0.9956    0.2311    0.0000 C   0  0  0  0  0  0  0  0  0  0  0  0
    0.1524   -0.7344    0.0000 C   0  0  0  0  0  0  0  0  0  0  0  0
   -0.1097   -2.2113    0.0000 O   0  0  0  0  0  0  0  0  0  0  0  0
    1.5625   -0.2228    0.0000 N   0  0  0  0  0  0  0  0  0  0  0  0
    1.8246    1.2541    0.0000 C   0  0  0  0  0  0  0  0  0  0  0  0
    3.2347    1.7656    0.0000 C   0  0  0  0  0  0  0  0  0  0  0  0
    4.3827    0.8002    0.0000 C   0  0  0  0  0  0  0  0  0  0  0  0
    4.1206   -0.6768    0.0000 C   0  0  0  0  0  0  0  0  0  0  0  0
    2.7105   -1.1883    0.0000 C   0  0  0  0  0  0  0  0  0  0  0  0
   -3.5537    0.6850    0.0000 C   0  0  0  0  0  0  0  0  0  0  0  0
   -3.2917    2.1619    0.0000 O   0  0  0  0  0  0  0  0  0  0  0  0
   -4.9638    0.1735    0.0000 O   0  0  0  0  0  0  0  0  0  0  0  0
  2  1  1  6
  2  3  1  0
  3  4  1  0
  4  5  2  0
  4  6  1  0
  6  7  1  0
  7  8  1  0
  8  9  1  0
  9 10  1  0
 10 11  1  0
  2 12  1  0
 12 13  2  0
 12 14  1  0
 11  6  1  0
M  END
>  <rName>  (929) 
Asp_piperidino

>  <PQ_SYMBOL>  (929) 
Asp_piperidino

>  <FULL_NAME>  (929) 
(2S)-2-amino-4-oxo-4-(piperidin-1-yl)butanoic acid

>  <IUPAC_CONDENSED>  (929) 
Asp(piperidino)

>  <IUPAC>  (929) 
(2S)-2-amino-4-oxo-4-(piperidin-1-yl)butanoic acid

>  <TYPE>  (929) 
N-term cap

>  <CLASS>  (929) 
n_cap

>  <ANALOG>  (929) 
X

>  <MOL_WT>  (929) 
200.23799999999997

>  <LOGP>  (929) 
-0.19910000000000033

>  <TPSA>  (929) 
83.63000000000001

>  <POPULARITY>  (929) 
3.8

>  <PROTECTED>  (929) 
FALSE

>  <SMILES>  (929) 
N[C@@H](CC(=O)N1(CCCCC1))C(=O)O

>  <INCHIKEY>  (929) 
DFQJEDOASBZINA-ZETCQYMHSA-N

$$$$
Asu
     RDKit          2D

 13 12  0  0  0  0  0  0  0  0999 V2000
   -2.9072    1.8790    0.0000 N   0  0  0  0  0  0  0  0  0  0  0  0
   -2.9824    0.3808    0.0000 C   0  0  0  0  0  0  0  0  0  0  0  0
   -1.7226   -0.4334    0.0000 C   0  0  0  0  0  0  0  0  0  0  0  0
   -0.3876    0.2505    0.0000 C   0  0  0  0  0  0  0  0  0  0  0  0
    0.8722   -0.5637    0.0000 C   0  0  0  0  0  0  0  0  0  0  0  0
    2.2072    0.1202    0.0000 C   0  0  0  0  0  0  0  0  0  0  0  0
    3.4670   -0.6940    0.0000 C   0  0  0  0  0  0  0  0  0  0  0  0
    4.8020   -0.0101    0.0000 C   0  0  0  0  0  0  0  0  0  0  0  0
    4.8772    1.4880    0.0000 O   0  0  0  0  0  0  0  0  0  0  0  0
    6.0618   -0.8243    0.0000 O   0  0  0  0  0  0  0  0  0  0  0  0
   -4.3175   -0.3030    0.0000 C   0  0  0  0  0  0  0  0  0  0  0  0
   -4.3927   -1.8012    0.0000 O   0  0  0  0  0  0  0  0  0  0  0  0
   -5.5772    0.5112    0.0000 O   0  0  0  0  0  0  0  0  0  0  0  0
  2  1  1  1
  2  3  1  0
  3  4  1  0
  4  5  1  0
  5  6  1  0
  6  7  1  0
  7  8  1  0
  8  9  2  0
  8 10  1  0
  2 11  1  0
 11 12  2  0
 11 13  1  0
M  END
>  <rName>  (930) 
Asu

>  <PQ_SYMBOL>  (930) 
Asu

>  <FULL_NAME>  (930) 
(S)-2-Aminooctanedioic acid

>  <IUPAC_CONDENSED>  (930) 
Asu

>  <IUPAC>  (930) 
(2S)-2-aminooctanedioic acid

>  <TYPE>  (930) 
Backbone

>  <CLASS>  (930) 
alpha

>  <ANALOG>  (930) 
X

>  <MOL_WT>  (930) 
189.211

>  <LOGP>  (930) 
0.43339999999999945

>  <TPSA>  (930) 
100.62000000000002

>  <POPULARITY>  (930) 
22.5

>  <PROTECTED>  (930) 
TRUE

>  <SMILES>  (930) 
N[C@@H](CCCCCC(=O)O)C(=O)O

>  <INCHIKEY>  (930) 
YOFPFYYTUIARDI-LURJTMIESA-N

$$$$
Asu_Oallyl
     RDKit          2D

 16 15  0  0  0  0  0  0  0  0999 V2000
    4.5859   -1.8424    0.0000 N   0  0  0  0  0  0  0  0  0  0  0  0
    4.6211   -0.3428    0.0000 C   0  0  0  0  0  0  0  0  0  0  0  0
    3.3400    0.4374    0.0000 C   0  0  0  0  0  0  0  0  0  0  0  0
    2.0237   -0.2819    0.0000 C   0  0  0  0  0  0  0  0  0  0  0  0
    0.7426    0.4983    0.0000 C   0  0  0  0  0  0  0  0  0  0  0  0
   -0.5737   -0.2210    0.0000 C   0  0  0  0  0  0  0  0  0  0  0  0
   -1.8548    0.5593    0.0000 C   0  0  0  0  0  0  0  0  0  0  0  0
   -3.1710   -0.1601    0.0000 C   0  0  0  0  0  0  0  0  0  0  0  0
   -3.2062   -1.6596    0.0000 O   0  0  0  0  0  0  0  0  0  0  0  0
   -4.4521    0.6202    0.0000 O   0  0  0  0  0  0  0  0  0  0  0  0
   -5.7684   -0.0991    0.0000 C   0  0  0  0  0  0  0  0  0  0  0  0
   -7.0495    0.6811    0.0000 C   0  0  0  0  0  0  0  0  0  0  0  0
   -8.3658   -0.0382    0.0000 C   0  0  0  0  0  0  0  0  0  0  0  0
    5.9373    0.3765    0.0000 C   0  0  0  0  0  0  0  0  0  0  0  0
    5.9725    1.8761    0.0000 O   0  0  0  0  0  0  0  0  0  0  0  0
    7.2184   -0.4038    0.0000 O   0  0  0  0  0  0  0  0  0  0  0  0
  2  1  1  1
  2  3  1  0
  3  4  1  0
  4  5  1  0
  5  6  1  0
  6  7  1  0
  7  8  1  0
  8  9  2  0
  8 10  1  0
 10 11  1  0
 11 12  1  0
 12 13  2  0
  2 14  1  0
 14 15  2  0
 14 16  1  0
M  END
>  <rName>  (931) 
Asu_Oallyl

>  <PQ_SYMBOL>  (931) 
Asu_Oallyl

>  <FULL_NAME>  (931) 
(S)-8-(allyloxy)-2-amino-8-oxooctanoic acid

>  <IUPAC_CONDENSED>  (931) 
Asu(Oallyl)

>  <IUPAC>  (931) 
(2S)-2-amino-7-(((prop-2-en-1-yl)oxy)carbonyl)heptanoic acid

>  <TYPE>  (931) 
Backbone

>  <CLASS>  (931) 
alpha

>  <ANALOG>  (931) 
X

>  <MOL_WT>  (931) 
229.27599999999998

>  <LOGP>  (931) 
1.0779999999999998

>  <TPSA>  (931) 
89.62000000000002

>  <POPULARITY>  (931) 
3.6

>  <PROTECTED>  (931) 
TRUE

>  <SMILES>  (931) 
N[C@@H](CCCCCC(=O)OCC=C)C(=O)O

>  <INCHIKEY>  (931) 
QEAPIOKHHBBIOG-VIFPVBQESA-N

$$$$
Aze
     RDKit          2D

  7  7  0  0  0  0  0  0  0  0999 V2000
    1.3117   -1.0607    0.0000 N   0  0  0  0  0  0  0  0  0  0  0  0
    0.2511    0.0000    0.0000 C   0  0  0  0  0  0  0  0  0  0  0  0
    1.3117    1.0607    0.0000 C   0  0  0  0  0  0  0  0  0  0  0  0
    2.3724    0.0000    0.0000 C   0  0  0  0  0  0  0  0  0  0  0  0
   -1.2489   -0.0000    0.0000 C   0  0  0  0  0  0  0  0  0  0  0  0
   -1.9989   -1.2990    0.0000 O   0  0  0  0  0  0  0  0  0  0  0  0
   -1.9989    1.2990    0.0000 O   0  0  0  0  0  0  0  0  0  0  0  0
  1  2  1  0
  2  3  1  0
  3  4  1  0
  2  5  1  6
  5  6  2  0
  5  7  1  0
  4  1  1  0
M  END
>  <rName>  (932) 
Aze

>  <PQ_SYMBOL>  (932) 
Aze

>  <FULL_NAME>  (932) 
L-Azetidine-2-carboxylic acid

>  <IUPAC_CONDENSED>  (932) 
Aze

>  <IUPAC>  (932) 
(2S)azetidine-2-carboxylic acid

>  <TYPE>  (932) 
Backbone

>  <CLASS>  (932) 
alpha

>  <ANALOG>  (932) 
Pro

>  <MOL_WT>  (932) 
101.10499999999999

>  <LOGP>  (932) 
-0.5671000000000002

>  <TPSA>  (932) 
49.33

>  <POPULARITY>  (932) 
31.2

>  <PROTECTED>  (932) 
TRUE

>  <SMILES>  (932) 
N1[C@@H](CC1)C(=O)O

>  <INCHIKEY>  (932) 
IADUEWIQBXOCDZ-VKHMYHEASA-N

$$$$
Aze_3SPh
     RDKit          2D

 13 14  0  0  0  0  0  0  0  0999 V2000
   -2.4442   -1.7714    0.0000 N   0  0  0  0  0  0  0  0  0  0  0  0
   -1.8678   -0.3866    0.0000 C   0  0  0  0  0  0  0  0  0  0  0  0
   -0.4829   -0.9630    0.0000 C   0  0  0  0  0  0  0  0  0  0  0  0
   -1.0593   -2.3479    0.0000 C   0  0  0  0  0  0  0  0  0  0  0  0
    0.9039   -0.3914    0.0000 C   0  0  0  0  0  0  0  0  0  0  0  0
    2.0923   -1.3066    0.0000 C   0  0  0  0  0  0  0  0  0  0  0  0
    3.4791   -0.7349    0.0000 C   0  0  0  0  0  0  0  0  0  0  0  0
    3.6775    0.7519    0.0000 C   0  0  0  0  0  0  0  0  0  0  0  0
    2.4890    1.6671    0.0000 C   0  0  0  0  0  0  0  0  0  0  0  0
    1.1022    1.0954    0.0000 C   0  0  0  0  0  0  0  0  0  0  0  0
   -2.4394    1.0002    0.0000 C   0  0  0  0  0  0  0  0  0  0  0  0
   -1.5242    2.1886    0.0000 O   0  0  0  0  0  0  0  0  0  0  0  0
   -3.9262    1.1985    0.0000 O   0  0  0  0  0  0  0  0  0  0  0  0
  1  2  1  0
  2  3  1  0
  3  4  1  0
  3  5  1  1
  5  6  2  0
  6  7  1  0
  7  8  2  0
  8  9  1  0
  9 10  2  0
  2 11  1  6
 11 12  2  0
 11 13  1  0
  4  1  1  0
 10  5  1  0
M  END
>  <rName>  (933) 
Aze_3SPh

>  <PQ_SYMBOL>  (933) 
Aze_3SPh

>  <FULL_NAME>  (933) 
(2S,3S)-3-phenylazetidine-2-carboxylic acid

>  <IUPAC_CONDENSED>  (933) 
Aze(3S-Ph)

>  <IUPAC>  (933) 
(2S,3S)-3-phenylazetidine-2-carboxylic acid

>  <TYPE>  (933) 
Backbone

>  <CLASS>  (933) 
alpha

>  <ANALOG>  (933) 
Pro

>  <MOL_WT>  (933) 
177.20299999999997

>  <LOGP>  (933) 
0.8266

>  <TPSA>  (933) 
49.33

>  <POPULARITY>  (933) 
6.2

>  <PROTECTED>  (933) 
TRUE

>  <SMILES>  (933) 
N1[C@@H]([C@H](C1)c2(ccccc2))C(=O)O

>  <INCHIKEY>  (933) 
CCKKROBXZIZREN-BDAKNGLRSA-N

$$$$
Aze_b_bdiMe
     RDKit          2D

  9  9  0  0  0  0  0  0  0  0999 V2000
    0.4621   -1.7817    0.0000 N   0  0  0  0  0  0  0  0  0  0  0  0
   -0.1926   -0.4322    0.0000 C   0  0  0  0  0  0  0  0  0  0  0  0
    1.1569    0.2226    0.0000 C   0  0  0  0  0  0  0  0  0  0  0  0
    0.5022    1.5721    0.0000 C   0  0  0  0  0  0  0  0  0  0  0  0
    2.5065    0.8773    0.0000 C   0  0  0  0  0  0  0  0  0  0  0  0
    1.8117   -1.1270    0.0000 C   0  0  0  0  0  0  0  0  0  0  0  0
   -1.6099    0.0592    0.0000 C   0  0  0  0  0  0  0  0  0  0  0  0
   -1.8930    1.5322    0.0000 O   0  0  0  0  0  0  0  0  0  0  0  0
   -2.7440   -0.9226    0.0000 O   0  0  0  0  0  0  0  0  0  0  0  0
  1  2  1  0
  2  3  1  0
  3  4  1  0
  3  5  1  0
  3  6  1  0
  2  7  1  6
  7  8  2  0
  7  9  1  0
  6  1  1  0
M  END
>  <rName>  (934) 
Aze_b_bdiMe

>  <PQ_SYMBOL>  (934) 
Aze_b_bdiMe

>  <FULL_NAME>  (934) 
(S)-3,3-dimethylazetidine-2-carboxylic acid

>  <IUPAC_CONDENSED>  (934) 
Aze(b,b-diMe)

>  <IUPAC>  (934) 
(2S)-3,3-dimethylazetidine-2-carboxylic acid

>  <TYPE>  (934) 
Backbone

>  <CLASS>  (934) 
alpha

>  <ANALOG>  (934) 
Pro

>  <MOL_WT>  (934) 
129.159

>  <LOGP>  (934) 
0.06899999999999967

>  <TPSA>  (934) 
49.33

>  <POPULARITY>  (934) 
7.3

>  <PROTECTED>  (934) 
TRUE

>  <SMILES>  (934) 
N1[C@@H](C(C)(C)C1)C(=O)O

>  <INCHIKEY>  (934) 
AWQHNYKQPOONLR-SCSAIBSYSA-N

$$$$
Azi
     RDKit          2D

  6  6  0  0  0  0  0  0  0  0999 V2000
   -1.8660   -0.7500    0.0000 N   0  0  0  0  0  0  0  0  0  0  0  0
   -0.5670   -0.0000    0.0000 C   0  0  0  0  0  0  0  0  0  0  0  0
   -1.8660    0.7500    0.0000 C   0  0  0  0  0  0  0  0  0  0  0  0
    0.9330    0.0000    0.0000 C   0  0  0  0  0  0  0  0  0  0  0  0
    1.6830    1.2990    0.0000 O   0  0  0  0  0  0  0  0  0  0  0  0
    1.6830   -1.2990    0.0000 O   0  0  0  0  0  0  0  0  0  0  0  0
  1  2  1  0
  2  3  1  0
  2  4  1  1
  4  5  2  0
  4  6  1  0
  3  1  1  0
M  END
>  <rName>  (935) 
Azi

>  <PQ_SYMBOL>  (935) 
Azi

>  <FULL_NAME>  (935) 
(2S)-aziridine-2-carboxylic acid

>  <IUPAC_CONDENSED>  (935) 
Azi

>  <IUPAC>  (935) 
(2S)-aziridine-2-carboxylic acid

>  <TYPE>  (935) 
Backbone

>  <CLASS>  (935) 
alpha

>  <ANALOG>  (935) 
Ala

>  <MOL_WT>  (935) 
87.07799999999999

>  <LOGP>  (935) 
-0.9572

>  <TPSA>  (935) 
59.24000000000001

>  <POPULARITY>  (935) 
10.4

>  <PROTECTED>  (935) 
TRUE

>  <SMILES>  (935) 
N1[C@@H](C1)C(=O)O

>  <INCHIKEY>  (935) 
WBGBOXYJYPVLQJ-REOHCLBHSA-N

$$$$
AziCO2Et-OEt
     RDKit          2D

 13 13  0  0  0  0  0  0  0  0999 V2000
    0.3026   -2.2949    0.0000 N   0  0  0  0  0  0  0  0  0  0  0  0
    0.6920   -0.8463    0.0000 C   0  0  0  0  0  0  0  0  0  0  0  0
   -0.7572   -1.2334    0.0000 C   0  0  0  0  0  0  0  0  0  0  0  0
   -2.2057   -0.8440    0.0000 C   0  0  0  0  0  0  0  0  0  0  0  0
   -3.2673   -1.9038    0.0000 O   0  0  0  0  0  0  0  0  0  0  0  0
   -2.5928    0.6052    0.0000 O   0  0  0  0  0  0  0  0  0  0  0  0
   -4.0414    0.9946    0.0000 C   0  0  0  0  0  0  0  0  0  0  0  0
   -4.4284    2.4439    0.0000 C   0  0  0  0  0  0  0  0  0  0  0  0
    1.7536    0.2135    0.0000 C   0  0  0  0  0  0  0  0  0  0  0  0
    1.3665    1.6627    0.0000 O   0  0  0  0  0  0  0  0  0  0  0  0
    3.2021   -0.1759    0.0000 O   0  0  0  0  0  0  0  0  0  0  0  0
    4.2637    0.8839    0.0000 C   0  0  0  0  0  0  0  0  0  0  0  0
    5.7122    0.4945    0.0000 C   0  0  0  0  0  0  0  0  0  0  0  0
  1  2  1  0
  2  3  1  0
  3  4  1  6
  4  5  2  0
  4  6  1  0
  6  7  1  0
  7  8  1  0
  2  9  1  1
  9 10  2  0
  9 11  1  0
 11 12  1  0
 12 13  1  0
  3  1  1  0
M  END
>  <rName>  (936) 
AziCO2Et-OEt

>  <PQ_SYMBOL>  (936) 
AziCO2Et-OEt

>  <FULL_NAME>  (936) 
diethyl (2S,3S)-aziridine-2,3-dicarboxylate

>  <IUPAC_CONDENSED>  (936) 
Azi(CO2Et)-OEt

>  <IUPAC>  (936) 
diethyl (2S,3S)-aziridine-2,3-dicarboxylate

>  <TYPE>  (936) 
C-term cap

>  <CLASS>  (936) 
c_cap

>  <ANALOG>  (936) 
X

>  <MOL_WT>  (936) 
187.19499999999996

>  <LOGP>  (936) 
-0.5470000000000002

>  <TPSA>  (936) 
74.54

>  <POPULARITY>  (936) 
10.7

>  <PROTECTED>  (936) 
TRUE

>  <SMILES>  (936) 
N1[C@@H]([C@H]1C(=O)OCC)C(=O)OCC

>  <INCHIKEY>  (936) 
ZDCRASVHGJDHRS-WDSKDSINSA-N

$$$$
Azi_Me
     RDKit          2D

  7  7  0  0  0  0  0  0  0  0999 V2000
   -1.0662   -1.4756    0.0000 N   0  0  0  0  0  0  0  0  0  0  0  0
   -0.0862   -0.3400    0.0000 C   0  0  0  0  0  0  0  0  0  0  0  0
   -1.5597   -0.0591    0.0000 C   0  0  0  0  0  0  0  0  0  0  0  0
   -2.6953    0.9209    0.0000 C   0  0  0  0  0  0  0  0  0  0  0  0
    1.3303    0.1535    0.0000 C   0  0  0  0  0  0  0  0  0  0  0  0
    1.6112    1.6269    0.0000 O   0  0  0  0  0  0  0  0  0  0  0  0
    2.4659   -0.8265    0.0000 O   0  0  0  0  0  0  0  0  0  0  0  0
  1  2  1  0
  2  3  1  0
  3  4  1  1
  2  5  1  1
  5  6  2  0
  5  7  1  0
  3  1  1  0
M  END
>  <rName>  (937) 
Azi_Me

>  <PQ_SYMBOL>  (937) 
Azi_Me

>  <FULL_NAME>  (937) 
(2S,3S)-3-methylaziridine-2-carboxylic acid

>  <IUPAC_CONDENSED>  (937) 
Azi(Me)

>  <IUPAC>  (937) 
(2S,3S)-3-methyl-aziridine-2-carboxylic acid

>  <TYPE>  (937) 
N-term cap

>  <CLASS>  (937) 
n_cap

>  <ANALOG>  (937) 
X

>  <MOL_WT>  (937) 
101.10499999999999

>  <LOGP>  (937) 
-0.5687

>  <TPSA>  (937) 
59.24000000000001

>  <POPULARITY>  (937) 
7.6

>  <PROTECTED>  (937) 
FALSE

>  <SMILES>  (937) 
N1[C@@H]([C@@H]1C)C(=O)O

>  <INCHIKEY>  (937) 
QOISFPILRGBKKL-HRFVKAFMSA-N

$$$$
Bes-Dap
     RDKit          2D

 16 16  0  0  0  0  0  0  0  0999 V2000
    1.1933   -1.4371    0.0000 N   0  0  0  0  0  0  0  0  0  0  0  0
   -0.2001   -0.8817    0.0000 S   0  0  0  0  0  0  0  0  0  0  0  0
   -0.7556   -2.2750    0.0000 O   0  0  0  0  0  0  0  0  0  0  0  0
    0.3554    0.5117    0.0000 O   0  0  0  0  0  0  0  0  0  0  0  0
   -1.5935   -0.3262    0.0000 C   0  0  0  0  0  0  0  0  0  0  0  0
   -2.7712   -1.2551    0.0000 C   0  0  0  0  0  0  0  0  0  0  0  0
   -4.1645   -0.6997    0.0000 C   0  0  0  0  0  0  0  0  0  0  0  0
   -4.3802    0.7848    0.0000 C   0  0  0  0  0  0  0  0  0  0  0  0
   -3.2024    1.7137    0.0000 C   0  0  0  0  0  0  0  0  0  0  0  0
   -1.8091    1.1582    0.0000 C   0  0  0  0  0  0  0  0  0  0  0  0
    2.3710   -0.5082    0.0000 C   0  0  0  0  0  0  0  0  0  0  0  0
    3.7644   -1.0637    0.0000 C   0  0  0  0  0  0  0  0  0  0  0  0
    4.9421   -0.1347    0.0000 N   0  0  0  0  0  0  0  0  0  0  0  0
    2.1554    0.9762    0.0000 C   0  0  0  0  0  0  0  0  0  0  0  0
    0.7620    1.5317    0.0000 O   0  0  0  0  0  0  0  0  0  0  0  0
    3.3331    1.9052    0.0000 O   0  0  0  0  0  0  0  0  0  0  0  0
  1  2  1  0
  2  3  2  0
  2  4  2  0
  2  5  1  0
  5  6  2  0
  6  7  1  0
  7  8  2  0
  8  9  1  0
  9 10  2  0
  1 11  1  0
 11 12  1  6
 12 13  1  0
 11 14  1  0
 14 15  2  0
 14 16  1  0
 10  5  1  0
M  END
>  <rName>  (938) 
Bes-Dap

>  <PQ_SYMBOL>  (938) 
Bes-Dap

>  <FULL_NAME>  (938) 
(2S)-3-amino-2-(benzenesulfonamido)propanoic Acid

>  <IUPAC_CONDENSED>  (938) 
Bes-Dap

>  <IUPAC>  (938) 
(2S)-3-amino-2-phenylsulfonylaminopropanoic acid

>  <TYPE>  (938) 
Backbone

>  <CLASS>  (938) 
alpha

>  <ANALOG>  (938) 
X

>  <MOL_WT>  (938) 
244.272

>  <LOGP>  (938) 
-0.6232000000000002

>  <TPSA>  (938) 
109.49

>  <POPULARITY>  (938) 
7.9

>  <PROTECTED>  (938) 
TRUE

>  <SMILES>  (938) 
N(S(=O)(=O)c1(ccccc1))[C@@H](CN)C(=O)O

>  <INCHIKEY>  (938) 
QSCVWHIJUJGFDU-QMMMGPOBSA-N

$$$$
Bes-Gly
     RDKit          2D

 14 14  0  0  0  0  0  0  0  0999 V2000
    4.3859   -0.4456    0.0000 C   0  0  0  0  0  0  0  0  0  0  0  0
    3.4092   -1.5840    0.0000 C   0  0  0  0  0  0  0  0  0  0  0  0
    1.9349   -1.3073    0.0000 C   0  0  0  0  0  0  0  0  0  0  0  0
    1.4374    0.1078    0.0000 C   0  0  0  0  0  0  0  0  0  0  0  0
    2.4142    1.2462    0.0000 C   0  0  0  0  0  0  0  0  0  0  0  0
    3.8884    0.9695    0.0000 C   0  0  0  0  0  0  0  0  0  0  0  0
   -0.0368    0.3845    0.0000 S   0  0  0  0  0  0  0  0  0  0  0  0
    0.2399    1.8588    0.0000 O   0  0  0  0  0  0  0  0  0  0  0  0
   -0.3135   -1.0897    0.0000 O   0  0  0  0  0  0  0  0  0  0  0  0
   -1.5111    0.6613    0.0000 N   0  0  0  0  0  0  0  0  0  0  0  0
   -2.4879   -0.4771    0.0000 C   0  0  0  0  0  0  0  0  0  0  0  0
   -3.9621   -0.2004    0.0000 C   0  0  0  0  0  0  0  0  0  0  0  0
   -4.4596    1.2147    0.0000 O   0  0  0  0  0  0  0  0  0  0  0  0
   -4.9389   -1.3388    0.0000 O   0  0  0  0  0  0  0  0  0  0  0  0
  1  2  2  0
  2  3  1  0
  3  4  2  0
  4  5  1  0
  5  6  2  0
  4  7  1  0
  7  8  2  0
  7  9  2  0
  7 10  1  0
 10 11  1  0
 11 12  1  0
 12 13  2  0
 12 14  1  0
  6  1  1  0
M  END
>  <rName>  (939) 
Bes-Gly

>  <PQ_SYMBOL>  (939) 
Bes-Gly

>  <FULL_NAME>  (939) 
2-(benzenesulfonamido)acetic acid

>  <IUPAC_CONDENSED>  (939) 
Bes-Gly

>  <IUPAC>  (939) 
2-phenylsulfonylaminoacetic acid

>  <TYPE>  (939) 
N-term cap

>  <CLASS>  (939) 
n_cap

>  <ANALOG>  (939) 
X

>  <MOL_WT>  (939) 
215.22999999999996

>  <LOGP>  (939) 
0.04949999999999988

>  <TPSA>  (939) 
83.47

>  <POPULARITY>  (939) 
15.7

>  <PROTECTED>  (939) 
TRUE

>  <SMILES>  (939) 
c1ccc(cc1)S(=O)(=O)NCC(=O)O

>  <INCHIKEY>  (939) 
WTSZSAHZIMPSDM-UHFFFAOYSA-N

$$$$
Bes-Leu
     RDKit          2D

 18 18  0  0  0  0  0  0  0  0999 V2000
    4.9866   -0.8004    0.0000 C   0  0  0  0  0  0  0  0  0  0  0  0
    3.7992   -1.7170    0.0000 C   0  0  0  0  0  0  0  0  0  0  0  0
    2.4117   -1.1469    0.0000 C   0  0  0  0  0  0  0  0  0  0  0  0
    2.2117    0.3397    0.0000 C   0  0  0  0  0  0  0  0  0  0  0  0
    3.3991    1.2562    0.0000 C   0  0  0  0  0  0  0  0  0  0  0  0
    4.7866    0.6862    0.0000 C   0  0  0  0  0  0  0  0  0  0  0  0
    0.8242    0.9097    0.0000 S   0  0  0  0  0  0  0  0  0  0  0  0
    1.3943    2.2972    0.0000 O   0  0  0  0  0  0  0  0  0  0  0  0
    0.2542   -0.4777    0.0000 O   0  0  0  0  0  0  0  0  0  0  0  0
   -0.5632    1.4798    0.0000 N   0  0  0  0  0  0  0  0  0  0  0  0
   -1.7506    0.5632    0.0000 C   0  0  0  0  0  0  0  0  0  0  0  0
   -3.1381    1.1333    0.0000 C   0  0  0  0  0  0  0  0  0  0  0  0
   -4.3255    0.2167    0.0000 C   0  0  0  0  0  0  0  0  0  0  0  0
   -5.7130    0.7868    0.0000 C   0  0  0  0  0  0  0  0  0  0  0  0
   -4.1255   -1.2699    0.0000 C   0  0  0  0  0  0  0  0  0  0  0  0
   -1.5506   -0.9234    0.0000 C   0  0  0  0  0  0  0  0  0  0  0  0
   -0.1631   -1.4934    0.0000 O   0  0  0  0  0  0  0  0  0  0  0  0
   -2.7380   -1.8399    0.0000 O   0  0  0  0  0  0  0  0  0  0  0  0
  1  2  2  0
  2  3  1  0
  3  4  2  0
  4  5  1  0
  5  6  2  0
  4  7  1  0
  7  8  2  0
  7  9  2  0
  7 10  1  0
 10 11  1  0
 11 12  1  6
 12 13  1  0
 13 14  1  0
 13 15  1  0
 11 16  1  0
 16 17  2  0
 16 18  1  0
  6  1  1  0
M  END
>  <rName>  (940) 
Bes-Leu

>  <PQ_SYMBOL>  (940) 
Bes-Leu

>  <FULL_NAME>  (940) 
(2S)-2-(benzenesulfonamido)-4-methylpentanoic acid

>  <IUPAC_CONDENSED>  (940) 
Bes-Leu

>  <IUPAC>  (940) 
(2S)-4-methyl-2-phenylsulfonylaminopentanoic acid

>  <TYPE>  (940) 
N-term cap

>  <CLASS>  (940) 
n_cap

>  <ANALOG>  (940) 
X

>  <MOL_WT>  (940) 
271.33799999999997

>  <LOGP>  (940) 
1.4642000000000002

>  <TPSA>  (940) 
83.47

>  <POPULARITY>  (940) 
9.6

>  <PROTECTED>  (940) 
TRUE

>  <SMILES>  (940) 
c1ccc(cc1)S(=O)(=O)N[C@@H](CC(C)C)C(=O)O

>  <INCHIKEY>  (940) 
FLJPDKBVKGRHQC-NSHDSACASA-N

$$$$
Bes4-OMe-Ala
     RDKit          2D

 17 17  0  0  0  0  0  0  0  0999 V2000
    5.3529   -1.7394    0.0000 C   0  0  0  0  0  0  0  0  0  0  0  0
    4.9030   -0.3084    0.0000 O   0  0  0  0  0  0  0  0  0  0  0  0
    3.4389    0.0174    0.0000 C   0  0  0  0  0  0  0  0  0  0  0  0
    2.4246   -1.0876    0.0000 C   0  0  0  0  0  0  0  0  0  0  0  0
    0.9604   -0.7617    0.0000 C   0  0  0  0  0  0  0  0  0  0  0  0
    0.5105    0.6692    0.0000 C   0  0  0  0  0  0  0  0  0  0  0  0
    1.5248    1.7743    0.0000 C   0  0  0  0  0  0  0  0  0  0  0  0
    2.9890    1.4484    0.0000 C   0  0  0  0  0  0  0  0  0  0  0  0
   -0.9536    0.9951    0.0000 S   0  0  0  0  0  0  0  0  0  0  0  0
   -0.6278    2.4593    0.0000 O   0  0  0  0  0  0  0  0  0  0  0  0
   -1.2795   -0.4691    0.0000 O   0  0  0  0  0  0  0  0  0  0  0  0
   -2.4178    1.3210    0.0000 N   0  0  0  0  0  0  0  0  0  0  0  0
   -3.4321    0.2159    0.0000 C   0  0  0  0  0  0  0  0  0  0  0  0
   -4.8963    0.5418    0.0000 C   0  0  0  0  0  0  0  0  0  0  0  0
   -2.9823   -1.2150    0.0000 C   0  0  0  0  0  0  0  0  0  0  0  0
   -1.5181   -1.5409    0.0000 O   0  0  0  0  0  0  0  0  0  0  0  0
   -3.9966   -2.3201    0.0000 O   0  0  0  0  0  0  0  0  0  0  0  0
  1  2  1  0
  2  3  1  0
  3  4  1  0
  4  5  2  0
  5  6  1  0
  6  7  2  0
  7  8  1  0
  6  9  1  0
  9 10  2  0
  9 11  2  0
  9 12  1  0
 12 13  1  0
 13 14  1  6
 13 15  1  0
 15 16  2  0
 15 17  1  0
  8  3  2  0
M  END
>  <rName>  (941) 
Bes4-OMe-Ala

>  <PQ_SYMBOL>  (941) 
Bes4-OMe-Ala

>  <FULL_NAME>  (941) 
(2S)-2-[(4-methoxyphenyl)sulfonylamino]propanoic acid

>  <IUPAC_CONDENSED>  (941) 
Bes(4-OMe)-Ala

>  <IUPAC>  (941) 
(2S)-2-(4-methoxyphenylsulfonylamino)propanoic acid

>  <TYPE>  (941) 
N-term cap

>  <CLASS>  (941) 
n_cap

>  <ANALOG>  (941) 
X

>  <MOL_WT>  (941) 
259.28299999999996

>  <LOGP>  (941) 
0.4465999999999999

>  <TPSA>  (941) 
92.7

>  <POPULARITY>  (941) 
9.0

>  <PROTECTED>  (941) 
TRUE

>  <SMILES>  (941) 
COc1ccc(cc1)S(=O)(=O)N[C@@H](C)C(=O)O

>  <INCHIKEY>  (941) 
XTCIPBHRVYICGT-ZETCQYMHSA-N

$$$$
Bip
     RDKit          2D

 18 19  0  0  0  0  0  0  0  0999 V2000
   -3.2769    1.7174    0.0000 N   0  0  0  0  0  0  0  0  0  0  0  0
   -3.8349    0.3251    0.0000 C   0  0  0  0  0  0  0  0  0  0  0  0
   -2.9082   -0.8544    0.0000 C   0  0  0  0  0  0  0  0  0  0  0  0
   -1.4234   -0.6415    0.0000 C   0  0  0  0  0  0  0  0  0  0  0  0
   -0.8653    0.7508    0.0000 C   0  0  0  0  0  0  0  0  0  0  0  0
    0.6195    0.9637    0.0000 C   0  0  0  0  0  0  0  0  0  0  0  0
    1.5463   -0.2158    0.0000 C   0  0  0  0  0  0  0  0  0  0  0  0
    0.9882   -1.6081    0.0000 C   0  0  0  0  0  0  0  0  0  0  0  0
   -0.4966   -1.8210    0.0000 C   0  0  0  0  0  0  0  0  0  0  0  0
    3.0311   -0.0029    0.0000 C   0  0  0  0  0  0  0  0  0  0  0  0
    3.9578   -1.1824    0.0000 C   0  0  0  0  0  0  0  0  0  0  0  0
    5.4427   -0.9695    0.0000 C   0  0  0  0  0  0  0  0  0  0  0  0
    6.0007    0.4228    0.0000 C   0  0  0  0  0  0  0  0  0  0  0  0
    5.0740    1.6023    0.0000 C   0  0  0  0  0  0  0  0  0  0  0  0
    3.5891    1.3894    0.0000 C   0  0  0  0  0  0  0  0  0  0  0  0
   -5.3198    0.1122    0.0000 C   0  0  0  0  0  0  0  0  0  0  0  0
   -5.8778   -1.2801    0.0000 O   0  0  0  0  0  0  0  0  0  0  0  0
   -6.2465    1.2917    0.0000 O   0  0  0  0  0  0  0  0  0  0  0  0
  2  1  1  1
  2  3  1  0
  3  4  1  0
  4  5  1  0
  5  6  2  0
  6  7  1  0
  7  8  2  0
  8  9  1  0
  7 10  1  0
 10 11  2  0
 11 12  1  0
 12 13  2  0
 13 14  1  0
 14 15  2  0
  2 16  1  0
 16 17  2  0
 16 18  1  0
  9  4  2  0
 15 10  1  0
M  END
>  <rName>  (942) 
Bip

>  <PQ_SYMBOL>  (942) 
Bip

>  <FULL_NAME>  (942) 
4-Phenyl-L-Phenylalanine (4'4-L-Biphenylalanine)

>  <IUPAC_CONDENSED>  (942) 
Bip

>  <IUPAC>  (942) 
(2S)-2-amino-3-(4-phenylphenyl)propanoic acid

>  <TYPE>  (942) 
Backbone

>  <CLASS>  (942) 
alpha

>  <ANALOG>  (942) 
Phe

>  <MOL_WT>  (942) 
241.29

>  <LOGP>  (942) 
2.308

>  <TPSA>  (942) 
63.32000000000001

>  <POPULARITY>  (942) 
33.5

>  <PROTECTED>  (942) 
TRUE

>  <SMILES>  (942) 
N[C@@H](Cc1(ccc(cc1)c2(ccccc2)))C(=O)O

>  <INCHIKEY>  (942) 
JCZLABDVDPYLRZ-AWEZNQCLSA-N

$$$$
Bmt
     RDKit          2D

 13 12  0  0  0  0  0  0  0  0999 V2000
   -0.7504   -0.9424    0.0000 N   0  0  0  0  0  0  0  0  0  0  0  0
    0.6917   -0.5296    0.0000 C   0  0  0  0  0  0  0  0  0  0  0  0
    1.0552    0.9257    0.0000 C   0  0  0  0  0  0  0  0  0  0  0  0
    2.4973    1.3384    0.0000 O   0  0  0  0  0  0  0  0  0  0  0  0
   -0.0233    1.9682    0.0000 C   0  0  0  0  0  0  0  0  0  0  0  0
    0.3403    3.4234    0.0000 C   0  0  0  0  0  0  0  0  0  0  0  0
   -1.4654    1.5554    0.0000 C   0  0  0  0  0  0  0  0  0  0  0  0
   -1.8289    0.1001    0.0000 C   0  0  0  0  0  0  0  0  0  0  0  0
   -3.2710   -0.3126    0.0000 C   0  0  0  0  0  0  0  0  0  0  0  0
   -3.6346   -1.7679    0.0000 C   0  0  0  0  0  0  0  0  0  0  0  0
    1.7702   -1.5721    0.0000 C   0  0  0  0  0  0  0  0  0  0  0  0
    3.2123   -1.1593    0.0000 O   0  0  0  0  0  0  0  0  0  0  0  0
    1.4066   -3.0274    0.0000 O   0  0  0  0  0  0  0  0  0  0  0  0
  2  1  1  1
  2  3  1  0
  3  4  1  1
  3  5  1  0
  5  6  1  1
  5  7  1  0
  7  8  1  0
  8  9  2  3
  9 10  1  0
  2 11  1  0
 11 12  2  0
 11 13  1  0
M  END
>  <rName>  (943) 
Bmt

>  <PQ_SYMBOL>  (943) 
Bmt

>  <FULL_NAME>  (943) 
(2S,3R,4R)-2-amino-3-hydroxy-4-methyloct-6-enoic acid

>  <IUPAC_CONDENSED>  (943) 
Bmt

>  <IUPAC>  (943) 
(2S,3R,4R)-2-amino-3-hydroxy-4-methyloct-6-enoic acid

>  <TYPE>  (943) 
Backbone

>  <CLASS>  (943) 
alpha

>  <ANALOG>  (943) 
Thr

>  <MOL_WT>  (943) 
187.23899999999998

>  <LOGP>  (943) 
0.36149999999999965

>  <TPSA>  (943) 
83.55

>  <POPULARITY>  (943) 
2.0

>  <PROTECTED>  (943) 
FALSE

>  <SMILES>  (943) 
N[C@@H]([C@H](O)[C@H](C)CC=CC)C(=O)O

>  <INCHIKEY>  (943) 
RPALEGQGCGCFCX-GJMOJQLCSA-N

$$$$
Bmt_E
     RDKit          2D

 13 12  0  0  0  0  0  0  0  0999 V2000
    2.2660    1.8292    0.0000 N   0  0  0  0  0  0  0  0  0  0  0  0
    1.8676    0.3831    0.0000 C   0  0  0  0  0  0  0  0  0  0  0  0
    0.4160    0.0051    0.0000 C   0  0  0  0  0  0  0  0  0  0  0  0
    0.0176   -1.4410    0.0000 O   0  0  0  0  0  0  0  0  0  0  0  0
   -0.6372    1.0732    0.0000 C   0  0  0  0  0  0  0  0  0  0  0  0
   -0.2388    2.5193    0.0000 C   0  0  0  0  0  0  0  0  0  0  0  0
   -2.0888    0.6952    0.0000 C   0  0  0  0  0  0  0  0  0  0  0  0
   -2.4872   -0.7510    0.0000 C   0  0  0  0  0  0  0  0  0  0  0  0
   -3.9388   -1.1290    0.0000 C   0  0  0  0  0  0  0  0  0  0  0  0
   -4.9919   -0.0609    0.0000 C   0  0  0  0  0  0  0  0  0  0  0  0
    2.9207   -0.6850    0.0000 C   0  0  0  0  0  0  0  0  0  0  0  0
    2.5223   -2.1311    0.0000 O   0  0  0  0  0  0  0  0  0  0  0  0
    4.3723   -0.3070    0.0000 O   0  0  0  0  0  0  0  0  0  0  0  0
  2  1  1  6
  2  3  1  0
  3  4  1  6
  3  5  1  0
  5  6  1  1
  5  7  1  0
  7  8  1  0
  8  9  2  0
  9 10  1  0
  2 11  1  0
 11 12  2  0
 11 13  1  0
M  END
>  <rName>  (944) 
Bmt_E

>  <PQ_SYMBOL>  (944) 
Bmt_E

>  <FULL_NAME>  (944) 
(2S,3R,4R,6E)-2-amino-3-hydroxy-4-methyloct-6-enoic acid

>  <IUPAC_CONDENSED>  (944) 
Bmt(E)

>  <IUPAC>  (944) 
(2S,3R,4R,6Z)-2-amino-3-hydroxy-4-methyloct-6-enoic acid

>  <TYPE>  (944) 
Backbone

>  <CLASS>  (944) 
alpha

>  <ANALOG>  (944) 
Thr

>  <MOL_WT>  (944) 
187.23899999999998

>  <LOGP>  (944) 
0.36149999999999965

>  <TPSA>  (944) 
83.55

>  <POPULARITY>  (944) 
1.3

>  <PROTECTED>  (944) 
FALSE

>  <SMILES>  (944) 
N[C@@H]([C@H](O)[C@H](C)C/C=C\C)C(=O)O

>  <INCHIKEY>  (944) 
RPALEGQGCGCFCX-IFEQSGIMSA-N

$$$$
Bn-
     RDKit          2D

  8  8  0  0  0  0  0  0  0  0999 V2000
   -2.3221   -0.3572    0.0000 C   0  0  0  0  0  0  0  0  0  0  0  0
   -1.8762    1.0750    0.0000 C   0  0  0  0  0  0  0  0  0  0  0  0
   -0.4129    1.4050    0.0000 C   0  0  0  0  0  0  0  0  0  0  0  0
    0.6045    0.3028    0.0000 C   0  0  0  0  0  0  0  0  0  0  0  0
    0.1586   -1.1294    0.0000 C   0  0  0  0  0  0  0  0  0  0  0  0
   -1.3047   -1.4594    0.0000 C   0  0  0  0  0  0  0  0  0  0  0  0
    2.0677    0.6327    0.0000 C   0  0  0  0  0  0  0  0  0  0  0  0
    3.0851   -0.4695    0.0000 O   0  0  0  0  0  0  0  0  0  0  0  0
  1  2  2  0
  2  3  1  0
  3  4  2  0
  4  5  1  0
  5  6  2  0
  4  7  1  0
  7  8  1  0
  6  1  1  0
M  END
>  <rName>  (945) 
Bn-

>  <PQ_SYMBOL>  (945) 
Bn-

>  <FULL_NAME>  (945) 
N-Terminal toluene

>  <IUPAC_CONDENSED>  (945) 
Bn-

>  <IUPAC>  (945) 
1-phenylmethanol

>  <TYPE>  (945) 
N-term cap

>  <CLASS>  (945) 
n_cap

>  <ANALOG>  (945) 
X

>  <MOL_WT>  (945) 
108.13999999999997

>  <LOGP>  (945) 
1.1788999999999998

>  <TPSA>  (945) 
20.23

>  <POPULARITY>  (945) 
15.0

>  <PROTECTED>  (945) 
FALSE

>  <SMILES>  (945) 
c1ccc(cc1)CO

>  <INCHIKEY>  (945) 
WVDDGKGOMKODPV-UHFFFAOYSA-N

$$$$
Bn2-Cl4-F-Gaba
     RDKit          2D

 16 16  0  0  0  0  0  0  0  0999 V2000
   -0.6633   -0.1308    0.0000 N   0  0  0  0  0  0  0  0  0  0  0  0
    0.5663   -0.9900    0.0000 C   0  0  0  0  0  0  0  0  0  0  0  0
    1.9251   -0.3548    0.0000 C   0  0  0  0  0  0  0  0  0  0  0  0
    2.0545    1.1396    0.0000 C   0  0  0  0  0  0  0  0  0  0  0  0
    3.4133    1.7748    0.0000 C   0  0  0  0  0  0  0  0  0  0  0  0
    4.6429    0.9156    0.0000 C   0  0  0  0  0  0  0  0  0  0  0  0
    6.0017    1.5508    0.0000 F   0  0  0  0  0  0  0  0  0  0  0  0
    4.5135   -0.5788    0.0000 C   0  0  0  0  0  0  0  0  0  0  0  0
    3.1547   -1.2140    0.0000 C   0  0  0  0  0  0  0  0  0  0  0  0
    3.0253   -2.7084    0.0000 Cl  0  0  0  0  0  0  0  0  0  0  0  0
   -2.0221   -0.7660    0.0000 C   0  0  0  0  0  0  0  0  0  0  0  0
   -3.2517    0.0932    0.0000 C   0  0  0  0  0  0  0  0  0  0  0  0
   -4.6105   -0.5420    0.0000 C   0  0  0  0  0  0  0  0  0  0  0  0
   -5.8401    0.3172    0.0000 C   0  0  0  0  0  0  0  0  0  0  0  0
   -5.7107    1.8116    0.0000 O   0  0  0  0  0  0  0  0  0  0  0  0
   -7.1989   -0.3180    0.0000 O   0  0  0  0  0  0  0  0  0  0  0  0
  1  2  1  0
  2  3  1  0
  3  4  1  0
  4  5  2  0
  5  6  1  0
  6  7  1  0
  6  8  2  0
  8  9  1  0
  9 10  1  0
  1 11  1  0
 11 12  1  0
 12 13  1  0
 13 14  1  0
 14 15  2  0
 14 16  1  0
  9  3  2  0
M  END
>  <rName>  (946) 
Bn2-Cl4-F-Gaba

>  <PQ_SYMBOL>  (946) 
Bn2-Cl4-F-Gaba

>  <FULL_NAME>  (946) 
4-{[(2-Chloro-4-fluorophenyl)methyl]amino}butanoic acid

>  <IUPAC_CONDENSED>  (946) 
Bn(2-Cl,4-F)-Gaba

>  <IUPAC>  (946) 
4-(((2-chloro-4-fluorophenyl)methyl)amino)butanoic acid

>  <TYPE>  (946) 
Backbone

>  <CLASS>  (946) 
gamma

>  <ANALOG>  (946) 
Gly

>  <MOL_WT>  (946) 
245.68099999999993

>  <LOGP>  (946) 
2.4335000000000004

>  <TPSA>  (946) 
49.33

>  <POPULARITY>  (946) 
5.4

>  <PROTECTED>  (946) 
TRUE

>  <SMILES>  (946) 
N(Cc1(ccc(F)cc1Cl))CCCC(=O)O

>  <INCHIKEY>  (946) 
SPAAQZCDJCPMDE-UHFFFAOYSA-N

$$$$
Bn3-Cl-bAla
     RDKit          2D

 14 14  0  0  0  0  0  0  0  0999 V2000
   -1.0033    0.1948    0.0000 N   0  0  0  0  0  0  0  0  0  0  0  0
    0.1789   -0.7283    0.0000 C   0  0  0  0  0  0  0  0  0  0  0  0
    1.5696   -0.1661    0.0000 C   0  0  0  0  0  0  0  0  0  0  0  0
    1.7779    1.3194    0.0000 C   0  0  0  0  0  0  0  0  0  0  0  0
    3.1685    1.8817    0.0000 C   0  0  0  0  0  0  0  0  0  0  0  0
    4.3508    0.9585    0.0000 C   0  0  0  0  0  0  0  0  0  0  0  0
    4.1424   -0.5270    0.0000 C   0  0  0  0  0  0  0  0  0  0  0  0
    5.3247   -1.4501    0.0000 Cl  0  0  0  0  0  0  0  0  0  0  0  0
    2.7518   -1.0892    0.0000 C   0  0  0  0  0  0  0  0  0  0  0  0
   -2.3940   -0.3675    0.0000 C   0  0  0  0  0  0  0  0  0  0  0  0
   -3.5762    0.5557    0.0000 C   0  0  0  0  0  0  0  0  0  0  0  0
   -4.9669   -0.0066    0.0000 C   0  0  0  0  0  0  0  0  0  0  0  0
   -5.1752   -1.4920    0.0000 O   0  0  0  0  0  0  0  0  0  0  0  0
   -6.1491    0.9166    0.0000 O   0  0  0  0  0  0  0  0  0  0  0  0
  1  2  1  0
  2  3  1  0
  3  4  2  0
  4  5  1  0
  5  6  2  0
  6  7  1  0
  7  8  1  0
  7  9  2  0
  1 10  1  0
 10 11  1  0
 11 12  1  0
 12 13  2  0
 12 14  1  0
  9  3  1  0
M  END
>  <rName>  (947) 
Bn3-Cl-bAla

>  <PQ_SYMBOL>  (947) 
Bn3-Cl-bAla

>  <FULL_NAME>  (947) 
3-{[(3-Chlorophenyl)methyl]amino}propanoic acid

>  <IUPAC_CONDENSED>  (947) 
Bn(3-Cl)-bAla

>  <IUPAC>  (947) 
3-(((3-chlorophenyl)methyl)amino)propanoic acid

>  <TYPE>  (947) 
Backbone

>  <CLASS>  (947) 
beta

>  <ANALOG>  (947) 
Gly

>  <MOL_WT>  (947) 
213.66399999999996

>  <LOGP>  (947) 
1.9043

>  <TPSA>  (947) 
49.33

>  <POPULARITY>  (947) 
7.8

>  <PROTECTED>  (947) 
TRUE

>  <SMILES>  (947) 
N(Cc1(cccc(Cl)c1))CCC(=O)O

>  <INCHIKEY>  (947) 
FIMNCYXVUOWDSL-UHFFFAOYSA-N

$$$$
Bn3-F-Gly-
     RDKit          2D

 13 13  0  0  0  0  0  0  0  0999 V2000
   -1.6091   -0.1426    0.0000 N   0  0  0  0  0  0  0  0  0  0  0  0
   -0.3532   -0.9628    0.0000 C   0  0  0  0  0  0  0  0  0  0  0  0
    0.9851   -0.2853    0.0000 C   0  0  0  0  0  0  0  0  0  0  0  0
    1.0675    1.2124    0.0000 C   0  0  0  0  0  0  0  0  0  0  0  0
    2.4057    1.8899    0.0000 C   0  0  0  0  0  0  0  0  0  0  0  0
    3.6616    1.0697    0.0000 C   0  0  0  0  0  0  0  0  0  0  0  0
    3.5792   -0.4280    0.0000 C   0  0  0  0  0  0  0  0  0  0  0  0
    4.8351   -1.2482    0.0000 F   0  0  0  0  0  0  0  0  0  0  0  0
    2.2410   -1.1055    0.0000 C   0  0  0  0  0  0  0  0  0  0  0  0
   -2.9473   -0.8201    0.0000 C   0  0  0  0  0  0  0  0  0  0  0  0
   -4.2032    0.0001    0.0000 C   0  0  0  0  0  0  0  0  0  0  0  0
   -4.1208    1.4978    0.0000 O   0  0  0  0  0  0  0  0  0  0  0  0
   -5.5415   -0.6774    0.0000 O   0  0  0  0  0  0  0  0  0  0  0  0
  1  2  1  0
  2  3  1  0
  3  4  2  0
  4  5  1  0
  5  6  2  0
  6  7  1  0
  7  8  1  0
  7  9  2  0
  1 10  1  0
 10 11  1  0
 11 12  2  0
 11 13  1  0
  9  3  1  0
M  END
>  <rName>  (948) 
Bn3-F-Gly-

>  <PQ_SYMBOL>  (948) 
Bn3-F-Gly-

>  <FULL_NAME>  (948) 
2-[(3-fluorophenyl)methylamino]acetic acid

>  <IUPAC_CONDENSED>  (948) 
Bn(3-F)-Gly-

>  <IUPAC>  (948) 
2-(((3-fluorophenyl)methyl)amino)acetic acid

>  <TYPE>  (948) 
N-term cap

>  <CLASS>  (948) 
n_cap

>  <ANALOG>  (948) 
X

>  <MOL_WT>  (948) 
183.18199999999996

>  <LOGP>  (948) 
0.9999000000000002

>  <TPSA>  (948) 
49.33

>  <POPULARITY>  (948) 
12.0

>  <PROTECTED>  (948) 
TRUE

>  <SMILES>  (948) 
N(Cc1(cccc(F)c1))CC(=O)O

>  <INCHIKEY>  (948) 
FYGJHZLHWJYEAC-UHFFFAOYSA-N

$$$$
Bn3-OMe3-OMe4-OMe-Pro
     RDKit          2D

 21 22  0  0  0  0  0  0  0  0999 V2000
   -5.4920    0.5297    0.0000 C   0  0  0  0  0  0  0  0  0  0  0  0
   -4.4707   -0.5689    0.0000 O   0  0  0  0  0  0  0  0  0  0  0  0
   -3.0086   -0.2338    0.0000 C   0  0  0  0  0  0  0  0  0  0  0  0
   -2.5678    1.2000    0.0000 C   0  0  0  0  0  0  0  0  0  0  0  0
   -3.5891    2.2986    0.0000 O   0  0  0  0  0  0  0  0  0  0  0  0
   -3.1483    3.7324    0.0000 C   0  0  0  0  0  0  0  0  0  0  0  0
   -1.1057    1.5351    0.0000 C   0  0  0  0  0  0  0  0  0  0  0  0
   -0.0844    0.4365    0.0000 C   0  0  0  0  0  0  0  0  0  0  0  0
   -0.5252   -0.9973    0.0000 C   0  0  0  0  0  0  0  0  0  0  0  0
   -1.9873   -1.3324    0.0000 C   0  0  0  0  0  0  0  0  0  0  0  0
   -2.4281   -2.7662    0.0000 O   0  0  0  0  0  0  0  0  0  0  0  0
   -3.8902   -3.1013    0.0000 C   0  0  0  0  0  0  0  0  0  0  0  0
    1.3777    0.7716    0.0000 C   0  0  0  0  0  0  0  0  0  0  0  0
    2.3989   -0.3270    0.0000 N   0  0  0  0  0  0  0  0  0  0  0  0
    3.8880   -0.1465    0.0000 C   0  0  0  0  0  0  0  0  0  0  0  0
    4.5198   -1.5069    0.0000 C   0  0  0  0  0  0  0  0  0  0  0  0
    3.4212   -2.5282    0.0000 C   0  0  0  0  0  0  0  0  0  0  0  0
    2.1104   -1.7990    0.0000 C   0  0  0  0  0  0  0  0  0  0  0  0
    4.6173    1.1643    0.0000 C   0  0  0  0  0  0  0  0  0  0  0  0
    3.8467    2.4513    0.0000 O   0  0  0  0  0  0  0  0  0  0  0  0
    6.1171    1.1881    0.0000 O   0  0  0  0  0  0  0  0  0  0  0  0
  1  2  1  0
  2  3  1  0
  3  4  2  0
  4  5  1  0
  5  6  1  0
  4  7  1  0
  7  8  2  0
  8  9  1  0
  9 10  2  0
 10 11  1  0
 11 12  1  0
  8 13  1  0
 13 14  1  0
 14 15  1  0
 15 16  1  0
 16 17  1  0
 17 18  1  0
 15 19  1  6
 19 20  2  0
 19 21  1  0
 18 14  1  0
 10  3  1  0
M  END
>  <rName>  (949) 
Bn3-OMe3-OMe4-OMe-Pro

>  <PQ_SYMBOL>  (949) 
Bn3-OMe3-OMe4-OMe-Pro

>  <FULL_NAME>  (949) 
1-(3,4,5-trimethoxybenzyl)-L-proline

>  <IUPAC_CONDENSED>  (949) 
Bn(3-OMe,3-OMe,4-OMe)-Pro

>  <IUPAC>  (949) 
(2S)-1-((3,4,5-trimethoxyphenyl)methyl)pyrrolidine-2-carboxylic acid

>  <TYPE>  (949) 
N-term cap

>  <CLASS>  (949) 
n_cap

>  <ANALOG>  (949) 
X

>  <MOL_WT>  (949) 
295.335

>  <LOGP>  (949) 
1.7613999999999999

>  <TPSA>  (949) 
68.23

>  <POPULARITY>  (949) 
5.6

>  <PROTECTED>  (949) 
FALSE

>  <SMILES>  (949) 
COc2c(OC)cc(cc2OC)CN1[C@@H](CCC1)C(=O)O

>  <INCHIKEY>  (949) 
LVFDRCYXLYHJCR-NSHDSACASA-N

$$$$
Bn4-Cl-bAla
     RDKit          2D

 14 14  0  0  0  0  0  0  0  0999 V2000
   -1.0308    0.0718    0.0000 N   0  0  0  0  0  0  0  0  0  0  0  0
    0.0675   -0.9499    0.0000 C   0  0  0  0  0  0  0  0  0  0  0  0
    1.5014   -0.5096    0.0000 C   0  0  0  0  0  0  0  0  0  0  0  0
    1.8371    0.9523    0.0000 C   0  0  0  0  0  0  0  0  0  0  0  0
    3.2710    1.3926    0.0000 C   0  0  0  0  0  0  0  0  0  0  0  0
    4.3693    0.3709    0.0000 C   0  0  0  0  0  0  0  0  0  0  0  0
    5.8032    0.8112    0.0000 Cl  0  0  0  0  0  0  0  0  0  0  0  0
    4.0336   -1.0911    0.0000 C   0  0  0  0  0  0  0  0  0  0  0  0
    2.5997   -1.5313    0.0000 C   0  0  0  0  0  0  0  0  0  0  0  0
   -2.4647   -0.3685    0.0000 C   0  0  0  0  0  0  0  0  0  0  0  0
   -3.5629    0.6532    0.0000 C   0  0  0  0  0  0  0  0  0  0  0  0
   -4.9969    0.2129    0.0000 C   0  0  0  0  0  0  0  0  0  0  0  0
   -5.3325   -1.2490    0.0000 O   0  0  0  0  0  0  0  0  0  0  0  0
   -6.0951    1.2346    0.0000 O   0  0  0  0  0  0  0  0  0  0  0  0
  1  2  1  0
  2  3  1  0
  3  4  1  0
  4  5  2  0
  5  6  1  0
  6  7  1  0
  6  8  2  0
  8  9  1  0
  1 10  1  0
 10 11  1  0
 11 12  1  0
 12 13  2  0
 12 14  1  0
  9  3  2  0
M  END
>  <rName>  (950) 
Bn4-Cl-bAla

>  <PQ_SYMBOL>  (950) 
Bn4-Cl-bAla

>  <FULL_NAME>  (950) 
3-((4-Chlorobenzyl)amino)propanoic acid

>  <IUPAC_CONDENSED>  (950) 
Bn(4-Cl)-bAla

>  <IUPAC>  (950) 
3-(((4-chlorophenyl)methyl)amino)propanoic acid

>  <TYPE>  (950) 
Backbone

>  <CLASS>  (950) 
beta

>  <ANALOG>  (950) 
Gly

>  <MOL_WT>  (950) 
213.66399999999996

>  <LOGP>  (950) 
1.9043

>  <TPSA>  (950) 
49.33

>  <POPULARITY>  (950) 
8.0

>  <PROTECTED>  (950) 
TRUE

>  <SMILES>  (950) 
N(Cc1(ccc(Cl)cc1))CCC(=O)O

>  <INCHIKEY>  (950) 
IYYANEAXGXRRNO-UHFFFAOYSA-N

$$$$
Boc
     RDKit          2D

  8  7  0  0  0  0  0  0  0  0999 V2000
   -1.8975    1.3780    0.0000 C   0  0  0  0  0  0  0  0  0  0  0  0
   -1.1374    0.0849    0.0000 C   0  0  0  0  0  0  0  0  0  0  0  0
   -0.3772   -1.2083    0.0000 C   0  0  0  0  0  0  0  0  0  0  0  0
   -2.4305   -0.6752    0.0000 C   0  0  0  0  0  0  0  0  0  0  0  0
    0.1558    0.8450    0.0000 O   0  0  0  0  0  0  0  0  0  0  0  0
    1.4606    0.1051    0.0000 C   0  0  0  0  0  0  0  0  0  0  0  0
    1.4723   -1.3948    0.0000 O   0  0  0  0  0  0  0  0  0  0  0  0
    2.7538    0.8653    0.0000 O   0  0  0  0  0  0  0  0  0  0  0  0
  1  2  1  0
  2  3  1  0
  2  4  1  0
  2  5  1  0
  5  6  1  0
  6  7  2  0
  6  8  1  0
M  END
>  <rName>  (951) 
Boc

>  <PQ_SYMBOL>  (951) 
Boc

>  <FULL_NAME>  (951) 
Boc

>  <IUPAC_CONDENSED>  (951) 
Boc

>  <IUPAC>  (951) 
tert-butyl hydrogen carbonate

>  <TYPE>  (951) 
N-term cap

>  <CLASS>  (951) 
n_cap

>  <ANALOG>  (951) 
X

>  <MOL_WT>  (951) 
118.13199999999998

>  <LOGP>  (951) 
1.4795

>  <TPSA>  (951) 
46.53

>  <POPULARITY>  (951) 
14.3

>  <PROTECTED>  (951) 
FALSE

>  <SMILES>  (951) 
CC(C)(C)OC(=O)O

>  <INCHIKEY>  (951) 
XKXIQBVKMABYQJ-UHFFFAOYSA-N

$$$$
Bpa
     RDKit          2D

 20 21  0  0  0  0  0  0  0  0999 V2000
   -4.1652    1.5275    0.0000 N   0  0  0  0  0  0  0  0  0  0  0  0
   -4.3980    0.0457    0.0000 C   0  0  0  0  0  0  0  0  0  0  0  0
   -3.2311   -0.8968    0.0000 C   0  0  0  0  0  0  0  0  0  0  0  0
   -1.8314   -0.3576    0.0000 C   0  0  0  0  0  0  0  0  0  0  0  0
   -1.5986    1.1243    0.0000 C   0  0  0  0  0  0  0  0  0  0  0  0
   -0.1989    1.6635    0.0000 C   0  0  0  0  0  0  0  0  0  0  0  0
    0.9680    0.7210    0.0000 C   0  0  0  0  0  0  0  0  0  0  0  0
    0.7352   -0.7608    0.0000 C   0  0  0  0  0  0  0  0  0  0  0  0
   -0.6645   -1.3001    0.0000 C   0  0  0  0  0  0  0  0  0  0  0  0
    2.3677    1.2603    0.0000 C   0  0  0  0  0  0  0  0  0  0  0  0
    2.6006    2.7421    0.0000 O   0  0  0  0  0  0  0  0  0  0  0  0
    3.5346    0.3177    0.0000 C   0  0  0  0  0  0  0  0  0  0  0  0
    3.3018   -1.1641    0.0000 C   0  0  0  0  0  0  0  0  0  0  0  0
    4.4687   -2.1067    0.0000 C   0  0  0  0  0  0  0  0  0  0  0  0
    5.8684   -1.5674    0.0000 C   0  0  0  0  0  0  0  0  0  0  0  0
    6.1012   -0.0856    0.0000 C   0  0  0  0  0  0  0  0  0  0  0  0
    4.9343    0.8570    0.0000 C   0  0  0  0  0  0  0  0  0  0  0  0
   -5.7977   -0.4936    0.0000 C   0  0  0  0  0  0  0  0  0  0  0  0
   -6.0305   -1.9754    0.0000 O   0  0  0  0  0  0  0  0  0  0  0  0
   -6.9646    0.4490    0.0000 O   0  0  0  0  0  0  0  0  0  0  0  0
  2  1  1  1
  2  3  1  0
  3  4  1  0
  4  5  1  0
  5  6  2  0
  6  7  1  0
  7  8  2  0
  8  9  1  0
  7 10  1  0
 10 11  2  0
 10 12  1  0
 12 13  2  0
 13 14  1  0
 14 15  2  0
 15 16  1  0
 16 17  2  0
  2 18  1  0
 18 19  2  0
 18 20  1  0
  9  4  2  0
 17 12  1  0
M  END
>  <rName>  (952) 
Bpa

>  <PQ_SYMBOL>  (952) 
Bpa

>  <FULL_NAME>  (952) 
4-Benzoyl-L-Phenylalanine

>  <IUPAC_CONDENSED>  (952) 
Bpa

>  <IUPAC>  (952) 
(2S)-2-amino-3-(4-((phenyl)carbonyl)phenyl)propanoic acid

>  <TYPE>  (952) 
Backbone

>  <CLASS>  (952) 
alpha

>  <ANALOG>  (952) 
Phe

>  <MOL_WT>  (952) 
269.29999999999995

>  <LOGP>  (952) 
1.872

>  <TPSA>  (952) 
80.39

>  <POPULARITY>  (952) 
30.8

>  <PROTECTED>  (952) 
TRUE

>  <SMILES>  (952) 
N[C@@H](Cc1(ccc(cc1)C(=O)c2(ccccc2)))C(=O)O

>  <INCHIKEY>  (952) 
TVIDEEHSOPHZBR-AWEZNQCLSA-N

$$$$
BuNH2-bAla
     RDKit          2D

 11 10  0  0  0  0  0  0  0  0999 V2000
   -0.2172    0.5533    0.0000 N   0  0  0  0  0  0  0  0  0  0  0  0
    1.0551   -0.2412    0.0000 C   0  0  0  0  0  0  0  0  0  0  0  0
    2.3793    0.4635    0.0000 C   0  0  0  0  0  0  0  0  0  0  0  0
    3.6517   -0.3310    0.0000 C   0  0  0  0  0  0  0  0  0  0  0  0
    4.9759    0.3736    0.0000 C   0  0  0  0  0  0  0  0  0  0  0  0
    6.2482   -0.4209    0.0000 N   0  0  0  0  0  0  0  0  0  0  0  0
   -1.5414   -0.1513    0.0000 C   0  0  0  0  0  0  0  0  0  0  0  0
   -2.8137    0.6431    0.0000 C   0  0  0  0  0  0  0  0  0  0  0  0
   -4.1379   -0.0615    0.0000 C   0  0  0  0  0  0  0  0  0  0  0  0
   -4.1898   -1.5606    0.0000 O   0  0  0  0  0  0  0  0  0  0  0  0
   -5.4102    0.7330    0.0000 O   0  0  0  0  0  0  0  0  0  0  0  0
  1  2  1  0
  2  3  1  0
  3  4  1  0
  4  5  1  0
  5  6  1  0
  1  7  1  0
  7  8  1  0
  8  9  1  0
  9 10  2  0
  9 11  1  0
M  END
>  <rName>  (953) 
BuNH2-bAla

>  <PQ_SYMBOL>  (953) 
BuNH2-bAla

>  <FULL_NAME>  (953) 
Putreanine

>  <IUPAC_CONDENSED>  (953) 
BuNH2-bAla

>  <IUPAC>  (953) 
3-(4-aminobutylamino)propanoic acid

>  <TYPE>  (953) 
Backbone

>  <CLASS>  (953) 
beta

>  <ANALOG>  (953) 
Gly

>  <MOL_WT>  (953) 
160.217

>  <LOGP>  (953) 
-0.2104000000000002

>  <TPSA>  (953) 
75.35

>  <POPULARITY>  (953) 
2.2

>  <PROTECTED>  (953) 
TRUE

>  <SMILES>  (953) 
N(CCCCN)CCC(=O)O

>  <INCHIKEY>  (953) 
BTSHXVLJDRJCMM-UHFFFAOYSA-N

$$$$
Bz
     RDKit          2D

  9  9  0  0  0  0  0  0  0  0999 V2000
    2.6667   -0.0000    0.0000 C   0  0  0  0  0  0  0  0  0  0  0  0
    1.9167   -1.2990    0.0000 C   0  0  0  0  0  0  0  0  0  0  0  0
    0.4167   -1.2990    0.0000 C   0  0  0  0  0  0  0  0  0  0  0  0
   -0.3333    0.0000    0.0000 C   0  0  0  0  0  0  0  0  0  0  0  0
    0.4167    1.2990    0.0000 C   0  0  0  0  0  0  0  0  0  0  0  0
    1.9167    1.2990    0.0000 C   0  0  0  0  0  0  0  0  0  0  0  0
   -1.8333    0.0000    0.0000 C   0  0  0  0  0  0  0  0  0  0  0  0
   -2.5833   -1.2990    0.0000 O   0  0  0  0  0  0  0  0  0  0  0  0
   -2.5833    1.2990    0.0000 O   0  0  0  0  0  0  0  0  0  0  0  0
  1  2  2  0
  2  3  1  0
  3  4  2  0
  4  5  1  0
  5  6  2  0
  4  7  1  0
  7  8  2  0
  7  9  1  0
  6  1  1  0
M  END
>  <rName>  (954) 
Bz

>  <PQ_SYMBOL>  (954) 
Bz

>  <FULL_NAME>  (954) 
Benzoic acid

>  <IUPAC_CONDENSED>  (954) 
Bz

>  <IUPAC>  (954) 
benzoic acid

>  <TYPE>  (954) 
N-term cap

>  <CLASS>  (954) 
n_cap

>  <ANALOG>  (954) 
X

>  <MOL_WT>  (954) 
122.12299999999996

>  <LOGP>  (954) 
1.3848

>  <TPSA>  (954) 
37.3

>  <POPULARITY>  (954) 
14.9

>  <PROTECTED>  (954) 
FALSE

>  <SMILES>  (954) 
c1ccc(cc1)C(=O)O

>  <INCHIKEY>  (954) 
WPYMKLBDIGXBTP-UHFFFAOYSA-N

$$$$
Bz-D-Ala
     RDKit          2D

 14 14  0  0  0  0  0  0  0  0999 V2000
   -4.3921   -0.2032    0.0000 C   0  0  0  0  0  0  0  0  0  0  0  0
   -3.7598    1.1570    0.0000 C   0  0  0  0  0  0  0  0  0  0  0  0
   -2.2656    1.2895    0.0000 C   0  0  0  0  0  0  0  0  0  0  0  0
   -1.4038    0.0618    0.0000 C   0  0  0  0  0  0  0  0  0  0  0  0
   -2.0361   -1.2984    0.0000 C   0  0  0  0  0  0  0  0  0  0  0  0
   -3.5303   -1.4309    0.0000 C   0  0  0  0  0  0  0  0  0  0  0  0
    0.0903    0.1943    0.0000 C   0  0  0  0  0  0  0  0  0  0  0  0
    0.7227    1.5545    0.0000 O   0  0  0  0  0  0  0  0  0  0  0  0
    0.9521   -1.0334    0.0000 N   0  0  0  0  0  0  0  0  0  0  0  0
    2.4463   -0.9009    0.0000 C   0  0  0  0  0  0  0  0  0  0  0  0
    3.3081   -2.1286    0.0000 C   0  0  0  0  0  0  0  0  0  0  0  0
    3.0786    0.4593    0.0000 C   0  0  0  0  0  0  0  0  0  0  0  0
    2.2168    1.6870    0.0000 O   0  0  0  0  0  0  0  0  0  0  0  0
    4.5727    0.5918    0.0000 O   0  0  0  0  0  0  0  0  0  0  0  0
  1  2  2  0
  2  3  1  0
  3  4  2  0
  4  5  1  0
  5  6  2  0
  4  7  1  0
  7  8  2  0
  7  9  1  0
  9 10  1  0
 10 11  1  1
 10 12  1  0
 12 13  2  0
 12 14  1  0
  6  1  1  0
M  END
>  <rName>  (955) 
Bz-D-Ala

>  <PQ_SYMBOL>  (955) 
Bz-D-Ala

>  <FULL_NAME>  (955) 
N-BENZOYL-D-ALANINE

>  <IUPAC_CONDENSED>  (955) 
Bz-D-Ala

>  <IUPAC>  (955) 
(2R)-2-phenylcarbonylaminopropanoic acid

>  <TYPE>  (955) 
N-term cap

>  <CLASS>  (955) 
n_cap

>  <ANALOG>  (955) 
X

>  <MOL_WT>  (955) 
193.20199999999997

>  <LOGP>  (955) 
0.8895

>  <TPSA>  (955) 
66.4

>  <POPULARITY>  (955) 
12.4

>  <PROTECTED>  (955) 
FALSE

>  <SMILES>  (955) 
c1ccc(cc1)C(=O)N[C@H](C)C(=O)O

>  <INCHIKEY>  (955) 
UAQVHNZEONHPQG-SSDOTTSWSA-N

$$$$
Bz4-MeNH2-Gly
     RDKit          2D

 15 15  0  0  0  0  0  0  0  0999 V2000
   -2.0222    0.0260    0.0000 N   0  0  0  0  0  0  0  0  0  0  0  0
   -0.8851   -0.9522    0.0000 C   0  0  0  0  0  0  0  0  0  0  0  0
   -1.1636   -2.4261    0.0000 O   0  0  0  0  0  0  0  0  0  0  0  0
    0.5307   -0.4565    0.0000 C   0  0  0  0  0  0  0  0  0  0  0  0
    0.8092    1.0174    0.0000 C   0  0  0  0  0  0  0  0  0  0  0  0
    2.2250    1.5131    0.0000 C   0  0  0  0  0  0  0  0  0  0  0  0
    3.3621    0.5349    0.0000 C   0  0  0  0  0  0  0  0  0  0  0  0
    3.0836   -0.9390    0.0000 C   0  0  0  0  0  0  0  0  0  0  0  0
    1.6678   -1.4347    0.0000 C   0  0  0  0  0  0  0  0  0  0  0  0
    4.7778    1.0306    0.0000 C   0  0  0  0  0  0  0  0  0  0  0  0
    5.9150    0.0524    0.0000 N   0  0  0  0  0  0  0  0  0  0  0  0
   -3.4379   -0.4697    0.0000 C   0  0  0  0  0  0  0  0  0  0  0  0
   -4.5751    0.5085    0.0000 C   0  0  0  0  0  0  0  0  0  0  0  0
   -4.2965    1.9824    0.0000 O   0  0  0  0  0  0  0  0  0  0  0  0
   -5.9908    0.0128    0.0000 O   0  0  0  0  0  0  0  0  0  0  0  0
  1  2  1  0
  2  3  2  0
  2  4  1  0
  4  5  1  0
  5  6  2  0
  6  7  1  0
  7  8  2  0
  8  9  1  0
  7 10  1  0
 10 11  1  0
  1 12  1  0
 12 13  1  0
 13 14  2  0
 13 15  1  0
  9  4  2  0
M  END
>  <rName>  (956) 
Bz4-MeNH2-Gly

>  <PQ_SYMBOL>  (956) 
Bz4-MeNH2-Gly

>  <FULL_NAME>  (956) 
2-{[4-(Aminomethyl)phenyl]formamido}acetic acid

>  <IUPAC_CONDENSED>  (956) 
Bz(4-MeNH2)-Gly

>  <IUPAC>  (956) 
2-(4-(aminomethyl)phenylcarbonylamino)acetic acid

>  <TYPE>  (956) 
Backbone

>  <CLASS>  (956) 
alpha

>  <ANALOG>  (956) 
Gly

>  <MOL_WT>  (956) 
208.21699999999993

>  <LOGP>  (956) 
-0.04030000000000028

>  <TPSA>  (956) 
92.42

>  <POPULARITY>  (956) 
9.9

>  <PROTECTED>  (956) 
TRUE

>  <SMILES>  (956) 
N(C(=O)c1(ccc(cc1)CN))CC(=O)O

>  <INCHIKEY>  (956) 
WELFABPWUARFGA-UHFFFAOYSA-N

$$$$
C
     RDKit          2D

  7  6  0  0  0  0  0  0  0  0999 V2000
    0.5797   -1.7367    0.0000 N   0  0  0  0  0  0  0  0  0  0  0  0
    0.2514   -0.2730    0.0000 C   0  0  0  0  0  0  0  0  0  0  0  0
    1.3548    0.7431    0.0000 C   0  0  0  0  0  0  0  0  0  0  0  0
    2.7865    0.2956    0.0000 S   0  0  0  0  0  0  0  0  0  0  0  0
   -1.1803    0.1745    0.0000 C   0  0  0  0  0  0  0  0  0  0  0  0
   -1.5086    1.6381    0.0000 O   0  0  0  0  0  0  0  0  0  0  0  0
   -2.2837   -0.8417    0.0000 O   0  0  0  0  0  0  0  0  0  0  0  0
  2  1  1  6
  2  3  1  0
  3  4  1  0
  2  5  1  0
  5  6  2  0
  5  7  1  0
M  END
>  <rName>  (957) 
C

>  <PQ_SYMBOL>  (957) 
C

>  <FULL_NAME>  (957) 
L-Cysteine

>  <IUPAC_CONDENSED>  (957) 
Cys

>  <IUPAC>  (957) 
(2R)-2-amino-3-sulfanylpropanoic acid

>  <TYPE>  (957) 
Backbone

>  <CLASS>  (957) 
alpha

>  <ANALOG>  (957) 
Cys

>  <MOL_WT>  (957) 
121.16099999999997

>  <LOGP>  (957) 
-0.6719000000000002

>  <TPSA>  (957) 
63.32000000000001

>  <POPULARITY>  (957) 
95.6

>  <PROTECTED>  (957) 
TRUE

>  <SMILES>  (957) 
N[C@@H](CS)C(=O)O

>  <INCHIKEY>  (957) 
XUJNEKJLAYXESH-REOHCLBHSA-N

$$$$
CO2cPent-Val_3Me
     RDKit          2D

 17 17  0  0  0  0  0  0  0  0999 V2000
   -4.8529   -1.0466    0.0000 C   0  0  0  0  0  0  0  0  0  0  0  0
   -3.3634   -0.8695    0.0000 C   0  0  0  0  0  0  0  0  0  0  0  0
   -3.0716    0.6019    0.0000 C   0  0  0  0  0  0  0  0  0  0  0  0
   -4.3808    1.3341    0.0000 C   0  0  0  0  0  0  0  0  0  0  0  0
   -5.4817    0.3153    0.0000 C   0  0  0  0  0  0  0  0  0  0  0  0
   -1.7097    1.2306    0.0000 O   0  0  0  0  0  0  0  0  0  0  0  0
   -0.4843    0.3656    0.0000 C   0  0  0  0  0  0  0  0  0  0  0  0
   -0.6207   -1.1282    0.0000 O   0  0  0  0  0  0  0  0  0  0  0  0
    0.8776    0.9943    0.0000 N   0  0  0  0  0  0  0  0  0  0  0  0
    2.1030    0.1293    0.0000 C   0  0  0  0  0  0  0  0  0  0  0  0
    3.4649    0.7580    0.0000 C   0  0  0  0  0  0  0  0  0  0  0  0
    4.0936   -0.6039    0.0000 C   0  0  0  0  0  0  0  0  0  0  0  0
    2.8361    2.1199    0.0000 C   0  0  0  0  0  0  0  0  0  0  0  0
    4.8267    1.3867    0.0000 C   0  0  0  0  0  0  0  0  0  0  0  0
    1.9666   -1.3645    0.0000 C   0  0  0  0  0  0  0  0  0  0  0  0
    0.6047   -1.9933    0.0000 O   0  0  0  0  0  0  0  0  0  0  0  0
    3.1920   -2.2296    0.0000 O   0  0  0  0  0  0  0  0  0  0  0  0
  1  2  1  0
  2  3  1  0
  3  4  1  0
  4  5  1  0
  3  6  1  0
  6  7  1  0
  7  8  2  0
  7  9  1  0
 10  9  1  1
 10 11  1  0
 11 12  1  0
 11 13  1  0
 11 14  1  0
 10 15  1  0
 15 16  2  0
 15 17  1  0
  5  1  1  0
M  END
>  <rName>  (958) 
CO2cPent-Val_3Me

>  <PQ_SYMBOL>  (958) 
CO2cPent-Val_3Me

>  <FULL_NAME>  (958) 
(2S)-2-(cyclopentyloxycarbonylamino)-3,3-dimethylbutanoic acid

>  <IUPAC_CONDENSED>  (958) 
CO2cPent-Val(3-Me)

>  <IUPAC>  (958) 
(2S)-2-cyclopentyloxycarbonylamino-3,3-dimethylbutanoic acid

>  <TYPE>  (958) 
N-term cap

>  <CLASS>  (958) 
n_cap

>  <ANALOG>  (958) 
X

>  <MOL_WT>  (958) 
243.303

>  <LOGP>  (958) 
2.1545

>  <TPSA>  (958) 
75.63

>  <POPULARITY>  (958) 
15.2

>  <PROTECTED>  (958) 
TRUE

>  <SMILES>  (958) 
C1CC(CC1)OC(=O)N[C@@H](C(C)(C)C)C(=O)O

>  <INCHIKEY>  (958) 
VKOXJCPQUQBCAJ-SECBINFHSA-N

$$$$
CO2iPr-Val
     RDKit          2D

 14 13  0  0  0  0  0  0  0  0999 V2000
   -4.9063    1.0720    0.0000 C   0  0  0  0  0  0  0  0  0  0  0  0
   -3.6156    0.3077    0.0000 C   0  0  0  0  0  0  0  0  0  0  0  0
   -3.6321   -1.1922    0.0000 C   0  0  0  0  0  0  0  0  0  0  0  0
   -2.3083    1.0434    0.0000 O   0  0  0  0  0  0  0  0  0  0  0  0
   -1.0177    0.2791    0.0000 C   0  0  0  0  0  0  0  0  0  0  0  0
   -1.0342   -1.2208    0.0000 O   0  0  0  0  0  0  0  0  0  0  0  0
    0.2896    1.0147    0.0000 N   0  0  0  0  0  0  0  0  0  0  0  0
    1.5803    0.2505    0.0000 C   0  0  0  0  0  0  0  0  0  0  0  0
    2.8875    0.9861    0.0000 C   0  0  0  0  0  0  0  0  0  0  0  0
    4.1782    0.2218    0.0000 C   0  0  0  0  0  0  0  0  0  0  0  0
    2.9040    2.4860    0.0000 C   0  0  0  0  0  0  0  0  0  0  0  0
    1.5637   -1.2495    0.0000 C   0  0  0  0  0  0  0  0  0  0  0  0
    0.2565   -1.9851    0.0000 O   0  0  0  0  0  0  0  0  0  0  0  0
    2.8544   -2.0137    0.0000 O   0  0  0  0  0  0  0  0  0  0  0  0
  1  2  1  0
  2  3  1  0
  2  4  1  0
  4  5  1  0
  5  6  2  0
  5  7  1  0
  8  7  1  1
  8  9  1  0
  9 10  1  0
  9 11  1  0
  8 12  1  0
 12 13  2  0
 12 14  1  0
M  END
>  <rName>  (959) 
CO2iPr-Val

>  <PQ_SYMBOL>  (959) 
CO2iPr-Val

>  <FULL_NAME>  (959) 
(2S)-3-methyl-2-(propan-2-yloxycarbonylamino)butanoic acid

>  <IUPAC_CONDENSED>  (959) 
CO2iPr-Val

>  <IUPAC>  (959) 
(2S)-2-isopropoxycarbonylamino-3-methylbutanoic acid

>  <TYPE>  (959) 
N-term cap

>  <CLASS>  (959) 
n_cap

>  <ANALOG>  (959) 
X

>  <MOL_WT>  (959) 
203.23799999999997

>  <LOGP>  (959) 
1.2301999999999997

>  <TPSA>  (959) 
75.63

>  <POPULARITY>  (959) 
12.5

>  <PROTECTED>  (959) 
TRUE

>  <SMILES>  (959) 
CC(C)OC(=O)N[C@@H](C(C)C)C(=O)O

>  <INCHIKEY>  (959) 
BOEQBJGCRDSQAI-ZETCQYMHSA-N

$$$$
Cbz
     RDKit          2D

 11 11  0  0  0  0  0  0  0  0999 V2000
   -3.6904   -0.4000    0.0000 C   0  0  0  0  0  0  0  0  0  0  0  0
   -3.2643    1.0382    0.0000 C   0  0  0  0  0  0  0  0  0  0  0  0
   -1.8057    1.3883    0.0000 C   0  0  0  0  0  0  0  0  0  0  0  0
   -0.7732    0.3002    0.0000 C   0  0  0  0  0  0  0  0  0  0  0  0
   -1.1993   -1.1380    0.0000 C   0  0  0  0  0  0  0  0  0  0  0  0
   -2.6579   -1.4881    0.0000 C   0  0  0  0  0  0  0  0  0  0  0  0
    0.6853    0.6503    0.0000 C   0  0  0  0  0  0  0  0  0  0  0  0
    1.7178   -0.4378    0.0000 O   0  0  0  0  0  0  0  0  0  0  0  0
    3.1764   -0.0877    0.0000 C   0  0  0  0  0  0  0  0  0  0  0  0
    3.6025    1.3505    0.0000 O   0  0  0  0  0  0  0  0  0  0  0  0
    4.2089   -1.1758    0.0000 O   0  0  0  0  0  0  0  0  0  0  0  0
  1  2  2  0
  2  3  1  0
  3  4  2  0
  4  5  1  0
  5  6  2  0
  4  7  1  0
  7  8  1  0
  8  9  1  0
  9 10  2  0
  9 11  1  0
  6  1  1  0
M  END
>  <rName>  (960) 
Cbz

>  <PQ_SYMBOL>  (960) 
Cbz

>  <FULL_NAME>  (960) 
Carboxybenzyl

>  <IUPAC_CONDENSED>  (960) 
Cbz

>  <IUPAC>  (960) 
benzyl hydrogen carbonate

>  <TYPE>  (960) 
N-term cap

>  <CLASS>  (960) 
n_cap

>  <ANALOG>  (960) 
X

>  <MOL_WT>  (960) 
152.14899999999997

>  <LOGP>  (960) 
1.8812000000000002

>  <TPSA>  (960) 
46.53

>  <POPULARITY>  (960) 
13.4

>  <PROTECTED>  (960) 
FALSE

>  <SMILES>  (960) 
c1ccc(cc1)COC(=O)O

>  <INCHIKEY>  (960) 
NJAPCAIWQRPQPY-UHFFFAOYSA-N

$$$$
Cha
     RDKit          2D

 12 12  0  0  0  0  0  0  0  0999 V2000
   -1.2391    1.6805    0.0000 N   0  0  0  0  0  0  0  0  0  0  0  0
   -1.6184    0.2292    0.0000 C   0  0  0  0  0  0  0  0  0  0  0  0
   -0.5513   -0.8249    0.0000 C   0  0  0  0  0  0  0  0  0  0  0  0
    0.8952   -0.4278    0.0000 C   0  0  0  0  0  0  0  0  0  0  0  0
    1.2745    1.0235    0.0000 C   0  0  0  0  0  0  0  0  0  0  0  0
    2.7210    1.4206    0.0000 C   0  0  0  0  0  0  0  0  0  0  0  0
    3.7882    0.3665    0.0000 C   0  0  0  0  0  0  0  0  0  0  0  0
    3.4088   -1.0848    0.0000 C   0  0  0  0  0  0  0  0  0  0  0  0
    1.9624   -1.4819    0.0000 C   0  0  0  0  0  0  0  0  0  0  0  0
   -3.0649   -0.1679    0.0000 C   0  0  0  0  0  0  0  0  0  0  0  0
   -3.4442   -1.6191    0.0000 O   0  0  0  0  0  0  0  0  0  0  0  0
   -4.1321    0.8862    0.0000 O   0  0  0  0  0  0  0  0  0  0  0  0
  2  1  1  1
  2  3  1  0
  3  4  1  0
  4  5  1  0
  5  6  1  0
  6  7  1  0
  7  8  1  0
  8  9  1  0
  2 10  1  0
 10 11  2  0
 10 12  1  0
  9  4  1  0
M  END
>  <rName>  (961) 
Cha

>  <PQ_SYMBOL>  (961) 
Cha

>  <FULL_NAME>  (961) 
3-Cyclohexyl-L-Alanine

>  <IUPAC_CONDENSED>  (961) 
Cha

>  <IUPAC>  (961) 
(2S)-2-amino-3-cyclohexylpropanoic acid

>  <TYPE>  (961) 
Backbone

>  <CLASS>  (961) 
alpha

>  <ANALOG>  (961) 
Ala

>  <MOL_WT>  (961) 
171.24

>  <LOGP>  (961) 
1.3687

>  <TPSA>  (961) 
63.32000000000001

>  <POPULARITY>  (961) 
48.2

>  <PROTECTED>  (961) 
TRUE

>  <SMILES>  (961) 
N[C@@H](CC1(CCCCC1))C(=O)O

>  <INCHIKEY>  (961) 
ORQXBVXKBGUSBA-QMMMGPOBSA-N

$$$$
Cha_3OH
     RDKit          2D

 13 13  0  0  0  0  0  0  0  0999 V2000
   -1.1110    1.8899    0.0000 N   0  0  0  0  0  0  0  0  0  0  0  0
   -1.5339    0.4508    0.0000 C   0  0  0  0  0  0  0  0  0  0  0  0
   -0.4991   -0.6350    0.0000 C   0  0  0  0  0  0  0  0  0  0  0  0
   -0.9220   -2.0742    0.0000 O   0  0  0  0  0  0  0  0  0  0  0  0
    0.9587   -0.2818    0.0000 C   0  0  0  0  0  0  0  0  0  0  0  0
    1.3817    1.1574    0.0000 C   0  0  0  0  0  0  0  0  0  0  0  0
    2.8395    1.5107    0.0000 C   0  0  0  0  0  0  0  0  0  0  0  0
    3.8743    0.4248    0.0000 C   0  0  0  0  0  0  0  0  0  0  0  0
    3.4514   -1.0143    0.0000 C   0  0  0  0  0  0  0  0  0  0  0  0
    1.9936   -1.3676    0.0000 C   0  0  0  0  0  0  0  0  0  0  0  0
   -2.9917    0.0975    0.0000 C   0  0  0  0  0  0  0  0  0  0  0  0
   -3.4147   -1.3416    0.0000 O   0  0  0  0  0  0  0  0  0  0  0  0
   -4.0266    1.1834    0.0000 O   0  0  0  0  0  0  0  0  0  0  0  0
  2  1  1  1
  2  3  1  0
  3  4  1  0
  3  5  1  0
  5  6  1  0
  6  7  1  0
  7  8  1  0
  8  9  1  0
  9 10  1  0
  2 11  1  0
 11 12  2  0
 11 13  1  0
 10  5  1  0
M  END
>  <rName>  (962) 
Cha_3OH

>  <PQ_SYMBOL>  (962) 
Cha_3OH

>  <FULL_NAME>  (962) 
β-(cyclohexyl)-β-hydroxy-L-alanine

>  <IUPAC_CONDENSED>  (962) 
Cha(3-OH)

>  <IUPAC>  (962) 
(2S)-2-amino-3-cyclohexyl-3-hydroxypropanoic acid

>  <TYPE>  (962) 
Backbone

>  <CLASS>  (962) 
alpha

>  <ANALOG>  (962) 
Thr

>  <MOL_WT>  (962) 
187.23899999999998

>  <LOGP>  (962) 
0.3394999999999994

>  <TPSA>  (962) 
83.55

>  <POPULARITY>  (962) 
5.7

>  <PROTECTED>  (962) 
TRUE

>  <SMILES>  (962) 
N[C@@H](C(O)C1(CCCCC1))C(=O)O

>  <INCHIKEY>  (962) 
MPPSCQJRTVSDRL-JAMMHHFISA-N

$$$$
Cha_72F
     RDKit          2D

 14 14  0  0  0  0  0  0  0  0999 V2000
   -1.8606    1.6756    0.0000 N   0  0  0  0  0  0  0  0  0  0  0  0
   -2.3089    0.2441    0.0000 C   0  0  0  0  0  0  0  0  0  0  0  0
   -1.2933   -0.8598    0.0000 C   0  0  0  0  0  0  0  0  0  0  0  0
    0.1705   -0.5324    0.0000 C   0  0  0  0  0  0  0  0  0  0  0  0
    0.6188    0.8991    0.0000 C   0  0  0  0  0  0  0  0  0  0  0  0
    2.0826    1.2266    0.0000 C   0  0  0  0  0  0  0  0  0  0  0  0
    3.0981    0.1226    0.0000 C   0  0  0  0  0  0  0  0  0  0  0  0
    4.0089    1.3144    0.0000 F   0  0  0  0  0  0  0  0  0  0  0  0
    4.4300   -0.5674    0.0000 F   0  0  0  0  0  0  0  0  0  0  0  0
    2.6498   -1.3088    0.0000 C   0  0  0  0  0  0  0  0  0  0  0  0
    1.1860   -1.6363    0.0000 C   0  0  0  0  0  0  0  0  0  0  0  0
   -3.7727   -0.0834    0.0000 C   0  0  0  0  0  0  0  0  0  0  0  0
   -4.2210   -1.5148    0.0000 O   0  0  0  0  0  0  0  0  0  0  0  0
   -4.7882    1.0206    0.0000 O   0  0  0  0  0  0  0  0  0  0  0  0
  2  1  1  1
  2  3  1  0
  3  4  1  0
  4  5  1  0
  5  6  1  0
  6  7  1  0
  7  8  1  0
  7  9  1  0
  7 10  1  0
 10 11  1  0
  2 12  1  0
 12 13  2  0
 12 14  1  0
 11  4  1  0
M  END
>  <rName>  (963) 
Cha_72F

>  <PQ_SYMBOL>  (963) 
Cha_72F

>  <FULL_NAME>  (963) 
(S)-2-amino-3-(4,4-difluorocyclohexyl)propanoic acid

>  <IUPAC_CONDENSED>  (963) 
Cha(7-2F)

>  <IUPAC>  (963) 
(2S)-2-amino-3-(4,4-difluorocyclohexyl)propanoic acid

>  <TYPE>  (963) 
Backbone

>  <CLASS>  (963) 
alpha

>  <ANALOG>  (963) 
X

>  <MOL_WT>  (963) 
207.21999999999997

>  <LOGP>  (963) 
1.6139000000000001

>  <TPSA>  (963) 
63.32000000000001

>  <POPULARITY>  (963) 
6.5

>  <PROTECTED>  (963) 
TRUE

>  <SMILES>  (963) 
N[C@@H](CC1(CCC(F)(F)CC1))C(=O)O

>  <INCHIKEY>  (963) 
LXHJNUVCXGOEQF-ZETCQYMHSA-N

$$$$
Chg
     RDKit          2D

 11 11  0  0  0  0  0  0  0  0999 V2000
   -1.6031   -2.0851    0.0000 N   0  0  0  0  0  0  0  0  0  0  0  0
   -1.1770   -0.6469    0.0000 C   0  0  0  0  0  0  0  0  0  0  0  0
    0.2816   -0.2968    0.0000 C   0  0  0  0  0  0  0  0  0  0  0  0
    0.7077    1.1415    0.0000 C   0  0  0  0  0  0  0  0  0  0  0  0
    2.1662    1.4916    0.0000 C   0  0  0  0  0  0  0  0  0  0  0  0
    3.1987    0.4035    0.0000 C   0  0  0  0  0  0  0  0  0  0  0  0
    2.7726   -1.0347    0.0000 C   0  0  0  0  0  0  0  0  0  0  0  0
    1.3141   -1.3849    0.0000 C   0  0  0  0  0  0  0  0  0  0  0  0
   -2.2095    0.4412    0.0000 C   0  0  0  0  0  0  0  0  0  0  0  0
   -1.7834    1.8794    0.0000 O   0  0  0  0  0  0  0  0  0  0  0  0
   -3.6680    0.0911    0.0000 O   0  0  0  0  0  0  0  0  0  0  0  0
  2  1  1  6
  2  3  1  0
  3  4  1  0
  4  5  1  0
  5  6  1  0
  6  7  1  0
  7  8  1  0
  2  9  1  0
  9 10  2  0
  9 11  1  0
  8  3  1  0
M  END
>  <rName>  (964) 
Chg

>  <PQ_SYMBOL>  (964) 
Chg

>  <FULL_NAME>  (964) 
L-Cyclohexylglycine

>  <IUPAC_CONDENSED>  (964) 
Chg

>  <IUPAC>  (964) 
(2S)-2-amino-2-cyclohexylacetic acid

>  <TYPE>  (964) 
Backbone

>  <CLASS>  (964) 
alpha

>  <ANALOG>  (964) 
X

>  <MOL_WT>  (964) 
157.21300000000002

>  <LOGP>  (964) 
0.9785999999999997

>  <TPSA>  (964) 
63.32000000000001

>  <POPULARITY>  (964) 
37.2

>  <PROTECTED>  (964) 
TRUE

>  <SMILES>  (964) 
N[C@@H](C1(CCCCC1))C(=O)O

>  <INCHIKEY>  (964) 
WAMWSIDTKSNDCU-ZETCQYMHSA-N

$$$$
Chg_62F
     RDKit          2D

 13 13  0  0  0  0  0  0  0  0999 V2000
   -2.4133   -2.0260    0.0000 N   0  0  0  0  0  0  0  0  0  0  0  0
   -1.8886   -0.6208    0.0000 C   0  0  0  0  0  0  0  0  0  0  0  0
   -0.4092   -0.3726    0.0000 C   0  0  0  0  0  0  0  0  0  0  0  0
    0.1155    1.0326    0.0000 C   0  0  0  0  0  0  0  0  0  0  0  0
    1.5948    1.2808    0.0000 C   0  0  0  0  0  0  0  0  0  0  0  0
    2.5494    0.1237    0.0000 C   0  0  0  0  0  0  0  0  0  0  0  0
    3.5231    1.2647    0.0000 F   0  0  0  0  0  0  0  0  0  0  0  0
    3.8422   -0.6370    0.0000 F   0  0  0  0  0  0  0  0  0  0  0  0
    2.0247   -1.2815    0.0000 C   0  0  0  0  0  0  0  0  0  0  0  0
    0.5454   -1.5297    0.0000 C   0  0  0  0  0  0  0  0  0  0  0  0
   -2.8431    0.5363    0.0000 C   0  0  0  0  0  0  0  0  0  0  0  0
   -2.3184    1.9415    0.0000 O   0  0  0  0  0  0  0  0  0  0  0  0
   -4.3225    0.2881    0.0000 O   0  0  0  0  0  0  0  0  0  0  0  0
  2  1  1  6
  2  3  1  0
  3  4  1  0
  4  5  1  0
  5  6  1  0
  6  7  1  0
  6  8  1  0
  6  9  1  0
  9 10  1  0
  2 11  1  0
 11 12  2  0
 11 13  1  0
 10  3  1  0
M  END
>  <rName>  (965) 
Chg_62F

>  <PQ_SYMBOL>  (965) 
Chg_62F

>  <FULL_NAME>  (965) 
(2S)-amino(4,4-difluorocyclohexyl)ethanoic acid

>  <IUPAC_CONDENSED>  (965) 
Chg(6-2F)

>  <IUPAC>  (965) 
(2S)-2-amino-2-(4,4-difluorocyclohexyl)acetic acid

>  <TYPE>  (965) 
Backbone

>  <CLASS>  (965) 
alpha

>  <ANALOG>  (965) 
X

>  <MOL_WT>  (965) 
193.19299999999998

>  <LOGP>  (965) 
1.2238

>  <TPSA>  (965) 
63.32000000000001

>  <POPULARITY>  (965) 
2.2

>  <PROTECTED>  (965) 
TRUE

>  <SMILES>  (965) 
N[C@@H](C1(CCC(F)(F)CC1))C(=O)O

>  <INCHIKEY>  (965) 
HOACGGSRPGHQFC-LURJTMIESA-N

$$$$
Chg_Me
     RDKit          2D

 12 12  0  0  0  0  0  0  0  0999 V2000
   -2.1139   -2.0272    0.0000 N   0  0  0  0  0  0  0  0  0  0  0  0
   -1.6041   -0.6165    0.0000 C   0  0  0  0  0  0  0  0  0  0  0  0
   -0.1275   -0.3527    0.0000 C   0  0  0  0  0  0  0  0  0  0  0  0
    0.3824    1.0580    0.0000 C   0  0  0  0  0  0  0  0  0  0  0  0
    1.8590    1.3219    0.0000 C   0  0  0  0  0  0  0  0  0  0  0  0
    2.8258    0.1750    0.0000 C   0  0  0  0  0  0  0  0  0  0  0  0
    4.3024    0.4388    0.0000 C   0  0  0  0  0  0  0  0  0  0  0  0
    2.3159   -1.2357    0.0000 C   0  0  0  0  0  0  0  0  0  0  0  0
    0.8393   -1.4995    0.0000 C   0  0  0  0  0  0  0  0  0  0  0  0
   -2.5709    0.5304    0.0000 C   0  0  0  0  0  0  0  0  0  0  0  0
   -2.0610    1.9411    0.0000 O   0  0  0  0  0  0  0  0  0  0  0  0
   -4.0475    0.2665    0.0000 O   0  0  0  0  0  0  0  0  0  0  0  0
  2  1  1  6
  2  3  1  0
  3  4  1  6
  4  5  1  0
  5  6  1  0
  6  7  1  1
  6  8  1  0
  8  9  1  0
  2 10  1  0
 10 11  2  0
 10 12  1  0
  9  3  1  0
M  END
>  <rName>  (966) 
Chg_Me

>  <PQ_SYMBOL>  (966) 
Chg_Me

>  <FULL_NAME>  (966) 
(S)-2-amino-2-((1r,4S)-4-methylcyclohexyl)acetic acid

>  <IUPAC_CONDENSED>  (966) 
Chg(Me)

>  <IUPAC>  (966) 
(2S)-2-amino-2-(trans-4-methylcyclohexyl)acetic acid

>  <TYPE>  (966) 
Backbone

>  <CLASS>  (966) 
alpha

>  <ANALOG>  (966) 
X

>  <MOL_WT>  (966) 
171.24

>  <LOGP>  (966) 
1.2245999999999997

>  <TPSA>  (966) 
63.32000000000001

>  <POPULARITY>  (966) 
5.8

>  <PROTECTED>  (966) 
TRUE

>  <SMILES>  (966) 
N[C@@H]([C@@H]1(CC[C@@H](C)CC1))C(=O)O

>  <INCHIKEY>  (966) 
UDUKPAOWJOMUSX-FXQIFTODSA-N

$$$$
Chg_OH
     RDKit          2D

 12 12  0  0  0  0  0  0  0  0999 V2000
   -2.1139   -2.0272    0.0000 N   0  0  0  0  0  0  0  0  0  0  0  0
   -1.6041   -0.6165    0.0000 C   0  0  0  0  0  0  0  0  0  0  0  0
   -0.1275   -0.3527    0.0000 C   0  0  0  0  0  0  0  0  0  0  0  0
    0.3824    1.0580    0.0000 C   0  0  0  0  0  0  0  0  0  0  0  0
    1.8590    1.3219    0.0000 C   0  0  0  0  0  0  0  0  0  0  0  0
    2.8258    0.1750    0.0000 C   0  0  0  0  0  0  0  0  0  0  0  0
    4.3024    0.4388    0.0000 O   0  0  0  0  0  0  0  0  0  0  0  0
    2.3159   -1.2357    0.0000 C   0  0  0  0  0  0  0  0  0  0  0  0
    0.8393   -1.4995    0.0000 C   0  0  0  0  0  0  0  0  0  0  0  0
   -2.5709    0.5304    0.0000 C   0  0  0  0  0  0  0  0  0  0  0  0
   -2.0610    1.9411    0.0000 O   0  0  0  0  0  0  0  0  0  0  0  0
   -4.0475    0.2665    0.0000 O   0  0  0  0  0  0  0  0  0  0  0  0
  2  1  1  6
  2  3  1  0
  3  4  1  0
  4  5  1  0
  5  6  1  0
  6  7  1  0
  6  8  1  0
  8  9  1  0
  2 10  1  0
 10 11  2  0
 10 12  1  0
  9  3  1  0
M  END
>  <rName>  (967) 
Chg_OH

>  <PQ_SYMBOL>  (967) 
Chg_OH

>  <FULL_NAME>  (967) 
(S)-2-amino-2-(4-hydroxycyclohexyl)acetic acid

>  <IUPAC_CONDENSED>  (967) 
Chg(OH)

>  <IUPAC>  (967) 
(2S)-2-amino-2-(4-hydroxycyclohexyl)acetic acid

>  <TYPE>  (967) 
Backbone

>  <CLASS>  (967) 
alpha

>  <ANALOG>  (967) 
X

>  <MOL_WT>  (967) 
173.212

>  <LOGP>  (967) 
-0.05060000000000048

>  <TPSA>  (967) 
83.55

>  <POPULARITY>  (967) 
7.8

>  <PROTECTED>  (967) 
TRUE

>  <SMILES>  (967) 
N[C@@H](C1(CCC(O)CC1))C(=O)O

>  <INCHIKEY>  (967) 
IMYYCZADDHYKLF-AHXFUIDQSA-N

$$$$
Cit
     RDKit          2D

 12 11  0  0  0  0  0  0  0  0999 V2000
    2.4617   -1.9005    0.0000 N   0  0  0  0  0  0  0  0  0  0  0  0
    2.4001   -0.4018    0.0000 C   0  0  0  0  0  0  0  0  0  0  0  0
    1.0713    0.2943    0.0000 C   0  0  0  0  0  0  0  0  0  0  0  0
   -0.1958   -0.5085    0.0000 C   0  0  0  0  0  0  0  0  0  0  0  0
   -1.5245    0.1875    0.0000 C   0  0  0  0  0  0  0  0  0  0  0  0
   -2.7917   -0.6152    0.0000 N   0  0  0  0  0  0  0  0  0  0  0  0
   -4.1204    0.0808    0.0000 C   0  0  0  0  0  0  0  0  0  0  0  0
   -4.1820    1.5796    0.0000 O   0  0  0  0  0  0  0  0  0  0  0  0
   -5.3876   -0.7219    0.0000 N   0  0  0  0  0  0  0  0  0  0  0  0
    3.6672    0.4010    0.0000 C   0  0  0  0  0  0  0  0  0  0  0  0
    3.6056    1.8997    0.0000 O   0  0  0  0  0  0  0  0  0  0  0  0
    4.9960   -0.2950    0.0000 O   0  0  0  0  0  0  0  0  0  0  0  0
  2  1  1  1
  2  3  1  0
  3  4  1  0
  4  5  1  0
  5  6  1  0
  6  7  1  0
  7  8  2  0
  7  9  1  0
  2 10  1  0
 10 11  2  0
 10 12  1  0
M  END
>  <rName>  (968) 
Cit

>  <PQ_SYMBOL>  (968) 
Cit

>  <FULL_NAME>  (968) 
L-Citrulline

>  <IUPAC_CONDENSED>  (968) 
Cit

>  <IUPAC>  (968) 
(2S)-2-amino-5-(carbamoylamino)pentanoic acid

>  <TYPE>  (968) 
Backbone

>  <CLASS>  (968) 
alpha

>  <ANALOG>  (968) 
Arg

>  <MOL_WT>  (968) 
175.188

>  <LOGP>  (968) 
-1.1531999999999991

>  <TPSA>  (968) 
118.44000000000001

>  <POPULARITY>  (968) 
41.5

>  <PROTECTED>  (968) 
TRUE

>  <SMILES>  (968) 
N[C@@H](CCCNC(=O)N)C(=O)O

>  <INCHIKEY>  (968) 
RHGKLRLOHDJJDR-BYPYZUCNSA-N

$$$$
CysS-CH2CO-5-FAM-NH2
     RDKit          2D

 36 39  0  0  0  0  0  0  0  0999 V2000
   -8.6880    1.9287    0.0000 N   0  0  0  0  0  0  0  0  0  0  0  0
   -8.9866    0.4587    0.0000 C   0  0  0  0  0  0  0  0  0  0  0  0
  -10.4089   -0.0177    0.0000 C   0  0  0  0  0  0  0  0  0  0  0  0
  -10.7075   -1.4876    0.0000 O   0  0  0  0  0  0  0  0  0  0  0  0
  -11.5327    0.9759    0.0000 N   0  0  0  0  0  0  0  0  0  0  0  0
   -7.8629   -0.5349    0.0000 C   0  0  0  0  0  0  0  0  0  0  0  0
   -6.4405   -0.0585    0.0000 S   0  0  0  0  0  0  0  0  0  0  0  0
   -5.3168   -1.0521    0.0000 C   0  0  0  0  0  0  0  0  0  0  0  0
   -3.8944   -0.5757    0.0000 C   0  0  0  0  0  0  0  0  0  0  0  0
   -3.5958    0.8943    0.0000 O   0  0  0  0  0  0  0  0  0  0  0  0
   -2.7707   -1.5693    0.0000 N   0  0  0  0  0  0  0  0  0  0  0  0
   -1.3484   -1.0929    0.0000 C   0  0  0  0  0  0  0  0  0  0  0  0
   -1.0498    0.3771    0.0000 C   0  0  0  0  0  0  0  0  0  0  0  0
    0.3726    0.8535    0.0000 C   0  0  0  0  0  0  0  0  0  0  0  0
    1.4963   -0.1401    0.0000 C   0  0  0  0  0  0  0  0  0  0  0  0
    1.1977   -1.6101    0.0000 C   0  0  0  0  0  0  0  0  0  0  0  0
   -0.2246   -2.0865    0.0000 C   0  0  0  0  0  0  0  0  0  0  0  0
    2.3214   -2.6037    0.0000 C   0  0  0  0  0  0  0  0  0  0  0  0
    3.1161   -2.5409    0.0000 O   0  0  0  0  0  0  0  0  0  0  0  0
    2.0228   -4.0737    0.0000 O   0  0  0  0  0  0  0  0  0  0  0  0
    2.9187    0.3363    0.0000 C   0  0  0  0  0  0  0  0  0  0  0  0
    3.2173    1.8063    0.0000 C   0  0  0  0  0  0  0  0  0  0  0  0
    2.0935    2.7998    0.0000 C   0  0  0  0  0  0  0  0  0  0  0  0
    2.3921    4.2698    0.0000 C   0  0  0  0  0  0  0  0  0  0  0  0
    3.8145    4.7462    0.0000 C   0  0  0  0  0  0  0  0  0  0  0  0
    4.9382    3.7526    0.0000 C   0  0  0  0  0  0  0  0  0  0  0  0
    4.6396    2.2826    0.0000 C   0  0  0  0  0  0  0  0  0  0  0  0
    5.7633    1.2890    0.0000 O   0  0  0  0  0  0  0  0  0  0  0  0
    5.4647   -0.1809    0.0000 C   0  0  0  0  0  0  0  0  0  0  0  0
    6.5885   -1.1745    0.0000 C   0  0  0  0  0  0  0  0  0  0  0  0
    6.2899   -2.6445    0.0000 C   0  0  0  0  0  0  0  0  0  0  0  0
    7.4136   -3.6381    0.0000 O   0  0  0  0  0  0  0  0  0  0  0  0
    4.8675   -3.1209    0.0000 C   0  0  0  0  0  0  0  0  0  0  0  0
    3.7438   -2.1273    0.0000 C   0  0  0  0  0  0  0  0  0  0  0  0
    4.0424   -0.6573    0.0000 C   0  0  0  0  0  0  0  0  0  0  0  0
    4.1131    6.2162    0.0000 O   0  0  0  0  0  0  0  0  0  0  0  0
  2  1  1  1
  2  3  1  0
  3  4  2  0
  3  5  1  0
  2  6  1  0
  6  7  1  0
  7  8  1  0
  8  9  1  0
  9 10  2  0
  9 11  1  0
 11 12  1  0
 12 13  1  0
 13 14  2  0
 14 15  1  0
 15 16  2  0
 16 17  1  0
 16 18  1  0
 18 19  2  0
 18 20  1  0
 15 21  1  0
 21 22  1  0
 22 23  1  0
 23 24  2  0
 24 25  1  0
 25 26  2  0
 26 27  1  0
 27 28  1  0
 28 29  1  0
 29 30  1  0
 30 31  2  0
 31 32  1  0
 31 33  1  0
 33 34  2  0
 34 35  1  0
 25 36  1  0
 27 22  2  0
 35 21  1  0
 35 29  2  0
 17 12  2  0
M  END
>  <rName>  (969) 
CysS-CH2CO-5-FAM-NH2

>  <PQ_SYMBOL>  (969) 
CysS-CH2CO-5-FAM-NH2

>  <FULL_NAME>  (969) 
5-[2-(2-AMINO-2-CARBAMOYL-ETHYLSULFANYL)-ACETYLAMINO]-2-(3,6-DIHYDROXY-9,9A-DIHYDRO-3H-XANTHEN-9-YL)-BENZOIC ACID

>  <IUPAC_CONDENSED>  (969) 
Cys(S-CH2CO-5-FAM)-NH2

>  <IUPAC>  (969) 
5-((((2R)-2,3-diamino-3-oxopropyl)sulfanyl)methylcarbonylamino)-2-(6,12-dihydroxy-9-oxatricyclo[8.4.0.0^{3,8}]tetradeca-1(14),3,5,7,10,12-hexaen-2-yl)benzoic acid

>  <TYPE>  (969) 
C-term cap

>  <CLASS>  (969) 
c_cap

>  <ANALOG>  (969) 
X

>  <MOL_WT>  (969) 
509.54000000000025

>  <LOGP>  (969) 
2.5662000000000007

>  <TPSA>  (969) 
185.19999999999996

>  <POPULARITY>  (969) 
6.6

>  <PROTECTED>  (969) 
FALSE

>  <SMILES>  (969) 
N[C@H](C(=O)N)CSCC(=O)Nc4ccc(c(c4)C(=O)O)C2c1ccc(cc1Oc3(cc(O)ccc23))O

>  <INCHIKEY>  (969) 
YQXANHSECNNVJK-IBGZPJMESA-N

$$$$
CysSPr-al
     RDKit          2D

 10  9  0  0  0  0  0  0  0  0999 V2000
   -2.4047    1.5516    0.0000 N   0  0  0  0  0  0  0  0  0  0  0  0
   -2.3425    0.0529    0.0000 C   0  0  0  0  0  0  0  0  0  0  0  0
   -3.6093   -0.7504    0.0000 C   0  0  0  0  0  0  0  0  0  0  0  0
   -4.9383   -0.0549    0.0000 O   0  0  0  0  0  0  0  0  0  0  0  0
   -1.0134   -0.6426    0.0000 C   0  0  0  0  0  0  0  0  0  0  0  0
    0.2534    0.1607    0.0000 S   0  0  0  0  0  0  0  0  0  0  0  0
    1.5824   -0.5348    0.0000 S   0  0  0  0  0  0  0  0  0  0  0  0
    2.8492    0.2685    0.0000 C   0  0  0  0  0  0  0  0  0  0  0  0
    4.1782   -0.4270    0.0000 C   0  0  0  0  0  0  0  0  0  0  0  0
    5.4450    0.3762    0.0000 C   0  0  0  0  0  0  0  0  0  0  0  0
  2  1  1  1
  2  3  1  0
  3  4  2  0
  2  5  1  0
  5  6  1  0
  6  7  1  0
  7  8  1  0
  8  9  1  0
  9 10  1  0
M  END
>  <rName>  (970) 
CysSPr-al

>  <PQ_SYMBOL>  (970) 
CysSPr-al

>  <FULL_NAME>  (970) 
S,S-PROPYLTHIOCYSTEINE

>  <IUPAC_CONDENSED>  (970) 
Cys(SPr)-al

>  <IUPAC>  (970) 
(2R)-2-amino-3-(propylsulfanylsulfanyl)propanal

>  <TYPE>  (970) 
C-term cap

>  <CLASS>  (970) 
c_cap

>  <ANALOG>  (970) 
X

>  <MOL_WT>  (970) 
179.30999999999997

>  <LOGP>  (970) 
1.3039999999999998

>  <TPSA>  (970) 
43.09

>  <POPULARITY>  (970) 
14.4

>  <PROTECTED>  (970) 
FALSE

>  <SMILES>  (970) 
N[C@H](C=O)CSSCCC

>  <INCHIKEY>  (970) 
JOUZYBMKOXDVCY-ZCFIWIBFSA-N

$$$$
Cys_23dipalmitoyloxypropyl
     RDKit          2D

 46 45  0  0  0  0  0  0  0  0999 V2000
    3.0206    3.2686    0.0000 N   0  0  0  0  0  0  0  0  0  0  0  0
    1.7278    4.0293    0.0000 C   0  0  0  0  0  0  0  0  0  0  0  0
    0.4226    3.2901    0.0000 C   0  0  0  0  0  0  0  0  0  0  0  0
    0.4102    1.7901    0.0000 S   0  0  0  0  0  0  0  0  0  0  0  0
   -0.8950    1.0509    0.0000 C   0  0  0  0  0  0  0  0  0  0  0  0
   -0.9074   -0.4490    0.0000 C   0  0  0  0  0  0  0  0  0  0  0  0
   -2.2126   -1.1882    0.0000 O   0  0  0  0  0  0  0  0  0  0  0  0
   -3.5054   -0.4275    0.0000 C   0  0  0  0  0  0  0  0  0  0  0  0
   -3.4930    1.0724    0.0000 O   0  0  0  0  0  0  0  0  0  0  0  0
   -4.8106   -1.1667    0.0000 C   0  0  0  0  0  0  0  0  0  0  0  0
   -6.1034   -0.4060    0.0000 C   0  0  0  0  0  0  0  0  0  0  0  0
   -7.4086   -1.1452    0.0000 C   0  0  0  0  0  0  0  0  0  0  0  0
   -8.7014   -0.3845    0.0000 C   0  0  0  0  0  0  0  0  0  0  0  0
  -10.0066   -1.1237    0.0000 C   0  0  0  0  0  0  0  0  0  0  0  0
  -11.2994   -0.3630    0.0000 C   0  0  0  0  0  0  0  0  0  0  0  0
  -12.6046   -1.1022    0.0000 C   0  0  0  0  0  0  0  0  0  0  0  0
  -13.8974   -0.3414    0.0000 C   0  0  0  0  0  0  0  0  0  0  0  0
  -15.2026   -1.0807    0.0000 C   0  0  0  0  0  0  0  0  0  0  0  0
  -16.4954   -0.3199    0.0000 C   0  0  0  0  0  0  0  0  0  0  0  0
  -17.8006   -1.0591    0.0000 C   0  0  0  0  0  0  0  0  0  0  0  0
  -19.0933   -0.2984    0.0000 C   0  0  0  0  0  0  0  0  0  0  0  0
  -20.3985   -1.0376    0.0000 C   0  0  0  0  0  0  0  0  0  0  0  0
  -21.6913   -0.2769    0.0000 C   0  0  0  0  0  0  0  0  0  0  0  0
  -22.9965   -1.0161    0.0000 C   0  0  0  0  0  0  0  0  0  0  0  0
    0.3854   -1.2098    0.0000 C   0  0  0  0  0  0  0  0  0  0  0  0
    1.6906   -0.4705    0.0000 O   0  0  0  0  0  0  0  0  0  0  0  0
    2.9833   -1.2313    0.0000 C   0  0  0  0  0  0  0  0  0  0  0  0
    2.9709   -2.7312    0.0000 O   0  0  0  0  0  0  0  0  0  0  0  0
    4.2885   -0.4921    0.0000 C   0  0  0  0  0  0  0  0  0  0  0  0
    5.5813   -1.2528    0.0000 C   0  0  0  0  0  0  0  0  0  0  0  0
    6.8865   -0.5136    0.0000 C   0  0  0  0  0  0  0  0  0  0  0  0
    8.1793   -1.2743    0.0000 C   0  0  0  0  0  0  0  0  0  0  0  0
    9.4845   -0.5351    0.0000 C   0  0  0  0  0  0  0  0  0  0  0  0
   10.7773   -1.2958    0.0000 C   0  0  0  0  0  0  0  0  0  0  0  0
   12.0825   -0.5566    0.0000 C   0  0  0  0  0  0  0  0  0  0  0  0
   13.3753   -1.3173    0.0000 C   0  0  0  0  0  0  0  0  0  0  0  0
   14.6805   -0.5781    0.0000 C   0  0  0  0  0  0  0  0  0  0  0  0
   15.9733   -1.3388    0.0000 C   0  0  0  0  0  0  0  0  0  0  0  0
   17.2785   -0.5996    0.0000 C   0  0  0  0  0  0  0  0  0  0  0  0
   18.5713   -1.3604    0.0000 C   0  0  0  0  0  0  0  0  0  0  0  0
   19.8765   -0.6211    0.0000 C   0  0  0  0  0  0  0  0  0  0  0  0
   21.1693   -1.3819    0.0000 C   0  0  0  0  0  0  0  0  0  0  0  0
   22.4745   -0.6427    0.0000 C   0  0  0  0  0  0  0  0  0  0  0  0
    1.7402    5.5293    0.0000 C   0  0  0  0  0  0  0  0  0  0  0  0
    0.4475    6.2900    0.0000 O   0  0  0  0  0  0  0  0  0  0  0  0
    3.0455    6.2685    0.0000 O   0  0  0  0  0  0  0  0  0  0  0  0
  2  1  1  1
  2  3  1  0
  3  4  1  0
  4  5  1  0
  5  6  1  0
  6  7  1  0
  7  8  1  0
  8  9  2  0
  8 10  1  0
 10 11  1  0
 11 12  1  0
 12 13  1  0
 13 14  1  0
 14 15  1  0
 15 16  1  0
 16 17  1  0
 17 18  1  0
 18 19  1  0
 19 20  1  0
 20 21  1  0
 21 22  1  0
 22 23  1  0
 23 24  1  0
  6 25  1  0
 25 26  1  0
 26 27  1  0
 27 28  2  0
 27 29  1  0
 29 30  1  0
 30 31  1  0
 31 32  1  0
 32 33  1  0
 33 34  1  0
 34 35  1  0
 35 36  1  0
 36 37  1  0
 37 38  1  0
 38 39  1  0
 39 40  1  0
 40 41  1  0
 41 42  1  0
 42 43  1  0
  2 44  1  0
 44 45  2  0
 44 46  1  0
M  END
>  <rName>  (971) 
Cys_23dipalmitoyloxypropyl

>  <PQ_SYMBOL>  (971) 
Cys_23dipalmitoyloxypropyl

>  <FULL_NAME>  (971) 
S-(2,3-bis(palmitoyloxy)propyl)-L-cysteine

>  <IUPAC_CONDENSED>  (971) 
Cys(2,3-dipalmitoyloxypropyl)

>  <IUPAC>  (971) 
(2R)-2-amino-3-((2,3-bis(pentadecylcarbonyloxy)propyl)sulfanyl)propanoic acid

>  <TYPE>  (971) 
Backbone

>  <CLASS>  (971) 
alpha

>  <ANALOG>  (971) 
Cys

>  <MOL_WT>  (971) 
672.0700000000002

>  <LOGP>  (971) 
10.549099999999997

>  <TPSA>  (971) 
115.92

>  <POPULARITY>  (971) 
7.4

>  <PROTECTED>  (971) 
TRUE

>  <SMILES>  (971) 
N[C@@H](CSCC(OC(=O)CCCCCCCCCCCCCCC)COC(=O)CCCCCCCCCCCCCCC)C(=O)O

>  <INCHIKEY>  (971) 
UPAQRWMRKQCLSD-HTIIIDOHSA-N

$$$$
Cys_2R3dipalmitoyloxypropyl
     RDKit          2D

 46 45  0  0  0  0  0  0  0  0999 V2000
    3.0206    3.2686    0.0000 N   0  0  0  0  0  0  0  0  0  0  0  0
    1.7278    4.0293    0.0000 C   0  0  0  0  0  0  0  0  0  0  0  0
    0.4226    3.2901    0.0000 C   0  0  0  0  0  0  0  0  0  0  0  0
    0.4102    1.7901    0.0000 S   0  0  0  0  0  0  0  0  0  0  0  0
   -0.8950    1.0509    0.0000 C   0  0  0  0  0  0  0  0  0  0  0  0
   -0.9074   -0.4490    0.0000 C   0  0  0  0  0  0  0  0  0  0  0  0
   -2.2126   -1.1882    0.0000 O   0  0  0  0  0  0  0  0  0  0  0  0
   -3.5054   -0.4275    0.0000 C   0  0  0  0  0  0  0  0  0  0  0  0
   -3.4930    1.0724    0.0000 O   0  0  0  0  0  0  0  0  0  0  0  0
   -4.8106   -1.1667    0.0000 C   0  0  0  0  0  0  0  0  0  0  0  0
   -6.1034   -0.4060    0.0000 C   0  0  0  0  0  0  0  0  0  0  0  0
   -7.4086   -1.1452    0.0000 C   0  0  0  0  0  0  0  0  0  0  0  0
   -8.7014   -0.3845    0.0000 C   0  0  0  0  0  0  0  0  0  0  0  0
  -10.0066   -1.1237    0.0000 C   0  0  0  0  0  0  0  0  0  0  0  0
  -11.2994   -0.3630    0.0000 C   0  0  0  0  0  0  0  0  0  0  0  0
  -12.6046   -1.1022    0.0000 C   0  0  0  0  0  0  0  0  0  0  0  0
  -13.8974   -0.3414    0.0000 C   0  0  0  0  0  0  0  0  0  0  0  0
  -15.2026   -1.0807    0.0000 C   0  0  0  0  0  0  0  0  0  0  0  0
  -16.4954   -0.3199    0.0000 C   0  0  0  0  0  0  0  0  0  0  0  0
  -17.8006   -1.0591    0.0000 C   0  0  0  0  0  0  0  0  0  0  0  0
  -19.0933   -0.2984    0.0000 C   0  0  0  0  0  0  0  0  0  0  0  0
  -20.3985   -1.0376    0.0000 C   0  0  0  0  0  0  0  0  0  0  0  0
  -21.6913   -0.2769    0.0000 C   0  0  0  0  0  0  0  0  0  0  0  0
  -22.9965   -1.0161    0.0000 C   0  0  0  0  0  0  0  0  0  0  0  0
    0.3854   -1.2098    0.0000 C   0  0  0  0  0  0  0  0  0  0  0  0
    1.6906   -0.4705    0.0000 O   0  0  0  0  0  0  0  0  0  0  0  0
    2.9833   -1.2313    0.0000 C   0  0  0  0  0  0  0  0  0  0  0  0
    2.9709   -2.7312    0.0000 O   0  0  0  0  0  0  0  0  0  0  0  0
    4.2885   -0.4921    0.0000 C   0  0  0  0  0  0  0  0  0  0  0  0
    5.5813   -1.2528    0.0000 C   0  0  0  0  0  0  0  0  0  0  0  0
    6.8865   -0.5136    0.0000 C   0  0  0  0  0  0  0  0  0  0  0  0
    8.1793   -1.2743    0.0000 C   0  0  0  0  0  0  0  0  0  0  0  0
    9.4845   -0.5351    0.0000 C   0  0  0  0  0  0  0  0  0  0  0  0
   10.7773   -1.2958    0.0000 C   0  0  0  0  0  0  0  0  0  0  0  0
   12.0825   -0.5566    0.0000 C   0  0  0  0  0  0  0  0  0  0  0  0
   13.3753   -1.3173    0.0000 C   0  0  0  0  0  0  0  0  0  0  0  0
   14.6805   -0.5781    0.0000 C   0  0  0  0  0  0  0  0  0  0  0  0
   15.9733   -1.3388    0.0000 C   0  0  0  0  0  0  0  0  0  0  0  0
   17.2785   -0.5996    0.0000 C   0  0  0  0  0  0  0  0  0  0  0  0
   18.5713   -1.3604    0.0000 C   0  0  0  0  0  0  0  0  0  0  0  0
   19.8765   -0.6211    0.0000 C   0  0  0  0  0  0  0  0  0  0  0  0
   21.1693   -1.3819    0.0000 C   0  0  0  0  0  0  0  0  0  0  0  0
   22.4745   -0.6427    0.0000 C   0  0  0  0  0  0  0  0  0  0  0  0
    1.7402    5.5293    0.0000 C   0  0  0  0  0  0  0  0  0  0  0  0
    0.4475    6.2900    0.0000 O   0  0  0  0  0  0  0  0  0  0  0  0
    3.0455    6.2685    0.0000 O   0  0  0  0  0  0  0  0  0  0  0  0
  2  1  1  1
  2  3  1  0
  3  4  1  0
  4  5  1  0
  6  5  1  1
  6  7  1  0
  7  8  1  0
  8  9  2  0
  8 10  1  0
 10 11  1  0
 11 12  1  0
 12 13  1  0
 13 14  1  0
 14 15  1  0
 15 16  1  0
 16 17  1  0
 17 18  1  0
 18 19  1  0
 19 20  1  0
 20 21  1  0
 21 22  1  0
 22 23  1  0
 23 24  1  0
  6 25  1  0
 25 26  1  0
 26 27  1  0
 27 28  2  0
 27 29  1  0
 29 30  1  0
 30 31  1  0
 31 32  1  0
 32 33  1  0
 33 34  1  0
 34 35  1  0
 35 36  1  0
 36 37  1  0
 37 38  1  0
 38 39  1  0
 39 40  1  0
 40 41  1  0
 41 42  1  0
 42 43  1  0
  2 44  1  0
 44 45  2  0
 44 46  1  0
M  END
>  <rName>  (972) 
Cys_2R3dipalmitoyloxypropyl

>  <PQ_SYMBOL>  (972) 
Cys_2R3dipalmitoyloxypropyl

>  <FULL_NAME>  (972) 
S-((R)-2,3-bis(palmitoyloxy)propyl)-L-cysteine

>  <IUPAC_CONDENSED>  (972) 
Cys(2R,3-dipalmitoyloxypropyl)

>  <IUPAC>  (972) 
(2R)-2-amino-3-(((2R)-2,3-bis(pentadecylcarbonyloxy)propyl)sulfanyl)propanoic acid

>  <TYPE>  (972) 
Backbone

>  <CLASS>  (972) 
alpha

>  <ANALOG>  (972) 
Cys

>  <MOL_WT>  (972) 
672.0700000000002

>  <LOGP>  (972) 
10.549099999999997

>  <TPSA>  (972) 
115.92

>  <POPULARITY>  (972) 
7.1

>  <PROTECTED>  (972) 
TRUE

>  <SMILES>  (972) 
N[C@@H](CSC[C@H](OC(=O)CCCCCCCCCCCCCCC)COC(=O)CCCCCCCCCCCCCCC)C(=O)O

>  <INCHIKEY>  (972) 
UPAQRWMRKQCLSD-GPOMZPHUSA-N

$$$$
Cys_2S3dipalmitoyloxypropyl
     RDKit          2D

 46 45  0  0  0  0  0  0  0  0999 V2000
    3.0206    3.2686    0.0000 N   0  0  0  0  0  0  0  0  0  0  0  0
    1.7278    4.0293    0.0000 C   0  0  0  0  0  0  0  0  0  0  0  0
    0.4226    3.2901    0.0000 C   0  0  0  0  0  0  0  0  0  0  0  0
    0.4102    1.7901    0.0000 S   0  0  0  0  0  0  0  0  0  0  0  0
   -0.8950    1.0509    0.0000 C   0  0  0  0  0  0  0  0  0  0  0  0
   -0.9074   -0.4490    0.0000 C   0  0  0  0  0  0  0  0  0  0  0  0
   -2.2126   -1.1882    0.0000 O   0  0  0  0  0  0  0  0  0  0  0  0
   -3.5054   -0.4275    0.0000 C   0  0  0  0  0  0  0  0  0  0  0  0
   -3.4930    1.0724    0.0000 O   0  0  0  0  0  0  0  0  0  0  0  0
   -4.8106   -1.1667    0.0000 C   0  0  0  0  0  0  0  0  0  0  0  0
   -6.1034   -0.4060    0.0000 C   0  0  0  0  0  0  0  0  0  0  0  0
   -7.4086   -1.1452    0.0000 C   0  0  0  0  0  0  0  0  0  0  0  0
   -8.7014   -0.3845    0.0000 C   0  0  0  0  0  0  0  0  0  0  0  0
  -10.0066   -1.1237    0.0000 C   0  0  0  0  0  0  0  0  0  0  0  0
  -11.2994   -0.3630    0.0000 C   0  0  0  0  0  0  0  0  0  0  0  0
  -12.6046   -1.1022    0.0000 C   0  0  0  0  0  0  0  0  0  0  0  0
  -13.8974   -0.3414    0.0000 C   0  0  0  0  0  0  0  0  0  0  0  0
  -15.2026   -1.0807    0.0000 C   0  0  0  0  0  0  0  0  0  0  0  0
  -16.4954   -0.3199    0.0000 C   0  0  0  0  0  0  0  0  0  0  0  0
  -17.8006   -1.0591    0.0000 C   0  0  0  0  0  0  0  0  0  0  0  0
  -19.0933   -0.2984    0.0000 C   0  0  0  0  0  0  0  0  0  0  0  0
  -20.3985   -1.0376    0.0000 C   0  0  0  0  0  0  0  0  0  0  0  0
  -21.6913   -0.2769    0.0000 C   0  0  0  0  0  0  0  0  0  0  0  0
  -22.9965   -1.0161    0.0000 C   0  0  0  0  0  0  0  0  0  0  0  0
    0.3854   -1.2098    0.0000 C   0  0  0  0  0  0  0  0  0  0  0  0
    1.6906   -0.4705    0.0000 O   0  0  0  0  0  0  0  0  0  0  0  0
    2.9833   -1.2313    0.0000 C   0  0  0  0  0  0  0  0  0  0  0  0
    2.9709   -2.7312    0.0000 O   0  0  0  0  0  0  0  0  0  0  0  0
    4.2885   -0.4921    0.0000 C   0  0  0  0  0  0  0  0  0  0  0  0
    5.5813   -1.2528    0.0000 C   0  0  0  0  0  0  0  0  0  0  0  0
    6.8865   -0.5136    0.0000 C   0  0  0  0  0  0  0  0  0  0  0  0
    8.1793   -1.2743    0.0000 C   0  0  0  0  0  0  0  0  0  0  0  0
    9.4845   -0.5351    0.0000 C   0  0  0  0  0  0  0  0  0  0  0  0
   10.7773   -1.2958    0.0000 C   0  0  0  0  0  0  0  0  0  0  0  0
   12.0825   -0.5566    0.0000 C   0  0  0  0  0  0  0  0  0  0  0  0
   13.3753   -1.3173    0.0000 C   0  0  0  0  0  0  0  0  0  0  0  0
   14.6805   -0.5781    0.0000 C   0  0  0  0  0  0  0  0  0  0  0  0
   15.9733   -1.3388    0.0000 C   0  0  0  0  0  0  0  0  0  0  0  0
   17.2785   -0.5996    0.0000 C   0  0  0  0  0  0  0  0  0  0  0  0
   18.5713   -1.3604    0.0000 C   0  0  0  0  0  0  0  0  0  0  0  0
   19.8765   -0.6211    0.0000 C   0  0  0  0  0  0  0  0  0  0  0  0
   21.1693   -1.3819    0.0000 C   0  0  0  0  0  0  0  0  0  0  0  0
   22.4745   -0.6427    0.0000 C   0  0  0  0  0  0  0  0  0  0  0  0
    1.7402    5.5293    0.0000 C   0  0  0  0  0  0  0  0  0  0  0  0
    0.4475    6.2900    0.0000 O   0  0  0  0  0  0  0  0  0  0  0  0
    3.0455    6.2685    0.0000 O   0  0  0  0  0  0  0  0  0  0  0  0
  2  1  1  1
  2  3  1  0
  3  4  1  0
  4  5  1  0
  6  5  1  6
  6  7  1  0
  7  8  1  0
  8  9  2  0
  8 10  1  0
 10 11  1  0
 11 12  1  0
 12 13  1  0
 13 14  1  0
 14 15  1  0
 15 16  1  0
 16 17  1  0
 17 18  1  0
 18 19  1  0
 19 20  1  0
 20 21  1  0
 21 22  1  0
 22 23  1  0
 23 24  1  0
  6 25  1  0
 25 26  1  0
 26 27  1  0
 27 28  2  0
 27 29  1  0
 29 30  1  0
 30 31  1  0
 31 32  1  0
 32 33  1  0
 33 34  1  0
 34 35  1  0
 35 36  1  0
 36 37  1  0
 37 38  1  0
 38 39  1  0
 39 40  1  0
 40 41  1  0
 41 42  1  0
 42 43  1  0
  2 44  1  0
 44 45  2  0
 44 46  1  0
M  END
>  <rName>  (973) 
Cys_2S3dipalmitoyloxypropyl

>  <PQ_SYMBOL>  (973) 
Cys_2S3dipalmitoyloxypropyl

>  <FULL_NAME>  (973) 
S-((S)-2,3-bis(palmitoyloxy)propyl)-L-cysteine

>  <IUPAC_CONDENSED>  (973) 
Cys(2S,3-dipalmitoyloxypropyl)

>  <IUPAC>  (973) 
(2R)-2-amino-3-(((2S)-2,3-bis(pentadecylcarbonyloxy)propyl)sulfanyl)propanoic acid

>  <TYPE>  (973) 
Backbone

>  <CLASS>  (973) 
alpha

>  <ANALOG>  (973) 
Cys

>  <MOL_WT>  (973) 
672.0700000000002

>  <LOGP>  (973) 
10.549099999999997

>  <TPSA>  (973) 
115.92

>  <POPULARITY>  (973) 
6.4

>  <PROTECTED>  (973) 
TRUE

>  <SMILES>  (973) 
N[C@@H](CSC[C@@H](OC(=O)CCCCCCCCCCCCCCC)COC(=O)CCCCCCCCCCCCCCC)C(=O)O

>  <INCHIKEY>  (973) 
UPAQRWMRKQCLSD-PXLJZGITSA-N

$$$$
Cys_2carboxyethyl
     RDKit          2D

 12 11  0  0  0  0  0  0  0  0999 V2000
    2.4617    1.9005    0.0000 N   0  0  0  0  0  0  0  0  0  0  0  0
    2.4001    0.4018    0.0000 C   0  0  0  0  0  0  0  0  0  0  0  0
    1.0713   -0.2943    0.0000 C   0  0  0  0  0  0  0  0  0  0  0  0
   -0.1958    0.5085    0.0000 S   0  0  0  0  0  0  0  0  0  0  0  0
   -1.5245   -0.1875    0.0000 C   0  0  0  0  0  0  0  0  0  0  0  0
   -2.7917    0.6152    0.0000 C   0  0  0  0  0  0  0  0  0  0  0  0
   -4.1204   -0.0808    0.0000 C   0  0  0  0  0  0  0  0  0  0  0  0
   -4.1820   -1.5796    0.0000 O   0  0  0  0  0  0  0  0  0  0  0  0
   -5.3876    0.7219    0.0000 O   0  0  0  0  0  0  0  0  0  0  0  0
    3.6672   -0.4010    0.0000 C   0  0  0  0  0  0  0  0  0  0  0  0
    3.6056   -1.8997    0.0000 O   0  0  0  0  0  0  0  0  0  0  0  0
    4.9960    0.2950    0.0000 O   0  0  0  0  0  0  0  0  0  0  0  0
  2  1  1  6
  2  3  1  0
  3  4  1  0
  4  5  1  0
  5  6  1  0
  6  7  1  0
  7  8  2  0
  7  9  1  0
  2 10  1  0
 10 11  2  0
 10 12  1  0
M  END
>  <rName>  (974) 
Cys_2carboxyethyl

>  <PQ_SYMBOL>  (974) 
Cys_2carboxyethyl

>  <FULL_NAME>  (974) 
S-(2-carboxyethyl)-L-cysteine

>  <IUPAC_CONDENSED>  (974) 
Cys(2-carboxyethyl)

>  <IUPAC>  (974) 
(2R)-2-amino-3-((3-hydroxy-3-oxopropyl)sulfanyl)propanoic acid

>  <TYPE>  (974) 
Backbone

>  <CLASS>  (974) 
alpha

>  <ANALOG>  (974) 
Cys

>  <MOL_WT>  (974) 
193.224

>  <LOGP>  (974) 
-0.3938000000000004

>  <TPSA>  (974) 
100.62000000000002

>  <POPULARITY>  (974) 
15.1

>  <PROTECTED>  (974) 
TRUE

>  <SMILES>  (974) 
N[C@@H](CSCCC(=O)O)C(=O)O

>  <INCHIKEY>  (974) 
FBPINGSGHKXIQA-BYPYZUCNSA-N

$$$$
Cys_3carboxypropyl
     RDKit          2D

 13 12  0  0  0  0  0  0  0  0999 V2000
   -2.9072   -1.8790    0.0000 N   0  0  0  0  0  0  0  0  0  0  0  0
   -2.9824   -0.3808    0.0000 C   0  0  0  0  0  0  0  0  0  0  0  0
   -1.7226    0.4334    0.0000 C   0  0  0  0  0  0  0  0  0  0  0  0
   -0.3876   -0.2505    0.0000 S   0  0  0  0  0  0  0  0  0  0  0  0
    0.8722    0.5637    0.0000 C   0  0  0  0  0  0  0  0  0  0  0  0
    2.2072   -0.1202    0.0000 C   0  0  0  0  0  0  0  0  0  0  0  0
    3.4670    0.6940    0.0000 C   0  0  0  0  0  0  0  0  0  0  0  0
    4.8020    0.0101    0.0000 C   0  0  0  0  0  0  0  0  0  0  0  0
    4.8772   -1.4880    0.0000 O   0  0  0  0  0  0  0  0  0  0  0  0
    6.0618    0.8243    0.0000 O   0  0  0  0  0  0  0  0  0  0  0  0
   -4.3175    0.3030    0.0000 C   0  0  0  0  0  0  0  0  0  0  0  0
   -4.3927    1.8012    0.0000 O   0  0  0  0  0  0  0  0  0  0  0  0
   -5.5772   -0.5112    0.0000 O   0  0  0  0  0  0  0  0  0  0  0  0
  2  1  1  6
  2  3  1  0
  3  4  1  0
  4  5  1  0
  5  6  1  0
  6  7  1  0
  7  8  1  0
  8  9  2  0
  8 10  1  0
  2 11  1  0
 11 12  2  0
 11 13  1  0
M  END
>  <rName>  (975) 
Cys_3carboxypropyl

>  <PQ_SYMBOL>  (975) 
Cys_3carboxypropyl

>  <FULL_NAME>  (975) 
(R)-4-((2-amino-2-carboxyethyl)thio)butanoic acid

>  <IUPAC_CONDENSED>  (975) 
Cys(3-carboxypropyl)

>  <IUPAC>  (975) 
4-(((2R)-2-amino-3-hydroxy-3-oxopropyl)sulfanyl)butanoic acid

>  <TYPE>  (975) 
Backbone

>  <CLASS>  (975) 
alpha

>  <ANALOG>  (975) 
Cys

>  <MOL_WT>  (975) 
207.251

>  <LOGP>  (975) 
-0.0037000000000001476

>  <TPSA>  (975) 
100.62000000000002

>  <POPULARITY>  (975) 
7.6

>  <PROTECTED>  (975) 
TRUE

>  <SMILES>  (975) 
N[C@@H](CSCCCC(=O)O)C(=O)O

>  <INCHIKEY>  (975) 
WNFNRNDFHINZLV-YFKPBYRVSA-N

$$$$
Cys_7OH2oxochromen4yl
     RDKit          2D

 20 21  0  0  0  0  0  0  0  0999 V2000
   -4.6539   -1.5011    0.0000 N   0  0  0  0  0  0  0  0  0  0  0  0
   -4.5565   -0.0042    0.0000 C   0  0  0  0  0  0  0  0  0  0  0  0
   -3.2115    0.6599    0.0000 C   0  0  0  0  0  0  0  0  0  0  0  0
   -1.9639   -0.1729    0.0000 S   0  0  0  0  0  0  0  0  0  0  0  0
   -0.6189    0.4912    0.0000 C   0  0  0  0  0  0  0  0  0  0  0  0
    0.6287   -0.3415    0.0000 C   0  0  0  0  0  0  0  0  0  0  0  0
    0.5313   -1.8384    0.0000 C   0  0  0  0  0  0  0  0  0  0  0  0
    1.7789   -2.6711    0.0000 C   0  0  0  0  0  0  0  0  0  0  0  0
    1.6815   -4.1679    0.0000 O   0  0  0  0  0  0  0  0  0  0  0  0
    3.1239   -2.0070    0.0000 O   0  0  0  0  0  0  0  0  0  0  0  0
    3.2213   -0.5102    0.0000 C   0  0  0  0  0  0  0  0  0  0  0  0
    4.5663    0.1539    0.0000 C   0  0  0  0  0  0  0  0  0  0  0  0
    4.6636    1.6507    0.0000 C   0  0  0  0  0  0  0  0  0  0  0  0
    6.0086    2.3148    0.0000 O   0  0  0  0  0  0  0  0  0  0  0  0
    3.4160    2.4835    0.0000 C   0  0  0  0  0  0  0  0  0  0  0  0
    2.0710    1.8194    0.0000 C   0  0  0  0  0  0  0  0  0  0  0  0
    1.9737    0.3226    0.0000 C   0  0  0  0  0  0  0  0  0  0  0  0
   -5.8041    0.8285    0.0000 C   0  0  0  0  0  0  0  0  0  0  0  0
   -5.7068    2.3254    0.0000 O   0  0  0  0  0  0  0  0  0  0  0  0
   -7.1491    0.1644    0.0000 O   0  0  0  0  0  0  0  0  0  0  0  0
  2  1  1  6
  2  3  1  0
  3  4  1  0
  4  5  1  0
  5  6  1  0
  6  7  2  0
  7  8  1  0
  8  9  2  0
  8 10  1  0
 10 11  1  0
 11 12  1  0
 12 13  2  0
 13 14  1  0
 13 15  1  0
 15 16  2  0
 16 17  1  0
  2 18  1  0
 18 19  2  0
 18 20  1  0
 17  6  1  0
 17 11  2  0
M  END
>  <rName>  (976) 
Cys_7OH2oxochromen4yl

>  <PQ_SYMBOL>  (976) 
Cys_7OH2oxochromen4yl

>  <FULL_NAME>  (976) 
(2R)-2-amino-3-[(7-hydroxy-2-oxochromen-4-yl)methylsulfanyl]propanoic acid

>  <IUPAC_CONDENSED>  (976) 
Cys(7-OH-2-oxochromen-4-yl)

>  <IUPAC>  (976) 
(2R)-2-amino-3-(((9-hydroxy-3-oxo-2-oxabicyclo[4.4.0]deca-1(10),4,6,8-tetraen-5-yl)methyl)sulfanyl)propanoic acid

>  <TYPE>  (976) 
Backbone

>  <CLASS>  (976) 
alpha

>  <ANALOG>  (976) 
Cys

>  <MOL_WT>  (976) 
295.31600000000003

>  <LOGP>  (976) 
1.1437000000000002

>  <TPSA>  (976) 
113.76

>  <POPULARITY>  (976) 
3.4

>  <PROTECTED>  (976) 
TRUE

>  <SMILES>  (976) 
N[C@@H](CSCc1(cc(=O)oc2(cc(O)ccc12)))C(=O)O

>  <INCHIKEY>  (976) 
IBLNJMFGUBSMBX-JTQLQIEISA-N

$$$$
Cys_Bn
     RDKit          2D

 14 14  0  0  0  0  0  0  0  0999 V2000
   -2.7125    1.8435    0.0000 N   0  0  0  0  0  0  0  0  0  0  0  0
   -2.9490    0.3623    0.0000 C   0  0  0  0  0  0  0  0  0  0  0  0
   -1.7844   -0.5831    0.0000 C   0  0  0  0  0  0  0  0  0  0  0  0
   -0.3834   -0.0473    0.0000 S   0  0  0  0  0  0  0  0  0  0  0  0
    0.7812   -0.9927    0.0000 C   0  0  0  0  0  0  0  0  0  0  0  0
    2.1822   -0.4569    0.0000 C   0  0  0  0  0  0  0  0  0  0  0  0
    2.4187    1.0244    0.0000 C   0  0  0  0  0  0  0  0  0  0  0  0
    3.8197    1.5602    0.0000 C   0  0  0  0  0  0  0  0  0  0  0  0
    4.9842    0.6148    0.0000 C   0  0  0  0  0  0  0  0  0  0  0  0
    4.7478   -0.8664    0.0000 C   0  0  0  0  0  0  0  0  0  0  0  0
    3.3467   -1.4023    0.0000 C   0  0  0  0  0  0  0  0  0  0  0  0
   -4.3500   -0.1735    0.0000 C   0  0  0  0  0  0  0  0  0  0  0  0
   -4.5865   -1.6548    0.0000 O   0  0  0  0  0  0  0  0  0  0  0  0
   -5.5146    0.7719    0.0000 O   0  0  0  0  0  0  0  0  0  0  0  0
  2  1  1  1
  2  3  1  0
  3  4  1  0
  4  5  1  0
  5  6  1  0
  6  7  2  0
  7  8  1  0
  8  9  2  0
  9 10  1  0
 10 11  2  0
  2 12  1  0
 12 13  2  0
 12 14  1  0
 11  6  1  0
M  END
>  <rName>  (977) 
Cys_Bn

>  <PQ_SYMBOL>  (977) 
Cys_Bn

>  <FULL_NAME>  (977) 
S-Benzyl-L-Cysteine

>  <IUPAC_CONDENSED>  (977) 
Cys(Bn)

>  <IUPAC>  (977) 
(2R)-2-amino-3-(benzylsulfanyl)propanoic acid

>  <TYPE>  (977) 
Backbone

>  <CLASS>  (977) 
alpha

>  <ANALOG>  (977) 
Cys

>  <MOL_WT>  (977) 
211.286

>  <LOGP>  (977) 
1.3317

>  <TPSA>  (977) 
63.32000000000001

>  <POPULARITY>  (977) 
19.8

>  <PROTECTED>  (977) 
TRUE

>  <SMILES>  (977) 
N[C@@H](CSCc1(ccccc1))C(=O)O

>  <INCHIKEY>  (977) 
GHBAYRBVXCRIHT-VIFPVBQESA-N

$$$$
Cys_CF3
     RDKit          2D

 11 10  0  0  0  0  0  0  0  0999 V2000
    1.5275    1.9644    0.0000 N   0  0  0  0  0  0  0  0  0  0  0  0
    1.4450    0.4666    0.0000 C   0  0  0  0  0  0  0  0  0  0  0  0
    0.1067   -0.2107    0.0000 C   0  0  0  0  0  0  0  0  0  0  0  0
   -1.1491    0.6096    0.0000 S   0  0  0  0  0  0  0  0  0  0  0  0
   -2.4875   -0.0678    0.0000 C   0  0  0  0  0  0  0  0  0  0  0  0
   -3.1649    1.2706    0.0000 F   0  0  0  0  0  0  0  0  0  0  0  0
   -1.8101   -1.4061    0.0000 F   0  0  0  0  0  0  0  0  0  0  0  0
   -3.8258   -0.7452    0.0000 F   0  0  0  0  0  0  0  0  0  0  0  0
    2.7008   -0.3537    0.0000 C   0  0  0  0  0  0  0  0  0  0  0  0
    2.6183   -1.8514    0.0000 O   0  0  0  0  0  0  0  0  0  0  0  0
    4.0391    0.3237    0.0000 O   0  0  0  0  0  0  0  0  0  0  0  0
  2  1  1  6
  2  3  1  0
  3  4  1  0
  4  5  1  0
  5  6  1  0
  5  7  1  0
  5  8  1  0
  2  9  1  0
  9 10  2  0
  9 11  1  0
M  END
>  <rName>  (978) 
Cys_CF3

>  <PQ_SYMBOL>  (978) 
Cys_CF3

>  <FULL_NAME>  (978) 
Cys(CF3)

>  <IUPAC_CONDENSED>  (978) 
Cys(CF3)

>  <IUPAC>  (978) 
(2R)-2-azaniumyl-3-(trifluoromethylsulfanyl)propanoate

>  <TYPE>  (978) 
Backbone

>  <CLASS>  (978) 
alpha

>  <ANALOG>  (978) 
Cys

>  <MOL_WT>  (978) 
189.158

>  <LOGP>  (978) 
0.6513000000000001

>  <TPSA>  (978) 
63.32000000000001

>  <POPULARITY>  (978) 
2.2

>  <PROTECTED>  (978) 
TRUE

>  <SMILES>  (978) 
N[C@@H](CSC(F)(F)F)C(=O)O

>  <INCHIKEY>  (978) 
KQKODVYODWEMMF-REOHCLBHSA-N

$$$$
Cys_CH2CONH2
     RDKit          2D

 11 10  0  0  0  0  0  0  0  0999 V2000
   -1.6269   -1.8430    0.0000 N   0  0  0  0  0  0  0  0  0  0  0  0
   -1.7489   -0.3480    0.0000 C   0  0  0  0  0  0  0  0  0  0  0  0
   -0.5152    0.5052    0.0000 C   0  0  0  0  0  0  0  0  0  0  0  0
    0.8406   -0.1366    0.0000 S   0  0  0  0  0  0  0  0  0  0  0  0
    2.0743    0.7166    0.0000 C   0  0  0  0  0  0  0  0  0  0  0  0
    3.4300    0.0748    0.0000 C   0  0  0  0  0  0  0  0  0  0  0  0
    3.5521   -1.4203    0.0000 O   0  0  0  0  0  0  0  0  0  0  0  0
    4.6637    0.9280    0.0000 N   0  0  0  0  0  0  0  0  0  0  0  0
   -3.1047    0.2938    0.0000 C   0  0  0  0  0  0  0  0  0  0  0  0
   -3.2267    1.7889    0.0000 O   0  0  0  0  0  0  0  0  0  0  0  0
   -4.3384   -0.5594    0.0000 O   0  0  0  0  0  0  0  0  0  0  0  0
  2  1  1  6
  2  3  1  0
  3  4  1  0
  4  5  1  0
  5  6  1  0
  6  7  2  0
  6  8  1  0
  2  9  1  0
  9 10  2  0
  9 11  1  0
M  END
>  <rName>  (979) 
Cys_CH2CONH2

>  <PQ_SYMBOL>  (979) 
Cys_CH2CONH2

>  <FULL_NAME>  (979) 
S-(2-AMINO-2-OXOETHYL)-L-CYSTEINE

>  <IUPAC_CONDENSED>  (979) 
Cys(CH2CONH2)

>  <IUPAC>  (979) 
(2R)-2-amino-3-((2-amino-2-oxoethyl)sulfanyl)propanoic acid

>  <TYPE>  (979) 
Backbone

>  <CLASS>  (979) 
alpha

>  <ANALOG>  (979) 
Cys

>  <MOL_WT>  (979) 
178.21299999999997

>  <LOGP>  (979) 
-1.3831999999999995

>  <TPSA>  (979) 
106.41000000000001

>  <POPULARITY>  (979) 
28.9

>  <PROTECTED>  (979) 
TRUE

>  <SMILES>  (979) 
N[C@@H](CSCC(=O)N)C(=O)O

>  <INCHIKEY>  (979) 
VFKYKPOTSJWPIU-VKHMYHEASA-N

$$$$
Cys_Et
     RDKit          2D

  9  8  0  0  0  0  0  0  0  0999 V2000
    0.7616   -1.8791    0.0000 N   0  0  0  0  0  0  0  0  0  0  0  0
    0.8459   -0.3815    0.0000 C   0  0  0  0  0  0  0  0  0  0  0  0
   -0.4089    0.4403    0.0000 C   0  0  0  0  0  0  0  0  0  0  0  0
   -1.7480   -0.2354    0.0000 S   0  0  0  0  0  0  0  0  0  0  0  0
   -3.0029    0.5864    0.0000 C   0  0  0  0  0  0  0  0  0  0  0  0
   -4.3420   -0.0894    0.0000 C   0  0  0  0  0  0  0  0  0  0  0  0
    2.1851    0.2943    0.0000 C   0  0  0  0  0  0  0  0  0  0  0  0
    2.2694    1.7919    0.0000 O   0  0  0  0  0  0  0  0  0  0  0  0
    3.4399   -0.5275    0.0000 O   0  0  0  0  0  0  0  0  0  0  0  0
  2  1  1  1
  2  3  1  0
  3  4  1  0
  4  5  1  0
  5  6  1  0
  2  7  1  0
  7  8  2  0
  7  9  1  0
M  END
>  <rName>  (980) 
Cys_Et

>  <PQ_SYMBOL>  (980) 
Cys_Et

>  <FULL_NAME>  (980) 
(2R)-2-amino-3-ethylsulfanylpropanoic acid

>  <IUPAC_CONDENSED>  (980) 
Cys(Et)

>  <IUPAC>  (980) 
(2R)-2-amino-3-(ethylsulfanyl)propanoic acid

>  <TYPE>  (980) 
Backbone

>  <CLASS>  (980) 
alpha

>  <ANALOG>  (980) 
Cys

>  <MOL_WT>  (980) 
149.215

>  <LOGP>  (980) 
0.1513999999999997

>  <TPSA>  (980) 
63.32000000000001

>  <POPULARITY>  (980) 
28.9

>  <PROTECTED>  (980) 
TRUE

>  <SMILES>  (980) 
N[C@@H](CSCC)C(=O)O

>  <INCHIKEY>  (980) 
ULXKXLZEOGLCRJ-BYPYZUCNSA-N

$$$$
Cys_EtN3
     RDKit          2D

 12 11  0  0  0  0  0  0  0  0999 V2000
   -2.4844   -1.9079    0.0000 N   0  0  0  0  0  0  0  0  0  0  0  0
   -2.5775   -0.4108    0.0000 C   0  0  0  0  0  0  0  0  0  0  0  0
   -1.3276    0.4184    0.0000 C   0  0  0  0  0  0  0  0  0  0  0  0
    0.0155   -0.2495    0.0000 S   0  0  0  0  0  0  0  0  0  0  0  0
    1.2655    0.5797    0.0000 C   0  0  0  0  0  0  0  0  0  0  0  0
    2.6086   -0.0882    0.0000 C   0  0  0  0  0  0  0  0  0  0  0  0
    3.8585    0.7410    0.0000 N   0  0  0  0  0  0  0  0  0  0  0  0
    5.2016    0.0731    0.0000 N   0  0  0  0  0  0  0  0  0  0  0  0
    6.5447   -0.5948    0.0000 N   0  0  0  0  0  0  0  0  0  0  0  0
   -3.9206    0.2571    0.0000 C   0  0  0  0  0  0  0  0  0  0  0  0
   -4.0138    1.7542    0.0000 O   0  0  0  0  0  0  0  0  0  0  0  0
   -5.1706   -0.5722    0.0000 O   0  0  0  0  0  0  0  0  0  0  0  0
  2  1  1  6
  2  3  1  0
  3  4  1  0
  4  5  1  0
  5  6  1  0
  6  7  1  0
  7  8  2  0
  8  9  2  0
  2 10  1  0
 10 11  2  0
 10 12  1  0
M  CHG  2   8   1   9  -1
M  END
>  <rName>  (981) 
Cys_EtN3

>  <PQ_SYMBOL>  (981) 
Cys_EtN3

>  <FULL_NAME>  (981) 
Cys(EtN3)

>  <IUPAC_CONDENSED>  (981) 
Cys(EtN3)

>  <IUPAC>  (981) 
(2R)-2-amino-3-((2-azidoethyl)sulfanyl)propanoic acid

>  <TYPE>  (981) 
Backbone

>  <CLASS>  (981) 
alpha

>  <ANALOG>  (981) 
Cys

>  <MOL_WT>  (981) 
190.228

>  <LOGP>  (981) 
0.4417999999999999

>  <TPSA>  (981) 
112.08

>  <POPULARITY>  (981) 
2.2

>  <PROTECTED>  (981) 
TRUE

>  <SMILES>  (981) 
N[C@@H](CSCCN=[N+]=[N-])C(=O)O

>  <INCHIKEY>  (981) 
GARVTCVWQCYTCG-BYPYZUCNSA-N

$$$$
Cys_EtNH2
     RDKit          2D

 10  9  0  0  0  0  0  0  0  0999 V2000
   -1.4166   -1.8843    0.0000 N   0  0  0  0  0  0  0  0  0  0  0  0
   -1.4265   -0.3844    0.0000 C   0  0  0  0  0  0  0  0  0  0  0  0
   -0.1324    0.3741    0.0000 C   0  0  0  0  0  0  0  0  0  0  0  0
    1.1716   -0.3673    0.0000 S   0  0  0  0  0  0  0  0  0  0  0  0
    2.4657    0.3912    0.0000 C   0  0  0  0  0  0  0  0  0  0  0  0
    3.7696   -0.3503    0.0000 C   0  0  0  0  0  0  0  0  0  0  0  0
    5.0637    0.4082    0.0000 N   0  0  0  0  0  0  0  0  0  0  0  0
   -2.7304    0.3571    0.0000 C   0  0  0  0  0  0  0  0  0  0  0  0
   -2.7402    1.8571    0.0000 O   0  0  0  0  0  0  0  0  0  0  0  0
   -4.0245   -0.4014    0.0000 O   0  0  0  0  0  0  0  0  0  0  0  0
  2  1  1  6
  2  3  1  0
  3  4  1  0
  4  5  1  0
  5  6  1  0
  6  7  1  0
  2  8  1  0
  8  9  2  0
  8 10  1  0
M  END
>  <rName>  (982) 
Cys_EtNH2

>  <PQ_SYMBOL>  (982) 
Cys_EtNH2

>  <FULL_NAME>  (982) 
L-Thialysine, S-(2-Aminoethyl)-L-Cysteine

>  <IUPAC_CONDENSED>  (982) 
Cys(EtNH2)

>  <IUPAC>  (982) 
(2R)-2-amino-3-((2-aminoethyl)sulfanyl)propanoic acid

>  <TYPE>  (982) 
Backbone

>  <CLASS>  (982) 
alpha

>  <ANALOG>  (982) 
Cys

>  <MOL_WT>  (982) 
164.23000000000002

>  <LOGP>  (982) 
-0.9097999999999995

>  <TPSA>  (982) 
89.34

>  <POPULARITY>  (982) 
24.1

>  <PROTECTED>  (982) 
TRUE

>  <SMILES>  (982) 
N[C@@H](CSCCN)C(=O)O

>  <INCHIKEY>  (982) 
GHSJKUNUIHUPDF-BYPYZUCNSA-N

$$$$
Cys_EtO2H
     RDKit          2D

 11 10  0  0  0  0  0  0  0  0999 V2000
   -1.6269   -1.8430    0.0000 N   0  0  0  0  0  0  0  0  0  0  0  0
   -1.7489   -0.3480    0.0000 C   0  0  0  0  0  0  0  0  0  0  0  0
   -0.5152    0.5052    0.0000 C   0  0  0  0  0  0  0  0  0  0  0  0
    0.8406   -0.1366    0.0000 S   0  0  0  0  0  0  0  0  0  0  0  0
    2.0743    0.7166    0.0000 C   0  0  0  0  0  0  0  0  0  0  0  0
    3.4300    0.0748    0.0000 C   0  0  0  0  0  0  0  0  0  0  0  0
    3.5521   -1.4203    0.0000 O   0  0  0  0  0  0  0  0  0  0  0  0
    4.6637    0.9280    0.0000 O   0  0  0  0  0  0  0  0  0  0  0  0
   -3.1047    0.2938    0.0000 C   0  0  0  0  0  0  0  0  0  0  0  0
   -3.2267    1.7889    0.0000 O   0  0  0  0  0  0  0  0  0  0  0  0
   -4.3384   -0.5594    0.0000 O   0  0  0  0  0  0  0  0  0  0  0  0
  2  1  1  6
  2  3  1  0
  3  4  1  0
  4  5  1  0
  5  6  1  0
  6  7  2  0
  6  8  1  0
  2  9  1  0
  9 10  2  0
  9 11  1  0
M  END
>  <rName>  (983) 
Cys_EtO2H

>  <PQ_SYMBOL>  (983) 
Cys_EtO2H

>  <FULL_NAME>  (983) 
S-Carboxymethyl-L-Cysteine

>  <IUPAC_CONDENSED>  (983) 
Cys(EtO2H)

>  <IUPAC>  (983) 
(2R)-2-amino-3-((2-hydroxy-2-oxoethyl)sulfanyl)propanoic acid

>  <TYPE>  (983) 
Backbone

>  <CLASS>  (983) 
alpha

>  <ANALOG>  (983) 
Cys

>  <MOL_WT>  (983) 
179.197

>  <LOGP>  (983) 
-0.7838999999999998

>  <TPSA>  (983) 
100.62000000000002

>  <POPULARITY>  (983) 
24.6

>  <PROTECTED>  (983) 
TRUE

>  <SMILES>  (983) 
N[C@@H](CSCC(=O)O)C(=O)O

>  <INCHIKEY>  (983) 
GBFLZEXEOZUWRN-VKHMYHEASA-N

$$$$
Cys_EtOH
     RDKit          2D

 10  9  0  0  0  0  0  0  0  0999 V2000
   -1.4166   -1.8843    0.0000 N   0  0  0  0  0  0  0  0  0  0  0  0
   -1.4265   -0.3844    0.0000 C   0  0  0  0  0  0  0  0  0  0  0  0
   -0.1324    0.3741    0.0000 C   0  0  0  0  0  0  0  0  0  0  0  0
    1.1716   -0.3673    0.0000 S   0  0  0  0  0  0  0  0  0  0  0  0
    2.4657    0.3912    0.0000 C   0  0  0  0  0  0  0  0  0  0  0  0
    3.7696   -0.3503    0.0000 C   0  0  0  0  0  0  0  0  0  0  0  0
    5.0637    0.4082    0.0000 O   0  0  0  0  0  0  0  0  0  0  0  0
   -2.7304    0.3571    0.0000 C   0  0  0  0  0  0  0  0  0  0  0  0
   -2.7402    1.8571    0.0000 O   0  0  0  0  0  0  0  0  0  0  0  0
   -4.0245   -0.4014    0.0000 O   0  0  0  0  0  0  0  0  0  0  0  0
  2  1  1  6
  2  3  1  0
  3  4  1  0
  4  5  1  0
  5  6  1  0
  6  7  1  0
  2  8  1  0
  8  9  2  0
  8 10  1  0
M  END
>  <rName>  (984) 
Cys_EtOH

>  <PQ_SYMBOL>  (984) 
Cys_EtOH

>  <FULL_NAME>  (984) 
HYDROXYETHYLCYSTEINE

>  <IUPAC_CONDENSED>  (984) 
Cys(EtOH)

>  <IUPAC>  (984) 
(2R)-2-amino-3-((2-hydroxyethyl)sulfanyl)propanoic acid

>  <TYPE>  (984) 
Backbone

>  <CLASS>  (984) 
alpha

>  <ANALOG>  (984) 
Cys

>  <MOL_WT>  (984) 
165.214

>  <LOGP>  (984) 
-0.8762000000000001

>  <TPSA>  (984) 
83.55

>  <POPULARITY>  (984) 
23.3

>  <PROTECTED>  (984) 
TRUE

>  <SMILES>  (984) 
N[C@@H](CSCCO)C(=O)O

>  <INCHIKEY>  (984) 
MWFRVMDVLYIXJF-BYPYZUCNSA-N

$$$$
Cys_Mbzl
     RDKit          2D

 15 15  0  0  0  0  0  0  0  0999 V2000
   -3.0746    1.8754    0.0000 N   0  0  0  0  0  0  0  0  0  0  0  0
   -3.3626    0.4033    0.0000 C   0  0  0  0  0  0  0  0  0  0  0  0
   -2.2318   -0.5822    0.0000 C   0  0  0  0  0  0  0  0  0  0  0  0
   -0.8129   -0.0957    0.0000 S   0  0  0  0  0  0  0  0  0  0  0  0
    0.3179   -1.0812    0.0000 C   0  0  0  0  0  0  0  0  0  0  0  0
    1.7368   -0.5946    0.0000 C   0  0  0  0  0  0  0  0  0  0  0  0
    2.0249    0.8775    0.0000 C   0  0  0  0  0  0  0  0  0  0  0  0
    3.4437    1.3640    0.0000 C   0  0  0  0  0  0  0  0  0  0  0  0
    4.5746    0.3785    0.0000 C   0  0  0  0  0  0  0  0  0  0  0  0
    5.9935    0.8651    0.0000 C   0  0  0  0  0  0  0  0  0  0  0  0
    4.2865   -1.0935    0.0000 C   0  0  0  0  0  0  0  0  0  0  0  0
    2.8676   -1.5801    0.0000 C   0  0  0  0  0  0  0  0  0  0  0  0
   -4.7815   -0.0833    0.0000 C   0  0  0  0  0  0  0  0  0  0  0  0
   -5.0696   -1.5554    0.0000 O   0  0  0  0  0  0  0  0  0  0  0  0
   -5.9124    0.9022    0.0000 O   0  0  0  0  0  0  0  0  0  0  0  0
  2  1  1  1
  2  3  1  0
  3  4  1  0
  4  5  1  0
  5  6  1  0
  6  7  1  0
  7  8  2  0
  8  9  1  0
  9 10  1  0
  9 11  2  0
 11 12  1  0
  2 13  1  0
 13 14  2  0
 13 15  1  0
 12  6  2  0
M  END
>  <rName>  (985) 
Cys_Mbzl

>  <PQ_SYMBOL>  (985) 
Cys_Mbzl

>  <FULL_NAME>  (985) 
S-(4-methylbenzyl)-L-cysteine

>  <IUPAC_CONDENSED>  (985) 
Cys(Mbzl)

>  <IUPAC>  (985) 
(2R)-2-amino-3-(((4-methylphenyl)methyl)sulfanyl)propanoic acid

>  <TYPE>  (985) 
Backbone

>  <CLASS>  (985) 
alpha

>  <ANALOG>  (985) 
Cys

>  <MOL_WT>  (985) 
225.313

>  <LOGP>  (985) 
1.64012

>  <TPSA>  (985) 
63.32000000000001

>  <POPULARITY>  (985) 
6.1

>  <PROTECTED>  (985) 
TRUE

>  <SMILES>  (985) 
N[C@@H](CSCc1(ccc(C)cc1))C(=O)O

>  <INCHIKEY>  (985) 
QOAPFSZIUBUTNW-JTQLQIEISA-N

$$$$
Cys_Me
     RDKit          2D

  8  7  0  0  0  0  0  0  0  0999 V2000
   -0.2517   -1.8862    0.0000 N   0  0  0  0  0  0  0  0  0  0  0  0
   -0.3100   -0.3873    0.0000 C   0  0  0  0  0  0  0  0  0  0  0  0
    0.9590    0.4126    0.0000 C   0  0  0  0  0  0  0  0  0  0  0  0
    2.2862   -0.2864    0.0000 S   0  0  0  0  0  0  0  0  0  0  0  0
    3.5551    0.5134    0.0000 C   0  0  0  0  0  0  0  0  0  0  0  0
   -1.6371    0.3117    0.0000 C   0  0  0  0  0  0  0  0  0  0  0  0
   -1.6954    1.8105    0.0000 O   0  0  0  0  0  0  0  0  0  0  0  0
   -2.9061   -0.4882    0.0000 O   0  0  0  0  0  0  0  0  0  0  0  0
  2  1  1  6
  2  3  1  0
  3  4  1  0
  4  5  1  0
  2  6  1  0
  6  7  2  0
  6  8  1  0
M  END
>  <rName>  (986) 
Cys_Me

>  <PQ_SYMBOL>  (986) 
Cys_Me

>  <FULL_NAME>  (986) 
S-methyl-L-cysteine

>  <IUPAC_CONDENSED>  (986) 
Cys(Me)

>  <IUPAC>  (986) 
(2R)-2-amino-3-(methylsulfanyl)propanoic acid

>  <TYPE>  (986) 
Backbone

>  <CLASS>  (986) 
alpha

>  <ANALOG>  (986) 
Cys

>  <MOL_WT>  (986) 
135.188

>  <LOGP>  (986) 
-0.2387000000000002

>  <TPSA>  (986) 
63.32000000000001

>  <POPULARITY>  (986) 
44.5

>  <PROTECTED>  (986) 
TRUE

>  <SMILES>  (986) 
N[C@@H](CSC)C(=O)O

>  <INCHIKEY>  (986) 
IDIDJDIHTAOVLG-VKHMYHEASA-N

$$$$
Cys_MeNH2
     RDKit          2D

  9  8  0  0  0  0  0  0  0  0999 V2000
   -0.7616   -1.8791    0.0000 N   0  0  0  0  0  0  0  0  0  0  0  0
   -0.8459   -0.3815    0.0000 C   0  0  0  0  0  0  0  0  0  0  0  0
    0.4089    0.4403    0.0000 C   0  0  0  0  0  0  0  0  0  0  0  0
    1.7480   -0.2354    0.0000 S   0  0  0  0  0  0  0  0  0  0  0  0
    3.0029    0.5864    0.0000 C   0  0  0  0  0  0  0  0  0  0  0  0
    4.3420   -0.0894    0.0000 N   0  0  0  0  0  0  0  0  0  0  0  0
   -2.1851    0.2943    0.0000 C   0  0  0  0  0  0  0  0  0  0  0  0
   -2.2694    1.7919    0.0000 O   0  0  0  0  0  0  0  0  0  0  0  0
   -3.4399   -0.5275    0.0000 O   0  0  0  0  0  0  0  0  0  0  0  0
  2  1  1  6
  2  3  1  0
  3  4  1  0
  4  5  1  0
  5  6  1  0
  2  7  1  0
  7  8  2  0
  7  9  1  0
M  END
>  <rName>  (987) 
Cys_MeNH2

>  <PQ_SYMBOL>  (987) 
Cys_MeNH2

>  <FULL_NAME>  (987) 
S-(aminomethyl)-L-cysteine

>  <IUPAC_CONDENSED>  (987) 
Cys(MeNH2)

>  <IUPAC>  (987) 
(2R)-2-amino-3-(aminomethylsulfanyl)propanoic acid

>  <TYPE>  (987) 
Backbone

>  <CLASS>  (987) 
alpha

>  <ANALOG>  (987) 
Cys

>  <MOL_WT>  (987) 
150.203

>  <LOGP>  (987) 
-0.9522999999999999

>  <TPSA>  (987) 
89.34

>  <POPULARITY>  (987) 
9.5

>  <PROTECTED>  (987) 
TRUE

>  <SMILES>  (987) 
N[C@@H](CSCN)C(=O)O

>  <INCHIKEY>  (987) 
JYURMMBKQADGPI-VKHMYHEASA-N

$$$$
Cys_Npys
     RDKit          2D

 17 17  0  0  0  0  0  0  0  0999 V2000
   -3.5928    1.8946    0.0000 N   0  0  0  0  0  0  0  0  0  0  0  0
   -3.5917    0.3946    0.0000 C   0  0  0  0  0  0  0  0  0  0  0  0
   -2.2922   -0.3545    0.0000 C   0  0  0  0  0  0  0  0  0  0  0  0
   -0.9937    0.3964    0.0000 S   0  0  0  0  0  0  0  0  0  0  0  0
    0.3059   -0.3527    0.0000 S   0  0  0  0  0  0  0  0  0  0  0  0
    1.6044    0.3982    0.0000 C   0  0  0  0  0  0  0  0  0  0  0  0
    1.6034    1.8982    0.0000 N   0  0  0  0  0  0  0  0  0  0  0  0
    2.9019    2.6491    0.0000 C   0  0  0  0  0  0  0  0  0  0  0  0
    4.2014    1.9000    0.0000 C   0  0  0  0  0  0  0  0  0  0  0  0
    4.2025    0.4000    0.0000 C   0  0  0  0  0  0  0  0  0  0  0  0
    2.9040   -0.3509    0.0000 C   0  0  0  0  0  0  0  0  0  0  0  0
    2.9050   -1.8509    0.0000 N   0  0  0  0  0  0  0  0  0  0  0  0
    4.2046   -2.6000    0.0000 O   0  0  0  0  0  0  0  0  0  0  0  0
    1.6065   -2.6018    0.0000 O   0  0  0  0  0  0  0  0  0  0  0  0
   -4.8902   -0.3563    0.0000 C   0  0  0  0  0  0  0  0  0  0  0  0
   -4.8892   -1.8563    0.0000 O   0  0  0  0  0  0  0  0  0  0  0  0
   -6.1898    0.3928    0.0000 O   0  0  0  0  0  0  0  0  0  0  0  0
  2  1  1  1
  2  3  1  0
  3  4  1  0
  4  5  1  0
  5  6  1  0
  6  7  2  0
  7  8  1  0
  8  9  2  0
  9 10  1  0
 10 11  2  0
 11 12  1  0
 12 13  2  0
 12 14  1  0
  2 15  1  0
 15 16  2  0
 15 17  1  0
 11  6  1  0
M  CHG  2  12   1  14  -1
M  END
>  <rName>  (988) 
Cys_Npys

>  <PQ_SYMBOL>  (988) 
Cys_Npys

>  <FULL_NAME>  (988) 
S-((3-nitropyridin-2-yl)thio)-L-cysteine

>  <IUPAC_CONDENSED>  (988) 
Cys(Npys)

>  <IUPAC>  (988) 
(2R)-2-amino-3-(((3-nitropyridin-2-yl)sulfanyl)sulfanyl)propanoic acid

>  <TYPE>  (988) 
Backbone

>  <CLASS>  (988) 
alpha

>  <ANALOG>  (988) 
Cys

>  <MOL_WT>  (988) 
275.31100000000004

>  <LOGP>  (988) 
1.142

>  <TPSA>  (988) 
119.35000000000001

>  <POPULARITY>  (988) 
5.9

>  <PROTECTED>  (988) 
TRUE

>  <SMILES>  (988) 
N[C@@H](CSSc1(ncccc1[N+](=O)[O-]))C(=O)O

>  <INCHIKEY>  (988) 
SOGTULYCPNFAGT-YFKPBYRVSA-N

$$$$
Cys_O3H
     RDKit          2D

 10  9  0  0  0  0  0  0  0  0999 V2000
   -0.5029   -1.7542    0.0000 N   0  0  0  0  0  0  0  0  0  0  0  0
   -0.7450   -0.2738    0.0000 C   0  0  0  0  0  0  0  0  0  0  0  0
    0.4160    0.6760    0.0000 C   0  0  0  0  0  0  0  0  0  0  0  0
    1.8190    0.1455    0.0000 S   0  0  0  0  0  0  0  0  0  0  0  0
    2.3495    1.5485    0.0000 O   0  0  0  0  0  0  0  0  0  0  0  0
    1.2885   -1.2576    0.0000 O   0  0  0  0  0  0  0  0  0  0  0  0
    3.2221   -0.3850    0.0000 O   0  0  0  0  0  0  0  0  0  0  0  0
   -2.1480    0.2567    0.0000 C   0  0  0  0  0  0  0  0  0  0  0  0
   -2.3901    1.7370    0.0000 O   0  0  0  0  0  0  0  0  0  0  0  0
   -3.3090   -0.6932    0.0000 O   0  0  0  0  0  0  0  0  0  0  0  0
  2  1  1  6
  2  3  1  0
  3  4  1  0
  4  5  2  0
  4  6  2  0
  4  7  1  0
  2  8  1  0
  8  9  2  0
  8 10  1  0
M  END
>  <rName>  (989) 
Cys_O3H

>  <PQ_SYMBOL>  (989) 
Cys_O3H

>  <FULL_NAME>  (989) 
3-sulfoalanine

>  <IUPAC_CONDENSED>  (989) 
Cys(O3H)

>  <IUPAC>  (989) 
(2R)-2-amino-3-sulfopropanoic acid

>  <TYPE>  (989) 
Backbone

>  <CLASS>  (989) 
alpha

>  <ANALOG>  (989) 
X

>  <MOL_WT>  (989) 
169.158

>  <LOGP>  (989) 
-1.7138999999999998

>  <TPSA>  (989) 
117.69000000000001

>  <POPULARITY>  (989) 
38.9

>  <PROTECTED>  (989) 
TRUE

>  <SMILES>  (989) 
N[C@@H](CS(=O)(=O)O)C(=O)O

>  <INCHIKEY>  (989) 
XVOYSCVBGLVSOL-REOHCLBHSA-N

$$$$
Cys_Ph
     RDKit          2D

 13 13  0  0  0  0  0  0  0  0999 V2000
   -2.6715   -1.9340    0.0000 N   0  0  0  0  0  0  0  0  0  0  0  0
   -2.4130   -0.4565    0.0000 C   0  0  0  0  0  0  0  0  0  0  0  0
   -1.0042    0.0585    0.0000 C   0  0  0  0  0  0  0  0  0  0  0  0
    0.1462   -0.9041    0.0000 S   0  0  0  0  0  0  0  0  0  0  0  0
    1.5550   -0.3891    0.0000 C   0  0  0  0  0  0  0  0  0  0  0  0
    1.8135    1.0885    0.0000 C   0  0  0  0  0  0  0  0  0  0  0  0
    3.2223    1.6034    0.0000 C   0  0  0  0  0  0  0  0  0  0  0  0
    4.3727    0.6408    0.0000 C   0  0  0  0  0  0  0  0  0  0  0  0
    4.1143   -0.8367    0.0000 C   0  0  0  0  0  0  0  0  0  0  0  0
    2.7054   -1.3517    0.0000 C   0  0  0  0  0  0  0  0  0  0  0  0
   -3.5634    0.5061    0.0000 C   0  0  0  0  0  0  0  0  0  0  0  0
   -3.3050    1.9837    0.0000 O   0  0  0  0  0  0  0  0  0  0  0  0
   -4.9723   -0.0089    0.0000 O   0  0  0  0  0  0  0  0  0  0  0  0
  2  1  1  6
  2  3  1  0
  3  4  1  0
  4  5  1  0
  5  6  2  0
  6  7  1  0
  7  8  2  0
  8  9  1  0
  9 10  2  0
  2 11  1  0
 11 12  2  0
 11 13  1  0
 10  5  1  0
M  END
>  <rName>  (990) 
Cys_Ph

>  <PQ_SYMBOL>  (990) 
Cys_Ph

>  <FULL_NAME>  (990) 
S-phenyl-L-cysteine

>  <IUPAC_CONDENSED>  (990) 
Cys(Ph)

>  <IUPAC>  (990) 
(2R)-2-amino-3-(phenylsulfanyl)propanoic acid

>  <TYPE>  (990) 
Backbone

>  <CLASS>  (990) 
alpha

>  <ANALOG>  (990) 
Cys

>  <MOL_WT>  (990) 
197.259

>  <LOGP>  (990) 
1.1906

>  <TPSA>  (990) 
63.32000000000001

>  <POPULARITY>  (990) 
9.3

>  <PROTECTED>  (990) 
TRUE

>  <SMILES>  (990) 
N[C@@H](CSc1(ccccc1))C(=O)O

>  <INCHIKEY>  (990) 
XYUBQWNJDIAEES-QMMMGPOBSA-N

$$$$
Cys_Ph_3Br
     RDKit          2D

 14 14  0  0  0  0  0  0  0  0999 V2000
   -2.9179   -2.0082    0.0000 N   0  0  0  0  0  0  0  0  0  0  0  0
   -2.7604   -0.5165    0.0000 C   0  0  0  0  0  0  0  0  0  0  0  0
   -1.3898    0.0929    0.0000 C   0  0  0  0  0  0  0  0  0  0  0  0
   -0.1767   -0.7894    0.0000 S   0  0  0  0  0  0  0  0  0  0  0  0
    1.1939   -0.1800    0.0000 C   0  0  0  0  0  0  0  0  0  0  0  0
    1.3515    1.3117    0.0000 C   0  0  0  0  0  0  0  0  0  0  0  0
    2.7221    1.9211    0.0000 C   0  0  0  0  0  0  0  0  0  0  0  0
    3.9352    1.0388    0.0000 C   0  0  0  0  0  0  0  0  0  0  0  0
    3.7777   -0.4529    0.0000 C   0  0  0  0  0  0  0  0  0  0  0  0
    4.9907   -1.3352    0.0000 Br  0  0  0  0  0  0  0  0  0  0  0  0
    2.4070   -1.0623    0.0000 C   0  0  0  0  0  0  0  0  0  0  0  0
   -3.9735    0.3658    0.0000 C   0  0  0  0  0  0  0  0  0  0  0  0
   -3.8159    1.8575    0.0000 O   0  0  0  0  0  0  0  0  0  0  0  0
   -5.3441   -0.2436    0.0000 O   0  0  0  0  0  0  0  0  0  0  0  0
  2  1  1  6
  2  3  1  0
  3  4  1  0
  4  5  1  0
  5  6  2  0
  6  7  1  0
  7  8  2  0
  8  9  1  0
  9 10  1  0
  9 11  2  0
  2 12  1  0
 12 13  2  0
 12 14  1  0
 11  5  1  0
M  END
>  <rName>  (991) 
Cys_Ph_3Br

>  <PQ_SYMBOL>  (991) 
Cys_Ph_3Br

>  <FULL_NAME>  (991) 
S-(3-bromophenyl)-L-cysteine

>  <IUPAC_CONDENSED>  (991) 
Cys(Ph(3-Br))

>  <IUPAC>  (991) 
(2R)-2-amino-3-((3-bromophenyl)sulfanyl)propanoic acid

>  <TYPE>  (991) 
Backbone

>  <CLASS>  (991) 
alpha

>  <ANALOG>  (991) 
Cys

>  <MOL_WT>  (991) 
276.155

>  <LOGP>  (991) 
1.9531

>  <TPSA>  (991) 
63.32000000000001

>  <POPULARITY>  (991) 
4.0

>  <PROTECTED>  (991) 
TRUE

>  <SMILES>  (991) 
N[C@@H](CSc1(cccc(Br)c1))C(=O)O

>  <INCHIKEY>  (991) 
DPOGZVCOZCDAOH-QMMMGPOBSA-N

$$$$
Cys_Ph_3F
     RDKit          2D

 14 14  0  0  0  0  0  0  0  0999 V2000
   -2.9179   -2.0082    0.0000 N   0  0  0  0  0  0  0  0  0  0  0  0
   -2.7604   -0.5165    0.0000 C   0  0  0  0  0  0  0  0  0  0  0  0
   -1.3898    0.0929    0.0000 C   0  0  0  0  0  0  0  0  0  0  0  0
   -0.1767   -0.7894    0.0000 S   0  0  0  0  0  0  0  0  0  0  0  0
    1.1939   -0.1800    0.0000 C   0  0  0  0  0  0  0  0  0  0  0  0
    1.3515    1.3117    0.0000 C   0  0  0  0  0  0  0  0  0  0  0  0
    2.7221    1.9211    0.0000 C   0  0  0  0  0  0  0  0  0  0  0  0
    3.9352    1.0388    0.0000 C   0  0  0  0  0  0  0  0  0  0  0  0
    3.7777   -0.4529    0.0000 C   0  0  0  0  0  0  0  0  0  0  0  0
    4.9907   -1.3352    0.0000 F   0  0  0  0  0  0  0  0  0  0  0  0
    2.4070   -1.0623    0.0000 C   0  0  0  0  0  0  0  0  0  0  0  0
   -3.9735    0.3658    0.0000 C   0  0  0  0  0  0  0  0  0  0  0  0
   -3.8159    1.8575    0.0000 O   0  0  0  0  0  0  0  0  0  0  0  0
   -5.3441   -0.2436    0.0000 O   0  0  0  0  0  0  0  0  0  0  0  0
  2  1  1  6
  2  3  1  0
  3  4  1  0
  4  5  1  0
  5  6  2  0
  6  7  1  0
  7  8  2  0
  8  9  1  0
  9 10  1  0
  9 11  2  0
  2 12  1  0
 12 13  2  0
 12 14  1  0
 11  5  1  0
M  END
>  <rName>  (992) 
Cys_Ph_3F

>  <PQ_SYMBOL>  (992) 
Cys_Ph_3F

>  <FULL_NAME>  (992) 
S-(3-fluorophenyl)-L-cysteine

>  <IUPAC_CONDENSED>  (992) 
Cys(Ph(3-F))

>  <IUPAC>  (992) 
(2R)-2-amino-3-((3-fluorophenyl)sulfanyl)propanoic acid

>  <TYPE>  (992) 
Backbone

>  <CLASS>  (992) 
alpha

>  <ANALOG>  (992) 
Cys

>  <MOL_WT>  (992) 
215.24899999999997

>  <LOGP>  (992) 
1.3297

>  <TPSA>  (992) 
63.32000000000001

>  <POPULARITY>  (992) 
4.4

>  <PROTECTED>  (992) 
TRUE

>  <SMILES>  (992) 
N[C@@H](CSc1(cccc(F)c1))C(=O)O

>  <INCHIKEY>  (992) 
CIDORBYMJWKJFT-QMMMGPOBSA-N

$$$$
Cys_Ph_4Me
     RDKit          2D

 14 14  0  0  0  0  0  0  0  0999 V2000
   -3.1731   -1.8740    0.0000 N   0  0  0  0  0  0  0  0  0  0  0  0
   -2.8476   -0.4097    0.0000 C   0  0  0  0  0  0  0  0  0  0  0  0
   -1.4168    0.0405    0.0000 C   0  0  0  0  0  0  0  0  0  0  0  0
   -0.3114   -0.9735    0.0000 S   0  0  0  0  0  0  0  0  0  0  0  0
    1.1194   -0.5232    0.0000 C   0  0  0  0  0  0  0  0  0  0  0  0
    1.4449    0.9411    0.0000 C   0  0  0  0  0  0  0  0  0  0  0  0
    2.8757    1.3913    0.0000 C   0  0  0  0  0  0  0  0  0  0  0  0
    3.9810    0.3773    0.0000 C   0  0  0  0  0  0  0  0  0  0  0  0
    5.4119    0.8276    0.0000 C   0  0  0  0  0  0  0  0  0  0  0  0
    3.6556   -1.0870    0.0000 C   0  0  0  0  0  0  0  0  0  0  0  0
    2.2247   -1.5372    0.0000 C   0  0  0  0  0  0  0  0  0  0  0  0
   -3.9530    0.6043    0.0000 C   0  0  0  0  0  0  0  0  0  0  0  0
   -3.6275    2.0685    0.0000 O   0  0  0  0  0  0  0  0  0  0  0  0
   -5.3838    0.1540    0.0000 O   0  0  0  0  0  0  0  0  0  0  0  0
  2  1  1  6
  2  3  1  0
  3  4  1  0
  4  5  1  0
  5  6  1  0
  6  7  2  0
  7  8  1  0
  8  9  1  0
  8 10  2  0
 10 11  1  0
  2 12  1  0
 12 13  2  0
 12 14  1  0
 11  5  2  0
M  END
>  <rName>  (993) 
Cys_Ph_4Me

>  <PQ_SYMBOL>  (993) 
Cys_Ph_4Me

>  <FULL_NAME>  (993) 
S-(4-methylphenyl)-L-cysteine

>  <IUPAC_CONDENSED>  (993) 
Cys(Ph(4-Me))

>  <IUPAC>  (993) 
(2R)-2-amino-3-((4-methylphenyl)sulfanyl)propanoic acid

>  <TYPE>  (993) 
Backbone

>  <CLASS>  (993) 
alpha

>  <ANALOG>  (993) 
Cys

>  <MOL_WT>  (993) 
211.28599999999997

>  <LOGP>  (993) 
1.49902

>  <TPSA>  (993) 
63.32000000000001

>  <POPULARITY>  (993) 
5.6

>  <PROTECTED>  (993) 
TRUE

>  <SMILES>  (993) 
N[C@@H](CSc1(ccc(C)cc1))C(=O)O

>  <INCHIKEY>  (993) 
CHRJYKJYNAKSHG-VIFPVBQESA-N

$$$$
Cys_Ph_4OH
     RDKit          2D

 14 14  0  0  0  0  0  0  0  0999 V2000
   -3.1731   -1.8740    0.0000 N   0  0  0  0  0  0  0  0  0  0  0  0
   -2.8476   -0.4097    0.0000 C   0  0  0  0  0  0  0  0  0  0  0  0
   -1.4168    0.0405    0.0000 C   0  0  0  0  0  0  0  0  0  0  0  0
   -0.3114   -0.9735    0.0000 S   0  0  0  0  0  0  0  0  0  0  0  0
    1.1194   -0.5232    0.0000 C   0  0  0  0  0  0  0  0  0  0  0  0
    1.4449    0.9411    0.0000 C   0  0  0  0  0  0  0  0  0  0  0  0
    2.8757    1.3913    0.0000 C   0  0  0  0  0  0  0  0  0  0  0  0
    3.9810    0.3773    0.0000 C   0  0  0  0  0  0  0  0  0  0  0  0
    5.4119    0.8276    0.0000 O   0  0  0  0  0  0  0  0  0  0  0  0
    3.6556   -1.0870    0.0000 C   0  0  0  0  0  0  0  0  0  0  0  0
    2.2247   -1.5372    0.0000 C   0  0  0  0  0  0  0  0  0  0  0  0
   -3.9530    0.6043    0.0000 C   0  0  0  0  0  0  0  0  0  0  0  0
   -3.6275    2.0685    0.0000 O   0  0  0  0  0  0  0  0  0  0  0  0
   -5.3838    0.1540    0.0000 O   0  0  0  0  0  0  0  0  0  0  0  0
  2  1  1  6
  2  3  1  0
  3  4  1  0
  4  5  1  0
  5  6  1  0
  6  7  2  0
  7  8  1  0
  8  9  1  0
  8 10  2  0
 10 11  1  0
  2 12  1  0
 12 13  2  0
 12 14  1  0
 11  5  2  0
M  END
>  <rName>  (994) 
Cys_Ph_4OH

>  <PQ_SYMBOL>  (994) 
Cys_Ph_4OH

>  <FULL_NAME>  (994) 
S-(4-hydroxyphenyl)-L-cysteine

>  <IUPAC_CONDENSED>  (994) 
Cys(Ph(4-OH))

>  <IUPAC>  (994) 
(2R)-2-amino-3-((4-hydroxyphenyl)sulfanyl)propanoic acid

>  <TYPE>  (994) 
Backbone

>  <CLASS>  (994) 
alpha

>  <ANALOG>  (994) 
Cys

>  <MOL_WT>  (994) 
213.25799999999998

>  <LOGP>  (994) 
0.8962000000000001

>  <TPSA>  (994) 
83.55

>  <POPULARITY>  (994) 
4.8

>  <PROTECTED>  (994) 
TRUE

>  <SMILES>  (994) 
N[C@@H](CSc1(ccc(O)cc1))C(=O)O

>  <INCHIKEY>  (994) 
FVXLRXHSPYGEFL-QMMMGPOBSA-N

$$$$
Cys_Pr
     RDKit          2D

 10  9  0  0  0  0  0  0  0  0999 V2000
   -1.4166   -1.8843    0.0000 N   0  0  0  0  0  0  0  0  0  0  0  0
   -1.4265   -0.3844    0.0000 C   0  0  0  0  0  0  0  0  0  0  0  0
   -0.1324    0.3741    0.0000 C   0  0  0  0  0  0  0  0  0  0  0  0
    1.1716   -0.3673    0.0000 S   0  0  0  0  0  0  0  0  0  0  0  0
    2.4657    0.3912    0.0000 C   0  0  0  0  0  0  0  0  0  0  0  0
    3.7696   -0.3503    0.0000 C   0  0  0  0  0  0  0  0  0  0  0  0
    5.0637    0.4082    0.0000 C   0  0  0  0  0  0  0  0  0  0  0  0
   -2.7304    0.3571    0.0000 C   0  0  0  0  0  0  0  0  0  0  0  0
   -2.7402    1.8571    0.0000 O   0  0  0  0  0  0  0  0  0  0  0  0
   -4.0245   -0.4014    0.0000 O   0  0  0  0  0  0  0  0  0  0  0  0
  2  1  1  6
  2  3  1  0
  3  4  1  0
  4  5  1  0
  5  6  1  0
  6  7  1  0
  2  8  1  0
  8  9  2  0
  8 10  1  0
M  END
>  <rName>  (995) 
Cys_Pr

>  <PQ_SYMBOL>  (995) 
Cys_Pr

>  <FULL_NAME>  (995) 
S-Propylcysteine

>  <IUPAC_CONDENSED>  (995) 
Cys(Pr)

>  <IUPAC>  (995) 
(2R)-2-amino-3-propylsulfanylpropanoic acid

>  <TYPE>  (995) 
Backbone

>  <CLASS>  (995) 
alpha

>  <ANALOG>  (995) 
Cys

>  <MOL_WT>  (995) 
163.242

>  <LOGP>  (995) 
0.5415000000000001

>  <TPSA>  (995) 
63.32000000000001

>  <POPULARITY>  (995) 
2.2

>  <PROTECTED>  (995) 
TRUE

>  <SMILES>  (995) 
N[C@@H](CSCCC)C(=O)O

>  <INCHIKEY>  (995) 
WAAGBMYUYFBZIW-YFKPBYRVSA-N

$$$$
Cys_PrNH2
     RDKit          2D

 11 10  0  0  0  0  0  0  0  0999 V2000
   -1.9630   -1.8884    0.0000 N   0  0  0  0  0  0  0  0  0  0  0  0
   -1.9989   -0.3888    0.0000 C   0  0  0  0  0  0  0  0  0  0  0  0
   -0.7181    0.3920    0.0000 C   0  0  0  0  0  0  0  0  0  0  0  0
    0.5985   -0.3267    0.0000 S   0  0  0  0  0  0  0  0  0  0  0  0
    1.8792    0.4541    0.0000 C   0  0  0  0  0  0  0  0  0  0  0  0
    3.1958   -0.2646    0.0000 C   0  0  0  0  0  0  0  0  0  0  0  0
    4.4765    0.5162    0.0000 C   0  0  0  0  0  0  0  0  0  0  0  0
    5.7931   -0.2025    0.0000 N   0  0  0  0  0  0  0  0  0  0  0  0
   -3.3155    0.3299    0.0000 C   0  0  0  0  0  0  0  0  0  0  0  0
   -3.3513    1.8295    0.0000 O   0  0  0  0  0  0  0  0  0  0  0  0
   -4.5962   -0.4509    0.0000 O   0  0  0  0  0  0  0  0  0  0  0  0
  2  1  1  6
  2  3  1  0
  3  4  1  0
  4  5  1  0
  5  6  1  0
  6  7  1  0
  7  8  1  0
  2  9  1  0
  9 10  2  0
  9 11  1  0
M  END
>  <rName>  (996) 
Cys_PrNH2

>  <PQ_SYMBOL>  (996) 
Cys_PrNH2

>  <FULL_NAME>  (996) 
S-(3-aminopropyl)-L-cysteine

>  <IUPAC_CONDENSED>  (996) 
Cys(PrNH2)

>  <IUPAC>  (996) 
(2R)-2-amino-3-((3-aminopropyl)sulfanyl)propanoic acid

>  <TYPE>  (996) 
Backbone

>  <CLASS>  (996) 
alpha

>  <ANALOG>  (996) 
Cys

>  <MOL_WT>  (996) 
178.25699999999998

>  <LOGP>  (996) 
-0.5197

>  <TPSA>  (996) 
89.34

>  <POPULARITY>  (996) 
13.7

>  <PROTECTED>  (996) 
TRUE

>  <SMILES>  (996) 
N[C@@H](CSCCCN)C(=O)O

>  <INCHIKEY>  (996) 
KLGFHUHSBPGOAU-YFKPBYRVSA-N

$$$$
Cys_SEt
     RDKit          2D

 10  9  0  0  0  0  0  0  0  0999 V2000
   -1.4166   -1.8843    0.0000 N   0  0  0  0  0  0  0  0  0  0  0  0
   -1.4265   -0.3844    0.0000 C   0  0  0  0  0  0  0  0  0  0  0  0
   -0.1324    0.3741    0.0000 C   0  0  0  0  0  0  0  0  0  0  0  0
    1.1716   -0.3673    0.0000 S   0  0  0  0  0  0  0  0  0  0  0  0
    2.4657    0.3912    0.0000 S   0  0  0  0  0  0  0  0  0  0  0  0
    3.7696   -0.3503    0.0000 C   0  0  0  0  0  0  0  0  0  0  0  0
    5.0637    0.4082    0.0000 C   0  0  0  0  0  0  0  0  0  0  0  0
   -2.7304    0.3571    0.0000 C   0  0  0  0  0  0  0  0  0  0  0  0
   -2.7402    1.8571    0.0000 O   0  0  0  0  0  0  0  0  0  0  0  0
   -4.0245   -0.4014    0.0000 O   0  0  0  0  0  0  0  0  0  0  0  0
  2  1  1  6
  2  3  1  0
  3  4  1  0
  4  5  1  0
  5  6  1  0
  6  7  1  0
  2  8  1  0
  8  9  2  0
  8 10  1  0
M  END
>  <rName>  (997) 
Cys_SEt

>  <PQ_SYMBOL>  (997) 
Cys_SEt

>  <FULL_NAME>  (997) 
3-(ethyldisulfanyl)-L-alanine

>  <IUPAC_CONDENSED>  (997) 
Cys(SEt)

>  <IUPAC>  (997) 
(2R)-2-amino-3-(ethylsulfanylsulfanyl)propanoic acid

>  <TYPE>  (997) 
Backbone

>  <CLASS>  (997) 
alpha

>  <ANALOG>  (997) 
Cys

>  <MOL_WT>  (997) 
181.282

>  <LOGP>  (997) 
0.7996000000000001

>  <TPSA>  (997) 
63.32000000000001

>  <POPULARITY>  (997) 
19.8

>  <PROTECTED>  (997) 
TRUE

>  <SMILES>  (997) 
N[C@@H](CSSCC)C(=O)O

>  <INCHIKEY>  (997) 
YIMFYOCZTDBZJL-BYPYZUCNSA-N

$$$$
Cys_SO3H
     RDKit          2D

 11 10  0  0  0  0  0  0  0  0999 V2000
    1.5275    1.9644    0.0000 N   0  0  0  0  0  0  0  0  0  0  0  0
    1.4450    0.4666    0.0000 C   0  0  0  0  0  0  0  0  0  0  0  0
    0.1067   -0.2107    0.0000 C   0  0  0  0  0  0  0  0  0  0  0  0
   -1.1491    0.6096    0.0000 S   0  0  0  0  0  0  0  0  0  0  0  0
   -2.4875   -0.0678    0.0000 S   0  0  0  0  0  0  0  0  0  0  0  0
   -1.8101   -1.4061    0.0000 O   0  0  0  0  0  0  0  0  0  0  0  0
   -3.8258   -0.7452    0.0000 O   0  0  0  0  0  0  0  0  0  0  0  0
   -3.1649    1.2706    0.0000 O   0  0  0  0  0  0  0  0  0  0  0  0
    2.7008   -0.3537    0.0000 C   0  0  0  0  0  0  0  0  0  0  0  0
    2.6183   -1.8514    0.0000 O   0  0  0  0  0  0  0  0  0  0  0  0
    4.0391    0.3237    0.0000 O   0  0  0  0  0  0  0  0  0  0  0  0
  2  1  1  6
  2  3  1  0
  3  4  1  0
  4  5  1  0
  5  6  2  0
  5  7  2  0
  5  8  1  0
  2  9  1  0
  9 10  2  0
  9 11  1  0
M  END
>  <rName>  (998) 
Cys_SO3H

>  <PQ_SYMBOL>  (998) 
Cys_SO3H

>  <FULL_NAME>  (998) 
S-Sulfocysteine

>  <IUPAC_CONDENSED>  (998) 
Cys(SO3H)

>  <IUPAC>  (998) 
(2R)-2-amino-3-(sulfosulfanyl)propanoic acid

>  <TYPE>  (998) 
Backbone

>  <CLASS>  (998) 
alpha

>  <ANALOG>  (998) 
Cys

>  <MOL_WT>  (998) 
201.225

>  <LOGP>  (998) 
-1.0656999999999999

>  <TPSA>  (998) 
117.69000000000001

>  <POPULARITY>  (998) 
20.2

>  <PROTECTED>  (998) 
TRUE

>  <SMILES>  (998) 
N[C@@H](CSS(=O)(=O)O)C(=O)O

>  <INCHIKEY>  (998) 
NOKPBJYHPHHWAN-REOHCLBHSA-N

$$$$
Cys_SPh_24_6triOMe
     RDKit          2D

 20 20  0  0  0  0  0  0  0  0999 V2000
   -3.7773    1.8409    0.0000 N   0  0  0  0  0  0  0  0  0  0  0  0
   -4.0220    0.3610    0.0000 C   0  0  0  0  0  0  0  0  0  0  0  0
   -2.8627   -0.5909    0.0000 C   0  0  0  0  0  0  0  0  0  0  0  0
   -1.4587   -0.0628    0.0000 S   0  0  0  0  0  0  0  0  0  0  0  0
   -0.2995   -1.0147    0.0000 S   0  0  0  0  0  0  0  0  0  0  0  0
    1.1045   -0.4867    0.0000 C   0  0  0  0  0  0  0  0  0  0  0  0
    1.3493    0.9932    0.0000 C   0  0  0  0  0  0  0  0  0  0  0  0
    0.1900    1.9451    0.0000 O   0  0  0  0  0  0  0  0  0  0  0  0
    0.4347    3.4250    0.0000 C   0  0  0  0  0  0  0  0  0  0  0  0
    2.7532    1.5212    0.0000 C   0  0  0  0  0  0  0  0  0  0  0  0
    3.9125    0.5693    0.0000 C   0  0  0  0  0  0  0  0  0  0  0  0
    5.3165    1.0973    0.0000 O   0  0  0  0  0  0  0  0  0  0  0  0
    6.4758    0.1454    0.0000 C   0  0  0  0  0  0  0  0  0  0  0  0
    3.6678   -0.9106    0.0000 C   0  0  0  0  0  0  0  0  0  0  0  0
    2.2638   -1.4386    0.0000 C   0  0  0  0  0  0  0  0  0  0  0  0
    2.0191   -2.9185    0.0000 O   0  0  0  0  0  0  0  0  0  0  0  0
    0.6151   -3.4465    0.0000 C   0  0  0  0  0  0  0  0  0  0  0  0
   -5.4260   -0.1670    0.0000 C   0  0  0  0  0  0  0  0  0  0  0  0
   -5.6707   -1.6469    0.0000 O   0  0  0  0  0  0  0  0  0  0  0  0
   -6.5853    0.7849    0.0000 O   0  0  0  0  0  0  0  0  0  0  0  0
  2  1  1  1
  2  3  1  0
  3  4  1  0
  4  5  1  0
  5  6  1  0
  6  7  2  0
  7  8  1  0
  8  9  1  0
  7 10  1  0
 10 11  2  0
 11 12  1  0
 12 13  1  0
 11 14  1  0
 14 15  2  0
 15 16  1  0
 16 17  1  0
  2 18  1  0
 18 19  2  0
 18 20  1  0
 15  6  1  0
M  END
>  <rName>  (999) 
Cys_SPh_24_6triOMe

>  <PQ_SYMBOL>  (999) 
Cys_SPh_24_6triOMe

>  <FULL_NAME>  (999) 
S-((2,4,6-trimethoxyphenyl)thio)-L-cysteine

>  <IUPAC_CONDENSED>  (999) 
Cys(S-Ph(2,4,6-triOMe))

>  <IUPAC>  (999) 
(2R)-2-amino-3-(((2,4,6-trimethoxyphenyl)sulfanyl)sulfanyl)propanoic acid

>  <TYPE>  (999) 
Backbone

>  <CLASS>  (999) 
alpha

>  <ANALOG>  (999) 
Cys

>  <MOL_WT>  (999) 
319.40400000000005

>  <LOGP>  (999) 
1.8646

>  <TPSA>  (999) 
91.01

>  <POPULARITY>  (999) 
2.4

>  <PROTECTED>  (999) 
TRUE

>  <SMILES>  (999) 
N[C@@H](CSSc1(c(OC)cc(OC)cc1OC))C(=O)O

>  <INCHIKEY>  (999) 
LREMIXCQRUIDAW-QMMMGPOBSA-N

$$$$
Cys_SSCys
     RDKit          2D

 14 13  0  0  0  0  0  0  0  0999 V2000
   -3.2228   -1.9173    0.0000 N   0  0  0  0  0  0  0  0  0  0  0  0
   -3.2424   -0.4174    0.0000 C   0  0  0  0  0  0  0  0  0  0  0  0
   -1.9533    0.3495    0.0000 C   0  0  0  0  0  0  0  0  0  0  0  0
   -0.6446   -0.3835    0.0000 S   0  0  0  0  0  0  0  0  0  0  0  0
    0.6446    0.3835    0.0000 S   0  0  0  0  0  0  0  0  0  0  0  0
    1.9533   -0.3495    0.0000 C   0  0  0  0  0  0  0  0  0  0  0  0
    3.2424    0.4174    0.0000 C   0  0  0  0  0  0  0  0  0  0  0  0
    3.2228    1.9173    0.0000 N   0  0  0  0  0  0  0  0  0  0  0  0
    4.5511   -0.3155    0.0000 C   0  0  0  0  0  0  0  0  0  0  0  0
    4.5708   -1.8154    0.0000 O   0  0  0  0  0  0  0  0  0  0  0  0
    5.8403    0.4514    0.0000 O   0  0  0  0  0  0  0  0  0  0  0  0
   -4.5511    0.3155    0.0000 C   0  0  0  0  0  0  0  0  0  0  0  0
   -4.5708    1.8154    0.0000 O   0  0  0  0  0  0  0  0  0  0  0  0
   -5.8403   -0.4514    0.0000 O   0  0  0  0  0  0  0  0  0  0  0  0
  2  1  1  6
  2  3  1  0
  3  4  1  0
  4  5  1  0
  5  6  1  0
  6  7  1  0
  7  8  1  6
  7  9  1  0
  9 10  2  0
  9 11  1  0
  2 12  1  0
 12 13  2  0
 12 14  1  0
M  END
>  <rName>  (1000) 
Cys_SSCys

>  <PQ_SYMBOL>  (1000) 
Cys_SSCys

>  <FULL_NAME>  (1000) 
(2R,2'R)-3,3'-disulfanediylbis(2-aminopropanoic acid)

>  <IUPAC_CONDENSED>  (1000) 
Cys(S-S-Cys)

>  <IUPAC>  (1000) 
(2R)-2-amino-3-((((2R)-2-amino-3-hydroxy-3-oxopropyl)sulfanyl)sulfanyl)propanoic acid

>  <TYPE>  (1000) 
Backbone

>  <CLASS>  (1000) 
alpha

>  <ANALOG>  (1000) 
Cys

>  <MOL_WT>  (1000) 
240.306

>  <LOGP>  (1000) 
-0.8083999999999993

>  <TPSA>  (1000) 
126.64

>  <POPULARITY>  (1000) 
9.0

>  <PROTECTED>  (1000) 
TRUE

>  <SMILES>  (1000) 
N[C@@H](CSSC[C@H](N)C(=O)O)C(=O)O

>  <INCHIKEY>  (1000) 
LEVWYRKDKASIDU-IMJSIDKUSA-N

$$$$
Cys_Spyrid2yl
     RDKit          2D

 14 14  0  0  0  0  0  0  0  0999 V2000
   -2.7125    1.8435    0.0000 N   0  0  0  0  0  0  0  0  0  0  0  0
   -2.9490    0.3623    0.0000 C   0  0  0  0  0  0  0  0  0  0  0  0
   -1.7844   -0.5831    0.0000 C   0  0  0  0  0  0  0  0  0  0  0  0
   -0.3834   -0.0473    0.0000 S   0  0  0  0  0  0  0  0  0  0  0  0
    0.7812   -0.9927    0.0000 S   0  0  0  0  0  0  0  0  0  0  0  0
    2.1822   -0.4569    0.0000 C   0  0  0  0  0  0  0  0  0  0  0  0
    2.4187    1.0244    0.0000 C   0  0  0  0  0  0  0  0  0  0  0  0
    3.8197    1.5602    0.0000 C   0  0  0  0  0  0  0  0  0  0  0  0
    4.9842    0.6148    0.0000 C   0  0  0  0  0  0  0  0  0  0  0  0
    4.7478   -0.8664    0.0000 C   0  0  0  0  0  0  0  0  0  0  0  0
    3.3467   -1.4023    0.0000 N   0  0  0  0  0  0  0  0  0  0  0  0
   -4.3500   -0.1735    0.0000 C   0  0  0  0  0  0  0  0  0  0  0  0
   -4.5865   -1.6548    0.0000 O   0  0  0  0  0  0  0  0  0  0  0  0
   -5.5146    0.7719    0.0000 O   0  0  0  0  0  0  0  0  0  0  0  0
  2  1  1  1
  2  3  1  0
  3  4  1  0
  4  5  1  0
  5  6  1  0
  6  7  2  0
  7  8  1  0
  8  9  2  0
  9 10  1  0
 10 11  2  0
  2 12  1  0
 12 13  2  0
 12 14  1  0
 11  6  1  0
M  END
>  <rName>  (1001) 
Cys_Spyrid2yl

>  <PQ_SYMBOL>  (1001) 
Cys_Spyrid2yl

>  <FULL_NAME>  (1001) 
Cysteine-2-mercaptopyridine

>  <IUPAC_CONDENSED>  (1001) 
Cys(S-pyrid-2-yl)

>  <IUPAC>  (1001) 
(2R)-2-amino-3-(pyridin-2-yldisulfanyl)propanoic acid

>  <TYPE>  (1001) 
Backbone

>  <CLASS>  (1001) 
alpha

>  <ANALOG>  (1001) 
Cys

>  <MOL_WT>  (1001) 
230.31400000000002

>  <LOGP>  (1001) 
1.2338

>  <TPSA>  (1001) 
76.21

>  <POPULARITY>  (1001) 
2.2

>  <PROTECTED>  (1001) 
TRUE

>  <SMILES>  (1001) 
N[C@@H](CSSc1(ccccn1))C(=O)O

>  <INCHIKEY>  (1001) 
ZPEYJGUKMQSDTA-LURJTMIESA-N

$$$$
Cys_benzhydryl
     RDKit          2D

 20 21  0  0  0  0  0  0  0  0999 V2000
   -2.9654   -2.8732    0.0000 N   0  0  0  0  0  0  0  0  0  0  0  0
   -3.1211   -1.3813    0.0000 C   0  0  0  0  0  0  0  0  0  0  0  0
   -1.9069   -0.5006    0.0000 C   0  0  0  0  0  0  0  0  0  0  0  0
   -0.5371   -1.1117    0.0000 S   0  0  0  0  0  0  0  0  0  0  0  0
    0.6771   -0.2310    0.0000 C   0  0  0  0  0  0  0  0  0  0  0  0
    2.0470   -0.8421    0.0000 C   0  0  0  0  0  0  0  0  0  0  0  0
    2.2027   -2.3340    0.0000 C   0  0  0  0  0  0  0  0  0  0  0  0
    3.5725   -2.9452    0.0000 C   0  0  0  0  0  0  0  0  0  0  0  0
    4.7867   -2.0644    0.0000 C   0  0  0  0  0  0  0  0  0  0  0  0
    4.6310   -0.5725    0.0000 C   0  0  0  0  0  0  0  0  0  0  0  0
    3.2612    0.0386    0.0000 C   0  0  0  0  0  0  0  0  0  0  0  0
    0.5215    1.2609    0.0000 C   0  0  0  0  0  0  0  0  0  0  0  0
    1.7357    2.1417    0.0000 C   0  0  0  0  0  0  0  0  0  0  0  0
    1.5800    3.6336    0.0000 C   0  0  0  0  0  0  0  0  0  0  0  0
    0.2102    4.2447    0.0000 C   0  0  0  0  0  0  0  0  0  0  0  0
   -1.0040    3.3640    0.0000 C   0  0  0  0  0  0  0  0  0  0  0  0
   -0.8484    1.8721    0.0000 C   0  0  0  0  0  0  0  0  0  0  0  0
   -4.4910   -0.7702    0.0000 C   0  0  0  0  0  0  0  0  0  0  0  0
   -4.6466    0.7217    0.0000 O   0  0  0  0  0  0  0  0  0  0  0  0
   -5.7051   -1.6510    0.0000 O   0  0  0  0  0  0  0  0  0  0  0  0
  2  1  1  6
  2  3  1  0
  3  4  1  0
  4  5  1  0
  5  6  1  0
  6  7  2  0
  7  8  1  0
  8  9  2  0
  9 10  1  0
 10 11  2  0
  5 12  1  0
 12 13  2  0
 13 14  1  0
 14 15  2  0
 15 16  1  0
 16 17  2  0
  2 18  1  0
 18 19  2  0
 18 20  1  0
 11  6  1  0
 17 12  1  0
M  END
>  <rName>  (1002) 
Cys_benzhydryl

>  <PQ_SYMBOL>  (1002) 
Cys_benzhydryl

>  <FULL_NAME>  (1002) 
S-benzhydryl-L-cysteine

>  <IUPAC_CONDENSED>  (1002) 
Cys(benzhydryl)

>  <IUPAC>  (1002) 
(2R)-2-amino-3-((diphenylmethyl)sulfanyl)propanoic acid

>  <TYPE>  (1002) 
Backbone

>  <CLASS>  (1002) 
alpha

>  <ANALOG>  (1002) 
Cys

>  <MOL_WT>  (1002) 
287.384

>  <LOGP>  (1002) 
2.921100000000001

>  <TPSA>  (1002) 
63.32000000000001

>  <POPULARITY>  (1002) 
8.9

>  <PROTECTED>  (1002) 
TRUE

>  <SMILES>  (1002) 
N[C@@H](CSC(c1(ccccc1))c2(ccccc2))C(=O)O

>  <INCHIKEY>  (1002) 
SHOGZCIBPYFZRP-AWEZNQCLSA-N

$$$$
Cys_benzhydryl_44diSOMe
     RDKit          2D

 26 27  0  0  0  0  0  0  0  0999 V2000
   -1.6086   -4.6847    0.0000 N   0  0  0  0  0  0  0  0  0  0  0  0
   -2.4869   -3.4687    0.0000 C   0  0  0  0  0  0  0  0  0  0  0  0
   -1.8730   -2.1001    0.0000 C   0  0  0  0  0  0  0  0  0  0  0  0
   -0.3808   -1.9474    0.0000 S   0  0  0  0  0  0  0  0  0  0  0  0
    0.2332   -0.5788    0.0000 C   0  0  0  0  0  0  0  0  0  0  0  0
    1.7254   -0.4262    0.0000 C   0  0  0  0  0  0  0  0  0  0  0  0
    2.6037   -1.6422    0.0000 C   0  0  0  0  0  0  0  0  0  0  0  0
    4.0959   -1.4896    0.0000 C   0  0  0  0  0  0  0  0  0  0  0  0
    4.7098   -0.1210    0.0000 C   0  0  0  0  0  0  0  0  0  0  0  0
    3.8315    1.0950    0.0000 C   0  0  0  0  0  0  0  0  0  0  0  0
    2.3393    0.9424    0.0000 C   0  0  0  0  0  0  0  0  0  0  0  0
    6.2020    0.0316    0.0000 S   0  0  0  0  0  0  0  0  0  0  0  0
    6.8160    1.4003    0.0000 O   0  0  0  0  0  0  0  0  0  0  0  0
    7.0803   -1.1843    0.0000 C   0  0  0  0  0  0  0  0  0  0  0  0
   -0.6451    0.6372    0.0000 C   0  0  0  0  0  0  0  0  0  0  0  0
   -0.0312    2.0058    0.0000 C   0  0  0  0  0  0  0  0  0  0  0  0
   -0.9094    3.2217    0.0000 C   0  0  0  0  0  0  0  0  0  0  0  0
   -2.4017    3.0691    0.0000 C   0  0  0  0  0  0  0  0  0  0  0  0
   -3.0156    1.7005    0.0000 C   0  0  0  0  0  0  0  0  0  0  0  0
   -2.1373    0.4845    0.0000 C   0  0  0  0  0  0  0  0  0  0  0  0
   -3.2799    4.2851    0.0000 S   0  0  0  0  0  0  0  0  0  0  0  0
   -4.7722    4.1325    0.0000 O   0  0  0  0  0  0  0  0  0  0  0  0
   -2.6660    5.6537    0.0000 C   0  0  0  0  0  0  0  0  0  0  0  0
   -3.9791   -3.6213    0.0000 C   0  0  0  0  0  0  0  0  0  0  0  0
   -4.8574   -2.4053    0.0000 O   0  0  0  0  0  0  0  0  0  0  0  0
   -4.5931   -4.9899    0.0000 O   0  0  0  0  0  0  0  0  0  0  0  0
  2  1  1  6
  2  3  1  0
  3  4  1  0
  4  5  1  0
  5  6  1  0
  6  7  1  0
  7  8  2  0
  8  9  1  0
  9 10  2  0
 10 11  1  0
  9 12  1  0
 12 13  2  0
 12 14  1  0
  5 15  1  0
 15 16  1  0
 16 17  2  0
 17 18  1  0
 18 19  2  0
 19 20  1  0
 18 21  1  0
 21 22  2  0
 21 23  1  0
  2 24  1  0
 24 25  2  0
 24 26  1  0
 11  6  2  0
 20 15  2  0
M  END
>  <rName>  (1003) 
Cys_benzhydryl_44diSOMe

>  <PQ_SYMBOL>  (1003) 
Cys_benzhydryl_44diSOMe

>  <FULL_NAME>  (1003) 
S-(bis(4-(methylsulfinyl)phenyl)methyl)-L-cysteine

>  <IUPAC_CONDENSED>  (1003) 
Cys(benzhydryl(4,4-diS(O)Me))

>  <IUPAC>  (1003) 
(2R)-2-amino-3-((bis(4-(methylsulfinyl)phenyl)methyl)sulfanyl)propanoic acid

>  <TYPE>  (1003) 
Backbone

>  <CLASS>  (1003) 
alpha

>  <ANALOG>  (1003) 
Cys

>  <MOL_WT>  (1003) 
411.5700000000001

>  <LOGP>  (1003) 
2.3959

>  <TPSA>  (1003) 
97.46000000000001

>  <POPULARITY>  (1003) 
2.7

>  <PROTECTED>  (1003) 
TRUE

>  <SMILES>  (1003) 
N[C@@H](CSC(c1(ccc(cc1)S(=O)C))c2(ccc(cc2)S(=O)C))C(=O)O

>  <INCHIKEY>  (1003) 
GSLUEVJBZOPUNZ-PICNDJGISA-N

$$$$
Cys_biotinyl
     RDKit          2D

 22 23  0  0  0  0  0  0  0  0999 V2000
    5.0720    1.9935    0.0000 N   0  0  0  0  0  0  0  0  0  0  0  0
    5.6982    0.6305    0.0000 C   0  0  0  0  0  0  0  0  0  0  0  0
    4.8309   -0.5933    0.0000 C   0  0  0  0  0  0  0  0  0  0  0  0
    3.3373   -0.4541    0.0000 S   0  0  0  0  0  0  0  0  0  0  0  0
    2.4700   -1.6779    0.0000 C   0  0  0  0  0  0  0  0  0  0  0  0
    3.0961   -3.0409    0.0000 O   0  0  0  0  0  0  0  0  0  0  0  0
    0.9765   -1.5386    0.0000 C   0  0  0  0  0  0  0  0  0  0  0  0
    0.3503   -0.1756    0.0000 C   0  0  0  0  0  0  0  0  0  0  0  0
   -1.1432   -0.0363    0.0000 C   0  0  0  0  0  0  0  0  0  0  0  0
   -1.7694    1.3267    0.0000 C   0  0  0  0  0  0  0  0  0  0  0  0
   -3.2629    1.4660    0.0000 C   0  0  0  0  0  0  0  0  0  0  0  0
   -4.0281    2.7561    0.0000 S   0  0  0  0  0  0  0  0  0  0  0  0
   -5.4916    2.4270    0.0000 C   0  0  0  0  0  0  0  0  0  0  0  0
   -5.6309    0.9335    0.0000 C   0  0  0  0  0  0  0  0  0  0  0  0
   -6.6214   -0.1930    0.0000 N   0  0  0  0  0  0  0  0  0  0  0  0
   -5.8562   -1.4831    0.0000 C   0  0  0  0  0  0  0  0  0  0  0  0
   -6.4501   -2.8605    0.0000 O   0  0  0  0  0  0  0  0  0  0  0  0
   -4.3927   -1.1540    0.0000 N   0  0  0  0  0  0  0  0  0  0  0  0
   -4.2535    0.3395    0.0000 C   0  0  0  0  0  0  0  0  0  0  0  0
    7.1917    0.4912    0.0000 C   0  0  0  0  0  0  0  0  0  0  0  0
    7.8179   -0.8718    0.0000 O   0  0  0  0  0  0  0  0  0  0  0  0
    8.0591    1.7150    0.0000 O   0  0  0  0  0  0  0  0  0  0  0  0
  2  1  1  6
  2  3  1  0
  3  4  1  0
  4  5  1  0
  5  6  2  0
  5  7  1  0
  7  8  1  0
  8  9  1  0
  9 10  1  0
 11 10  1  1
 11 12  1  0
 12 13  1  0
 14 13  1  1
 14 15  1  0
 15 16  1  0
 16 17  2  0
 16 18  1  0
 19 18  1  1
  2 20  1  0
 20 21  2  0
 20 22  1  0
 19 11  1  0
 19 14  1  0
M  END
>  <rName>  (1004) 
Cys_biotinyl

>  <PQ_SYMBOL>  (1004) 
Cys_biotinyl

>  <FULL_NAME>  (1004) 
H-Cys(biotinyl)(biotinyl)-OH

>  <IUPAC_CONDENSED>  (1004) 
Cys(biotinyl)

>  <IUPAC>  (1004) 
(2R)-3-[5-[(3aS,4S,6aR)-2-oxo-1,3,3a,4,6,6a-hexahydrothieno[3,4-d]imidazol-4-yl]pentanoylsulfanyl]-2-aminopropanoic acid

>  <TYPE>  (1004) 
Backbone

>  <CLASS>  (1004) 
alpha

>  <ANALOG>  (1004) 
Arg

>  <MOL_WT>  (1004) 
347.46200000000005

>  <LOGP>  (1004) 
0.3839000000000002

>  <TPSA>  (1004) 
121.52

>  <POPULARITY>  (1004) 
3.5

>  <PROTECTED>  (1004) 
TRUE

>  <SMILES>  (1004) 
N[C@@H](CSC(=O)CCCC[C@@H]1(SC[C@@H]2(NC(=O)N[C@H]12)))C(=O)O

>  <INCHIKEY>  (1004) 
CPCNJBWTERZRMS-KBIXCLLPSA-N

$$$$
Cys_dodecyl
     RDKit          2D

 19 18  0  0  0  0  0  0  0  0999 V2000
    6.8990   -1.8789    0.0000 N   0  0  0  0  0  0  0  0  0  0  0  0
    6.9042   -0.3789    0.0000 C   0  0  0  0  0  0  0  0  0  0  0  0
    5.6077    0.3755    0.0000 C   0  0  0  0  0  0  0  0  0  0  0  0
    4.3061   -0.3700    0.0000 S   0  0  0  0  0  0  0  0  0  0  0  0
    3.0096    0.3844    0.0000 C   0  0  0  0  0  0  0  0  0  0  0  0
    1.7080   -0.3611    0.0000 C   0  0  0  0  0  0  0  0  0  0  0  0
    0.4116    0.3933    0.0000 C   0  0  0  0  0  0  0  0  0  0  0  0
   -0.8900   -0.3522    0.0000 C   0  0  0  0  0  0  0  0  0  0  0  0
   -2.1865    0.4022    0.0000 C   0  0  0  0  0  0  0  0  0  0  0  0
   -3.4881   -0.3433    0.0000 C   0  0  0  0  0  0  0  0  0  0  0  0
   -4.7845    0.4111    0.0000 C   0  0  0  0  0  0  0  0  0  0  0  0
   -6.0862   -0.3344    0.0000 C   0  0  0  0  0  0  0  0  0  0  0  0
   -7.3826    0.4201    0.0000 C   0  0  0  0  0  0  0  0  0  0  0  0
   -8.6842   -0.3255    0.0000 C   0  0  0  0  0  0  0  0  0  0  0  0
   -9.9807    0.4290    0.0000 C   0  0  0  0  0  0  0  0  0  0  0  0
  -11.2823   -0.3166    0.0000 C   0  0  0  0  0  0  0  0  0  0  0  0
    8.2058    0.3666    0.0000 C   0  0  0  0  0  0  0  0  0  0  0  0
    8.2109    1.8666    0.0000 O   0  0  0  0  0  0  0  0  0  0  0  0
    9.5022   -0.3878    0.0000 O   0  0  0  0  0  0  0  0  0  0  0  0
  2  1  1  1
  2  3  1  0
  3  4  1  0
  4  5  1  0
  5  6  1  0
  6  7  1  0
  7  8  1  0
  8  9  1  0
  9 10  1  0
 10 11  1  0
 11 12  1  0
 12 13  1  0
 13 14  1  0
 14 15  1  0
 15 16  1  0
  2 17  1  0
 17 18  2  0
 17 19  1  0
M  END
>  <rName>  (1005) 
Cys_dodecyl

>  <PQ_SYMBOL>  (1005) 
Cys_dodecyl

>  <FULL_NAME>  (1005) 
(2R)-2-amino-3-dodecylsulfanylpropanoic acid

>  <IUPAC_CONDENSED>  (1005) 
Cys(dodecyl)

>  <IUPAC>  (1005) 
(2R)-2-amino-3-dodecylsulfanylpropanoic acid

>  <TYPE>  (1005) 
Backbone

>  <CLASS>  (1005) 
alpha

>  <ANALOG>  (1005) 
Cys

>  <MOL_WT>  (1005) 
289.48499999999996

>  <LOGP>  (1005) 
4.052400000000003

>  <TPSA>  (1005) 
63.32000000000001

>  <POPULARITY>  (1005) 
3.5

>  <PROTECTED>  (1005) 
TRUE

>  <SMILES>  (1005) 
N[C@@H](CSCCCCCCCCCCCC)C(=O)O

>  <INCHIKEY>  (1005) 
HMHHAAZRWXKITO-AWEZNQCLSA-N

$$$$
Cys_gO2_gBn_4OMe
     RDKit          2D

 18 18  0  0  0  0  0  0  0  0999 V2000
   -1.7428    1.4758    0.0000 N   0  0  0  0  0  0  0  0  0  0  0  0
   -2.9222    0.5489    0.0000 C   0  0  0  0  0  0  0  0  0  0  0  0
   -2.7091   -0.9359    0.0000 C   0  0  0  0  0  0  0  0  0  0  0  0
   -1.3167   -1.4938    0.0000 S   0  0  0  0  0  0  0  0  0  0  0  0
   -1.8746   -2.8862    0.0000 O   0  0  0  0  0  0  0  0  0  0  0  0
   -0.7588   -0.1014    0.0000 O   0  0  0  0  0  0  0  0  0  0  0  0
    0.0757   -2.0517    0.0000 C   0  0  0  0  0  0  0  0  0  0  0  0
    1.2550   -1.1248    0.0000 C   0  0  0  0  0  0  0  0  0  0  0  0
    1.0420    0.3600    0.0000 C   0  0  0  0  0  0  0  0  0  0  0  0
    2.2213    1.2869    0.0000 C   0  0  0  0  0  0  0  0  0  0  0  0
    3.6137    0.7290    0.0000 C   0  0  0  0  0  0  0  0  0  0  0  0
    4.7930    1.6559    0.0000 O   0  0  0  0  0  0  0  0  0  0  0  0
    6.1854    1.0980    0.0000 C   0  0  0  0  0  0  0  0  0  0  0  0
    3.8268   -0.7558    0.0000 C   0  0  0  0  0  0  0  0  0  0  0  0
    2.6474   -1.6827    0.0000 C   0  0  0  0  0  0  0  0  0  0  0  0
   -4.3146    1.1067    0.0000 C   0  0  0  0  0  0  0  0  0  0  0  0
   -5.4939    0.1798    0.0000 O   0  0  0  0  0  0  0  0  0  0  0  0
   -4.5276    2.5915    0.0000 O   0  0  0  0  0  0  0  0  0  0  0  0
  2  1  1  1
  2  3  1  0
  3  4  1  0
  4  5  2  0
  4  6  2  0
  4  7  1  0
  7  8  1  0
  8  9  1  0
  9 10  2  0
 10 11  1  0
 11 12  1  0
 12 13  1  0
 11 14  2  0
 14 15  1  0
  2 16  1  0
 16 17  2  0
 16 18  1  0
 15  8  2  0
M  END
>  <rName>  (1006) 
Cys_gO2_gBn_4OMe

>  <PQ_SYMBOL>  (1006) 
Cys_gO2_gBn_4OMe

>  <FULL_NAME>  (1006) 
Cys(g-O2,g-Bn(4-OMe))

>  <IUPAC_CONDENSED>  (1006) 
Cys(g-O2,g-Bn(4-OMe))

>  <IUPAC>  (1006) 
(2R)-2-amino-3-((4-methoxyphenyl)methylsulfonyl)propanoic acid

>  <TYPE>  (1006) 
Backbone

>  <CLASS>  (1006) 
alpha

>  <ANALOG>  (1006) 
X

>  <MOL_WT>  (1006) 
273.31

>  <LOGP>  (1006) 
0.02189999999999953

>  <TPSA>  (1006) 
106.69000000000001

>  <POPULARITY>  (1006) 
3.5

>  <PROTECTED>  (1006) 
TRUE

>  <SMILES>  (1006) 
N[C@@H](CS(=O)(=O)Cc1(ccc(OC)cc1))C(=O)O

>  <INCHIKEY>  (1006) 
WOQHTDKKVVGPTG-JTQLQIEISA-N

$$$$
Cys_octyl
     RDKit          2D

 15 14  0  0  0  0  0  0  0  0999 V2000
    4.4025   -1.8836    0.0000 N   0  0  0  0  0  0  0  0  0  0  0  0
    4.4139   -0.3836    0.0000 C   0  0  0  0  0  0  0  0  0  0  0  0
    3.1206    0.3763    0.0000 C   0  0  0  0  0  0  0  0  0  0  0  0
    1.8159   -0.3638    0.0000 S   0  0  0  0  0  0  0  0  0  0  0  0
    0.5226    0.3960    0.0000 C   0  0  0  0  0  0  0  0  0  0  0  0
   -0.7821   -0.3441    0.0000 C   0  0  0  0  0  0  0  0  0  0  0  0
   -2.0754    0.4158    0.0000 C   0  0  0  0  0  0  0  0  0  0  0  0
   -3.3801   -0.3243    0.0000 C   0  0  0  0  0  0  0  0  0  0  0  0
   -4.6734    0.4356    0.0000 C   0  0  0  0  0  0  0  0  0  0  0  0
   -5.9781   -0.3045    0.0000 C   0  0  0  0  0  0  0  0  0  0  0  0
   -7.2714    0.4554    0.0000 C   0  0  0  0  0  0  0  0  0  0  0  0
   -8.5761   -0.2847    0.0000 C   0  0  0  0  0  0  0  0  0  0  0  0
    5.7186    0.3565    0.0000 C   0  0  0  0  0  0  0  0  0  0  0  0
    5.7301    1.8564    0.0000 O   0  0  0  0  0  0  0  0  0  0  0  0
    7.0119   -0.4034    0.0000 O   0  0  0  0  0  0  0  0  0  0  0  0
  2  1  1  1
  2  3  1  0
  3  4  1  0
  4  5  1  0
  5  6  1  0
  6  7  1  0
  7  8  1  0
  8  9  1  0
  9 10  1  0
 10 11  1  0
 11 12  1  0
  2 13  1  0
 13 14  2  0
 13 15  1  0
M  END
>  <rName>  (1007) 
Cys_octyl

>  <PQ_SYMBOL>  (1007) 
Cys_octyl

>  <FULL_NAME>  (1007) 
S-Octyl-L-cysteine

>  <IUPAC_CONDENSED>  (1007) 
Cys(octyl)

>  <IUPAC>  (1007) 
(2R)-2-amino-3-octylsulfanylpropanoic acid

>  <TYPE>  (1007) 
Backbone

>  <CLASS>  (1007) 
alpha

>  <ANALOG>  (1007) 
Cys

>  <MOL_WT>  (1007) 
233.37699999999995

>  <LOGP>  (1007) 
2.492

>  <TPSA>  (1007) 
63.32000000000001

>  <POPULARITY>  (1007) 
2.2

>  <PROTECTED>  (1007) 
TRUE

>  <SMILES>  (1007) 
N[C@@H](CSCCCCCCCC)C(=O)O

>  <INCHIKEY>  (1007) 
PFMAZAQGZRPUCY-JTQLQIEISA-N

$$$$
Cys_palmitoyl
     RDKit          2D

 24 23  0  0  0  0  0  0  0  0999 V2000
    6.5296    2.5321    0.0000 N   0  0  0  0  0  0  0  0  0  0  0  0
    7.6689    1.5564    0.0000 C   0  0  0  0  0  0  0  0  0  0  0  0
    7.3936    0.0819    0.0000 C   0  0  0  0  0  0  0  0  0  0  0  0
    5.9790   -0.4169    0.0000 S   0  0  0  0  0  0  0  0  0  0  0  0
    5.7037   -1.8914    0.0000 C   0  0  0  0  0  0  0  0  0  0  0  0
    6.8430   -2.8671    0.0000 O   0  0  0  0  0  0  0  0  0  0  0  0
    4.2890   -2.3903    0.0000 C   0  0  0  0  0  0  0  0  0  0  0  0
    3.1497   -1.4146    0.0000 C   0  0  0  0  0  0  0  0  0  0  0  0
    1.7351   -1.9135    0.0000 C   0  0  0  0  0  0  0  0  0  0  0  0
    0.5958   -0.9378    0.0000 C   0  0  0  0  0  0  0  0  0  0  0  0
   -0.8188   -1.4366    0.0000 C   0  0  0  0  0  0  0  0  0  0  0  0
   -1.9582   -0.4609    0.0000 C   0  0  0  0  0  0  0  0  0  0  0  0
   -3.3728   -0.9598    0.0000 C   0  0  0  0  0  0  0  0  0  0  0  0
   -4.5121    0.0159    0.0000 C   0  0  0  0  0  0  0  0  0  0  0  0
   -5.9267   -0.4829    0.0000 C   0  0  0  0  0  0  0  0  0  0  0  0
   -7.0661    0.4927    0.0000 C   0  0  0  0  0  0  0  0  0  0  0  0
   -8.4807   -0.0061    0.0000 C   0  0  0  0  0  0  0  0  0  0  0  0
   -9.6200    0.9696    0.0000 C   0  0  0  0  0  0  0  0  0  0  0  0
  -11.0346    0.4707    0.0000 C   0  0  0  0  0  0  0  0  0  0  0  0
  -12.1739    1.4464    0.0000 C   0  0  0  0  0  0  0  0  0  0  0  0
  -13.5886    0.9476    0.0000 C   0  0  0  0  0  0  0  0  0  0  0  0
    9.0835    2.0553    0.0000 C   0  0  0  0  0  0  0  0  0  0  0  0
   10.2228    1.0796    0.0000 O   0  0  0  0  0  0  0  0  0  0  0  0
    9.3588    3.5298    0.0000 O   0  0  0  0  0  0  0  0  0  0  0  0
  2  1  1  6
  2  3  1  0
  3  4  1  0
  4  5  1  0
  5  6  2  0
  5  7  1  0
  7  8  1  0
  8  9  1  0
  9 10  1  0
 10 11  1  0
 11 12  1  0
 12 13  1  0
 13 14  1  0
 14 15  1  0
 15 16  1  0
 16 17  1  0
 17 18  1  0
 18 19  1  0
 19 20  1  0
 20 21  1  0
  2 22  1  0
 22 23  2  0
 22 24  1  0
M  END
>  <rName>  (1008) 
Cys_palmitoyl

>  <PQ_SYMBOL>  (1008) 
Cys_palmitoyl

>  <FULL_NAME>  (1008) 
S-PALMITOYL-L-CYSTEINE

>  <IUPAC_CONDENSED>  (1008) 
Cys(palmitoyl)

>  <IUPAC>  (1008) 
(2R)-2-amino-3-((1-oxohexadecyl)sulfanyl)propanoic acid

>  <TYPE>  (1008) 
Backbone

>  <CLASS>  (1008) 
alpha

>  <ANALOG>  (1008) 
Cys

>  <MOL_WT>  (1008) 
359.5760000000001

>  <LOGP>  (1008) 
5.139400000000005

>  <TPSA>  (1008) 
80.39

>  <POPULARITY>  (1008) 
21.2

>  <PROTECTED>  (1008) 
TRUE

>  <SMILES>  (1008) 
N[C@@H](CSC(=O)CCCCCCCCCCCCCCC)C(=O)O

>  <INCHIKEY>  (1008) 
FRAMWPHPFIXRCP-KRWDZBQOSA-N

$$$$
Cys_prop2ynyl
     RDKit          2D

 10  9  0  0  0  0  0  0  0  0999 V2000
   -1.2340   -1.8694    0.0000 N   0  0  0  0  0  0  0  0  0  0  0  0
   -1.3962   -0.3782    0.0000 C   0  0  0  0  0  0  0  0  0  0  0  0
   -0.1859    0.5079    0.0000 C   0  0  0  0  0  0  0  0  0  0  0  0
    1.1866   -0.0973    0.0000 S   0  0  0  0  0  0  0  0  0  0  0  0
    2.3969    0.7888    0.0000 C   0  0  0  0  0  0  0  0  0  0  0  0
    3.7695    0.1837    0.0000 C   0  0  0  0  0  0  0  0  0  0  0  0
    5.1420   -0.4214    0.0000 C   0  0  0  0  0  0  0  0  0  0  0  0
   -2.7688    0.2269    0.0000 C   0  0  0  0  0  0  0  0  0  0  0  0
   -2.9310    1.7181    0.0000 O   0  0  0  0  0  0  0  0  0  0  0  0
   -3.9791   -0.6591    0.0000 O   0  0  0  0  0  0  0  0  0  0  0  0
  2  1  1  6
  2  3  1  0
  3  4  1  0
  4  5  1  0
  5  6  1  0
  6  7  3  0
  2  8  1  0
  8  9  2  0
  8 10  1  0
M  END
>  <rName>  (1009) 
Cys_prop2ynyl

>  <PQ_SYMBOL>  (1009) 
Cys_prop2ynyl

>  <FULL_NAME>  (1009) 
(L)-3-(Propargylsulfenyl)-alanine

>  <IUPAC_CONDENSED>  (1009) 
Cys(prop-2-ynyl)

>  <IUPAC>  (1009) 
(2R)-2-amino-3-prop-2-ynylsulfanylpropanoic acid

>  <TYPE>  (1009) 
Backbone

>  <CLASS>  (1009) 
alpha

>  <ANALOG>  (1009) 
Cys

>  <MOL_WT>  (1009) 
159.20999999999998

>  <LOGP>  (1009) 
-0.23530000000000012

>  <TPSA>  (1009) 
63.32000000000001

>  <POPULARITY>  (1009) 
3.5

>  <PROTECTED>  (1009) 
TRUE

>  <SMILES>  (1009) 
N[C@@H](CSCC#C)C(=O)O

>  <INCHIKEY>  (1009) 
JAKVEOCMEMGHGB-YFKPBYRVSA-N

$$$$
Cyspyrimid-2-yl5-I-al
     RDKit          2D

 13 13  0  0  0  0  0  0  0  0999 V2000
   -3.5538   -1.4927    0.0000 N   0  0  0  0  0  0  0  0  0  0  0  0
   -3.1362   -0.0520    0.0000 C   0  0  0  0  0  0  0  0  0  0  0  0
   -4.1751    1.0300    0.0000 C   0  0  0  0  0  0  0  0  0  0  0  0
   -5.6316    0.6712    0.0000 O   0  0  0  0  0  0  0  0  0  0  0  0
   -1.6798    0.3067    0.0000 C   0  0  0  0  0  0  0  0  0  0  0  0
   -0.6409   -0.7753    0.0000 S   0  0  0  0  0  0  0  0  0  0  0  0
    0.8156   -0.4166    0.0000 C   0  0  0  0  0  0  0  0  0  0  0  0
    1.2332    1.0241    0.0000 N   0  0  0  0  0  0  0  0  0  0  0  0
    2.6897    1.3828    0.0000 C   0  0  0  0  0  0  0  0  0  0  0  0
    3.7286    0.3008    0.0000 C   0  0  0  0  0  0  0  0  0  0  0  0
    3.3110   -1.1399    0.0000 C   0  0  0  0  0  0  0  0  0  0  0  0
    1.8545   -1.4986    0.0000 N   0  0  0  0  0  0  0  0  0  0  0  0
    5.1850    0.6595    0.0000 I   0  0  0  0  0  0  0  0  0  0  0  0
  2  1  1  6
  2  3  1  0
  3  4  2  0
  2  5  1  0
  5  6  1  0
  6  7  1  0
  7  8  1  0
  8  9  2  0
  9 10  1  0
 10 11  2  0
 11 12  1  0
 10 13  1  0
 12  7  2  0
M  END
>  <rName>  (1010) 
Cyspyrimid-2-yl5-I-al

>  <PQ_SYMBOL>  (1010) 
Cyspyrimid-2-yl5-I-al

>  <FULL_NAME>  (1010) 
(2~{R})-2-azanyl-3-(5-iodanylpyrimidin-2-yl)sulfanyl-propanal

>  <IUPAC_CONDENSED>  (1010) 
Cys(pyrimid-2-yl(5-I))-al

>  <IUPAC>  (1010) 
(2R)-2-amino-3-((5-iodopyrimidin-2-yl)sulfanyl)propanal

>  <TYPE>  (1010) 
C-term cap

>  <CLASS>  (1010) 
c_cap

>  <ANALOG>  (1010) 
X

>  <MOL_WT>  (1010) 
309.132

>  <LOGP>  (1010) 
0.6994999999999996

>  <TPSA>  (1010) 
68.87

>  <POPULARITY>  (1010) 
0.2

>  <PROTECTED>  (1010) 
FALSE

>  <SMILES>  (1010) 
N[C@H](C=O)CSc1ncc(cn1)I

>  <INCHIKEY>  (1010) 
MJAWREUUBHZDOO-ZCFIWIBFSA-N

$$$$
D
     RDKit          2D

  9  8  0  0  0  0  0  0  0  0999 V2000
   -0.2826   -1.7410    0.0000 N   0  0  0  0  0  0  0  0  0  0  0  0
   -0.5402   -0.2633    0.0000 C   0  0  0  0  0  0  0  0  0  0  0  0
    0.6108    0.6986    0.0000 C   0  0  0  0  0  0  0  0  0  0  0  0
    2.0193    0.1828    0.0000 C   0  0  0  0  0  0  0  0  0  0  0  0
    2.2769   -1.2950    0.0000 O   0  0  0  0  0  0  0  0  0  0  0  0
    3.1703    1.1447    0.0000 O   0  0  0  0  0  0  0  0  0  0  0  0
   -1.9487    0.2525    0.0000 C   0  0  0  0  0  0  0  0  0  0  0  0
   -2.2062    1.7302    0.0000 O   0  0  0  0  0  0  0  0  0  0  0  0
   -3.0997   -0.7094    0.0000 O   0  0  0  0  0  0  0  0  0  0  0  0
  2  1  1  6
  2  3  1  0
  3  4  1  0
  4  5  2  0
  4  6  1  0
  2  7  1  0
  7  8  2  0
  7  9  1  0
M  END
>  <rName>  (1011) 
D

>  <PQ_SYMBOL>  (1011) 
D

>  <FULL_NAME>  (1011) 
L-Aspartic acid

>  <IUPAC_CONDENSED>  (1011) 
Asp

>  <IUPAC>  (1011) 
(2S)-2-aminobutanedioic acid

>  <TYPE>  (1011) 
Backbone

>  <CLASS>  (1011) 
alpha

>  <ANALOG>  (1011) 
Asp

>  <MOL_WT>  (1011) 
133.10299999999998

>  <LOGP>  (1011) 
-1.127

>  <TPSA>  (1011) 
100.62000000000002

>  <POPULARITY>  (1011) 
94.7

>  <PROTECTED>  (1011) 
TRUE

>  <SMILES>  (1011) 
N[C@@H](CC(=O)O)C(=O)O

>  <INCHIKEY>  (1011) 
CKLJMWTZIZZHCS-REOHCLBHSA-N

$$$$
D-1Nal
     RDKit          2D

 16 17  0  0  0  0  0  0  0  0999 V2000
   -2.7457   -1.6512    0.0000 N   0  0  0  0  0  0  0  0  0  0  0  0
   -2.6203   -0.1565    0.0000 C   0  0  0  0  0  0  0  0  0  0  0  0
   -1.2631    0.4823    0.0000 C   0  0  0  0  0  0  0  0  0  0  0  0
   -0.0314   -0.3737    0.0000 C   0  0  0  0  0  0  0  0  0  0  0  0
   -0.1568   -1.8684    0.0000 C   0  0  0  0  0  0  0  0  0  0  0  0
    1.0750   -2.7244    0.0000 C   0  0  0  0  0  0  0  0  0  0  0  0
    2.4322   -2.0856    0.0000 C   0  0  0  0  0  0  0  0  0  0  0  0
    2.5576   -0.5909    0.0000 C   0  0  0  0  0  0  0  0  0  0  0  0
    3.9148    0.0479    0.0000 C   0  0  0  0  0  0  0  0  0  0  0  0
    4.0402    1.5426    0.0000 C   0  0  0  0  0  0  0  0  0  0  0  0
    2.8084    2.3986    0.0000 C   0  0  0  0  0  0  0  0  0  0  0  0
    1.4512    1.7598    0.0000 C   0  0  0  0  0  0  0  0  0  0  0  0
    1.3258    0.2651    0.0000 C   0  0  0  0  0  0  0  0  0  0  0  0
   -3.8521    0.6995    0.0000 C   0  0  0  0  0  0  0  0  0  0  0  0
   -3.7267    2.1942    0.0000 O   0  0  0  0  0  0  0  0  0  0  0  0
   -5.2093    0.0607    0.0000 O   0  0  0  0  0  0  0  0  0  0  0  0
  2  1  1  1
  2  3  1  0
  3  4  1  0
  4  5  2  0
  5  6  1  0
  6  7  2  0
  7  8  1  0
  8  9  2  0
  9 10  1  0
 10 11  2  0
 11 12  1  0
 12 13  2  0
  2 14  1  0
 14 15  2  0
 14 16  1  0
 13  4  1  0
 13  8  1  0
M  END
>  <rName>  (1012) 
D-1Nal

>  <PQ_SYMBOL>  (1012) 
D-1Nal

>  <FULL_NAME>  (1012) 
3-(1-Naphthyl)-D-Alanine

>  <IUPAC_CONDENSED>  (1012) 
D-1Nal

>  <IUPAC>  (1012) 
(2R)-2-amino-3-(naphthalen-1-yl)propanoic acid

>  <TYPE>  (1012) 
Backbone

>  <CLASS>  (1012) 
alpha

>  <ANALOG>  (1012) 
Phe

>  <MOL_WT>  (1012) 
215.25199999999998

>  <LOGP>  (1012) 
1.7942

>  <TPSA>  (1012) 
63.32000000000001

>  <POPULARITY>  (1012) 
18.0

>  <PROTECTED>  (1012) 
TRUE

>  <SMILES>  (1012) 
N[C@H](Cc1(cccc2(ccccc12)))C(=O)O

>  <INCHIKEY>  (1012) 
OFYAYGJCPXRNBL-GFCCVEGCSA-N

$$$$
D-1Nal_4F
     RDKit          2D

 17 18  0  0  0  0  0  0  0  0999 V2000
   -2.7953   -1.7721    0.0000 N   0  0  0  0  0  0  0  0  0  0  0  0
   -2.8228   -0.2723    0.0000 C   0  0  0  0  0  0  0  0  0  0  0  0
   -1.5377    0.5013    0.0000 C   0  0  0  0  0  0  0  0  0  0  0  0
   -0.2252   -0.2248    0.0000 C   0  0  0  0  0  0  0  0  0  0  0  0
   -0.1977   -1.7245    0.0000 C   0  0  0  0  0  0  0  0  0  0  0  0
    1.1149   -2.4506    0.0000 C   0  0  0  0  0  0  0  0  0  0  0  0
    2.4000   -1.6769    0.0000 C   0  0  0  0  0  0  0  0  0  0  0  0
    3.7125   -2.4030    0.0000 F   0  0  0  0  0  0  0  0  0  0  0  0
    2.3725   -0.1772    0.0000 C   0  0  0  0  0  0  0  0  0  0  0  0
    3.6576    0.5965    0.0000 C   0  0  0  0  0  0  0  0  0  0  0  0
    3.6301    2.0963    0.0000 C   0  0  0  0  0  0  0  0  0  0  0  0
    2.3175    2.8223    0.0000 C   0  0  0  0  0  0  0  0  0  0  0  0
    1.0324    2.0487    0.0000 C   0  0  0  0  0  0  0  0  0  0  0  0
    1.0599    0.5489    0.0000 C   0  0  0  0  0  0  0  0  0  0  0  0
   -4.1354    0.4537    0.0000 C   0  0  0  0  0  0  0  0  0  0  0  0
   -4.1628    1.9535    0.0000 O   0  0  0  0  0  0  0  0  0  0  0  0
   -5.4204   -0.3199    0.0000 O   0  0  0  0  0  0  0  0  0  0  0  0
  2  1  1  1
  2  3  1  0
  3  4  1  0
  4  5  2  0
  5  6  1  0
  6  7  2  0
  7  8  1  0
  7  9  1  0
  9 10  2  0
 10 11  1  0
 11 12  2  0
 12 13  1  0
 13 14  2  0
  2 15  1  0
 15 16  2  0
 15 17  1  0
 14  4  1  0
 14  9  1  0
M  END
>  <rName>  (1013) 
D-1Nal_4F

>  <PQ_SYMBOL>  (1013) 
D-1Nal_4F

>  <FULL_NAME>  (1013) 
(2R)-2-amino-3-(4-fluoronaphthalen-1-yl)propanoic acid

>  <IUPAC_CONDENSED>  (1013) 
D-1Nal(4-F)

>  <IUPAC>  (1013) 
(2R)-2-amino-3-(4-fluoronaphthalen-1-yl)propanoic acid

>  <TYPE>  (1013) 
Backbone

>  <CLASS>  (1013) 
alpha

>  <ANALOG>  (1013) 
Phe

>  <MOL_WT>  (1013) 
233.242

>  <LOGP>  (1013) 
1.9333

>  <TPSA>  (1013) 
63.32000000000001

>  <POPULARITY>  (1013) 
2.7

>  <PROTECTED>  (1013) 
TRUE

>  <SMILES>  (1013) 
N[C@H](Cc1(ccc(F)c2(ccccc12)))C(=O)O

>  <INCHIKEY>  (1013) 
KAUORQJJAWLFJG-GFCCVEGCSA-N

$$$$
D-22-diMe-oxazolidine-4-CO2H
     RDKit          2D

 10 10  0  0  0  0  0  0  0  0999 V2000
   -0.3816   -0.8744    0.0000 N   0  0  0  0  0  0  0  0  0  0  0  0
    0.7221    0.1414    0.0000 C   0  0  0  0  0  0  0  0  0  0  0  0
    0.0971    1.5050    0.0000 C   0  0  0  0  0  0  0  0  0  0  0  0
   -1.3929    1.3319    0.0000 O   0  0  0  0  0  0  0  0  0  0  0  0
   -1.6888   -0.1386    0.0000 C   0  0  0  0  0  0  0  0  0  0  0  0
   -2.2839   -1.5155    0.0000 C   0  0  0  0  0  0  0  0  0  0  0  0
   -3.1203    0.3093    0.0000 C   0  0  0  0  0  0  0  0  0  0  0  0
    2.1926   -0.1544    0.0000 C   0  0  0  0  0  0  0  0  0  0  0  0
    3.1841    0.9712    0.0000 O   0  0  0  0  0  0  0  0  0  0  0  0
    2.6717   -1.5759    0.0000 O   0  0  0  0  0  0  0  0  0  0  0  0
  1  2  1  0
  2  3  1  0
  3  4  1  0
  4  5  1  0
  5  6  1  0
  5  7  1  0
  2  8  1  6
  8  9  2  0
  8 10  1  0
  5  1  1  0
M  END
>  <rName>  (1014) 
D-22-diMe-oxazolidine-4-CO2H

>  <PQ_SYMBOL>  (1014) 
D-22-diMe-oxazolidine-4-CO2H

>  <FULL_NAME>  (1014) 
(R)-2,2-dimethyloxazolidine-4-carboxylic acid

>  <IUPAC_CONDENSED>  (1014) 
D-2,2-diMe-oxazolidine-4-CO2H

>  <IUPAC>  (1014) 
(4R)-2,2-dimethyl-oxazolidine-4-carboxylic acid

>  <TYPE>  (1014) 
Backbone

>  <CLASS>  (1014) 
alpha

>  <ANALOG>  (1014) 
Pro

>  <MOL_WT>  (1014) 
145.158

>  <LOGP>  (1014) 
-0.20450000000000063

>  <TPSA>  (1014) 
58.56

>  <POPULARITY>  (1014) 
4.2

>  <PROTECTED>  (1014) 
TRUE

>  <SMILES>  (1014) 
N1[C@H](COC1(C)C)C(=O)O

>  <INCHIKEY>  (1014) 
PPWHHAIRIFSDCP-SCSAIBSYSA-N

$$$$
D-2Nal
     RDKit          2D

 16 17  0  0  0  0  0  0  0  0999 V2000
   -2.0722    1.6358    0.0000 N   0  0  0  0  0  0  0  0  0  0  0  0
   -2.7778    0.3121    0.0000 C   0  0  0  0  0  0  0  0  0  0  0  0
   -1.9842   -0.9608    0.0000 C   0  0  0  0  0  0  0  0  0  0  0  0
   -0.4851   -0.9100    0.0000 C   0  0  0  0  0  0  0  0  0  0  0  0
    0.3084   -2.1829    0.0000 C   0  0  0  0  0  0  0  0  0  0  0  0
    1.8076   -2.1322    0.0000 C   0  0  0  0  0  0  0  0  0  0  0  0
    2.5132   -0.8085    0.0000 C   0  0  0  0  0  0  0  0  0  0  0  0
    4.0123   -0.7577    0.0000 C   0  0  0  0  0  0  0  0  0  0  0  0
    4.7179    0.5659    0.0000 C   0  0  0  0  0  0  0  0  0  0  0  0
    3.9244    1.8388    0.0000 C   0  0  0  0  0  0  0  0  0  0  0  0
    2.4253    1.7881    0.0000 C   0  0  0  0  0  0  0  0  0  0  0  0
    1.7196    0.4644    0.0000 C   0  0  0  0  0  0  0  0  0  0  0  0
    0.2205    0.4136    0.0000 C   0  0  0  0  0  0  0  0  0  0  0  0
   -4.2769    0.2614    0.0000 C   0  0  0  0  0  0  0  0  0  0  0  0
   -4.9825   -1.0623    0.0000 O   0  0  0  0  0  0  0  0  0  0  0  0
   -5.0704    1.5343    0.0000 O   0  0  0  0  0  0  0  0  0  0  0  0
  2  1  1  6
  2  3  1  0
  3  4  1  0
  4  5  1  0
  5  6  2  0
  6  7  1  0
  7  8  2  0
  8  9  1  0
  9 10  2  0
 10 11  1  0
 11 12  2  0
 12 13  1  0
  2 14  1  0
 14 15  2  0
 14 16  1  0
 12  7  1  0
 13  4  2  0
M  END
>  <rName>  (1015) 
D-2Nal

>  <PQ_SYMBOL>  (1015) 
D-2Nal

>  <FULL_NAME>  (1015) 
3-(2-Naphthyl)-D-Alanine

>  <IUPAC_CONDENSED>  (1015) 
D-2Nal

>  <IUPAC>  (1015) 
(2R)-2-amino-3-(naphthalen-2-yl)propanoic acid

>  <TYPE>  (1015) 
Backbone

>  <CLASS>  (1015) 
alpha

>  <ANALOG>  (1015) 
Phe

>  <MOL_WT>  (1015) 
215.25199999999998

>  <LOGP>  (1015) 
1.7942

>  <TPSA>  (1015) 
63.32000000000001

>  <POPULARITY>  (1015) 
39.3

>  <PROTECTED>  (1015) 
TRUE

>  <SMILES>  (1015) 
N[C@H](Cc2(ccc1(ccccc1c2)))C(=O)O

>  <INCHIKEY>  (1015) 
JPZXHKDZASGCLU-GFCCVEGCSA-N

$$$$
D-2Pal
     RDKit          2D

 12 12  0  0  0  0  0  0  0  0999 V2000
   -1.2391    1.6805    0.0000 N   0  0  0  0  0  0  0  0  0  0  0  0
   -1.6184    0.2292    0.0000 C   0  0  0  0  0  0  0  0  0  0  0  0
   -0.5513   -0.8249    0.0000 C   0  0  0  0  0  0  0  0  0  0  0  0
    0.8952   -0.4278    0.0000 C   0  0  0  0  0  0  0  0  0  0  0  0
    1.2745    1.0235    0.0000 C   0  0  0  0  0  0  0  0  0  0  0  0
    2.7210    1.4206    0.0000 C   0  0  0  0  0  0  0  0  0  0  0  0
    3.7882    0.3665    0.0000 C   0  0  0  0  0  0  0  0  0  0  0  0
    3.4088   -1.0848    0.0000 C   0  0  0  0  0  0  0  0  0  0  0  0
    1.9624   -1.4819    0.0000 N   0  0  0  0  0  0  0  0  0  0  0  0
   -3.0649   -0.1679    0.0000 C   0  0  0  0  0  0  0  0  0  0  0  0
   -3.4442   -1.6191    0.0000 O   0  0  0  0  0  0  0  0  0  0  0  0
   -4.1321    0.8862    0.0000 O   0  0  0  0  0  0  0  0  0  0  0  0
  2  1  1  6
  2  3  1  0
  3  4  1  0
  4  5  2  0
  5  6  1  0
  6  7  2  0
  7  8  1  0
  8  9  2  0
  2 10  1  0
 10 11  2  0
 10 12  1  0
  9  4  1  0
M  END
>  <rName>  (1016) 
D-2Pal

>  <PQ_SYMBOL>  (1016) 
D-2Pal

>  <FULL_NAME>  (1016) 
3-(2-Pyridyl)-D-Alanine

>  <IUPAC_CONDENSED>  (1016) 
D-2Pal

>  <IUPAC>  (1016) 
(2R)-2-amino-3-(pyridin-2-yl)propanoic acid

>  <TYPE>  (1016) 
Backbone

>  <CLASS>  (1016) 
alpha

>  <ANALOG>  (1016) 
Phe

>  <MOL_WT>  (1016) 
166.17999999999998

>  <LOGP>  (1016) 
0.035999999999999754

>  <TPSA>  (1016) 
76.21

>  <POPULARITY>  (1016) 
18.1

>  <PROTECTED>  (1016) 
TRUE

>  <SMILES>  (1016) 
N[C@H](Cc1(ccccn1))C(=O)O

>  <INCHIKEY>  (1016) 
PDRJLZDUOULRHE-SSDOTTSWSA-N

$$$$
D-2Thi
     RDKit          2D

 11 11  0  0  0  0  0  0  0  0999 V2000
   -0.9461    1.6947    0.0000 N   0  0  0  0  0  0  0  0  0  0  0  0
   -1.3100    0.2395    0.0000 C   0  0  0  0  0  0  0  0  0  0  0  0
   -0.2317   -0.8032    0.0000 C   0  0  0  0  0  0  0  0  0  0  0  0
    1.2105   -0.3908    0.0000 C   0  0  0  0  0  0  0  0  0  0  0  0
    2.3919   -1.3151    0.0000 C   0  0  0  0  0  0  0  0  0  0  0  0
    3.6360   -0.4772    0.0000 C   0  0  0  0  0  0  0  0  0  0  0  0
    3.2236    0.9650    0.0000 C   0  0  0  0  0  0  0  0  0  0  0  0
    1.7245    1.0184    0.0000 S   0  0  0  0  0  0  0  0  0  0  0  0
   -2.7522   -0.1729    0.0000 C   0  0  0  0  0  0  0  0  0  0  0  0
   -3.1161   -1.6281    0.0000 O   0  0  0  0  0  0  0  0  0  0  0  0
   -3.8304    0.8698    0.0000 O   0  0  0  0  0  0  0  0  0  0  0  0
  2  1  1  6
  2  3  1  0
  3  4  1  0
  4  5  2  0
  5  6  1  0
  6  7  2  0
  7  8  1  0
  2  9  1  0
  9 10  2  0
  9 11  1  0
  8  4  1  0
M  END
>  <rName>  (1017) 
D-2Thi

>  <PQ_SYMBOL>  (1017) 
D-2Thi

>  <FULL_NAME>  (1017) 
3-(2-Thienyl)-D-Alanine

>  <IUPAC_CONDENSED>  (1017) 
D-2Thi

>  <IUPAC>  (1017) 
(2R)-2-amino-3-(thiophen-2-yl)propanoic acid

>  <TYPE>  (1017) 
Backbone

>  <CLASS>  (1017) 
alpha

>  <ANALOG>  (1017) 
Phe

>  <MOL_WT>  (1017) 
171.22099999999998

>  <LOGP>  (1017) 
0.7025000000000001

>  <TPSA>  (1017) 
63.32000000000001

>  <POPULARITY>  (1017) 
12.8

>  <PROTECTED>  (1017) 
TRUE

>  <SMILES>  (1017) 
N[C@H](Cc1(cccs1))C(=O)O

>  <INCHIKEY>  (1017) 
WTOFYLAWDLQMBZ-ZCFIWIBFSA-N

$$$$
D-3-oxa-Ac5c_4RCF3
     RDKit          2D

 13 13  0  0  0  0  0  0  0  0999 V2000
    1.7794   -1.6783    0.0000 N   0  0  0  0  0  0  0  0  0  0  0  0
    1.2550   -0.2729    0.0000 C   0  0  0  0  0  0  0  0  0  0  0  0
    1.0343    1.2108    0.0000 C   0  0  0  0  0  0  0  0  0  0  0  0
   -0.4450    1.4593    0.0000 O   0  0  0  0  0  0  0  0  0  0  0  0
   -1.1385    0.1293    0.0000 C   0  0  0  0  0  0  0  0  0  0  0  0
   -0.0878   -0.9413    0.0000 C   0  0  0  0  0  0  0  0  0  0  0  0
   -2.6222   -0.0915    0.0000 C   0  0  0  0  0  0  0  0  0  0  0  0
   -4.1058   -0.3122    0.0000 F   0  0  0  0  0  0  0  0  0  0  0  0
   -2.8429    1.3922    0.0000 F   0  0  0  0  0  0  0  0  0  0  0  0
   -2.4014   -1.5751    0.0000 F   0  0  0  0  0  0  0  0  0  0  0  0
    2.7075    0.1017    0.0000 C   0  0  0  0  0  0  0  0  0  0  0  0
    3.1093    1.5469    0.0000 O   0  0  0  0  0  0  0  0  0  0  0  0
    3.7581   -0.9689    0.0000 O   0  0  0  0  0  0  0  0  0  0  0  0
  2  1  1  6
  2  3  1  0
  3  4  1  0
  4  5  1  0
  5  6  1  0
  5  7  1  6
  7  8  1  0
  7  9  1  0
  7 10  1  0
  2 11  1  0
 11 12  2  0
 11 13  1  0
  6  2  1  0
M  END
>  <rName>  (1018) 
D-3-oxa-Ac5c_4RCF3

>  <PQ_SYMBOL>  (1018) 
D-3-oxa-Ac5c_4RCF3

>  <FULL_NAME>  (1018) 
N[C@@]1(C(=O)O)CO[C@@H](C(F)(F)F)C1

>  <IUPAC_CONDENSED>  (1018) 
D-3-oxa-Ac5c(4R-CF3)

>  <IUPAC>  (1018) 
(3R,5R)-3-amino-5-(trifluoromethyl)oxolane-3-carboxylic acid

>  <TYPE>  (1018) 
Backbone

>  <CLASS>  (1018) 
alpha

>  <ANALOG>  (1018) 
Ser

>  <MOL_WT>  (1018) 
199.128

>  <LOGP>  (1018) 
0.11970000000000008

>  <TPSA>  (1018) 
72.55

>  <POPULARITY>  (1018) 
2.6

>  <PROTECTED>  (1018) 
TRUE

>  <SMILES>  (1018) 
N[C@]1(CO[C@H](C1)C(F)(F)F)C(=O)O

>  <INCHIKEY>  (1018) 
AIMMWKSMJGOXMW-NQXXGFSBSA-N

$$$$
D-3Pal
     RDKit          2D

 12 12  0  0  0  0  0  0  0  0999 V2000
   -1.2391    1.6805    0.0000 N   0  0  0  0  0  0  0  0  0  0  0  0
   -1.6184    0.2292    0.0000 C   0  0  0  0  0  0  0  0  0  0  0  0
   -0.5513   -0.8249    0.0000 C   0  0  0  0  0  0  0  0  0  0  0  0
    0.8952   -0.4278    0.0000 C   0  0  0  0  0  0  0  0  0  0  0  0
    1.2745    1.0235    0.0000 C   0  0  0  0  0  0  0  0  0  0  0  0
    2.7210    1.4206    0.0000 C   0  0  0  0  0  0  0  0  0  0  0  0
    3.7882    0.3665    0.0000 C   0  0  0  0  0  0  0  0  0  0  0  0
    3.4088   -1.0848    0.0000 N   0  0  0  0  0  0  0  0  0  0  0  0
    1.9624   -1.4819    0.0000 C   0  0  0  0  0  0  0  0  0  0  0  0
   -3.0649   -0.1679    0.0000 C   0  0  0  0  0  0  0  0  0  0  0  0
   -3.4442   -1.6191    0.0000 O   0  0  0  0  0  0  0  0  0  0  0  0
   -4.1321    0.8862    0.0000 O   0  0  0  0  0  0  0  0  0  0  0  0
  2  1  1  6
  2  3  1  0
  3  4  1  0
  4  5  2  0
  5  6  1  0
  6  7  2  0
  7  8  1  0
  8  9  2  0
  2 10  1  0
 10 11  2  0
 10 12  1  0
  9  4  1  0
M  END
>  <rName>  (1019) 
D-3Pal

>  <PQ_SYMBOL>  (1019) 
D-3Pal

>  <FULL_NAME>  (1019) 
3-(3-Pyridyl)-D-Alanine

>  <IUPAC_CONDENSED>  (1019) 
D-3Pal

>  <IUPAC>  (1019) 
(2R)-2-amino-3-(pyridin-3-yl)propanoic acid

>  <TYPE>  (1019) 
Backbone

>  <CLASS>  (1019) 
alpha

>  <ANALOG>  (1019) 
Phe

>  <MOL_WT>  (1019) 
166.17999999999998

>  <LOGP>  (1019) 
0.0360000000000002

>  <TPSA>  (1019) 
76.21

>  <POPULARITY>  (1019) 
21.5

>  <PROTECTED>  (1019) 
TRUE

>  <SMILES>  (1019) 
N[C@H](Cc1(cccnc1))C(=O)O

>  <INCHIKEY>  (1019) 
DFZVZEMNPGABKO-SSDOTTSWSA-N

$$$$
D-3Pal_Me_6carbonyl
     RDKit          2D

 14 14  0  0  0  0  0  0  0  0999 V2000
   -2.0094    1.6916    0.0000 N   0  0  0  0  0  0  0  0  0  0  0  0
   -2.3243    0.2250    0.0000 C   0  0  0  0  0  0  0  0  0  0  0  0
   -1.2116   -0.7809    0.0000 C   0  0  0  0  0  0  0  0  0  0  0  0
    0.2159   -0.3203    0.0000 C   0  0  0  0  0  0  0  0  0  0  0  0
    0.5308    1.1463    0.0000 C   0  0  0  0  0  0  0  0  0  0  0  0
    1.9583    1.6069    0.0000 C   0  0  0  0  0  0  0  0  0  0  0  0
    3.0710    0.6009    0.0000 C   0  0  0  0  0  0  0  0  0  0  0  0
    4.4985    1.0615    0.0000 O   0  0  0  0  0  0  0  0  0  0  0  0
    2.7561   -0.8657    0.0000 N   0  0  0  0  0  0  0  0  0  0  0  0
    3.8688   -1.8716    0.0000 C   0  0  0  0  0  0  0  0  0  0  0  0
    1.3286   -1.3263    0.0000 C   0  0  0  0  0  0  0  0  0  0  0  0
   -3.7518   -0.2356    0.0000 C   0  0  0  0  0  0  0  0  0  0  0  0
   -4.0666   -1.7022    0.0000 O   0  0  0  0  0  0  0  0  0  0  0  0
   -4.8644    0.7704    0.0000 O   0  0  0  0  0  0  0  0  0  0  0  0
  2  1  1  6
  2  3  1  0
  3  4  1  0
  4  5  1  0
  5  6  2  0
  6  7  1  0
  7  8  2  0
  7  9  1  0
  9 10  1  0
  9 11  1  0
  2 12  1  0
 12 13  2  0
 12 14  1  0
 11  4  2  0
M  END
>  <rName>  (1020) 
D-3Pal_Me_6carbonyl

>  <PQ_SYMBOL>  (1020) 
D-3Pal_Me_6carbonyl

>  <FULL_NAME>  (1020) 
(2R)-2-amino-3-(1-methyl-6-oxo-3-pyridinyl)propanoic acid

>  <IUPAC_CONDENSED>  (1020) 
D-3Pal(Me,6-carbonyl)

>  <IUPAC>  (1020) 
(2R)-2-amino-3-(1-methyl-6-oxo-3-pyridinyl)propanoic acid

>  <TYPE>  (1020) 
Backbone

>  <CLASS>  (1020) 
alpha

>  <ANALOG>  (1020) 
Phe

>  <MOL_WT>  (1020) 
196.206

>  <LOGP>  (1020) 
-0.6603000000000001

>  <TPSA>  (1020) 
85.32000000000001

>  <POPULARITY>  (1020) 
2.2

>  <PROTECTED>  (1020) 
TRUE

>  <SMILES>  (1020) 
N[C@H](Cc1(ccc(=O)n(C)c1))C(=O)O

>  <INCHIKEY>  (1020) 
INSPZXPPKBFQGL-SSDOTTSWSA-N

$$$$
D-3Thi
     RDKit          2D

 11 11  0  0  0  0  0  0  0  0999 V2000
   -0.9461    1.6947    0.0000 N   0  0  0  0  0  0  0  0  0  0  0  0
   -1.3100    0.2395    0.0000 C   0  0  0  0  0  0  0  0  0  0  0  0
   -0.2317   -0.8032    0.0000 C   0  0  0  0  0  0  0  0  0  0  0  0
    1.2105   -0.3908    0.0000 C   0  0  0  0  0  0  0  0  0  0  0  0
    2.3919   -1.3151    0.0000 C   0  0  0  0  0  0  0  0  0  0  0  0
    3.6360   -0.4772    0.0000 C   0  0  0  0  0  0  0  0  0  0  0  0
    3.2236    0.9650    0.0000 S   0  0  0  0  0  0  0  0  0  0  0  0
    1.7245    1.0184    0.0000 C   0  0  0  0  0  0  0  0  0  0  0  0
   -2.7522   -0.1729    0.0000 C   0  0  0  0  0  0  0  0  0  0  0  0
   -3.1161   -1.6281    0.0000 O   0  0  0  0  0  0  0  0  0  0  0  0
   -3.8304    0.8698    0.0000 O   0  0  0  0  0  0  0  0  0  0  0  0
  2  1  1  6
  2  3  1  0
  3  4  1  0
  4  5  1  0
  5  6  2  0
  6  7  1  0
  7  8  1  0
  2  9  1  0
  9 10  2  0
  9 11  1  0
  8  4  2  0
M  END
>  <rName>  (1021) 
D-3Thi

>  <PQ_SYMBOL>  (1021) 
D-3Thi

>  <FULL_NAME>  (1021) 
3-(3-Thienyl)-D-Alanine

>  <IUPAC_CONDENSED>  (1021) 
D-3Thi

>  <IUPAC>  (1021) 
(2R)-2-amino-3-(thiophen-3-yl)propanoic acid

>  <TYPE>  (1021) 
Backbone

>  <CLASS>  (1021) 
alpha

>  <ANALOG>  (1021) 
Phe

>  <MOL_WT>  (1021) 
171.22099999999998

>  <LOGP>  (1021) 
0.7025000000000001

>  <TPSA>  (1021) 
63.32000000000001

>  <POPULARITY>  (1021) 
11.4

>  <PROTECTED>  (1021) 
TRUE

>  <SMILES>  (1021) 
N[C@H](Cc1(ccsc1))C(=O)O

>  <INCHIKEY>  (1021) 
VOIZSAUUYAGTMS-ZCFIWIBFSA-N

$$$$
D-4-aza-Pip
     RDKit          2D

  9  9  0  0  0  0  0  0  0  0999 V2000
    0.4167   -1.2990    0.0000 N   0  0  0  0  0  0  0  0  0  0  0  0
   -0.3333    0.0000    0.0000 C   0  0  0  0  0  0  0  0  0  0  0  0
    0.4167    1.2990    0.0000 C   0  0  0  0  0  0  0  0  0  0  0  0
    1.9167    1.2990    0.0000 N   0  0  0  0  0  0  0  0  0  0  0  0
    2.6667    0.0000    0.0000 C   0  0  0  0  0  0  0  0  0  0  0  0
    1.9167   -1.2990    0.0000 C   0  0  0  0  0  0  0  0  0  0  0  0
   -1.8333   -0.0000    0.0000 C   0  0  0  0  0  0  0  0  0  0  0  0
   -2.5833   -1.2990    0.0000 O   0  0  0  0  0  0  0  0  0  0  0  0
   -2.5833    1.2990    0.0000 O   0  0  0  0  0  0  0  0  0  0  0  0
  1  2  1  0
  2  3  1  0
  3  4  1  0
  4  5  1  0
  5  6  1  0
  2  7  1  1
  7  8  2  0
  7  9  1  0
  6  1  1  0
M  END
>  <rName>  (1022) 
D-4-aza-Pip

>  <PQ_SYMBOL>  (1022) 
D-4-aza-Pip

>  <FULL_NAME>  (1022) 
(R)-piperazine-2-carboxylic acid

>  <IUPAC_CONDENSED>  (1022) 
D-4-aza-Pip

>  <IUPAC>  (1022) 
(2R)-piperazine-2-carboxylic acid

>  <TYPE>  (1022) 
Backbone

>  <CLASS>  (1022) 
alpha

>  <ANALOG>  (1022) 
Pro

>  <MOL_WT>  (1022) 
130.14700000000002

>  <LOGP>  (1022) 
-1.3675999999999993

>  <TPSA>  (1022) 
61.36

>  <POPULARITY>  (1022) 
11.6

>  <PROTECTED>  (1022) 
TRUE

>  <SMILES>  (1022) 
N1[C@H](CNCC1)C(=O)O

>  <INCHIKEY>  (1022) 
JSSXHAMIXJGYCS-SCSAIBSYSA-N

$$$$
D-4-thia-Pip
     RDKit          2D

  9  9  0  0  0  0  0  0  0  0999 V2000
    0.4167   -1.2990    0.0000 N   0  0  0  0  0  0  0  0  0  0  0  0
   -0.3333    0.0000    0.0000 C   0  0  0  0  0  0  0  0  0  0  0  0
    0.4167    1.2990    0.0000 C   0  0  0  0  0  0  0  0  0  0  0  0
    1.9167    1.2990    0.0000 S   0  0  0  0  0  0  0  0  0  0  0  0
    2.6667    0.0000    0.0000 C   0  0  0  0  0  0  0  0  0  0  0  0
    1.9167   -1.2990    0.0000 C   0  0  0  0  0  0  0  0  0  0  0  0
   -1.8333   -0.0000    0.0000 C   0  0  0  0  0  0  0  0  0  0  0  0
   -2.5833   -1.2990    0.0000 O   0  0  0  0  0  0  0  0  0  0  0  0
   -2.5833    1.2990    0.0000 O   0  0  0  0  0  0  0  0  0  0  0  0
  1  2  1  0
  2  3  1  0
  3  4  1  0
  4  5  1  0
  5  6  1  0
  2  7  1  1
  7  8  2  0
  7  9  1  0
  6  1  1  0
M  END
>  <rName>  (1023) 
D-4-thia-Pip

>  <PQ_SYMBOL>  (1023) 
D-4-thia-Pip

>  <FULL_NAME>  (1023) 
(3S)-thiomorpholine-3-carboxylic acid

>  <IUPAC_CONDENSED>  (1023) 
D-4-thia-Pip

>  <IUPAC>  (1023) 
(3S)-thiomorpholine-3-carboxylic acid

>  <TYPE>  (1023) 
Backbone

>  <CLASS>  (1023) 
alpha

>  <ANALOG>  (1023) 
Pro

>  <MOL_WT>  (1023) 
147.199

>  <LOGP>  (1023) 
-0.22400000000000003

>  <TPSA>  (1023) 
49.33

>  <POPULARITY>  (1023) 
9.5

>  <PROTECTED>  (1023) 
TRUE

>  <SMILES>  (1023) 
N1[C@H](CSCC1)C(=O)O

>  <INCHIKEY>  (1023) 
JOKIQGQOKXGHDV-SCSAIBSYSA-N

$$$$
D-4Pal
     RDKit          2D

 12 12  0  0  0  0  0  0  0  0999 V2000
   -1.2391    1.6805    0.0000 N   0  0  0  0  0  0  0  0  0  0  0  0
   -1.6184    0.2292    0.0000 C   0  0  0  0  0  0  0  0  0  0  0  0
   -0.5513   -0.8249    0.0000 C   0  0  0  0  0  0  0  0  0  0  0  0
    0.8952   -0.4278    0.0000 C   0  0  0  0  0  0  0  0  0  0  0  0
    1.2745    1.0235    0.0000 C   0  0  0  0  0  0  0  0  0  0  0  0
    2.7210    1.4206    0.0000 C   0  0  0  0  0  0  0  0  0  0  0  0
    3.7882    0.3665    0.0000 N   0  0  0  0  0  0  0  0  0  0  0  0
    3.4088   -1.0848    0.0000 C   0  0  0  0  0  0  0  0  0  0  0  0
    1.9624   -1.4819    0.0000 C   0  0  0  0  0  0  0  0  0  0  0  0
   -3.0649   -0.1679    0.0000 C   0  0  0  0  0  0  0  0  0  0  0  0
   -3.4442   -1.6191    0.0000 O   0  0  0  0  0  0  0  0  0  0  0  0
   -4.1321    0.8862    0.0000 O   0  0  0  0  0  0  0  0  0  0  0  0
  2  1  1  6
  2  3  1  0
  3  4  1  0
  4  5  1  0
  5  6  2  0
  6  7  1  0
  7  8  2  0
  8  9  1  0
  2 10  1  0
 10 11  2  0
 10 12  1  0
  9  4  2  0
M  END
>  <rName>  (1024) 
D-4Pal

>  <PQ_SYMBOL>  (1024) 
D-4Pal

>  <FULL_NAME>  (1024) 
3-(4-Pyridyl)-D-Alanine

>  <IUPAC_CONDENSED>  (1024) 
D-4Pal

>  <IUPAC>  (1024) 
(2R)-2-amino-3-(pyridin-4-yl)propanoic acid

>  <TYPE>  (1024) 
Backbone

>  <CLASS>  (1024) 
alpha

>  <ANALOG>  (1024) 
Phe

>  <MOL_WT>  (1024) 
166.17999999999998

>  <LOGP>  (1024) 
0.035999999999999754

>  <TPSA>  (1024) 
76.21

>  <POPULARITY>  (1024) 
13.2

>  <PROTECTED>  (1024) 
TRUE

>  <SMILES>  (1024) 
N[C@H](Cc1(ccncc1))C(=O)O

>  <INCHIKEY>  (1024) 
FQFVANSXYKWQOT-SSDOTTSWSA-N

$$$$
D-4Pal-NHMe
     RDKit          2D

 13 13  0  0  0  0  0  0  0  0999 V2000
   -0.8522    1.6213    0.0000 N   0  0  0  0  0  0  0  0  0  0  0  0
   -1.1939    0.1607    0.0000 C   0  0  0  0  0  0  0  0  0  0  0  0
   -2.6296   -0.2737    0.0000 C   0  0  0  0  0  0  0  0  0  0  0  0
   -2.9712   -1.7343    0.0000 O   0  0  0  0  0  0  0  0  0  0  0  0
   -3.7237    0.7525    0.0000 N   0  0  0  0  0  0  0  0  0  0  0  0
   -5.1594    0.3180    0.0000 C   0  0  0  0  0  0  0  0  0  0  0  0
   -0.0998   -0.8654    0.0000 C   0  0  0  0  0  0  0  0  0  0  0  0
    1.3359   -0.4310    0.0000 C   0  0  0  0  0  0  0  0  0  0  0  0
    1.6775    1.0296    0.0000 C   0  0  0  0  0  0  0  0  0  0  0  0
    3.1133    1.4640    0.0000 C   0  0  0  0  0  0  0  0  0  0  0  0
    4.2073    0.4379    0.0000 N   0  0  0  0  0  0  0  0  0  0  0  0
    3.8657   -1.0227    0.0000 C   0  0  0  0  0  0  0  0  0  0  0  0
    2.4300   -1.4571    0.0000 C   0  0  0  0  0  0  0  0  0  0  0  0
  2  1  1  6
  2  3  1  0
  3  4  2  0
  3  5  1  0
  5  6  1  0
  2  7  1  0
  7  8  1  0
  8  9  1  0
  9 10  2  0
 10 11  1  0
 11 12  2  0
 12 13  1  0
 13  8  2  0
M  END
>  <rName>  (1025) 
D-4Pal-NHMe

>  <PQ_SYMBOL>  (1025) 
D-4Pal-NHMe

>  <FULL_NAME>  (1025) 
(2~{R})-2-azanyl-~{N}-methyl-3-pyridin-4-yl-propanamide

>  <IUPAC_CONDENSED>  (1025) 
D-4Pal-NHMe

>  <IUPAC>  (1025) 
(2R)-2-amino-N-methyl-3-(pyridin-4-yl)propanamide

>  <TYPE>  (1025) 
C-term cap

>  <CLASS>  (1025) 
c_cap

>  <ANALOG>  (1025) 
X

>  <MOL_WT>  (1025) 
179.223

>  <LOGP>  (1025) 
-0.3026

>  <TPSA>  (1025) 
68.01

>  <POPULARITY>  (1025) 
9.5

>  <PROTECTED>  (1025) 
FALSE

>  <SMILES>  (1025) 
N[C@@H](C(=O)NC)Cc1ccncc1

>  <INCHIKEY>  (1025) 
LJVDSZALHNBLNR-MRVPVSSYSA-N

$$$$
D-Aad
     RDKit          2D

 11 10  0  0  0  0  0  0  0  0999 V2000
   -1.6269    1.8430    0.0000 N   0  0  0  0  0  0  0  0  0  0  0  0
   -1.7489    0.3480    0.0000 C   0  0  0  0  0  0  0  0  0  0  0  0
   -0.5152   -0.5052    0.0000 C   0  0  0  0  0  0  0  0  0  0  0  0
    0.8406    0.1366    0.0000 C   0  0  0  0  0  0  0  0  0  0  0  0
    2.0743   -0.7166    0.0000 C   0  0  0  0  0  0  0  0  0  0  0  0
    3.4300   -0.0748    0.0000 C   0  0  0  0  0  0  0  0  0  0  0  0
    3.5521    1.4203    0.0000 O   0  0  0  0  0  0  0  0  0  0  0  0
    4.6637   -0.9280    0.0000 O   0  0  0  0  0  0  0  0  0  0  0  0
   -3.1047   -0.2938    0.0000 C   0  0  0  0  0  0  0  0  0  0  0  0
   -3.2267   -1.7889    0.0000 O   0  0  0  0  0  0  0  0  0  0  0  0
   -4.3384    0.5594    0.0000 O   0  0  0  0  0  0  0  0  0  0  0  0
  2  1  1  6
  2  3  1  0
  3  4  1  0
  4  5  1  0
  5  6  1  0
  6  7  2  0
  6  8  1  0
  2  9  1  0
  9 10  2  0
  9 11  1  0
M  END
>  <rName>  (1026) 
D-Aad

>  <PQ_SYMBOL>  (1026) 
D-Aad

>  <FULL_NAME>  (1026) 
D-2-Aminoadipic acid

>  <IUPAC_CONDENSED>  (1026) 
D-Aad

>  <IUPAC>  (1026) 
(2R)-2-aminohexanedioic acid

>  <TYPE>  (1026) 
Backbone

>  <CLASS>  (1026) 
alpha

>  <ANALOG>  (1026) 
X

>  <MOL_WT>  (1026) 
161.15699999999998

>  <LOGP>  (1026) 
-0.3468000000000003

>  <TPSA>  (1026) 
100.62000000000002

>  <POPULARITY>  (1026) 
13.1

>  <PROTECTED>  (1026) 
TRUE

>  <SMILES>  (1026) 
N[C@H](CCCC(=O)O)C(=O)O

>  <INCHIKEY>  (1026) 
OYIFNHCXNCRBQI-SCSAIBSYSA-N

$$$$
D-Abu
     RDKit          2D

  7  6  0  0  0  0  0  0  0  0999 V2000
   -0.5797   -1.7367    0.0000 N   0  0  0  0  0  0  0  0  0  0  0  0
   -0.2514   -0.2730    0.0000 C   0  0  0  0  0  0  0  0  0  0  0  0
   -1.3548    0.7431    0.0000 C   0  0  0  0  0  0  0  0  0  0  0  0
   -2.7865    0.2956    0.0000 C   0  0  0  0  0  0  0  0  0  0  0  0
    1.1803    0.1745    0.0000 C   0  0  0  0  0  0  0  0  0  0  0  0
    1.5086    1.6381    0.0000 O   0  0  0  0  0  0  0  0  0  0  0  0
    2.2837   -0.8417    0.0000 O   0  0  0  0  0  0  0  0  0  0  0  0
  2  1  1  6
  2  3  1  0
  3  4  1  0
  2  5  1  0
  5  6  2  0
  5  7  1  0
M  END
>  <rName>  (1027) 
D-Abu

>  <PQ_SYMBOL>  (1027) 
D-Abu

>  <FULL_NAME>  (1027) 
D-2-Aminobutyric acid

>  <IUPAC_CONDENSED>  (1027) 
D-Abu

>  <IUPAC>  (1027) 
(2R)-2-aminobutanoic acid

>  <TYPE>  (1027) 
Backbone

>  <CLASS>  (1027) 
alpha

>  <ANALOG>  (1027) 
Ala

>  <MOL_WT>  (1027) 
103.12099999999998

>  <LOGP>  (1027) 
-0.19170000000000004

>  <TPSA>  (1027) 
63.32000000000001

>  <POPULARITY>  (1027) 
45.2

>  <PROTECTED>  (1027) 
TRUE

>  <SMILES>  (1027) 
N[C@H](CC)C(=O)O

>  <INCHIKEY>  (1027) 
QWCKQJZIFLGMSD-GSVOUGTGSA-N

$$$$
D-Abu_3SF
     RDKit          2D

  8  7  0  0  0  0  0  0  0  0999 V2000
    0.0000   -2.0625    0.0000 N   0  0  0  0  0  0  0  0  0  0  0  0
    0.0000   -0.5625    0.0000 C   0  0  0  0  0  0  0  0  0  0  0  0
   -1.2990    0.1875    0.0000 C   0  0  0  0  0  0  0  0  0  0  0  0
   -2.5981   -0.5625    0.0000 C   0  0  0  0  0  0  0  0  0  0  0  0
   -1.2990    1.6875    0.0000 F   0  0  0  0  0  0  0  0  0  0  0  0
    1.2990    0.1875    0.0000 C   0  0  0  0  0  0  0  0  0  0  0  0
    1.2990    1.6875    0.0000 O   0  0  0  0  0  0  0  0  0  0  0  0
    2.5981   -0.5625    0.0000 O   0  0  0  0  0  0  0  0  0  0  0  0
  2  1  1  6
  2  3  1  0
  3  4  1  6
  3  5  1  0
  2  6  1  0
  6  7  2  0
  6  8  1  0
M  END
>  <rName>  (1028) 
D-Abu_3SF

>  <PQ_SYMBOL>  (1028) 
D-Abu_3SF

>  <FULL_NAME>  (1028) 
(2S,3S)-2-amino-3-fluorobutanoic acid

>  <IUPAC_CONDENSED>  (1028) 
D-Abu(3S-F)

>  <IUPAC>  (1028) 
(2S,3S)-2-amino-3-fluorobutanoic acid

>  <TYPE>  (1028) 
Backbone

>  <CLASS>  (1028) 
alpha

>  <ANALOG>  (1028) 
X

>  <MOL_WT>  (1028) 
121.11099999999999

>  <LOGP>  (1028) 
-0.24369999999999986

>  <TPSA>  (1028) 
63.32000000000001

>  <POPULARITY>  (1028) 
5.2

>  <PROTECTED>  (1028) 
TRUE

>  <SMILES>  (1028) 
N[C@H]([C@H](C)F)C(=O)O

>  <INCHIKEY>  (1028) 
HJVQOHDATXHIJL-STHAYSLISA-N

$$$$
D-Abu_CF3
     RDKit          2D

 11 10  0  0  0  0  0  0  0  0999 V2000
    1.5275   -1.9644    0.0000 N   0  0  0  0  0  0  0  0  0  0  0  0
    1.4450   -0.4666    0.0000 C   0  0  0  0  0  0  0  0  0  0  0  0
    0.1067    0.2107    0.0000 C   0  0  0  0  0  0  0  0  0  0  0  0
   -1.1491   -0.6096    0.0000 C   0  0  0  0  0  0  0  0  0  0  0  0
   -2.4875    0.0678    0.0000 C   0  0  0  0  0  0  0  0  0  0  0  0
   -3.8258    0.7452    0.0000 F   0  0  0  0  0  0  0  0  0  0  0  0
   -3.1649   -1.2706    0.0000 F   0  0  0  0  0  0  0  0  0  0  0  0
   -1.8101    1.4061    0.0000 F   0  0  0  0  0  0  0  0  0  0  0  0
    2.7008    0.3537    0.0000 C   0  0  0  0  0  0  0  0  0  0  0  0
    2.6183    1.8514    0.0000 O   0  0  0  0  0  0  0  0  0  0  0  0
    4.0391   -0.3237    0.0000 O   0  0  0  0  0  0  0  0  0  0  0  0
  2  1  1  6
  2  3  1  0
  3  4  1  0
  4  5  1  0
  5  6  1  0
  5  7  1  0
  5  8  1  0
  2  9  1  0
  9 10  2  0
  9 11  1  0
M  END
>  <rName>  (1029) 
D-Abu_CF3

>  <PQ_SYMBOL>  (1029) 
D-Abu_CF3

>  <FULL_NAME>  (1029) 
(2R)-2-amino-5,5,5-trifluoropentanoic acid

>  <IUPAC_CONDENSED>  (1029) 
D-Abu(CF3)

>  <IUPAC>  (1029) 
(2R)-2-amino-5,5,5-trifluoropentanoic acid

>  <TYPE>  (1029) 
Backbone

>  <CLASS>  (1029) 
alpha

>  <ANALOG>  (1029) 
X

>  <MOL_WT>  (1029) 
171.11800000000002

>  <LOGP>  (1029) 
0.7407999999999999

>  <TPSA>  (1029) 
63.32000000000001

>  <POPULARITY>  (1029) 
11.9

>  <PROTECTED>  (1029) 
TRUE

>  <SMILES>  (1029) 
N[C@H](CCC(F)(F)F)C(=O)O

>  <INCHIKEY>  (1029) 
KTZZIDWVKLDWBF-GSVOUGTGSA-N

$$$$
D-Abu_CN
     RDKit          2D

  9  8  0  0  0  0  0  0  0  0999 V2000
    1.0341   -1.9185    0.0000 N   0  0  0  0  0  0  0  0  0  0  0  0
    0.9057   -0.4240    0.0000 C   0  0  0  0  0  0  0  0  0  0  0  0
   -0.4528    0.2120    0.0000 C   0  0  0  0  0  0  0  0  0  0  0  0
   -1.6829   -0.6465    0.0000 C   0  0  0  0  0  0  0  0  0  0  0  0
   -3.0414   -0.0105    0.0000 C   0  0  0  0  0  0  0  0  0  0  0  0
   -4.3999    0.6255    0.0000 N   0  0  0  0  0  0  0  0  0  0  0  0
    2.1357    0.4345    0.0000 C   0  0  0  0  0  0  0  0  0  0  0  0
    2.0072    1.9290    0.0000 O   0  0  0  0  0  0  0  0  0  0  0  0
    3.4942   -0.2015    0.0000 O   0  0  0  0  0  0  0  0  0  0  0  0
  2  1  1  6
  2  3  1  0
  3  4  1  0
  4  5  1  0
  5  6  3  0
  2  7  1  0
  7  8  2  0
  7  9  1  0
M  END
>  <rName>  (1030) 
D-Abu_CN

>  <PQ_SYMBOL>  (1030) 
D-Abu_CN

>  <FULL_NAME>  (1030) 
(2R)-2-amino-4-cyanobutanoic acid

>  <IUPAC_CONDENSED>  (1030) 
D-Abu(CN)

>  <IUPAC>  (1030) 
(2R)-2-amino-4-cyanobutanoic acid

>  <TYPE>  (1030) 
Backbone

>  <CLASS>  (1030) 
alpha

>  <ANALOG>  (1030) 
Lys

>  <MOL_WT>  (1030) 
128.131

>  <LOGP>  (1030) 
-0.29792000000000024

>  <TPSA>  (1030) 
87.11

>  <POPULARITY>  (1030) 
12.2

>  <PROTECTED>  (1030) 
TRUE

>  <SMILES>  (1030) 
N[C@H](CCC#N)C(=O)O

>  <INCHIKEY>  (1030) 
VZSTVUJXUYNIOQ-SCSAIBSYSA-N

$$$$
D-Abu_F
     RDKit          2D

  8  7  0  0  0  0  0  0  0  0999 V2000
   -0.2517   -1.8862    0.0000 N   0  0  0  0  0  0  0  0  0  0  0  0
   -0.3100   -0.3873    0.0000 C   0  0  0  0  0  0  0  0  0  0  0  0
    0.9590    0.4126    0.0000 C   0  0  0  0  0  0  0  0  0  0  0  0
    2.2862   -0.2864    0.0000 C   0  0  0  0  0  0  0  0  0  0  0  0
    3.5551    0.5134    0.0000 F   0  0  0  0  0  0  0  0  0  0  0  0
   -1.6371    0.3117    0.0000 C   0  0  0  0  0  0  0  0  0  0  0  0
   -1.6954    1.8105    0.0000 O   0  0  0  0  0  0  0  0  0  0  0  0
   -2.9061   -0.4882    0.0000 O   0  0  0  0  0  0  0  0  0  0  0  0
  2  1  1  1
  2  3  1  0
  3  4  1  0
  4  5  1  0
  2  6  1  0
  6  7  2  0
  6  8  1  0
M  END
>  <rName>  (1031) 
D-Abu_F

>  <PQ_SYMBOL>  (1031) 
D-Abu_F

>  <FULL_NAME>  (1031) 
(2R)-2-amino-4-fluorobutanoic acid

>  <IUPAC_CONDENSED>  (1031) 
D-Abu(F)

>  <IUPAC>  (1031) 
(2R)-2-amino-4-fluorobutanoic acid

>  <TYPE>  (1031) 
Backbone

>  <CLASS>  (1031) 
alpha

>  <ANALOG>  (1031) 
X

>  <MOL_WT>  (1031) 
121.11099999999998

>  <LOGP>  (1031) 
-0.24210000000000004

>  <TPSA>  (1031) 
63.32000000000001

>  <POPULARITY>  (1031) 
2.2

>  <PROTECTED>  (1031) 
TRUE

>  <SMILES>  (1031) 
N[C@H](CCF)C(=O)O

>  <INCHIKEY>  (1031) 
LJYFXGDRJCHELF-GSVOUGTGSA-N

$$$$
D-Abu_PhEt
     RDKit          2D

 16 17  0  0  0  0  0  0  0  0999 V2000
    3.7314    1.9652    0.0000 N   0  0  0  0  0  0  0  0  0  0  0  0
    3.5144    0.4809    0.0000 C   0  0  0  0  0  0  0  0  0  0  0  0
    2.1205   -0.0732    0.0000 C   0  0  0  0  0  0  0  0  0  0  0  0
    0.9436    0.8569    0.0000 C   0  0  0  0  0  0  0  0  0  0  0  0
   -0.4502    0.3027    0.0000 C   0  0  0  0  0  0  0  0  0  0  0  0
   -0.6673   -1.1815    0.0000 C   0  0  0  0  0  0  0  0  0  0  0  0
   -2.0612   -1.7357    0.0000 C   0  0  0  0  0  0  0  0  0  0  0  0
   -3.2380   -0.8056    0.0000 C   0  0  0  0  0  0  0  0  0  0  0  0
   -4.7167   -1.0578    0.0000 C   0  0  0  0  0  0  0  0  0  0  0  0
   -5.4135    0.2705    0.0000 C   0  0  0  0  0  0  0  0  0  0  0  0
   -4.3655    1.3437    0.0000 C   0  0  0  0  0  0  0  0  0  0  0  0
   -3.0210    0.6786    0.0000 C   0  0  0  0  0  0  0  0  0  0  0  0
   -1.6271    1.2328    0.0000 C   0  0  0  0  0  0  0  0  0  0  0  0
    4.6912   -0.4491    0.0000 C   0  0  0  0  0  0  0  0  0  0  0  0
    4.4742   -1.9333    0.0000 O   0  0  0  0  0  0  0  0  0  0  0  0
    6.0851    0.1050    0.0000 O   0  0  0  0  0  0  0  0  0  0  0  0
  2  1  1  1
  2  3  1  0
  3  4  1  0
  4  5  1  0
  5  6  1  0
  6  7  2  0
  7  8  1  0
  8  9  1  0
  9 10  1  0
 10 11  1  0
 11 12  1  0
 12 13  1  0
  2 14  1  0
 14 15  2  0
 14 16  1  0
 12  8  2  0
 13  5  2  0
M  END
>  <rName>  (1032) 
D-Abu_PhEt

>  <PQ_SYMBOL>  (1032) 
D-Abu_PhEt

>  <FULL_NAME>  (1032) 
(R)-2-Amino-4-(indan-5-yl)butanoic acid

>  <IUPAC_CONDENSED>  (1032) 
D-Abu(PhEt)

>  <IUPAC>  (1032) 
(2R)-2-amino-4-(2,3-dihydro-1H-inden-5-yl)butanoic acid

>  <TYPE>  (1032) 
Backbone

>  <CLASS>  (1032) 
alpha

>  <ANALOG>  (1032) 
Phe

>  <MOL_WT>  (1032) 
219.28399999999996

>  <LOGP>  (1032) 
1.5198

>  <TPSA>  (1032) 
63.32000000000001

>  <POPULARITY>  (1032) 
2.2

>  <PROTECTED>  (1032) 
TRUE

>  <SMILES>  (1032) 
N[C@H](CCc2(ccc1(CCCc1c2)))C(=O)O

>  <INCHIKEY>  (1032) 
CNZLOKLDQNMNMQ-GFCCVEGCSA-N

$$$$
D-Abu_SMe
     RDKit          2D

  9  8  0  0  0  0  0  0  0  0999 V2000
    0.0000   -2.3333    0.0000 N   0  0  0  0  0  0  0  0  0  0  0  0
    0.0000   -0.8333    0.0000 C   0  0  0  0  0  0  0  0  0  0  0  0
   -1.2990   -0.0833    0.0000 C   0  0  0  0  0  0  0  0  0  0  0  0
   -2.5981   -0.8333    0.0000 C   0  0  0  0  0  0  0  0  0  0  0  0
   -1.2990    1.4167    0.0000 S   0  0  0  0  0  0  0  0  0  0  0  0
    0.0000    2.1667    0.0000 C   0  0  0  0  0  0  0  0  0  0  0  0
    1.2990   -0.0833    0.0000 C   0  0  0  0  0  0  0  0  0  0  0  0
    1.2990    1.4167    0.0000 O   0  0  0  0  0  0  0  0  0  0  0  0
    2.5981   -0.8333    0.0000 O   0  0  0  0  0  0  0  0  0  0  0  0
  2  1  1  6
  2  3  1  0
  3  4  1  0
  3  5  1  0
  5  6  1  0
  2  7  1  0
  7  8  2  0
  7  9  1  0
M  END
>  <rName>  (1033) 
D-Abu_SMe

>  <PQ_SYMBOL>  (1033) 
D-Abu_SMe

>  <FULL_NAME>  (1033) 
(2S)-2-AMINO-3-METHYLSULFANYL-BUTANOIC ACID

>  <IUPAC_CONDENSED>  (1033) 
D-Abu(SMe)

>  <IUPAC>  (1033) 
(2S)-2-amino-3-(methylsulfanyl)butanoic acid

>  <TYPE>  (1033) 
N-term cap

>  <CLASS>  (1033) 
n_cap

>  <ANALOG>  (1033) 
X

>  <MOL_WT>  (1033) 
149.215

>  <LOGP>  (1033) 
0.14979999999999988

>  <TPSA>  (1033) 
63.32000000000001

>  <POPULARITY>  (1033) 
11.4

>  <PROTECTED>  (1033) 
FALSE

>  <SMILES>  (1033) 
N[C@H](C(C)SC)C(=O)O

>  <INCHIKEY>  (1033) 
PWDYHRMBGRYCAP-SRBOSORUSA-N

$$$$
D-Abu_cBu
     RDKit          2D

 11 11  0  0  0  0  0  0  0  0999 V2000
   -1.9040   -1.9368    0.0000 N   0  0  0  0  0  0  0  0  0  0  0  0
   -1.7069   -0.4498    0.0000 C   0  0  0  0  0  0  0  0  0  0  0  0
   -0.3206    0.1231    0.0000 C   0  0  0  0  0  0  0  0  0  0  0  0
    0.8686   -0.7911    0.0000 C   0  0  0  0  0  0  0  0  0  0  0  0
    2.2549   -0.2182    0.0000 C   0  0  0  0  0  0  0  0  0  0  0  0
    2.8301    1.1671    0.0000 C   0  0  0  0  0  0  0  0  0  0  0  0
    4.2155    0.5919    0.0000 C   0  0  0  0  0  0  0  0  0  0  0  0
    3.6403   -0.7934    0.0000 C   0  0  0  0  0  0  0  0  0  0  0  0
   -2.8962    0.4643    0.0000 C   0  0  0  0  0  0  0  0  0  0  0  0
   -2.6992    1.9513    0.0000 O   0  0  0  0  0  0  0  0  0  0  0  0
   -4.2825   -0.1085    0.0000 O   0  0  0  0  0  0  0  0  0  0  0  0
  2  1  1  1
  2  3  1  0
  3  4  1  0
  4  5  1  0
  5  6  1  0
  6  7  1  0
  7  8  1  0
  2  9  1  0
  9 10  2  0
  9 11  1  0
  8  5  1  0
M  END
>  <rName>  (1034) 
D-Abu_cBu

>  <PQ_SYMBOL>  (1034) 
D-Abu_cBu

>  <FULL_NAME>  (1034) 
(R)-2-Amino-4-cyclobutylbutanoic acid

>  <IUPAC_CONDENSED>  (1034) 
D-Abu(cBu)

>  <IUPAC>  (1034) 
(2R)-2-amino-4-cyclobutylbutanoic acid

>  <TYPE>  (1034) 
Backbone

>  <CLASS>  (1034) 
alpha

>  <ANALOG>  (1034) 
Ala

>  <MOL_WT>  (1034) 
157.213

>  <LOGP>  (1034) 
0.9785999999999997

>  <TPSA>  (1034) 
63.32000000000001

>  <POPULARITY>  (1034) 
2.2

>  <PROTECTED>  (1034) 
TRUE

>  <SMILES>  (1034) 
N[C@H](CCC1(CCC1))C(=O)O

>  <INCHIKEY>  (1034) 
IHESYJFOPIMOGO-SSDOTTSWSA-N

$$$$
D-Abu_cHex
     RDKit          2D

 13 13  0  0  0  0  0  0  0  0999 V2000
   -2.6715   -1.9340    0.0000 N   0  0  0  0  0  0  0  0  0  0  0  0
   -2.4130   -0.4565    0.0000 C   0  0  0  0  0  0  0  0  0  0  0  0
   -1.0042    0.0585    0.0000 C   0  0  0  0  0  0  0  0  0  0  0  0
    0.1462   -0.9041    0.0000 C   0  0  0  0  0  0  0  0  0  0  0  0
    1.5550   -0.3891    0.0000 C   0  0  0  0  0  0  0  0  0  0  0  0
    1.8135    1.0885    0.0000 C   0  0  0  0  0  0  0  0  0  0  0  0
    3.2223    1.6034    0.0000 C   0  0  0  0  0  0  0  0  0  0  0  0
    4.3727    0.6408    0.0000 C   0  0  0  0  0  0  0  0  0  0  0  0
    4.1143   -0.8367    0.0000 C   0  0  0  0  0  0  0  0  0  0  0  0
    2.7054   -1.3517    0.0000 C   0  0  0  0  0  0  0  0  0  0  0  0
   -3.5634    0.5061    0.0000 C   0  0  0  0  0  0  0  0  0  0  0  0
   -3.3050    1.9837    0.0000 O   0  0  0  0  0  0  0  0  0  0  0  0
   -4.9723   -0.0089    0.0000 O   0  0  0  0  0  0  0  0  0  0  0  0
  2  1  1  1
  2  3  1  0
  3  4  1  0
  4  5  1  0
  5  6  1  0
  6  7  1  0
  7  8  1  0
  8  9  1  0
  9 10  1  0
  2 11  1  0
 11 12  2  0
 11 13  1  0
 10  5  1  0
M  END
>  <rName>  (1035) 
D-Abu_cHex

>  <PQ_SYMBOL>  (1035) 
D-Abu_cHex

>  <FULL_NAME>  (1035) 
(2R)-2-amino-4-cyclohexylbutanoic acid

>  <IUPAC_CONDENSED>  (1035) 
D-Abu(cHex)

>  <IUPAC>  (1035) 
(2R)-2-amino-4-cyclohexylbutanoic acid

>  <TYPE>  (1035) 
Backbone

>  <CLASS>  (1035) 
alpha

>  <ANALOG>  (1035) 
Ala

>  <MOL_WT>  (1035) 
185.267

>  <LOGP>  (1035) 
1.7588

>  <TPSA>  (1035) 
63.32000000000001

>  <POPULARITY>  (1035) 
13.5

>  <PROTECTED>  (1035) 
TRUE

>  <SMILES>  (1035) 
N[C@H](CCC1(CCCCC1))C(=O)O

>  <INCHIKEY>  (1035) 
MXHKOHWUQAULOV-SECBINFHSA-N

$$$$
D-Abu_cPent
     RDKit          2D

 12 12  0  0  0  0  0  0  0  0999 V2000
   -2.2999   -1.9362    0.0000 N   0  0  0  0  0  0  0  0  0  0  0  0
   -2.0700   -0.4539    0.0000 C   0  0  0  0  0  0  0  0  0  0  0  0
   -0.6714    0.0881    0.0000 C   0  0  0  0  0  0  0  0  0  0  0  0
    0.4974   -0.8521    0.0000 C   0  0  0  0  0  0  0  0  0  0  0  0
    1.8960   -0.3101    0.0000 C   0  0  0  0  0  0  0  0  0  0  0  0
    3.1566   -1.1230    0.0000 C   0  0  0  0  0  0  0  0  0  0  0  0
    4.3193   -0.1753    0.0000 C   0  0  0  0  0  0  0  0  0  0  0  0
    3.7773    1.2234    0.0000 C   0  0  0  0  0  0  0  0  0  0  0  0
    2.2796    1.1400    0.0000 C   0  0  0  0  0  0  0  0  0  0  0  0
   -3.2387    0.4863    0.0000 C   0  0  0  0  0  0  0  0  0  0  0  0
   -3.0088    1.9686    0.0000 O   0  0  0  0  0  0  0  0  0  0  0  0
   -4.6374   -0.0557    0.0000 O   0  0  0  0  0  0  0  0  0  0  0  0
  2  1  1  1
  2  3  1  0
  3  4  1  0
  4  5  1  0
  5  6  1  0
  6  7  1  0
  7  8  1  0
  8  9  1  0
  2 10  1  0
 10 11  2  0
 10 12  1  0
  9  5  1  0
M  END
>  <rName>  (1036) 
D-Abu_cPent

>  <PQ_SYMBOL>  (1036) 
D-Abu_cPent

>  <FULL_NAME>  (1036) 
(R)-2-Amino-4-cyclopentylbutanoic acid

>  <IUPAC_CONDENSED>  (1036) 
D-Abu(cPent)

>  <IUPAC>  (1036) 
(2R)-2-amino-4-cyclopentylbutanoic acid

>  <TYPE>  (1036) 
Backbone

>  <CLASS>  (1036) 
alpha

>  <ANALOG>  (1036) 
Ala

>  <MOL_WT>  (1036) 
171.24

>  <LOGP>  (1036) 
1.3687

>  <TPSA>  (1036) 
63.32000000000001

>  <POPULARITY>  (1036) 
2.2

>  <PROTECTED>  (1036) 
TRUE

>  <SMILES>  (1036) 
N[C@H](CCC1(CCCC1))C(=O)O

>  <INCHIKEY>  (1036) 
LKXHGSLJBHXRFI-MRVPVSSYSA-N

$$$$
D-Abu_cPr
     RDKit          2D

 10 10  0  0  0  0  0  0  0  0999 V2000
   -1.4768   -1.9348    0.0000 N   0  0  0  0  0  0  0  0  0  0  0  0
   -1.3184   -0.4432    0.0000 C   0  0  0  0  0  0  0  0  0  0  0  0
    0.0526    0.1655    0.0000 C   0  0  0  0  0  0  0  0  0  0  0  0
    1.2652   -0.7175    0.0000 C   0  0  0  0  0  0  0  0  0  0  0  0
    2.6361   -0.1088    0.0000 C   0  0  0  0  0  0  0  0  0  0  0  0
    4.1277   -0.2672    0.0000 C   0  0  0  0  0  0  0  0  0  0  0  0
    3.5191    1.1037    0.0000 C   0  0  0  0  0  0  0  0  0  0  0  0
   -2.5310    0.4398    0.0000 C   0  0  0  0  0  0  0  0  0  0  0  0
   -2.3726    1.9314    0.0000 O   0  0  0  0  0  0  0  0  0  0  0  0
   -3.9019   -0.1689    0.0000 O   0  0  0  0  0  0  0  0  0  0  0  0
  2  1  1  1
  2  3  1  0
  3  4  1  0
  4  5  1  0
  5  6  1  0
  6  7  1  0
  2  8  1  0
  8  9  2  0
  8 10  1  0
  7  5  1  0
M  END
>  <rName>  (1037) 
D-Abu_cPr

>  <PQ_SYMBOL>  (1037) 
D-Abu_cPr

>  <FULL_NAME>  (1037) 
(R)-2-amino-4-cyclopropylbutanoic acid

>  <IUPAC_CONDENSED>  (1037) 
D-Abu(cPr)

>  <IUPAC>  (1037) 
(2R)-2-amino-4-cyclopropylbutanoic acid

>  <TYPE>  (1037) 
Backbone

>  <CLASS>  (1037) 
alpha

>  <ANALOG>  (1037) 
Ala

>  <MOL_WT>  (1037) 
143.186

>  <LOGP>  (1037) 
0.5884999999999998

>  <TPSA>  (1037) 
63.32000000000001

>  <POPULARITY>  (1037) 
9.4

>  <PROTECTED>  (1037) 
TRUE

>  <SMILES>  (1037) 
N[C@H](CCC1(CC1))C(=O)O

>  <INCHIKEY>  (1037) 
XQBROTNHOLWMJR-ZCFIWIBFSA-N

$$$$
D-Abu_ethynyl
     RDKit          2D

  9  8  0  0  0  0  0  0  0  0999 V2000
   -1.0341    1.9185    0.0000 N   0  0  0  0  0  0  0  0  0  0  0  0
   -0.9057    0.4240    0.0000 C   0  0  0  0  0  0  0  0  0  0  0  0
    0.4528   -0.2120    0.0000 C   0  0  0  0  0  0  0  0  0  0  0  0
    1.6829    0.6465    0.0000 C   0  0  0  0  0  0  0  0  0  0  0  0
    3.0414    0.0105    0.0000 C   0  0  0  0  0  0  0  0  0  0  0  0
    4.3999   -0.6255    0.0000 C   0  0  0  0  0  0  0  0  0  0  0  0
   -2.1357   -0.4345    0.0000 C   0  0  0  0  0  0  0  0  0  0  0  0
   -2.0072   -1.9290    0.0000 O   0  0  0  0  0  0  0  0  0  0  0  0
   -3.4942    0.2015    0.0000 O   0  0  0  0  0  0  0  0  0  0  0  0
  2  1  1  6
  2  3  1  0
  3  4  1  0
  4  5  1  0
  5  6  3  0
  2  7  1  0
  7  8  2  0
  7  9  1  0
M  END
>  <rName>  (1038) 
D-Abu_ethynyl

>  <PQ_SYMBOL>  (1038) 
D-Abu_ethynyl

>  <FULL_NAME>  (1038) 
5-Hexynoic acid, 2-amino-, (2R)-

>  <IUPAC_CONDENSED>  (1038) 
D-Abu(ethynyl)

>  <IUPAC>  (1038) 
(2R)-2-aminohex-5-ynoic acid

>  <TYPE>  (1038) 
Backbone

>  <CLASS>  (1038) 
alpha

>  <ANALOG>  (1038) 
Leu

>  <MOL_WT>  (1038) 
127.14299999999997

>  <LOGP>  (1038) 
-0.18829999999999997

>  <TPSA>  (1038) 
63.32000000000001

>  <POPULARITY>  (1038) 
4.8

>  <PROTECTED>  (1038) 
TRUE

>  <SMILES>  (1038) 
N[C@H](CCC#C)C(=O)O

>  <INCHIKEY>  (1038) 
SCGJGNWMYSYORS-RXMQYKEDSA-N

$$$$
D-Abu_gcarbonyl_gnaphth2yl
     RDKit          2D

 21 22  0  0  0  0  0  0  0  0999 V2000
   -5.1783   -1.6293    0.0000 N   0  0  0  0  0  0  0  0  0  0  0  0
   -4.8528   -0.1651    0.0000 C   0  0  0  0  0  0  0  0  0  0  0  0
   -3.4219    0.2851    0.0000 C   0  0  0  0  0  0  0  0  0  0  0  0
   -2.3166   -0.7289    0.0000 C   0  0  0  0  0  0  0  0  0  0  0  0
   -2.6421   -2.1932    0.0000 O   0  0  0  0  0  0  0  0  0  0  0  0
   -0.8858   -0.2787    0.0000 C   0  0  0  0  0  0  0  0  0  0  0  0
   -0.5602    1.1855    0.0000 C   0  0  0  0  0  0  0  0  0  0  0  0
    0.8706    1.6358    0.0000 C   0  0  0  0  0  0  0  0  0  0  0  0
    1.9759    0.6217    0.0000 C   0  0  0  0  0  0  0  0  0  0  0  0
    3.4068    1.0719    0.0000 C   0  0  0  0  0  0  0  0  0  0  0  0
    4.5121    0.0579    0.0000 C   0  0  0  0  0  0  0  0  0  0  0  0
    4.1866   -1.4064    0.0000 C   0  0  0  0  0  0  0  0  0  0  0  0
    2.7557   -1.8566    0.0000 C   0  0  0  0  0  0  0  0  0  0  0  0
    1.6504   -0.8425    0.0000 C   0  0  0  0  0  0  0  0  0  0  0  0
    0.2196   -1.2927    0.0000 C   0  0  0  0  0  0  0  0  0  0  0  0
    5.9429    0.5081    0.0000 N   0  0  0  0  0  0  0  0  0  0  0  0
    7.0482   -0.5059    0.0000 C   0  0  0  0  0  0  0  0  0  0  0  0
    6.2684    1.9724    0.0000 C   0  0  0  0  0  0  0  0  0  0  0  0
   -5.9581    0.8489    0.0000 C   0  0  0  0  0  0  0  0  0  0  0  0
   -5.6326    2.3132    0.0000 O   0  0  0  0  0  0  0  0  0  0  0  0
   -7.3889    0.3987    0.0000 O   0  0  0  0  0  0  0  0  0  0  0  0
  2  1  1  1
  2  3  1  0
  3  4  1  0
  4  5  2  0
  4  6  1  0
  6  7  1  0
  7  8  2  0
  8  9  1  0
  9 10  2  0
 10 11  1  0
 11 12  2  0
 12 13  1  0
 13 14  2  0
 14 15  1  0
 11 16  1  0
 16 17  1  0
 16 18  1  0
  2 19  1  0
 19 20  2  0
 19 21  1  0
 14  9  1  0
 15  6  2  0
M  END
>  <rName>  (1039) 
D-Abu_gcarbonyl_gnaphth2yl

>  <PQ_SYMBOL>  (1039) 
D-Abu_gcarbonyl_gnaphth2yl

>  <FULL_NAME>  (1039) 
D-Abu(g-carbonyl,g-naphth-2-yl)

>  <IUPAC_CONDENSED>  (1039) 
D-Abu(g-carbonyl,g-naphth-2-yl)

>  <IUPAC>  (1039) 
(2R)-2-amino-4-(6-(dimethylamino)naphthalen-2-yl)-4-oxobutanoic acid

>  <TYPE>  (1039) 
Backbone

>  <CLASS>  (1039) 
alpha

>  <ANALOG>  (1039) 
Phe

>  <MOL_WT>  (1039) 
286.331

>  <LOGP>  (1039) 
1.8905000000000003

>  <TPSA>  (1039) 
83.63000000000001

>  <POPULARITY>  (1039) 
2.2

>  <PROTECTED>  (1039) 
TRUE

>  <SMILES>  (1039) 
N[C@H](CC(=O)c2(ccc1(cc(ccc1c2)N(C)C)))C(=O)O

>  <INCHIKEY>  (1039) 
CBXJSYVOJHNVQJ-CQSZACIVSA-N

$$$$
D-Abu_gcarbonyl_gpyrrolidino
     RDKit          2D

 13 13  0  0  0  0  0  0  0  0999 V2000
   -2.3085   -1.7723    0.0000 N   0  0  0  0  0  0  0  0  0  0  0  0
   -2.0887   -0.2885    0.0000 C   0  0  0  0  0  0  0  0  0  0  0  0
   -0.6937    0.2630    0.0000 C   0  0  0  0  0  0  0  0  0  0  0  0
    0.4814   -0.6693    0.0000 C   0  0  0  0  0  0  0  0  0  0  0  0
    0.2615   -2.1531    0.0000 O   0  0  0  0  0  0  0  0  0  0  0  0
    1.8763   -0.1178    0.0000 N   0  0  0  0  0  0  0  0  0  0  0  0
    3.1424   -0.9222    0.0000 C   0  0  0  0  0  0  0  0  0  0  0  0
    4.2986    0.0334    0.0000 C   0  0  0  0  0  0  0  0  0  0  0  0
    3.7471    1.4284    0.0000 C   0  0  0  0  0  0  0  0  0  0  0  0
    2.2500    1.3349    0.0000 C   0  0  0  0  0  0  0  0  0  0  0  0
   -3.2638    0.6438    0.0000 C   0  0  0  0  0  0  0  0  0  0  0  0
   -3.0439    2.1276    0.0000 O   0  0  0  0  0  0  0  0  0  0  0  0
   -4.6587    0.0923    0.0000 O   0  0  0  0  0  0  0  0  0  0  0  0
  2  1  1  1
  2  3  1  0
  3  4  1  0
  4  5  2  0
  4  6  1  0
  6  7  1  0
  7  8  1  0
  8  9  1  0
  9 10  1  0
  2 11  1  0
 11 12  2  0
 11 13  1  0
 10  6  1  0
M  END
>  <rName>  (1040) 
D-Abu_gcarbonyl_gpyrrolidino

>  <PQ_SYMBOL>  (1040) 
D-Abu_gcarbonyl_gpyrrolidino

>  <FULL_NAME>  (1040) 
4-oxo-4-pyrrol-1-yl-D-homoalanine

>  <IUPAC_CONDENSED>  (1040) 
D-Abu(g-carbonyl,g-pyrrolidino)

>  <IUPAC>  (1040) 
(2R)-2-amino-4-oxo-4-(pyrrolidin-1-yl)butanoic acid

>  <TYPE>  (1040) 
Backbone

>  <CLASS>  (1040) 
alpha

>  <ANALOG>  (1040) 
X

>  <MOL_WT>  (1040) 
186.21099999999998

>  <LOGP>  (1040) 
-0.5892000000000004

>  <TPSA>  (1040) 
83.63000000000001

>  <POPULARITY>  (1040) 
5.6

>  <PROTECTED>  (1040) 
TRUE

>  <SMILES>  (1040) 
N[C@H](CC(=O)N1(CCCC1))C(=O)O

>  <INCHIKEY>  (1040) 
DAGPZPSRHYOWMZ-ZCFIWIBFSA-N

$$$$
D-Abu_pyrid4yl
     RDKit          2D

 13 13  0  0  0  0  0  0  0  0999 V2000
   -2.6715   -1.9340    0.0000 N   0  0  0  0  0  0  0  0  0  0  0  0
   -2.4130   -0.4565    0.0000 C   0  0  0  0  0  0  0  0  0  0  0  0
   -1.0042    0.0585    0.0000 C   0  0  0  0  0  0  0  0  0  0  0  0
    0.1462   -0.9041    0.0000 C   0  0  0  0  0  0  0  0  0  0  0  0
    1.5550   -0.3891    0.0000 C   0  0  0  0  0  0  0  0  0  0  0  0
    1.8135    1.0885    0.0000 C   0  0  0  0  0  0  0  0  0  0  0  0
    3.2223    1.6034    0.0000 C   0  0  0  0  0  0  0  0  0  0  0  0
    4.3727    0.6408    0.0000 N   0  0  0  0  0  0  0  0  0  0  0  0
    4.1143   -0.8367    0.0000 C   0  0  0  0  0  0  0  0  0  0  0  0
    2.7054   -1.3517    0.0000 C   0  0  0  0  0  0  0  0  0  0  0  0
   -3.5634    0.5061    0.0000 C   0  0  0  0  0  0  0  0  0  0  0  0
   -3.3050    1.9837    0.0000 O   0  0  0  0  0  0  0  0  0  0  0  0
   -4.9723   -0.0089    0.0000 O   0  0  0  0  0  0  0  0  0  0  0  0
  2  1  1  1
  2  3  1  0
  3  4  1  0
  4  5  1  0
  5  6  1  0
  6  7  2  0
  7  8  1  0
  8  9  2  0
  9 10  1  0
  2 11  1  0
 11 12  2  0
 11 13  1  0
 10  5  2  0
M  END
>  <rName>  (1041) 
D-Abu_pyrid4yl

>  <PQ_SYMBOL>  (1041) 
D-Abu_pyrid4yl

>  <FULL_NAME>  (1041) 
(2R)-2-Amino-4-(pyridin-4-YL)butanoic acid

>  <IUPAC_CONDENSED>  (1041) 
D-Abu(pyrid-4-yl)

>  <IUPAC>  (1041) 
(2R)-2-amino-4-pyridin-4-ylbutanoic acid

>  <TYPE>  (1041) 
Backbone

>  <CLASS>  (1041) 
alpha

>  <ANALOG>  (1041) 
Phe

>  <MOL_WT>  (1041) 
180.207

>  <LOGP>  (1041) 
0.42609999999999965

>  <TPSA>  (1041) 
76.21

>  <POPULARITY>  (1041) 
2.2

>  <PROTECTED>  (1041) 
TRUE

>  <SMILES>  (1041) 
N[C@H](CCc1(ccncc1))C(=O)O

>  <INCHIKEY>  (1041) 
WHCQVPISOOTNON-MRVPVSSYSA-N

$$$$
D-Abu_pyrimid5yl
     RDKit          2D

 13 13  0  0  0  0  0  0  0  0999 V2000
   -2.6715   -1.9340    0.0000 N   0  0  0  0  0  0  0  0  0  0  0  0
   -2.4130   -0.4565    0.0000 C   0  0  0  0  0  0  0  0  0  0  0  0
   -1.0042    0.0585    0.0000 C   0  0  0  0  0  0  0  0  0  0  0  0
    0.1462   -0.9041    0.0000 C   0  0  0  0  0  0  0  0  0  0  0  0
    1.5550   -0.3891    0.0000 C   0  0  0  0  0  0  0  0  0  0  0  0
    1.8135    1.0885    0.0000 C   0  0  0  0  0  0  0  0  0  0  0  0
    3.2223    1.6034    0.0000 N   0  0  0  0  0  0  0  0  0  0  0  0
    4.3727    0.6408    0.0000 C   0  0  0  0  0  0  0  0  0  0  0  0
    4.1143   -0.8367    0.0000 N   0  0  0  0  0  0  0  0  0  0  0  0
    2.7054   -1.3517    0.0000 C   0  0  0  0  0  0  0  0  0  0  0  0
   -3.5634    0.5061    0.0000 C   0  0  0  0  0  0  0  0  0  0  0  0
   -3.3050    1.9837    0.0000 O   0  0  0  0  0  0  0  0  0  0  0  0
   -4.9723   -0.0089    0.0000 O   0  0  0  0  0  0  0  0  0  0  0  0
  2  1  1  1
  2  3  1  0
  3  4  1  0
  4  5  1  0
  5  6  2  0
  6  7  1  0
  7  8  2  0
  8  9  1  0
  9 10  2  0
  2 11  1  0
 11 12  2  0
 11 13  1  0
 10  5  1  0
M  END
>  <rName>  (1042) 
D-Abu_pyrimid5yl

>  <PQ_SYMBOL>  (1042) 
D-Abu_pyrimid5yl

>  <FULL_NAME>  (1042) 
N[C@H](CCc1cncnc1)C(=O)O

>  <IUPAC_CONDENSED>  (1042) 
D-Abu(pyrimid-5-yl)

>  <IUPAC>  (1042) 
(2R)-2-amino-4-(pyrimidin-5-yl)butanoic acid

>  <TYPE>  (1042) 
Backbone

>  <CLASS>  (1042) 
alpha

>  <ANALOG>  (1042) 
Phe

>  <MOL_WT>  (1042) 
181.195

>  <LOGP>  (1042) 
-0.17890000000000056

>  <TPSA>  (1042) 
89.10000000000001

>  <POPULARITY>  (1042) 
3.9

>  <PROTECTED>  (1042) 
TRUE

>  <SMILES>  (1042) 
N[C@H](CCc1(cncnc1))C(=O)O

>  <INCHIKEY>  (1042) 
CLFJLLMVFMNLQJ-SSDOTTSWSA-N

$$$$
D-Abu_tetrahydropyran4yl
     RDKit          2D

 13 13  0  0  0  0  0  0  0  0999 V2000
   -2.6715   -1.9340    0.0000 N   0  0  0  0  0  0  0  0  0  0  0  0
   -2.4130   -0.4565    0.0000 C   0  0  0  0  0  0  0  0  0  0  0  0
   -1.0042    0.0585    0.0000 C   0  0  0  0  0  0  0  0  0  0  0  0
    0.1462   -0.9041    0.0000 C   0  0  0  0  0  0  0  0  0  0  0  0
    1.5550   -0.3891    0.0000 C   0  0  0  0  0  0  0  0  0  0  0  0
    1.8135    1.0885    0.0000 C   0  0  0  0  0  0  0  0  0  0  0  0
    3.2223    1.6034    0.0000 C   0  0  0  0  0  0  0  0  0  0  0  0
    4.3727    0.6408    0.0000 O   0  0  0  0  0  0  0  0  0  0  0  0
    4.1143   -0.8367    0.0000 C   0  0  0  0  0  0  0  0  0  0  0  0
    2.7054   -1.3517    0.0000 C   0  0  0  0  0  0  0  0  0  0  0  0
   -3.5634    0.5061    0.0000 C   0  0  0  0  0  0  0  0  0  0  0  0
   -3.3050    1.9837    0.0000 O   0  0  0  0  0  0  0  0  0  0  0  0
   -4.9723   -0.0089    0.0000 O   0  0  0  0  0  0  0  0  0  0  0  0
  2  1  1  1
  2  3  1  0
  3  4  1  0
  4  5  1  0
  5  6  1  0
  6  7  1  0
  7  8  1  0
  8  9  1  0
  9 10  1  0
  2 11  1  0
 11 12  2  0
 11 13  1  0
 10  5  1  0
M  END
>  <rName>  (1043) 
D-Abu_tetrahydropyran4yl

>  <PQ_SYMBOL>  (1043) 
D-Abu_tetrahydropyran4yl

>  <FULL_NAME>  (1043) 
(2R)-2-amino-4-(oxan-4-yl)butanoic acid

>  <IUPAC_CONDENSED>  (1043) 
D-Abu(tetrahydropyran-4-yl)

>  <IUPAC>  (1043) 
(2R)-2-amino-4-(oxan-4-yl)butanoic acid

>  <TYPE>  (1043) 
Backbone

>  <CLASS>  (1043) 
alpha

>  <ANALOG>  (1043) 
X

>  <MOL_WT>  (1043) 
187.23899999999998

>  <LOGP>  (1043) 
0.6050999999999997

>  <TPSA>  (1043) 
72.55

>  <POPULARITY>  (1043) 
2.2

>  <PROTECTED>  (1043) 
TRUE

>  <SMILES>  (1043) 
N[C@H](CCC1(CCOCC1))C(=O)O

>  <INCHIKEY>  (1043) 
RLGSXGFIKYTMPV-MRVPVSSYSA-N

$$$$
D-Abu_tetrazol5yl
     RDKit          2D

 12 12  0  0  0  0  0  0  0  0999 V2000
   -2.2999   -1.9362    0.0000 N   0  0  0  0  0  0  0  0  0  0  0  0
   -2.0700   -0.4539    0.0000 C   0  0  0  0  0  0  0  0  0  0  0  0
   -0.6714    0.0881    0.0000 C   0  0  0  0  0  0  0  0  0  0  0  0
    0.4974   -0.8521    0.0000 C   0  0  0  0  0  0  0  0  0  0  0  0
    1.8960   -0.3101    0.0000 C   0  0  0  0  0  0  0  0  0  0  0  0
    3.1566   -1.1230    0.0000 N   0  0  0  0  0  0  0  0  0  0  0  0
    4.3193   -0.1753    0.0000 N   0  0  0  0  0  0  0  0  0  0  0  0
    3.7773    1.2234    0.0000 N   0  0  0  0  0  0  0  0  0  0  0  0
    2.2796    1.1400    0.0000 N   0  0  0  0  0  0  0  0  0  0  0  0
   -3.2387    0.4863    0.0000 C   0  0  0  0  0  0  0  0  0  0  0  0
   -3.0088    1.9686    0.0000 O   0  0  0  0  0  0  0  0  0  0  0  0
   -4.6374   -0.0557    0.0000 O   0  0  0  0  0  0  0  0  0  0  0  0
  2  1  1  1
  2  3  1  0
  3  4  1  0
  4  5  1  0
  5  6  1  0
  6  7  2  0
  7  8  1  0
  8  9  1  0
  2 10  1  0
 10 11  2  0
 10 12  1  0
  9  5  2  0
M  END
>  <rName>  (1044) 
D-Abu_tetrazol5yl

>  <PQ_SYMBOL>  (1044) 
D-Abu_tetrazol5yl

>  <FULL_NAME>  (1044) 
(R)-2-amino-4-(2H-tetrazol-5-yl)butanoic acid

>  <IUPAC_CONDENSED>  (1044) 
D-Abu(tetrazol-5-yl)

>  <IUPAC>  (1044) 
(2R)-2-amino-4-(2H-tetrazol-5-yl)butanoic acid

>  <TYPE>  (1044) 
Backbone

>  <CLASS>  (1044) 
alpha

>  <ANALOG>  (1044) 
Phe

>  <MOL_WT>  (1044) 
171.16000000000003

>  <LOGP>  (1044) 
-1.4558000000000002

>  <TPSA>  (1044) 
117.78000000000002

>  <POPULARITY>  (1044) 
5.6

>  <PROTECTED>  (1044) 
TRUE

>  <SMILES>  (1044) 
N[C@H](CCc1(nn[nH]n1))C(=O)O

>  <INCHIKEY>  (1044) 
DXFDIQNGJWQJGA-GSVOUGTGSA-N

$$$$
D-Abu_vinyl
     RDKit          2D

  9  8  0  0  0  0  0  0  0  0999 V2000
    0.7616   -1.8791    0.0000 N   0  0  0  0  0  0  0  0  0  0  0  0
    0.8459   -0.3815    0.0000 C   0  0  0  0  0  0  0  0  0  0  0  0
   -0.4089    0.4403    0.0000 C   0  0  0  0  0  0  0  0  0  0  0  0
   -1.7480   -0.2354    0.0000 C   0  0  0  0  0  0  0  0  0  0  0  0
   -3.0029    0.5864    0.0000 C   0  0  0  0  0  0  0  0  0  0  0  0
   -4.3420   -0.0894    0.0000 C   0  0  0  0  0  0  0  0  0  0  0  0
    2.1851    0.2943    0.0000 C   0  0  0  0  0  0  0  0  0  0  0  0
    2.2694    1.7919    0.0000 O   0  0  0  0  0  0  0  0  0  0  0  0
    3.4399   -0.5275    0.0000 O   0  0  0  0  0  0  0  0  0  0  0  0
  2  1  1  6
  2  3  1  0
  3  4  1  0
  4  5  1  0
  5  6  2  0
  2  7  1  0
  7  8  2  0
  7  9  1  0
M  END
>  <rName>  (1045) 
D-Abu_vinyl

>  <PQ_SYMBOL>  (1045) 
D-Abu_vinyl

>  <FULL_NAME>  (1045) 
(R)-2-aminohex-5-enoic acid

>  <IUPAC_CONDENSED>  (1045) 
D-Abu(vinyl)

>  <IUPAC>  (1045) 
(2R)-2-aminohex-5-enoic acid

>  <TYPE>  (1045) 
Backbone

>  <CLASS>  (1045) 
alpha

>  <ANALOG>  (1045) 
Leu

>  <MOL_WT>  (1045) 
129.159

>  <LOGP>  (1045) 
0.3645

>  <TPSA>  (1045) 
63.32000000000001

>  <POPULARITY>  (1045) 
10.7

>  <PROTECTED>  (1045) 
TRUE

>  <SMILES>  (1045) 
N[C@H](CCC=C)C(=O)O

>  <INCHIKEY>  (1045) 
NPSWHDAHNWWMEG-RXMQYKEDSA-N

$$$$
D-Ac3c_2RCF3
     RDKit          2D

 11 11  0  0  0  0  0  0  0  0999 V2000
    0.6586   -1.5515    0.0000 N   0  0  0  0  0  0  0  0  0  0  0  0
    0.8199   -0.0602    0.0000 C   0  0  0  0  0  0  0  0  0  0  0  0
    0.4615    1.3963    0.0000 C   0  0  0  0  0  0  0  0  0  0  0  0
   -0.6207    0.3576    0.0000 C   0  0  0  0  0  0  0  0  0  0  0  0
   -2.0773   -0.0008    0.0000 C   0  0  0  0  0  0  0  0  0  0  0  0
   -3.5338   -0.3592    0.0000 F   0  0  0  0  0  0  0  0  0  0  0  0
   -2.4357    1.4557    0.0000 F   0  0  0  0  0  0  0  0  0  0  0  0
   -1.7188   -1.4574    0.0000 F   0  0  0  0  0  0  0  0  0  0  0  0
    2.3166    0.0398    0.0000 C   0  0  0  0  0  0  0  0  0  0  0  0
    2.9782    1.3860    0.0000 O   0  0  0  0  0  0  0  0  0  0  0  0
    3.1516   -1.2063    0.0000 O   0  0  0  0  0  0  0  0  0  0  0  0
  2  1  1  1
  2  3  1  0
  3  4  1  0
  4  5  1  6
  5  6  1  0
  5  7  1  0
  5  8  1  0
  2  9  1  0
  9 10  2  0
  9 11  1  0
  4  2  1  0
M  END
>  <rName>  (1046) 
D-Ac3c_2RCF3

>  <PQ_SYMBOL>  (1046) 
D-Ac3c_2RCF3

>  <FULL_NAME>  (1046) 
(1R,2R)-1-Amino-2-(trifluoromethyl)cyclopropane-1-carboxylic acid

>  <IUPAC_CONDENSED>  (1046) 
D-Ac3c(2R-CF3)

>  <IUPAC>  (1046) 
(1R,2R)-1-amino-2-(trifluoromethyl)cyclopropanecarboxylic acid

>  <TYPE>  (1046) 
Backbone

>  <CLASS>  (1046) 
alpha

>  <ANALOG>  (1046) 
X

>  <MOL_WT>  (1046) 
169.10200000000003

>  <LOGP>  (1046) 
0.3506999999999998

>  <TPSA>  (1046) 
63.32000000000001

>  <POPULARITY>  (1046) 
3.3

>  <PROTECTED>  (1046) 
TRUE

>  <SMILES>  (1046) 
N[C@@]1(C[C@H]1C(F)(F)F)C(=O)O

>  <INCHIKEY>  (1046) 
XYADPSWBCYPNKY-VVJJHMBFSA-N

$$$$
D-Ac3c_2REt
     RDKit          2D

  9  9  0  0  0  0  0  0  0  0999 V2000
   -2.3058    0.6435    0.0000 N   0  0  0  0  0  0  0  0  0  0  0  0
   -0.8074    0.5739    0.0000 C   0  0  0  0  0  0  0  0  0  0  0  0
   -0.6157   -0.9138    0.0000 C   0  0  0  0  0  0  0  0  0  0  0  0
    0.7685   -1.4916    0.0000 O   0  0  0  0  0  0  0  0  0  0  0  0
   -1.8082   -1.8236    0.0000 O   0  0  0  0  0  0  0  0  0  0  0  0
    0.6244    1.0211    0.0000 C   0  0  0  0  0  0  0  0  0  0  0  0
   -0.4787    2.0375    0.0000 C   0  0  0  0  0  0  0  0  0  0  0  0
    2.0879    0.6924    0.0000 C   0  0  0  0  0  0  0  0  0  0  0  0
    2.5351   -0.7394    0.0000 C   0  0  0  0  0  0  0  0  0  0  0  0
  2  1  1  6
  2  3  1  0
  3  4  2  0
  3  5  1  0
  2  6  1  0
  6  7  1  0
  6  8  1  1
  8  9  1  0
  7  2  1  0
M  END
>  <rName>  (1047) 
D-Ac3c_2REt

>  <PQ_SYMBOL>  (1047) 
D-Ac3c_2REt

>  <FULL_NAME>  (1047) 
(1R,2R)-1-amino-2-ethylcyclopropane-1-carboxylic acid

>  <IUPAC_CONDENSED>  (1047) 
D-Ac3c(2R-Et)

>  <IUPAC>  (1047) 
(1R,2R)-1-amino-2-ethylcyclopropanecarboxylic acid

>  <TYPE>  (1047) 
C-term cap

>  <CLASS>  (1047) 
c_cap

>  <ANALOG>  (1047) 
X

>  <MOL_WT>  (1047) 
129.159

>  <LOGP>  (1047) 
0.19839999999999947

>  <TPSA>  (1047) 
63.32000000000001

>  <POPULARITY>  (1047) 
10.1

>  <PROTECTED>  (1047) 
TRUE

>  <SMILES>  (1047) 
N[C@@]1(C(=O)O)[C@@H](C1)CC

>  <INCHIKEY>  (1047) 
RLHIWMRQDUCBDO-INEUFUBQSA-N

$$$$
D-Ac3c_2RMe
     RDKit          2D

  8  8  0  0  0  0  0  0  0  0999 V2000
   -0.2409   -1.6071    0.0000 N   0  0  0  0  0  0  0  0  0  0  0  0
   -0.1370   -0.1107    0.0000 C   0  0  0  0  0  0  0  0  0  0  0  0
   -0.5511    1.3310    0.0000 C   0  0  0  0  0  0  0  0  0  0  0  0
   -1.5926    0.2515    0.0000 C   0  0  0  0  0  0  0  0  0  0  0  0
   -3.0343   -0.1626    0.0000 C   0  0  0  0  0  0  0  0  0  0  0  0
    1.3547    0.0468    0.0000 C   0  0  0  0  0  0  0  0  0  0  0  0
    1.9642    1.4174    0.0000 O   0  0  0  0  0  0  0  0  0  0  0  0
    2.2370   -1.1663    0.0000 O   0  0  0  0  0  0  0  0  0  0  0  0
  2  1  1  1
  2  3  1  0
  3  4  1  0
  4  5  1  6
  2  6  1  0
  6  7  2  0
  6  8  1  0
  4  2  1  0
M  END
>  <rName>  (1048) 
D-Ac3c_2RMe

>  <PQ_SYMBOL>  (1048) 
D-Ac3c_2RMe

>  <FULL_NAME>  (1048) 
(1R,2R)-1-Amino-2-methylcyclopropanecarboxylic acid

>  <IUPAC_CONDENSED>  (1048) 
D-Ac3c(2R-Me)

>  <IUPAC>  (1048) 
(1R,2R)-1-amino-2-methylcyclopropanecarboxylic acid

>  <TYPE>  (1048) 
Backbone

>  <CLASS>  (1048) 
alpha

>  <ANALOG>  (1048) 
Val

>  <MOL_WT>  (1048) 
115.13199999999999

>  <LOGP>  (1048) 
-0.19170000000000004

>  <TPSA>  (1048) 
63.32000000000001

>  <POPULARITY>  (1048) 
11.7

>  <PROTECTED>  (1048) 
TRUE

>  <SMILES>  (1048) 
N[C@@]1(C[C@H]1C)C(=O)O

>  <INCHIKEY>  (1048) 
WCSASARZTXJEJS-NQXXGFSBSA-N

$$$$
D-Ac3c_2SiPr
     RDKit          2D

 10 10  0  0  0  0  0  0  0  0999 V2000
    0.4509   -1.5516    0.0000 N   0  0  0  0  0  0  0  0  0  0  0  0
    0.6122   -0.0603    0.0000 C   0  0  0  0  0  0  0  0  0  0  0  0
    0.2537    1.3962    0.0000 C   0  0  0  0  0  0  0  0  0  0  0  0
   -0.8285    0.3575    0.0000 C   0  0  0  0  0  0  0  0  0  0  0  0
   -2.2850   -0.0010    0.0000 C   0  0  0  0  0  0  0  0  0  0  0  0
   -3.3237    1.0811    0.0000 C   0  0  0  0  0  0  0  0  0  0  0  0
   -2.7028   -1.4417    0.0000 C   0  0  0  0  0  0  0  0  0  0  0  0
    2.1088    0.0399    0.0000 C   0  0  0  0  0  0  0  0  0  0  0  0
    2.7704    1.3861    0.0000 O   0  0  0  0  0  0  0  0  0  0  0  0
    2.9439   -1.2062    0.0000 O   0  0  0  0  0  0  0  0  0  0  0  0
  2  1  1  1
  2  3  1  0
  3  4  1  0
  4  5  1  6
  5  6  1  0
  5  7  1  0
  2  8  1  0
  8  9  2  0
  8 10  1  0
  4  2  1  0
M  END
>  <rName>  (1049) 
D-Ac3c_2SiPr

>  <PQ_SYMBOL>  (1049) 
D-Ac3c_2SiPr

>  <FULL_NAME>  (1049) 
(1R,2S)-1-amino-2-propan-2-ylcyclopropane-1-carboxylic acid

>  <IUPAC_CONDENSED>  (1049) 
D-Ac3c(2S-iPr)

>  <IUPAC>  (1049) 
(1R,2S)-1-amino-2-(propan-2-yl)cyclopropanecarboxylic acid

>  <TYPE>  (1049) 
Backbone

>  <CLASS>  (1049) 
alpha

>  <ANALOG>  (1049) 
X

>  <MOL_WT>  (1049) 
143.186

>  <LOGP>  (1049) 
0.44439999999999985

>  <TPSA>  (1049) 
63.32000000000001

>  <POPULARITY>  (1049) 
11.4

>  <PROTECTED>  (1049) 
TRUE

>  <SMILES>  (1049) 
N[C@@]1(C[C@H]1C(C)C)C(=O)O

>  <INCHIKEY>  (1049) 
GFIRYOYQBKQVOL-CAHLUQPWSA-N

$$$$
D-Ac3c_2Svinyl
     RDKit          2D

  9  9  0  0  0  0  0  0  0  0999 V2000
    0.3983   -1.6716    0.0000 N   0  0  0  0  0  0  0  0  0  0  0  0
    0.3407   -0.1727    0.0000 C   0  0  0  0  0  0  0  0  0  0  0  0
   -0.2262    1.2161    0.0000 C   0  0  0  0  0  0  0  0  0  0  0  0
   -1.1455    0.0308    0.0000 C   0  0  0  0  0  0  0  0  0  0  0  0
   -2.5342   -0.5360    0.0000 C   0  0  0  0  0  0  0  0  0  0  0  0
   -3.7195    0.3833    0.0000 C   0  0  0  0  0  0  0  0  0  0  0  0
    1.8068    0.1444    0.0000 C   0  0  0  0  0  0  0  0  0  0  0  0
    2.2652    1.5726    0.0000 O   0  0  0  0  0  0  0  0  0  0  0  0
    2.8144   -0.9668    0.0000 O   0  0  0  0  0  0  0  0  0  0  0  0
  2  1  1  1
  2  3  1  0
  3  4  1  0
  4  5  1  6
  5  6  2  0
  2  7  1  0
  7  8  2  0
  7  9  1  0
  4  2  1  0
M  END
>  <rName>  (1050) 
D-Ac3c_2Svinyl

>  <PQ_SYMBOL>  (1050) 
D-Ac3c_2Svinyl

>  <FULL_NAME>  (1050) 
(1R,2S)-1-amino-2-ethenylcyclopropanecarboxylic acid

>  <IUPAC_CONDENSED>  (1050) 
D-Ac3c(2S-vinyl)

>  <IUPAC>  (1050) 
(1R,2S)-1-amino-2-ethenylcyclopropanecarboxylic acid

>  <TYPE>  (1050) 
Backbone

>  <CLASS>  (1050) 
alpha

>  <ANALOG>  (1050) 
X

>  <MOL_WT>  (1050) 
127.14299999999999

>  <LOGP>  (1050) 
-0.025600000000000345

>  <TPSA>  (1050) 
63.32000000000001

>  <POPULARITY>  (1050) 
14.3

>  <PROTECTED>  (1050) 
TRUE

>  <SMILES>  (1050) 
N[C@@]1(C[C@H]1C=C)C(=O)O

>  <INCHIKEY>  (1050) 
GALLMPFNVWUCGD-INEUFUBQSA-N

$$$$
D-Agl
     RDKit          2D

  6  5  0  0  0  0  0  0  0  0999 V2000
   -1.5000    1.2990    0.0000 N   0  0  0  0  0  0  0  0  0  0  0  0
   -0.7500    0.0000    0.0000 C   0  0  0  0  0  0  0  0  0  0  0  0
   -1.5000   -1.2990    0.0000 N   0  0  0  0  0  0  0  0  0  0  0  0
    0.7500   -0.0000    0.0000 C   0  0  0  0  0  0  0  0  0  0  0  0
    1.5000    1.2990    0.0000 O   0  0  0  0  0  0  0  0  0  0  0  0
    1.5000   -1.2990    0.0000 O   0  0  0  0  0  0  0  0  0  0  0  0
  1  2  1  0
  2  3  1  0
  2  4  1  0
  4  5  2  0
  4  6  1  0
M  END
>  <rName>  (1051) 
D-Agl

>  <PQ_SYMBOL>  (1051) 
D-Agl

>  <FULL_NAME>  (1051) 
D-Diaminoacetic acid

>  <IUPAC_CONDENSED>  (1051) 
D-Agl

>  <IUPAC>  (1051) 
2,2-diaminoacetic acid

>  <TYPE>  (1051) 
Backbone

>  <CLASS>  (1051) 
alpha

>  <ANALOG>  (1051) 
X

>  <MOL_WT>  (1051) 
90.08199999999998

>  <LOGP>  (1051) 
-1.6855000000000002

>  <TPSA>  (1051) 
89.34

>  <POPULARITY>  (1051) 
14.9

>  <PROTECTED>  (1051) 
TRUE

>  <SMILES>  (1051) 
NC(N)C(=O)O

>  <INCHIKEY>  (1051) 
MAEDLSNGVQYGPK-UHFFFAOYSA-N

$$$$
D-Ala-OBn
     RDKit          2D

 13 13  0  0  0  0  0  0  0  0999 V2000
   -3.3050    1.9837    0.0000 N   0  0  0  0  0  0  0  0  0  0  0  0
   -3.5634    0.5061    0.0000 C   0  0  0  0  0  0  0  0  0  0  0  0
   -4.9723   -0.0089    0.0000 C   0  0  0  0  0  0  0  0  0  0  0  0
   -2.4130   -0.4565    0.0000 C   0  0  0  0  0  0  0  0  0  0  0  0
   -2.6715   -1.9340    0.0000 O   0  0  0  0  0  0  0  0  0  0  0  0
   -1.0042    0.0585    0.0000 O   0  0  0  0  0  0  0  0  0  0  0  0
    0.1462   -0.9041    0.0000 C   0  0  0  0  0  0  0  0  0  0  0  0
    1.5550   -0.3891    0.0000 C   0  0  0  0  0  0  0  0  0  0  0  0
    1.8135    1.0885    0.0000 C   0  0  0  0  0  0  0  0  0  0  0  0
    3.2223    1.6034    0.0000 C   0  0  0  0  0  0  0  0  0  0  0  0
    4.3727    0.6408    0.0000 C   0  0  0  0  0  0  0  0  0  0  0  0
    4.1143   -0.8367    0.0000 C   0  0  0  0  0  0  0  0  0  0  0  0
    2.7054   -1.3517    0.0000 C   0  0  0  0  0  0  0  0  0  0  0  0
  1  2  1  0
  2  3  1  1
  2  4  1  0
  4  5  2  0
  4  6  1  0
  6  7  1  0
  7  8  1  0
  8  9  2  0
  9 10  1  0
 10 11  2  0
 11 12  1  0
 12 13  2  0
 13  8  1  0
M  END
>  <rName>  (1052) 
D-Ala-OBn

>  <PQ_SYMBOL>  (1052) 
D-Ala-OBn

>  <FULL_NAME>  (1052) 
D-Alanine benzyl ester

>  <IUPAC_CONDENSED>  (1052) 
D-Ala-OBn

>  <IUPAC>  (1052) 
benzyl (2R)-2-aminopropanoate

>  <TYPE>  (1052) 
C-term cap

>  <CLASS>  (1052) 
c_cap

>  <ANALOG>  (1052) 
X

>  <MOL_WT>  (1052) 
179.219

>  <LOGP>  (1052) 
1.0769999999999995

>  <TPSA>  (1052) 
52.32000000000001

>  <POPULARITY>  (1052) 
12.4

>  <PROTECTED>  (1052) 
TRUE

>  <SMILES>  (1052) 
N[C@H](C)C(=O)OCc1ccccc1

>  <INCHIKEY>  (1052) 
YGYLYUIRSJSFJS-MRVPVSSYSA-N

$$$$
D-Ala-ol
     RDKit          2D

  5  4  0  0  0  0  0  0  0  0999 V2000
   -0.5196    1.5000    0.0000 N   0  0  0  0  0  0  0  0  0  0  0  0
   -0.5196    0.0000    0.0000 C   0  0  0  0  0  0  0  0  0  0  0  0
   -1.8187   -0.7500    0.0000 C   0  0  0  0  0  0  0  0  0  0  0  0
    0.7794   -0.7500    0.0000 C   0  0  0  0  0  0  0  0  0  0  0  0
    2.0785   -0.0000    0.0000 O   0  0  0  0  0  0  0  0  0  0  0  0
  1  2  1  0
  2  3  1  1
  2  4  1  0
  4  5  1  0
M  END
>  <rName>  (1053) 
D-Ala-ol

>  <PQ_SYMBOL>  (1053) 
D-Ala-ol

>  <FULL_NAME>  (1053) 
(2R)-2-aminopropan-1-ol

>  <IUPAC_CONDENSED>  (1053) 
D-Ala-ol

>  <IUPAC>  (1053) 
(2R)-2-aminopropan-1-ol

>  <TYPE>  (1053) 
C-term cap

>  <CLASS>  (1053) 
c_cap

>  <ANALOG>  (1053) 
X

>  <MOL_WT>  (1053) 
75.11099999999999

>  <LOGP>  (1053) 
-0.6741000000000001

>  <TPSA>  (1053) 
46.25

>  <POPULARITY>  (1053) 
15.0

>  <PROTECTED>  (1053) 
FALSE

>  <SMILES>  (1053) 
N[C@H](C)CO

>  <INCHIKEY>  (1053) 
BKMMTJMQCTUHRP-GSVOUGTGSA-N

$$$$
D-Ala_13benzodioxol5yl
     RDKit          2D

 15 16  0  0  0  0  0  0  0  0999 V2000
    2.4169   -1.6715    0.0000 N   0  0  0  0  0  0  0  0  0  0  0  0
    2.6919   -0.1969    0.0000 C   0  0  0  0  0  0  0  0  0  0  0  0
    1.5524    0.7786    0.0000 C   0  0  0  0  0  0  0  0  0  0  0  0
    0.1379    0.2795    0.0000 C   0  0  0  0  0  0  0  0  0  0  0  0
   -0.1372   -1.1951    0.0000 C   0  0  0  0  0  0  0  0  0  0  0  0
   -1.5517   -1.6942    0.0000 C   0  0  0  0  0  0  0  0  0  0  0  0
   -2.6912   -0.7188    0.0000 C   0  0  0  0  0  0  0  0  0  0  0  0
   -4.1786   -0.9129    0.0000 O   0  0  0  0  0  0  0  0  0  0  0  0
   -4.8228    0.4417    0.0000 C   0  0  0  0  0  0  0  0  0  0  0  0
   -3.7336    1.4730    0.0000 O   0  0  0  0  0  0  0  0  0  0  0  0
   -2.4162    0.7558    0.0000 C   0  0  0  0  0  0  0  0  0  0  0  0
   -1.0016    1.2549    0.0000 C   0  0  0  0  0  0  0  0  0  0  0  0
    4.1064    0.3022    0.0000 C   0  0  0  0  0  0  0  0  0  0  0  0
    4.3814    1.7768    0.0000 O   0  0  0  0  0  0  0  0  0  0  0  0
    5.2459   -0.6732    0.0000 O   0  0  0  0  0  0  0  0  0  0  0  0
  2  1  1  6
  2  3  1  0
  3  4  1  0
  4  5  1  0
  5  6  2  0
  6  7  1  0
  7  8  1  0
  8  9  1  0
  9 10  1  0
 10 11  1  0
 11 12  1  0
  2 13  1  0
 13 14  2  0
 13 15  1  0
 11  7  2  0
 12  4  2  0
M  END
>  <rName>  (1054) 
D-Ala_13benzodioxol5yl

>  <PQ_SYMBOL>  (1054) 
D-Ala_13benzodioxol5yl

>  <FULL_NAME>  (1054) 
(R)-2-amino-3-(benzo[d][1,3]dioxol-5-yl)propanoic acid

>  <IUPAC_CONDENSED>  (1054) 
D-Ala(1,3-benzodioxol-5-yl)

>  <IUPAC>  (1054) 
(2R)-2-amino-3-(7,9-dioxabicyclo[4.3.0]nona-1,3,5-trien-3-yl)propanoic acid

>  <TYPE>  (1054) 
Backbone

>  <CLASS>  (1054) 
alpha

>  <ANALOG>  (1054) 
Tyr

>  <MOL_WT>  (1054) 
209.20099999999996

>  <LOGP>  (1054) 
0.36969999999999986

>  <TPSA>  (1054) 
81.78

>  <POPULARITY>  (1054) 
5.7

>  <PROTECTED>  (1054) 
TRUE

>  <SMILES>  (1054) 
N[C@H](Cc2(ccc1(OCOc1c2)))C(=O)O

>  <INCHIKEY>  (1054) 
XHBLRJRZRFZSGW-SSDOTTSWSA-N

$$$$
D-Ala_22diMe1_3benzodioxolyl
     RDKit          2D

 17 18  0  0  0  0  0  0  0  0999 V2000
   -3.1695    1.6432    0.0000 N   0  0  0  0  0  0  0  0  0  0  0  0
   -3.3954    0.1603    0.0000 C   0  0  0  0  0  0  0  0  0  0  0  0
   -2.2241   -0.7768    0.0000 C   0  0  0  0  0  0  0  0  0  0  0  0
   -0.8270   -0.2310    0.0000 C   0  0  0  0  0  0  0  0  0  0  0  0
   -0.6010    1.2519    0.0000 C   0  0  0  0  0  0  0  0  0  0  0  0
    0.7962    1.7976    0.0000 C   0  0  0  0  0  0  0  0  0  0  0  0
    1.9674    0.8605    0.0000 C   0  0  0  0  0  0  0  0  0  0  0  0
    3.4475    1.1039    0.0000 O   0  0  0  0  0  0  0  0  0  0  0  0
    4.1364   -0.2286    0.0000 C   0  0  0  0  0  0  0  0  0  0  0  0
    3.0820   -1.2955    0.0000 O   0  0  0  0  0  0  0  0  0  0  0  0
    1.7415   -0.6223    0.0000 C   0  0  0  0  0  0  0  0  0  0  0  0
    0.3443   -1.1681    0.0000 C   0  0  0  0  0  0  0  0  0  0  0  0
    5.3895    0.5958    0.0000 C   0  0  0  0  0  0  0  0  0  0  0  0
    5.0872   -1.3887    0.0000 C   0  0  0  0  0  0  0  0  0  0  0  0
   -4.7926   -0.3855    0.0000 C   0  0  0  0  0  0  0  0  0  0  0  0
   -5.0185   -1.8684    0.0000 O   0  0  0  0  0  0  0  0  0  0  0  0
   -5.9638    0.5516    0.0000 O   0  0  0  0  0  0  0  0  0  0  0  0
  2  1  1  6
  2  3  1  0
  3  4  1  0
  4  5  1  0
  5  6  2  0
  6  7  1  0
  7  8  1  0
  8  9  1  0
  9 10  1  0
 10 11  1  0
 11 12  1  0
  9 13  1  0
  9 14  1  0
  2 15  1  0
 15 16  2  0
 15 17  1  0
 11  7  2  0
 12  4  2  0
M  END
>  <rName>  (1055) 
D-Ala_22diMe1_3benzodioxolyl

>  <PQ_SYMBOL>  (1055) 
D-Ala_22diMe1_3benzodioxolyl

>  <FULL_NAME>  (1055) 
(R)-2-amino-3-(2,2-dimethylbenzo[d][1,3]dioxol-5-yl)propanoic acid

>  <IUPAC_CONDENSED>  (1055) 
D-Ala(2,2-diMe-1,3-benzodioxolyl)

>  <IUPAC>  (1055) 
(2R)-2-amino-3-(8,8-dimethyl-7,9-dioxabicyclo[4.3.0]nona-1,3,5-trien-3-yl)propanoic acid

>  <TYPE>  (1055) 
Backbone

>  <CLASS>  (1055) 
alpha

>  <ANALOG>  (1055) 
Tyr

>  <MOL_WT>  (1055) 
237.25499999999997

>  <LOGP>  (1055) 
1.1482999999999999

>  <TPSA>  (1055) 
81.78

>  <POPULARITY>  (1055) 
4.2

>  <PROTECTED>  (1055) 
TRUE

>  <SMILES>  (1055) 
N[C@H](Cc2(ccc1(OC(Oc1c2)(C)C)))C(=O)O

>  <INCHIKEY>  (1055) 
PFPPGLZXDDFWGF-MRVPVSSYSA-N

$$$$
D-Ala_2furyl
     RDKit          2D

 11 11  0  0  0  0  0  0  0  0999 V2000
   -0.9461    1.6947    0.0000 N   0  0  0  0  0  0  0  0  0  0  0  0
   -1.3100    0.2395    0.0000 C   0  0  0  0  0  0  0  0  0  0  0  0
   -0.2317   -0.8032    0.0000 C   0  0  0  0  0  0  0  0  0  0  0  0
    1.2105   -0.3908    0.0000 C   0  0  0  0  0  0  0  0  0  0  0  0
    2.3919   -1.3151    0.0000 C   0  0  0  0  0  0  0  0  0  0  0  0
    3.6360   -0.4772    0.0000 C   0  0  0  0  0  0  0  0  0  0  0  0
    3.2236    0.9650    0.0000 C   0  0  0  0  0  0  0  0  0  0  0  0
    1.7245    1.0184    0.0000 O   0  0  0  0  0  0  0  0  0  0  0  0
   -2.7522   -0.1729    0.0000 C   0  0  0  0  0  0  0  0  0  0  0  0
   -3.1161   -1.6281    0.0000 O   0  0  0  0  0  0  0  0  0  0  0  0
   -3.8304    0.8698    0.0000 O   0  0  0  0  0  0  0  0  0  0  0  0
  2  1  1  6
  2  3  1  0
  3  4  1  0
  4  5  2  0
  5  6  1  0
  6  7  2  0
  7  8  1  0
  2  9  1  0
  9 10  2  0
  9 11  1  0
  8  4  1  0
M  END
>  <rName>  (1056) 
D-Ala_2furyl

>  <PQ_SYMBOL>  (1056) 
D-Ala_2furyl

>  <FULL_NAME>  (1056) 
3-(2-Furyl)-D-Alanine

>  <IUPAC_CONDENSED>  (1056) 
D-Ala(2-furyl)

>  <IUPAC>  (1056) 
(2R)-2-amino-3-(furan-2-yl)propanoic acid

>  <TYPE>  (1056) 
Backbone

>  <CLASS>  (1056) 
alpha

>  <ANALOG>  (1056) 
Phe

>  <MOL_WT>  (1056) 
155.15299999999996

>  <LOGP>  (1056) 
0.23399999999999993

>  <TPSA>  (1056) 
76.46

>  <POPULARITY>  (1056) 
7.0

>  <PROTECTED>  (1056) 
TRUE

>  <SMILES>  (1056) 
N[C@H](Cc1(ccco1))C(=O)O

>  <INCHIKEY>  (1056) 
RXZQHZDTHUUJQJ-ZCFIWIBFSA-N

$$$$
D-Ala_4piperidyl
     RDKit          2D

 12 12  0  0  0  0  0  0  0  0999 V2000
   -1.2391    1.6805    0.0000 N   0  0  0  0  0  0  0  0  0  0  0  0
   -1.6184    0.2292    0.0000 C   0  0  0  0  0  0  0  0  0  0  0  0
   -0.5513   -0.8249    0.0000 C   0  0  0  0  0  0  0  0  0  0  0  0
    0.8952   -0.4278    0.0000 C   0  0  0  0  0  0  0  0  0  0  0  0
    1.2745    1.0235    0.0000 C   0  0  0  0  0  0  0  0  0  0  0  0
    2.7210    1.4206    0.0000 C   0  0  0  0  0  0  0  0  0  0  0  0
    3.7882    0.3665    0.0000 N   0  0  0  0  0  0  0  0  0  0  0  0
    3.4088   -1.0848    0.0000 C   0  0  0  0  0  0  0  0  0  0  0  0
    1.9624   -1.4819    0.0000 C   0  0  0  0  0  0  0  0  0  0  0  0
   -3.0649   -0.1679    0.0000 C   0  0  0  0  0  0  0  0  0  0  0  0
   -3.4442   -1.6191    0.0000 O   0  0  0  0  0  0  0  0  0  0  0  0
   -4.1321    0.8862    0.0000 O   0  0  0  0  0  0  0  0  0  0  0  0
  2  1  1  6
  2  3  1  0
  3  4  1  0
  4  5  1  0
  5  6  1  0
  6  7  1  0
  7  8  1  0
  8  9  1  0
  2 10  1  0
 10 11  2  0
 10 12  1  0
  9  4  1  0
M  END
>  <rName>  (1057) 
D-Ala_4piperidyl

>  <PQ_SYMBOL>  (1057) 
D-Ala_4piperidyl

>  <FULL_NAME>  (1057) 
(R)-2-amino-3-(piperidin-4-yl)propanoic acid

>  <IUPAC_CONDENSED>  (1057) 
D-Ala(4-piperidyl)

>  <IUPAC>  (1057) 
(2R)-2-amino-3-(piperidin-4-yl)propanoic acid

>  <TYPE>  (1057) 
Backbone

>  <CLASS>  (1057) 
alpha

>  <ANALOG>  (1057) 
Lys

>  <MOL_WT>  (1057) 
172.228

>  <LOGP>  (1057) 
-0.21200000000000047

>  <TPSA>  (1057) 
75.35

>  <POPULARITY>  (1057) 
7.2

>  <PROTECTED>  (1057) 
TRUE

>  <SMILES>  (1057) 
N[C@H](CC1(CCNCC1))C(=O)O

>  <INCHIKEY>  (1057) 
VVDNQYDGDFYGMM-SSDOTTSWSA-N

$$$$
D-Ala_7OMe2oxochromenyl
     RDKit          2D

 19 20  0  0  0  0  0  0  0  0999 V2000
   -3.6022   -1.1766    0.0000 N   0  0  0  0  0  0  0  0  0  0  0  0
   -3.2926    0.2911    0.0000 C   0  0  0  0  0  0  0  0  0  0  0  0
   -1.8667    0.7568    0.0000 C   0  0  0  0  0  0  0  0  0  0  0  0
   -0.7505   -0.2451    0.0000 C   0  0  0  0  0  0  0  0  0  0  0  0
   -1.0600   -1.7128    0.0000 C   0  0  0  0  0  0  0  0  0  0  0  0
    0.0562   -2.7148    0.0000 C   0  0  0  0  0  0  0  0  0  0  0  0
   -0.2533   -4.1825    0.0000 O   0  0  0  0  0  0  0  0  0  0  0  0
    1.4821   -2.2490    0.0000 O   0  0  0  0  0  0  0  0  0  0  0  0
    1.7917   -0.7813    0.0000 C   0  0  0  0  0  0  0  0  0  0  0  0
    3.2175   -0.3156    0.0000 C   0  0  0  0  0  0  0  0  0  0  0  0
    3.5271    1.1521    0.0000 C   0  0  0  0  0  0  0  0  0  0  0  0
    4.9530    1.6179    0.0000 O   0  0  0  0  0  0  0  0  0  0  0  0
    6.0693    0.6159    0.0000 C   0  0  0  0  0  0  0  0  0  0  0  0
    2.4109    2.1541    0.0000 C   0  0  0  0  0  0  0  0  0  0  0  0
    0.9850    1.6883    0.0000 C   0  0  0  0  0  0  0  0  0  0  0  0
    0.6754    0.2206    0.0000 C   0  0  0  0  0  0  0  0  0  0  0  0
   -4.4089    1.2930    0.0000 C   0  0  0  0  0  0  0  0  0  0  0  0
   -4.0993    2.7607    0.0000 O   0  0  0  0  0  0  0  0  0  0  0  0
   -5.8347    0.8273    0.0000 O   0  0  0  0  0  0  0  0  0  0  0  0
  2  1  1  1
  2  3  1  0
  3  4  1  0
  4  5  2  0
  5  6  1  0
  6  7  2  0
  6  8  1  0
  8  9  1  0
  9 10  1  0
 10 11  2  0
 11 12  1  0
 12 13  1  0
 11 14  1  0
 14 15  2  0
 15 16  1  0
  2 17  1  0
 17 18  2  0
 17 19  1  0
 16  4  1  0
 16  9  2  0
M  END
>  <rName>  (1058) 
D-Ala_7OMe2oxochromenyl

>  <PQ_SYMBOL>  (1058) 
D-Ala_7OMe2oxochromenyl

>  <FULL_NAME>  (1058) 
(2R)-2-amino-3-(7-methoxy-2-oxochromen-4-yl)propanoic acid

>  <IUPAC_CONDENSED>  (1058) 
D-Ala(7-OMe-2-oxochromenyl)

>  <IUPAC>  (1058) 
(2R)-2-amino-3-(9-methoxy-3-oxo-2-oxabicyclo[4.4.0]deca-1(10),4,6,8-tetraen-5-yl)propanoic acid

>  <TYPE>  (1058) 
Backbone

>  <CLASS>  (1058) 
alpha

>  <ANALOG>  (1058) 
Tyr

>  <MOL_WT>  (1058) 
263.24899999999997

>  <LOGP>  (1058) 
0.7560000000000002

>  <TPSA>  (1058) 
102.76

>  <POPULARITY>  (1058) 
3.2

>  <PROTECTED>  (1058) 
TRUE

>  <SMILES>  (1058) 
N[C@H](Cc1(cc(=O)oc2(cc(OC)ccc12)))C(=O)O

>  <INCHIKEY>  (1058) 
IOHUIWNMQPWOAX-SNVBAGLBSA-N

$$$$
D-Ala_CF3
     RDKit          2D

 10  9  0  0  0  0  0  0  0  0999 V2000
   -0.5029   -1.7542    0.0000 N   0  0  0  0  0  0  0  0  0  0  0  0
   -0.7450   -0.2738    0.0000 C   0  0  0  0  0  0  0  0  0  0  0  0
    0.4160    0.6760    0.0000 C   0  0  0  0  0  0  0  0  0  0  0  0
    1.8190    0.1455    0.0000 C   0  0  0  0  0  0  0  0  0  0  0  0
    3.2221   -0.3850    0.0000 F   0  0  0  0  0  0  0  0  0  0  0  0
    2.3495    1.5485    0.0000 F   0  0  0  0  0  0  0  0  0  0  0  0
    1.2885   -1.2576    0.0000 F   0  0  0  0  0  0  0  0  0  0  0  0
   -2.1480    0.2567    0.0000 C   0  0  0  0  0  0  0  0  0  0  0  0
   -2.3901    1.7370    0.0000 O   0  0  0  0  0  0  0  0  0  0  0  0
   -3.3090   -0.6932    0.0000 O   0  0  0  0  0  0  0  0  0  0  0  0
  2  1  1  1
  2  3  1  0
  3  4  1  0
  4  5  1  0
  4  6  1  0
  4  7  1  0
  2  8  1  0
  8  9  2  0
  8 10  1  0
M  END
>  <rName>  (1059) 
D-Ala_CF3

>  <PQ_SYMBOL>  (1059) 
D-Ala_CF3

>  <FULL_NAME>  (1059) 
3-(trifluoromethyl)-D-alanine

>  <IUPAC_CONDENSED>  (1059) 
D-Ala(CF3)

>  <IUPAC>  (1059) 
(2R)-2-amino-4,4,4-trifluorobutanoic acid

>  <TYPE>  (1059) 
Backbone

>  <CLASS>  (1059) 
alpha

>  <ANALOG>  (1059) 
X

>  <MOL_WT>  (1059) 
157.091

>  <LOGP>  (1059) 
0.3506999999999998

>  <TPSA>  (1059) 
63.32000000000001

>  <POPULARITY>  (1059) 
7.6

>  <PROTECTED>  (1059) 
TRUE

>  <SMILES>  (1059) 
N[C@H](CC(F)(F)F)C(=O)O

>  <INCHIKEY>  (1059) 
AQPCXCOPDSEKQT-UWTATZPHSA-N

$$$$
D-Ala_CHF2
     RDKit          2D

  9  8  0  0  0  0  0  0  0  0999 V2000
   -0.2826   -1.7410    0.0000 N   0  0  0  0  0  0  0  0  0  0  0  0
   -0.5402   -0.2633    0.0000 C   0  0  0  0  0  0  0  0  0  0  0  0
    0.6108    0.6986    0.0000 C   0  0  0  0  0  0  0  0  0  0  0  0
    2.0193    0.1828    0.0000 C   0  0  0  0  0  0  0  0  0  0  0  0
    3.1703    1.1447    0.0000 F   0  0  0  0  0  0  0  0  0  0  0  0
    2.2769   -1.2950    0.0000 F   0  0  0  0  0  0  0  0  0  0  0  0
   -1.9487    0.2525    0.0000 C   0  0  0  0  0  0  0  0  0  0  0  0
   -2.2062    1.7302    0.0000 O   0  0  0  0  0  0  0  0  0  0  0  0
   -3.0997   -0.7094    0.0000 O   0  0  0  0  0  0  0  0  0  0  0  0
  2  1  1  1
  2  3  1  0
  3  4  1  0
  4  5  1  0
  4  6  1  0
  2  7  1  0
  7  8  2  0
  7  9  1  0
M  END
>  <rName>  (1060) 
D-Ala_CHF2

>  <PQ_SYMBOL>  (1060) 
D-Ala_CHF2

>  <FULL_NAME>  (1060) 
(2R)-2-Amino-4,4-difluorobutanoic acid

>  <IUPAC_CONDENSED>  (1060) 
D-Ala(CHF2)

>  <IUPAC>  (1060) 
(2R)-2-amino-4,4-difluorobutanoic acid

>  <TYPE>  (1060) 
Backbone

>  <CLASS>  (1060) 
alpha

>  <ANALOG>  (1060) 
X

>  <MOL_WT>  (1060) 
139.101

>  <LOGP>  (1060) 
0.0534999999999996

>  <TPSA>  (1060) 
63.32000000000001

>  <POPULARITY>  (1060) 
2.2

>  <PROTECTED>  (1060) 
TRUE

>  <SMILES>  (1060) 
N[C@H](CC(F)F)C(=O)O

>  <INCHIKEY>  (1060) 
VIUCNIMDPZQXAD-UWTATZPHSA-N

$$$$
D-Ala_CN
     RDKit          2D

  8  7  0  0  0  0  0  0  0  0999 V2000
    0.0877   -1.7162    0.0000 N   0  0  0  0  0  0  0  0  0  0  0  0
   -0.2706   -0.2596    0.0000 C   0  0  0  0  0  0  0  0  0  0  0  0
    0.8117    0.7789    0.0000 C   0  0  0  0  0  0  0  0  0  0  0  0
    2.2523    0.3609    0.0000 C   0  0  0  0  0  0  0  0  0  0  0  0
    3.6929   -0.0571    0.0000 N   0  0  0  0  0  0  0  0  0  0  0  0
   -1.7112    0.1584    0.0000 C   0  0  0  0  0  0  0  0  0  0  0  0
   -2.0694    1.6149    0.0000 O   0  0  0  0  0  0  0  0  0  0  0  0
   -2.7934   -0.8802    0.0000 O   0  0  0  0  0  0  0  0  0  0  0  0
  2  1  1  1
  2  3  1  0
  3  4  1  0
  4  5  3  0
  2  6  1  0
  6  7  2  0
  6  8  1  0
M  END
>  <rName>  (1061) 
D-Ala_CN

>  <PQ_SYMBOL>  (1061) 
D-Ala_CN

>  <FULL_NAME>  (1061) 
(2R)-2-amino-3-cyanopropanoic acid

>  <IUPAC_CONDENSED>  (1061) 
D-Ala(CN)

>  <IUPAC>  (1061) 
(2R)-2-amino-3-cyanopropanoic acid

>  <TYPE>  (1061) 
Backbone

>  <CLASS>  (1061) 
alpha

>  <ANALOG>  (1061) 
X

>  <MOL_WT>  (1061) 
114.10399999999998

>  <LOGP>  (1061) 
-0.6880200000000001

>  <TPSA>  (1061) 
87.11

>  <POPULARITY>  (1061) 
9.6

>  <PROTECTED>  (1061) 
TRUE

>  <SMILES>  (1061) 
N[C@H](CC#N)C(=O)O

>  <INCHIKEY>  (1061) 
BXRLWGXPSRYJDZ-GSVOUGTGSA-N

$$$$
D-Ala_Cl
     RDKit          2D

  7  6  0  0  0  0  0  0  0  0999 V2000
    0.5797   -1.7367    0.0000 N   0  0  0  0  0  0  0  0  0  0  0  0
    0.2514   -0.2730    0.0000 C   0  0  0  0  0  0  0  0  0  0  0  0
    1.3548    0.7431    0.0000 C   0  0  0  0  0  0  0  0  0  0  0  0
    2.7865    0.2956    0.0000 Cl  0  0  0  0  0  0  0  0  0  0  0  0
   -1.1803    0.1745    0.0000 C   0  0  0  0  0  0  0  0  0  0  0  0
   -1.5086    1.6381    0.0000 O   0  0  0  0  0  0  0  0  0  0  0  0
   -2.2837   -0.8417    0.0000 O   0  0  0  0  0  0  0  0  0  0  0  0
  2  1  1  1
  2  3  1  0
  3  4  1  0
  2  5  1  0
  5  6  2  0
  5  7  1  0
M  END
>  <rName>  (1062) 
D-Ala_Cl

>  <PQ_SYMBOL>  (1062) 
D-Ala_Cl

>  <FULL_NAME>  (1062) 
3-chloro-D-alanine

>  <IUPAC_CONDENSED>  (1062) 
D-Ala(Cl)

>  <IUPAC>  (1062) 
(2S)-2-amino-3-chloropropanoic acid

>  <TYPE>  (1062) 
Backbone

>  <CLASS>  (1062) 
alpha

>  <ANALOG>  (1062) 
X

>  <MOL_WT>  (1062) 
123.53899999999997

>  <LOGP>  (1062) 
-0.36290000000000006

>  <TPSA>  (1062) 
63.32000000000001

>  <POPULARITY>  (1062) 
11.5

>  <PROTECTED>  (1062) 
TRUE

>  <SMILES>  (1062) 
N[C@H](CCl)C(=O)O

>  <INCHIKEY>  (1062) 
ASBJGPTTYPEMLP-UWTATZPHSA-N

$$$$
D-Ala_F3
     RDKit          2D

  9  8  0  0  0  0  0  0  0  0999 V2000
   -0.1862    2.0800    0.0000 N   0  0  0  0  0  0  0  0  0  0  0  0
   -0.1560    0.5803    0.0000 C   0  0  0  0  0  0  0  0  0  0  0  0
    1.1578   -0.1434    0.0000 C   0  0  0  0  0  0  0  0  0  0  0  0
    2.4717   -0.8671    0.0000 F   0  0  0  0  0  0  0  0  0  0  0  0
    1.8815    1.1705    0.0000 F   0  0  0  0  0  0  0  0  0  0  0  0
    0.4341   -1.4573    0.0000 F   0  0  0  0  0  0  0  0  0  0  0  0
   -1.4397   -0.1957    0.0000 C   0  0  0  0  0  0  0  0  0  0  0  0
   -1.4095   -1.6954    0.0000 O   0  0  0  0  0  0  0  0  0  0  0  0
   -2.7536    0.5280    0.0000 O   0  0  0  0  0  0  0  0  0  0  0  0
  2  1  1  6
  2  3  1  0
  3  4  1  0
  3  5  1  0
  3  6  1  0
  2  7  1  0
  7  8  2  0
  7  9  1  0
M  END
>  <rName>  (1063) 
D-Ala_F3

>  <PQ_SYMBOL>  (1063) 
D-Ala_F3

>  <FULL_NAME>  (1063) 
TRIFLUOROALANINE

>  <IUPAC_CONDENSED>  (1063) 
D-Ala(F3)

>  <IUPAC>  (1063) 
(2S)-2-amino-3,3,3-trifluoropropanoic acid

>  <TYPE>  (1063) 
Backbone

>  <CLASS>  (1063) 
alpha

>  <ANALOG>  (1063) 
X

>  <MOL_WT>  (1063) 
143.06400000000002

>  <LOGP>  (1063) 
-0.03939999999999988

>  <TPSA>  (1063) 
63.32000000000001

>  <POPULARITY>  (1063) 
10.1

>  <PROTECTED>  (1063) 
TRUE

>  <SMILES>  (1063) 
N[C@H](C(F)(F)F)C(=O)O

>  <INCHIKEY>  (1063) 
HMJQKIDUCWWIBW-SFOWXEAESA-N

$$$$
D-Ala_N3
     RDKit          2D

  9  8  0  0  0  0  0  0  0  0999 V2000
    1.0341    1.9185    0.0000 N   0  0  0  0  0  0  0  0  0  0  0  0
    0.9057    0.4240    0.0000 C   0  0  0  0  0  0  0  0  0  0  0  0
   -0.4528   -0.2120    0.0000 C   0  0  0  0  0  0  0  0  0  0  0  0
   -1.6829    0.6465    0.0000 N   0  0  0  0  0  0  0  0  0  0  0  0
   -3.0414    0.0105    0.0000 N   0  0  0  0  0  0  0  0  0  0  0  0
   -4.3999   -0.6255    0.0000 N   0  0  0  0  0  0  0  0  0  0  0  0
    2.1357   -0.4345    0.0000 C   0  0  0  0  0  0  0  0  0  0  0  0
    2.0072   -1.9290    0.0000 O   0  0  0  0  0  0  0  0  0  0  0  0
    3.4942    0.2015    0.0000 O   0  0  0  0  0  0  0  0  0  0  0  0
  2  1  1  1
  2  3  1  0
  3  4  1  0
  4  5  2  0
  5  6  2  0
  2  7  1  0
  7  8  2  0
  7  9  1  0
M  CHG  2   5   1   6  -1
M  END
>  <rName>  (1064) 
D-Ala_N3

>  <PQ_SYMBOL>  (1064) 
D-Ala_N3

>  <FULL_NAME>  (1064) 
(R)-2-amino-3-azidopropanoic acid

>  <IUPAC_CONDENSED>  (1064) 
D-Ala(N3)

>  <IUPAC>  (1064) 
(2R)-2-amino-3-azidopropanoic acid

>  <TYPE>  (1064) 
Backbone

>  <CLASS>  (1064) 
alpha

>  <ANALOG>  (1064) 
X

>  <MOL_WT>  (1064) 
130.107

>  <LOGP>  (1064) 
-0.29140000000000016

>  <TPSA>  (1064) 
112.08

>  <POPULARITY>  (1064) 
5.9

>  <PROTECTED>  (1064) 
TRUE

>  <SMILES>  (1064) 
N[C@H](CN=[N+]=[N-])C(=O)O

>  <INCHIKEY>  (1064) 
CIFCKCQAKQRJFC-UWTATZPHSA-N

$$$$
D-Ala_adamantyl
     RDKit          2D

 16 18  0  0  0  0  0  0  0  0999 V2000
   -1.9963    1.9154    0.0000 N   0  0  0  0  0  0  0  0  0  0  0  0
   -2.1181    0.4203    0.0000 C   0  0  0  0  0  0  0  0  0  0  0  0
   -0.8843   -0.4327    0.0000 C   0  0  0  0  0  0  0  0  0  0  0  0
    0.4714    0.2093    0.0000 C   0  0  0  0  0  0  0  0  0  0  0  0
    1.7052   -0.6437    0.0000 C   0  0  0  0  0  0  0  0  0  0  0  0
    3.0609   -0.0017    0.0000 C   0  0  0  0  0  0  0  0  0  0  0  0
    3.1827    1.4934    0.0000 C   0  0  0  0  0  0  0  0  0  0  0  0
    1.9489    2.3464    0.0000 C   0  0  0  0  0  0  0  0  0  0  0  0
    0.9414   -0.7831    0.0000 C   0  0  0  0  0  0  0  0  0  0  0  0
    1.5834   -2.1387    0.0000 C   0  0  0  0  0  0  0  0  0  0  0  0
    2.9391   -1.4967    0.0000 C   0  0  0  0  0  0  0  0  0  0  0  0
    0.3496   -1.2857    0.0000 C   0  0  0  0  0  0  0  0  0  0  0  0
    0.5932    1.7044    0.0000 C   0  0  0  0  0  0  0  0  0  0  0  0
   -3.4738   -0.2217    0.0000 C   0  0  0  0  0  0  0  0  0  0  0  0
   -3.5956   -1.7167    0.0000 O   0  0  0  0  0  0  0  0  0  0  0  0
   -4.7076    0.6314    0.0000 O   0  0  0  0  0  0  0  0  0  0  0  0
  2  1  1  6
  2  3  1  0
  3  4  1  0
  4  5  1  0
  5  6  1  0
  6  7  1  0
  7  8  1  0
  8  9  1  0
  9 10  1  0
 10 11  1  0
 10 12  1  0
  8 13  1  0
  2 14  1  0
 14 15  2  0
 14 16  1  0
 11  6  1  0
 12  4  1  0
 13  4  1  0
M  END
>  <rName>  (1065) 
D-Ala_adamantyl

>  <PQ_SYMBOL>  (1065) 
D-Ala_adamantyl

>  <FULL_NAME>  (1065) 
3-(1-Adamantyl)-D-Alanine

>  <IUPAC_CONDENSED>  (1065) 
D-Ala(adamantyl)

>  <IUPAC>  (1065) 
(2R)-3-(adamantan-1-yl)-2-aminopropanoic acid

>  <TYPE>  (1065) 
Backbone

>  <CLASS>  (1065) 
alpha

>  <ANALOG>  (1065) 
Ala

>  <MOL_WT>  (1065) 
223.31599999999995

>  <LOGP>  (1065) 
2.0048

>  <TPSA>  (1065) 
63.32000000000001

>  <POPULARITY>  (1065) 
4.4

>  <PROTECTED>  (1065) 
TRUE

>  <SMILES>  (1065) 
N[C@H](CC32(CC1(CC(CC(C1)C2)C3)))C(=O)O

>  <INCHIKEY>  (1065) 
ZAQXSMCYFQJRCQ-VBRVDACPSA-N

$$$$
D-Ala_anthracen9yl
     RDKit          2D

 20 22  0  0  0  0  0  0  0  0999 V2000
   -2.7056    0.5283    0.0000 N   0  0  0  0  0  0  0  0  0  0  0  0
   -2.3890   -0.9379    0.0000 C   0  0  0  0  0  0  0  0  0  0  0  0
   -0.9609   -1.3968    0.0000 C   0  0  0  0  0  0  0  0  0  0  0  0
    0.1506   -0.3895    0.0000 C   0  0  0  0  0  0  0  0  0  0  0  0
    1.5787   -0.8484    0.0000 C   0  0  0  0  0  0  0  0  0  0  0  0
    1.8953   -2.3146    0.0000 C   0  0  0  0  0  0  0  0  0  0  0  0
    3.3234   -2.7734    0.0000 C   0  0  0  0  0  0  0  0  0  0  0  0
    4.4348   -1.7661    0.0000 C   0  0  0  0  0  0  0  0  0  0  0  0
    4.1182   -0.2999    0.0000 C   0  0  0  0  0  0  0  0  0  0  0  0
    2.6901    0.1590    0.0000 C   0  0  0  0  0  0  0  0  0  0  0  0
    2.3734    1.6252    0.0000 C   0  0  0  0  0  0  0  0  0  0  0  0
    0.9454    2.0840    0.0000 C   0  0  0  0  0  0  0  0  0  0  0  0
    0.6287    3.5502    0.0000 C   0  0  0  0  0  0  0  0  0  0  0  0
   -0.7994    4.0091    0.0000 C   0  0  0  0  0  0  0  0  0  0  0  0
   -1.9108    3.0018    0.0000 C   0  0  0  0  0  0  0  0  0  0  0  0
   -1.5942    1.5356    0.0000 C   0  0  0  0  0  0  0  0  0  0  0  0
   -0.1661    1.0767    0.0000 C   0  0  0  0  0  0  0  0  0  0  0  0
   -3.5004   -1.9453    0.0000 C   0  0  0  0  0  0  0  0  0  0  0  0
   -3.1838   -3.4115    0.0000 O   0  0  0  0  0  0  0  0  0  0  0  0
   -4.9285   -1.4864    0.0000 O   0  0  0  0  0  0  0  0  0  0  0  0
  2  1  1  6
  2  3  1  0
  3  4  1  0
  4  5  1  0
  5  6  2  0
  6  7  1  0
  7  8  2  0
  8  9  1  0
  9 10  2  0
 10 11  1  0
 11 12  2  0
 12 13  1  0
 13 14  2  0
 14 15  1  0
 15 16  2  0
 16 17  1  0
  2 18  1  0
 18 19  2  0
 18 20  1  0
 10  5  1  0
 17  4  2  0
 17 12  1  0
M  END
>  <rName>  (1066) 
D-Ala_anthracen9yl

>  <PQ_SYMBOL>  (1066) 
D-Ala_anthracen9yl

>  <FULL_NAME>  (1066) 
3-Anthracen-9-yl-D-Alanine

>  <IUPAC_CONDENSED>  (1066) 
D-Ala(anthracen-9-yl)

>  <IUPAC>  (1066) 
(2R)-2-amino-3-(anthracen-9-yl)propanoic acid

>  <TYPE>  (1066) 
Backbone

>  <CLASS>  (1066) 
alpha

>  <ANALOG>  (1066) 
Phe

>  <MOL_WT>  (1066) 
265.31199999999995

>  <LOGP>  (1066) 
2.947400000000001

>  <TPSA>  (1066) 
63.32000000000001

>  <POPULARITY>  (1066) 
7.7

>  <PROTECTED>  (1066) 
TRUE

>  <SMILES>  (1066) 
N[C@H](Cc2(c1(ccccc1cc3(ccccc23))))C(=O)O

>  <INCHIKEY>  (1066) 
MRVJUNXMEDRMRO-MRXNPFEDSA-N

$$$$
D-Ala_azulen1yl
     RDKit          2D

 16 17  0  0  0  0  0  0  0  0999 V2000
    2.9640   -1.6770    0.0000 N   0  0  0  0  0  0  0  0  0  0  0  0
    2.8413   -0.1820    0.0000 C   0  0  0  0  0  0  0  0  0  0  0  0
    1.4853    0.4593    0.0000 C   0  0  0  0  0  0  0  0  0  0  0  0
    0.2520   -0.3944    0.0000 C   0  0  0  0  0  0  0  0  0  0  0  0
    0.2176   -1.8940    0.0000 C   0  0  0  0  0  0  0  0  0  0  0  0
   -1.2192   -2.3248    0.0000 C   0  0  0  0  0  0  0  0  0  0  0  0
   -2.0729   -1.0914    0.0000 C   0  0  0  0  0  0  0  0  0  0  0  0
   -3.5725   -1.1244    0.0000 C   0  0  0  0  0  0  0  0  0  0  0  0
   -4.5333    0.0275    0.0000 C   0  0  0  0  0  0  0  0  0  0  0  0
   -4.2318    1.4969    0.0000 C   0  0  0  0  0  0  0  0  0  0  0  0
   -2.8950    2.1773    0.0000 C   0  0  0  0  0  0  0  0  0  0  0  0
   -1.5295    1.5564    0.0000 C   0  0  0  0  0  0  0  0  0  0  0  0
   -1.1637    0.1017    0.0000 C   0  0  0  0  0  0  0  0  0  0  0  0
    4.0747    0.6717    0.0000 C   0  0  0  0  0  0  0  0  0  0  0  0
    3.9521    2.1667    0.0000 O   0  0  0  0  0  0  0  0  0  0  0  0
    5.4307    0.0304    0.0000 O   0  0  0  0  0  0  0  0  0  0  0  0
  2  1  1  6
  2  3  1  0
  3  4  1  0
  4  5  1  0
  5  6  2  0
  6  7  1  0
  7  8  2  0
  8  9  1  0
  9 10  2  0
 10 11  1  0
 11 12  2  0
 12 13  1  0
  2 14  1  0
 14 15  2  0
 14 16  1  0
 13  4  2  0
 13  7  1  0
M  END
>  <rName>  (1067) 
D-Ala_azulen1yl

>  <PQ_SYMBOL>  (1067) 
D-Ala_azulen1yl

>  <FULL_NAME>  (1067) 
β-(1-azulenyl)-D-alanine

>  <IUPAC_CONDENSED>  (1067) 
D-Ala(azulen-1-yl)

>  <IUPAC>  (1067) 
(2R)-2-amino-3-(bicyclo[5.3.0]deca-1(10),2,4,6,8-pentaen-8-yl)propanoic acid

>  <TYPE>  (1067) 
Backbone

>  <CLASS>  (1067) 
alpha

>  <ANALOG>  (1067) 
Phe

>  <MOL_WT>  (1067) 
215.25199999999998

>  <LOGP>  (1067) 
1.7458

>  <TPSA>  (1067) 
63.32000000000001

>  <POPULARITY>  (1067) 
3.0

>  <PROTECTED>  (1067) 
TRUE

>  <SMILES>  (1067) 
N[C@H](Cc1(ccc2(cccccc12)))C(=O)O

>  <INCHIKEY>  (1067) 
OFJOITXZODXNIG-GFCCVEGCSA-N

$$$$
D-Ala_benzothiazol2yl
     RDKit          2D

 15 16  0  0  0  0  0  0  0  0999 V2000
   -2.2312    1.6742    0.0000 N   0  0  0  0  0  0  0  0  0  0  0  0
   -2.7125    0.2535    0.0000 C   0  0  0  0  0  0  0  0  0  0  0  0
   -1.7228   -0.8736    0.0000 C   0  0  0  0  0  0  0  0  0  0  0  0
   -0.2518   -0.5801    0.0000 C   0  0  0  0  0  0  0  0  0  0  0  0
    0.8503   -1.5976    0.0000 N   0  0  0  0  0  0  0  0  0  0  0  0
    2.1586   -0.8639    0.0000 C   0  0  0  0  0  0  0  0  0  0  0  0
    3.5793   -1.3452    0.0000 C   0  0  0  0  0  0  0  0  0  0  0  0
    4.7064   -0.3555    0.0000 C   0  0  0  0  0  0  0  0  0  0  0  0
    4.4129    1.1155    0.0000 C   0  0  0  0  0  0  0  0  0  0  0  0
    2.9922    1.5968    0.0000 C   0  0  0  0  0  0  0  0  0  0  0  0
    1.8650    0.6071    0.0000 C   0  0  0  0  0  0  0  0  0  0  0  0
    0.3753    0.7825    0.0000 S   0  0  0  0  0  0  0  0  0  0  0  0
   -4.1835   -0.0400    0.0000 C   0  0  0  0  0  0  0  0  0  0  0  0
   -4.6648   -1.4607    0.0000 O   0  0  0  0  0  0  0  0  0  0  0  0
   -5.1732    1.0872    0.0000 O   0  0  0  0  0  0  0  0  0  0  0  0
  2  1  1  6
  2  3  1  0
  3  4  1  0
  4  5  2  0
  5  6  1  0
  6  7  2  0
  7  8  1  0
  8  9  2  0
  9 10  1  0
 10 11  2  0
 11 12  1  0
  2 13  1  0
 13 14  2  0
 13 15  1  0
 11  6  1  0
 12  4  1  0
M  END
>  <rName>  (1068) 
D-Ala_benzothiazol2yl

>  <PQ_SYMBOL>  (1068) 
D-Ala_benzothiazol2yl

>  <FULL_NAME>  (1068) 
(R)-2-amino-3-(benzo[d]thiazol-2-yl)propanoic acid

>  <IUPAC_CONDENSED>  (1068) 
D-Ala(benzothiazol-2-yl)

>  <IUPAC>  (1068) 
(2R)-2-amino-3-(benzothiazol-2-yl)propanoic acid

>  <TYPE>  (1068) 
Backbone

>  <CLASS>  (1068) 
alpha

>  <ANALOG>  (1068) 
Phe

>  <MOL_WT>  (1068) 
222.26899999999998

>  <LOGP>  (1068) 
1.2507000000000001

>  <TPSA>  (1068) 
76.21

>  <POPULARITY>  (1068) 
3.7

>  <PROTECTED>  (1068) 
TRUE

>  <SMILES>  (1068) 
N[C@H](Cc2(nc1(ccccc1s2)))C(=O)O

>  <INCHIKEY>  (1068) 
DNDVHMGBCGSRIY-ZCFIWIBFSA-N

$$$$
D-Ala_benzothiophen3yl
     RDKit          2D

 15 16  0  0  0  0  0  0  0  0999 V2000
   -2.6183   -1.7023    0.0000 N   0  0  0  0  0  0  0  0  0  0  0  0
   -2.5622   -0.2034    0.0000 C   0  0  0  0  0  0  0  0  0  0  0  0
   -1.2360    0.4975    0.0000 C   0  0  0  0  0  0  0  0  0  0  0  0
    0.0341   -0.3006    0.0000 C   0  0  0  0  0  0  0  0  0  0  0  0
    0.1349   -1.7972    0.0000 C   0  0  0  0  0  0  0  0  0  0  0  0
    1.5895   -2.1637    0.0000 S   0  0  0  0  0  0  0  0  0  0  0  0
    2.3875   -0.8937    0.0000 C   0  0  0  0  0  0  0  0  0  0  0  0
    3.8654   -0.6369    0.0000 C   0  0  0  0  0  0  0  0  0  0  0  0
    4.3820    0.7713    0.0000 C   0  0  0  0  0  0  0  0  0  0  0  0
    3.4207    1.9228    0.0000 C   0  0  0  0  0  0  0  0  0  0  0  0
    1.9429    1.6661    0.0000 C   0  0  0  0  0  0  0  0  0  0  0  0
    1.4263    0.2578    0.0000 C   0  0  0  0  0  0  0  0  0  0  0  0
   -3.8322    0.5947    0.0000 C   0  0  0  0  0  0  0  0  0  0  0  0
   -3.7761    2.0937    0.0000 O   0  0  0  0  0  0  0  0  0  0  0  0
   -5.1584   -0.1061    0.0000 O   0  0  0  0  0  0  0  0  0  0  0  0
  2  1  1  1
  2  3  1  0
  3  4  1  0
  4  5  2  0
  5  6  1  0
  6  7  1  0
  7  8  2  0
  8  9  1  0
  9 10  2  0
 10 11  1  0
 11 12  2  0
  2 13  1  0
 13 14  2  0
 13 15  1  0
 12  4  1  0
 12  7  1  0
M  END
>  <rName>  (1069) 
D-Ala_benzothiophen3yl

>  <PQ_SYMBOL>  (1069) 
D-Ala_benzothiophen3yl

>  <FULL_NAME>  (1069) 
3-(3-Benzothienyl)-D-Alanine

>  <IUPAC_CONDENSED>  (1069) 
D-Ala(benzothiophen-3-yl)

>  <IUPAC>  (1069) 
(2R)-2-amino-3-(1-benzothiophen-3-yl)propanoic acid

>  <TYPE>  (1069) 
Backbone

>  <CLASS>  (1069) 
alpha

>  <ANALOG>  (1069) 
Phe

>  <MOL_WT>  (1069) 
221.281

>  <LOGP>  (1069) 
1.8557000000000001

>  <TPSA>  (1069) 
63.32000000000001

>  <POPULARITY>  (1069) 
15.3

>  <PROTECTED>  (1069) 
TRUE

>  <SMILES>  (1069) 
N[C@H](Cc1(csc2(ccccc12)))C(=O)O

>  <INCHIKEY>  (1069) 
GAUUPDQWKHTCAX-SECBINFHSA-N

$$$$
D-Ala_cBu
     RDKit          2D

 10 10  0  0  0  0  0  0  0  0999 V2000
   -0.6366    1.7081    0.0000 N   0  0  0  0  0  0  0  0  0  0  0  0
   -0.9860    0.2494    0.0000 C   0  0  0  0  0  0  0  0  0  0  0  0
    0.1026   -0.7826    0.0000 C   0  0  0  0  0  0  0  0  0  0  0  0
    1.5406   -0.3558    0.0000 C   0  0  0  0  0  0  0  0  0  0  0  0
    2.2557    0.9628    0.0000 C   0  0  0  0  0  0  0  0  0  0  0  0
    3.5743    0.2478    0.0000 C   0  0  0  0  0  0  0  0  0  0  0  0
    2.8592   -1.0708    0.0000 C   0  0  0  0  0  0  0  0  0  0  0  0
   -2.4240   -0.1774    0.0000 C   0  0  0  0  0  0  0  0  0  0  0  0
   -2.7734   -1.6361    0.0000 O   0  0  0  0  0  0  0  0  0  0  0  0
   -3.5126    0.8546    0.0000 O   0  0  0  0  0  0  0  0  0  0  0  0
  2  1  1  6
  2  3  1  0
  3  4  1  0
  4  5  1  0
  5  6  1  0
  6  7  1  0
  2  8  1  0
  8  9  2  0
  8 10  1  0
  7  4  1  0
M  END
>  <rName>  (1070) 
D-Ala_cBu

>  <PQ_SYMBOL>  (1070) 
D-Ala_cBu

>  <FULL_NAME>  (1070) 
(R)-2-amino-3-cyclobutylpropanoic acid

>  <IUPAC_CONDENSED>  (1070) 
D-Ala(cBu)

>  <IUPAC>  (1070) 
(2R)-2-amino-3-cyclobutylpropanoic acid

>  <TYPE>  (1070) 
Backbone

>  <CLASS>  (1070) 
alpha

>  <ANALOG>  (1070) 
Ala

>  <MOL_WT>  (1070) 
143.186

>  <LOGP>  (1070) 
0.5884999999999998

>  <TPSA>  (1070) 
63.32000000000001

>  <POPULARITY>  (1070) 
8.6

>  <PROTECTED>  (1070) 
TRUE

>  <SMILES>  (1070) 
N[C@H](CC1(CCC1))C(=O)O

>  <INCHIKEY>  (1070) 
SRGOJUDAJKUDAZ-ZCFIWIBFSA-N

$$$$
D-Ala_cBu_1Me
     RDKit          2D

 11 11  0  0  0  0  0  0  0  0999 V2000
   -0.5502    1.6701    0.0000 N   0  0  0  0  0  0  0  0  0  0  0  0
   -0.9690    0.2298    0.0000 C   0  0  0  0  0  0  0  0  0  0  0  0
    0.0689   -0.8531    0.0000 C   0  0  0  0  0  0  0  0  0  0  0  0
    1.5257   -0.4956    0.0000 C   0  0  0  0  0  0  0  0  0  0  0  0
    1.8831   -1.9524    0.0000 C   0  0  0  0  0  0  0  0  0  0  0  0
    1.1683    0.9612    0.0000 C   0  0  0  0  0  0  0  0  0  0  0  0
    2.6250    1.3186    0.0000 C   0  0  0  0  0  0  0  0  0  0  0  0
    2.9825   -0.1382    0.0000 C   0  0  0  0  0  0  0  0  0  0  0  0
   -2.4258   -0.1276    0.0000 C   0  0  0  0  0  0  0  0  0  0  0  0
   -2.8447   -1.5680    0.0000 O   0  0  0  0  0  0  0  0  0  0  0  0
   -3.4638    0.9553    0.0000 O   0  0  0  0  0  0  0  0  0  0  0  0
  2  1  1  6
  2  3  1  0
  3  4  1  0
  4  5  1  0
  4  6  1  0
  6  7  1  0
  7  8  1  0
  2  9  1  0
  9 10  2  0
  9 11  1  0
  8  4  1  0
M  END
>  <rName>  (1071) 
D-Ala_cBu_1Me

>  <PQ_SYMBOL>  (1071) 
D-Ala_cBu_1Me

>  <FULL_NAME>  (1071) 
(2R)-2-amino-3-(1-methylcyclobutyl)propanoic acid

>  <IUPAC_CONDENSED>  (1071) 
D-Ala(cBu(1-Me))

>  <IUPAC>  (1071) 
(2R)-2-amino-3-(1-methylcyclobutyl)propanoic acid

>  <TYPE>  (1071) 
Backbone

>  <CLASS>  (1071) 
alpha

>  <ANALOG>  (1071) 
Ala

>  <MOL_WT>  (1071) 
157.213

>  <LOGP>  (1071) 
0.9785999999999997

>  <TPSA>  (1071) 
63.32000000000001

>  <POPULARITY>  (1071) 
2.2

>  <PROTECTED>  (1071) 
TRUE

>  <SMILES>  (1071) 
N[C@H](CC1(C)(CCC1))C(=O)O

>  <INCHIKEY>  (1071) 
BMMSEIZQWPNKMW-ZCFIWIBFSA-N

$$$$
D-Ala_cPent
     RDKit          2D

 11 11  0  0  0  0  0  0  0  0999 V2000
   -0.9461    1.6947    0.0000 N   0  0  0  0  0  0  0  0  0  0  0  0
   -1.3100    0.2395    0.0000 C   0  0  0  0  0  0  0  0  0  0  0  0
   -0.2317   -0.8032    0.0000 C   0  0  0  0  0  0  0  0  0  0  0  0
    1.2105   -0.3908    0.0000 C   0  0  0  0  0  0  0  0  0  0  0  0
    2.3919   -1.3151    0.0000 C   0  0  0  0  0  0  0  0  0  0  0  0
    3.6360   -0.4772    0.0000 C   0  0  0  0  0  0  0  0  0  0  0  0
    3.2236    0.9650    0.0000 C   0  0  0  0  0  0  0  0  0  0  0  0
    1.7245    1.0184    0.0000 C   0  0  0  0  0  0  0  0  0  0  0  0
   -2.7522   -0.1729    0.0000 C   0  0  0  0  0  0  0  0  0  0  0  0
   -3.1161   -1.6281    0.0000 O   0  0  0  0  0  0  0  0  0  0  0  0
   -3.8304    0.8698    0.0000 O   0  0  0  0  0  0  0  0  0  0  0  0
  2  1  1  6
  2  3  1  0
  3  4  1  0
  4  5  1  0
  5  6  1  0
  6  7  1  0
  7  8  1  0
  2  9  1  0
  9 10  2  0
  9 11  1  0
  8  4  1  0
M  END
>  <rName>  (1072) 
D-Ala_cPent

>  <PQ_SYMBOL>  (1072) 
D-Ala_cPent

>  <FULL_NAME>  (1072) 
3-Cyclopentane-D-Alanine

>  <IUPAC_CONDENSED>  (1072) 
D-Ala(cPent)

>  <IUPAC>  (1072) 
(2R)-2-amino-3-cyclopentylpropanoic acid

>  <TYPE>  (1072) 
Backbone

>  <CLASS>  (1072) 
alpha

>  <ANALOG>  (1072) 
Ala

>  <MOL_WT>  (1072) 
157.21300000000002

>  <LOGP>  (1072) 
0.9785999999999997

>  <TPSA>  (1072) 
63.32000000000001

>  <POPULARITY>  (1072) 
8.4

>  <PROTECTED>  (1072) 
TRUE

>  <SMILES>  (1072) 
N[C@H](CC1(CCCC1))C(=O)O

>  <INCHIKEY>  (1072) 
KDYAKYRBGLKMAK-SSDOTTSWSA-N

$$$$
D-Ala_cPr
     RDKit          2D

  9  9  0  0  0  0  0  0  0  0999 V2000
   -0.3028    1.7184    0.0000 N   0  0  0  0  0  0  0  0  0  0  0  0
   -0.6415    0.2571    0.0000 C   0  0  0  0  0  0  0  0  0  0  0  0
    0.4546   -0.7668    0.0000 C   0  0  0  0  0  0  0  0  0  0  0  0
    1.8895   -0.3295    0.0000 C   0  0  0  0  0  0  0  0  0  0  0  0
    3.3507   -0.6681    0.0000 C   0  0  0  0  0  0  0  0  0  0  0  0
    2.9134    0.7667    0.0000 C   0  0  0  0  0  0  0  0  0  0  0  0
   -2.0763   -0.1802    0.0000 C   0  0  0  0  0  0  0  0  0  0  0  0
   -2.4150   -1.6415    0.0000 O   0  0  0  0  0  0  0  0  0  0  0  0
   -3.1725    0.8437    0.0000 O   0  0  0  0  0  0  0  0  0  0  0  0
  2  1  1  6
  2  3  1  0
  3  4  1  0
  4  5  1  0
  5  6  1  0
  2  7  1  0
  7  8  2  0
  7  9  1  0
  6  4  1  0
M  END
>  <rName>  (1073) 
D-Ala_cPr

>  <PQ_SYMBOL>  (1073) 
D-Ala_cPr

>  <FULL_NAME>  (1073) 
(R)-2-amino-3-cyclopropylpropanoic acid

>  <IUPAC_CONDENSED>  (1073) 
D-Ala(cPr)

>  <IUPAC>  (1073) 
(2R)-2-amino-3-cyclopropylpropanoic acid

>  <TYPE>  (1073) 
Backbone

>  <CLASS>  (1073) 
alpha

>  <ANALOG>  (1073) 
Ala

>  <MOL_WT>  (1073) 
129.15900000000002

>  <LOGP>  (1073) 
0.19839999999999985

>  <TPSA>  (1073) 
63.32000000000001

>  <POPULARITY>  (1073) 
10.6

>  <PROTECTED>  (1073) 
TRUE

>  <SMILES>  (1073) 
N[C@H](CC1(CC1))C(=O)O

>  <INCHIKEY>  (1073) 
XGUXJMWPVJQIHI-RXMQYKEDSA-N

$$$$
D-Ala_guanidino
     RDKit          2D

 10  9  0  0  0  0  0  0  0  0999 V2000
    1.2717    1.9622    0.0000 N   0  0  0  0  0  0  0  0  0  0  0  0
    1.1946    0.4642    0.0000 C   0  0  0  0  0  0  0  0  0  0  0  0
   -0.1413   -0.2180    0.0000 C   0  0  0  0  0  0  0  0  0  0  0  0
   -1.4001    0.5978    0.0000 N   0  0  0  0  0  0  0  0  0  0  0  0
   -2.7359   -0.0845    0.0000 C   0  0  0  0  0  0  0  0  0  0  0  0
   -2.8131   -1.5825    0.0000 N   0  0  0  0  0  0  0  0  0  0  0  0
   -3.9947    0.7313    0.0000 N   0  0  0  0  0  0  0  0  0  0  0  0
    2.4533   -0.3516    0.0000 C   0  0  0  0  0  0  0  0  0  0  0  0
    2.3762   -1.8496    0.0000 O   0  0  0  0  0  0  0  0  0  0  0  0
    3.7892    0.3306    0.0000 O   0  0  0  0  0  0  0  0  0  0  0  0
  2  1  1  1
  2  3  1  0
  3  4  1  0
  4  5  1  0
  5  6  2  0
  5  7  1  0
  2  8  1  0
  8  9  2  0
  8 10  1  0
M  END
>  <rName>  (1074) 
D-Ala_guanidino

>  <PQ_SYMBOL>  (1074) 
D-Ala_guanidino

>  <FULL_NAME>  (1074) 
3-Carbamimidamido-D-Alanine

>  <IUPAC_CONDENSED>  (1074) 
D-Ala(guanidino)

>  <IUPAC>  (1074) 
(2R)-2-amino-3-(((amino)(imino)methyl)amino)propanoic acid

>  <TYPE>  (1074) 
Backbone

>  <CLASS>  (1074) 
alpha

>  <ANALOG>  (1074) 
Arg

>  <MOL_WT>  (1074) 
146.15

>  <LOGP>  (1074) 
-2.1186299999999996

>  <TPSA>  (1074) 
125.22000000000001

>  <POPULARITY>  (1074) 
8.4

>  <PROTECTED>  (1074) 
TRUE

>  <SMILES>  (1074) 
N[C@H](CNC(=N)N)C(=O)O

>  <INCHIKEY>  (1074) 
XNBJHKABANTVCP-UWTATZPHSA-N

$$$$
D-Ala_morpholino
     RDKit          2D

 12 12  0  0  0  0  0  0  0  0999 V2000
   -1.2391    1.6805    0.0000 N   0  0  0  0  0  0  0  0  0  0  0  0
   -1.6184    0.2292    0.0000 C   0  0  0  0  0  0  0  0  0  0  0  0
   -0.5513   -0.8249    0.0000 C   0  0  0  0  0  0  0  0  0  0  0  0
    0.8952   -0.4278    0.0000 N   0  0  0  0  0  0  0  0  0  0  0  0
    1.2745    1.0235    0.0000 C   0  0  0  0  0  0  0  0  0  0  0  0
    2.7210    1.4206    0.0000 C   0  0  0  0  0  0  0  0  0  0  0  0
    3.7882    0.3665    0.0000 O   0  0  0  0  0  0  0  0  0  0  0  0
    3.4088   -1.0848    0.0000 C   0  0  0  0  0  0  0  0  0  0  0  0
    1.9624   -1.4819    0.0000 C   0  0  0  0  0  0  0  0  0  0  0  0
   -3.0649   -0.1679    0.0000 C   0  0  0  0  0  0  0  0  0  0  0  0
   -3.4442   -1.6191    0.0000 O   0  0  0  0  0  0  0  0  0  0  0  0
   -4.1321    0.8862    0.0000 O   0  0  0  0  0  0  0  0  0  0  0  0
  2  1  1  6
  2  3  1  0
  3  4  1  0
  4  5  1  0
  5  6  1  0
  6  7  1  0
  7  8  1  0
  8  9  1  0
  2 10  1  0
 10 11  2  0
 10 12  1  0
  9  4  1  0
M  END
>  <rName>  (1075) 
D-Ala_morpholino

>  <PQ_SYMBOL>  (1075) 
D-Ala_morpholino

>  <FULL_NAME>  (1075) 
(R)-2-Amino-3-morpholinopropanoic acid

>  <IUPAC_CONDENSED>  (1075) 
D-Ala(morpholino)

>  <IUPAC>  (1075) 
(2R)-2-amino-3-morpholin-4-ylpropanoic acid

>  <TYPE>  (1075) 
Backbone

>  <CLASS>  (1075) 
alpha

>  <ANALOG>  (1075) 
X

>  <MOL_WT>  (1075) 
174.2

>  <LOGP>  (1075) 
-1.269499999999999

>  <TPSA>  (1075) 
75.78999999999999

>  <POPULARITY>  (1075) 
2.2

>  <PROTECTED>  (1075) 
TRUE

>  <SMILES>  (1075) 
N[C@H](CN1(CCOCC1))C(=O)O

>  <INCHIKEY>  (1075) 
XQBWWSOQRZVLPX-ZCFIWIBFSA-N

$$$$
D-Ala_pyrazin2yl
     RDKit          2D

 12 12  0  0  0  0  0  0  0  0999 V2000
   -1.2391    1.6805    0.0000 N   0  0  0  0  0  0  0  0  0  0  0  0
   -1.6184    0.2292    0.0000 C   0  0  0  0  0  0  0  0  0  0  0  0
   -0.5513   -0.8249    0.0000 C   0  0  0  0  0  0  0  0  0  0  0  0
    0.8952   -0.4278    0.0000 C   0  0  0  0  0  0  0  0  0  0  0  0
    1.2745    1.0235    0.0000 C   0  0  0  0  0  0  0  0  0  0  0  0
    2.7210    1.4206    0.0000 N   0  0  0  0  0  0  0  0  0  0  0  0
    3.7882    0.3665    0.0000 C   0  0  0  0  0  0  0  0  0  0  0  0
    3.4088   -1.0848    0.0000 C   0  0  0  0  0  0  0  0  0  0  0  0
    1.9624   -1.4819    0.0000 N   0  0  0  0  0  0  0  0  0  0  0  0
   -3.0649   -0.1679    0.0000 C   0  0  0  0  0  0  0  0  0  0  0  0
   -3.4442   -1.6191    0.0000 O   0  0  0  0  0  0  0  0  0  0  0  0
   -4.1321    0.8862    0.0000 O   0  0  0  0  0  0  0  0  0  0  0  0
  2  1  1  6
  2  3  1  0
  3  4  1  0
  4  5  1  0
  5  6  2  0
  6  7  1  0
  7  8  2  0
  8  9  1  0
  2 10  1  0
 10 11  2  0
 10 12  1  0
  9  4  2  0
M  END
>  <rName>  (1076) 
D-Ala_pyrazin2yl

>  <PQ_SYMBOL>  (1076) 
D-Ala_pyrazin2yl

>  <FULL_NAME>  (1076) 
(2R)-2-amino-3-pyrazin-2-ylpropanoic acid

>  <IUPAC_CONDENSED>  (1076) 
D-Ala(pyrazin-2-yl)

>  <IUPAC>  (1076) 
(2R)-2-amino-3-(pyrazin-2-yl)propanoic acid

>  <TYPE>  (1076) 
Backbone

>  <CLASS>  (1076) 
alpha

>  <ANALOG>  (1076) 
Phe

>  <MOL_WT>  (1076) 
167.16799999999998

>  <LOGP>  (1076) 
-0.569

>  <TPSA>  (1076) 
89.10000000000001

>  <POPULARITY>  (1076) 
9.5

>  <PROTECTED>  (1076) 
TRUE

>  <SMILES>  (1076) 
N[C@H](Cc1(cnccn1))C(=O)O

>  <INCHIKEY>  (1076) 
JNNCNURVELPUNP-ZCFIWIBFSA-N

$$$$
D-Ala_pyrazol1yl
     RDKit          2D

 11 11  0  0  0  0  0  0  0  0999 V2000
   -0.9461    1.6947    0.0000 N   0  0  0  0  0  0  0  0  0  0  0  0
   -1.3100    0.2395    0.0000 C   0  0  0  0  0  0  0  0  0  0  0  0
   -0.2317   -0.8032    0.0000 C   0  0  0  0  0  0  0  0  0  0  0  0
    1.2105   -0.3908    0.0000 N   0  0  0  0  0  0  0  0  0  0  0  0
    2.3919   -1.3151    0.0000 C   0  0  0  0  0  0  0  0  0  0  0  0
    3.6360   -0.4772    0.0000 C   0  0  0  0  0  0  0  0  0  0  0  0
    3.2236    0.9650    0.0000 C   0  0  0  0  0  0  0  0  0  0  0  0
    1.7245    1.0184    0.0000 N   0  0  0  0  0  0  0  0  0  0  0  0
   -2.7522   -0.1729    0.0000 C   0  0  0  0  0  0  0  0  0  0  0  0
   -3.1161   -1.6281    0.0000 O   0  0  0  0  0  0  0  0  0  0  0  0
   -3.8304    0.8698    0.0000 O   0  0  0  0  0  0  0  0  0  0  0  0
  2  1  1  6
  2  3  1  0
  3  4  1  0
  4  5  1  0
  5  6  2  0
  6  7  1  0
  7  8  2  0
  2  9  1  0
  9 10  2  0
  9 11  1  0
  8  4  1  0
M  END
>  <rName>  (1077) 
D-Ala_pyrazol1yl

>  <PQ_SYMBOL>  (1077) 
D-Ala_pyrazol1yl

>  <FULL_NAME>  (1077) 
3-(1H-Pyrazole-1-yl)-D-Alanine

>  <IUPAC_CONDENSED>  (1077) 
D-Ala(pyrazol-1-yl)

>  <IUPAC>  (1077) 
(2R)-2-amino-3-(1H-pyrazol-1-yl)propanoic acid

>  <TYPE>  (1077) 
Backbone

>  <CLASS>  (1077) 
alpha

>  <ANALOG>  (1077) 
Phe

>  <MOL_WT>  (1077) 
155.15699999999998

>  <LOGP>  (1077) 
-0.7050000000000005

>  <TPSA>  (1077) 
81.14

>  <POPULARITY>  (1077) 
6.0

>  <PROTECTED>  (1077) 
TRUE

>  <SMILES>  (1077) 
N[C@H](Cn1(cccn1))C(=O)O

>  <INCHIKEY>  (1077) 
PIGOPELHGLPKLL-RXMQYKEDSA-N

$$$$
D-Ala_pyrazol3yl
     RDKit          2D

 11 11  0  0  0  0  0  0  0  0999 V2000
   -0.9461    1.6947    0.0000 N   0  0  0  0  0  0  0  0  0  0  0  0
   -1.3100    0.2395    0.0000 C   0  0  0  0  0  0  0  0  0  0  0  0
   -0.2317   -0.8032    0.0000 C   0  0  0  0  0  0  0  0  0  0  0  0
    1.2105   -0.3908    0.0000 C   0  0  0  0  0  0  0  0  0  0  0  0
    2.3919   -1.3151    0.0000 C   0  0  0  0  0  0  0  0  0  0  0  0
    3.6360   -0.4772    0.0000 C   0  0  0  0  0  0  0  0  0  0  0  0
    3.2236    0.9650    0.0000 N   0  0  0  0  0  0  0  0  0  0  0  0
    1.7245    1.0184    0.0000 N   0  0  0  0  0  0  0  0  0  0  0  0
   -2.7522   -0.1729    0.0000 C   0  0  0  0  0  0  0  0  0  0  0  0
   -3.1161   -1.6281    0.0000 O   0  0  0  0  0  0  0  0  0  0  0  0
   -3.8304    0.8698    0.0000 O   0  0  0  0  0  0  0  0  0  0  0  0
  2  1  1  6
  2  3  1  0
  3  4  1  0
  4  5  1  0
  5  6  2  0
  6  7  1  0
  7  8  1  0
  2  9  1  0
  9 10  2  0
  9 11  1  0
  8  4  2  0
M  END
>  <rName>  (1078) 
D-Ala_pyrazol3yl

>  <PQ_SYMBOL>  (1078) 
D-Ala_pyrazol3yl

>  <FULL_NAME>  (1078) 
(2R)-2-Amino-3-(1H-pyrazol-3-YL)propanoic acid

>  <IUPAC_CONDENSED>  (1078) 
D-Ala(pyrazol-3-yl)

>  <IUPAC>  (1078) 
(2R)-2-amino-3-(1H-pyrazol-3-yl)propanoic acid

>  <TYPE>  (1078) 
Backbone

>  <CLASS>  (1078) 
alpha

>  <ANALOG>  (1078) 
Phe

>  <MOL_WT>  (1078) 
155.15699999999998

>  <LOGP>  (1078) 
-0.6359000000000001

>  <TPSA>  (1078) 
92.00000000000001

>  <POPULARITY>  (1078) 
3.5

>  <PROTECTED>  (1078) 
TRUE

>  <SMILES>  (1078) 
N[C@H](Cc1(cc[nH]n1))C(=O)O

>  <INCHIKEY>  (1078) 
VOWKMMDXKYIBPG-RXMQYKEDSA-N

$$$$
D-Ala_pyren1yl
     RDKit          2D

 22 25  0  0  0  0  0  0  0  0999 V2000
   -4.1937   -1.5901    0.0000 N   0  0  0  0  0  0  0  0  0  0  0  0
   -4.0904   -0.0937    0.0000 C   0  0  0  0  0  0  0  0  0  0  0  0
   -2.7428    0.5651    0.0000 C   0  0  0  0  0  0  0  0  0  0  0  0
   -1.4985   -0.2725    0.0000 C   0  0  0  0  0  0  0  0  0  0  0  0
   -1.6017   -1.7689    0.0000 C   0  0  0  0  0  0  0  0  0  0  0  0
   -0.3574   -2.6066    0.0000 C   0  0  0  0  0  0  0  0  0  0  0  0
    0.9902   -1.9478    0.0000 C   0  0  0  0  0  0  0  0  0  0  0  0
    2.2345   -2.7854    0.0000 C   0  0  0  0  0  0  0  0  0  0  0  0
    3.5821   -2.1266    0.0000 C   0  0  0  0  0  0  0  0  0  0  0  0
    3.6853   -0.6302    0.0000 C   0  0  0  0  0  0  0  0  0  0  0  0
    5.0329    0.0286    0.0000 C   0  0  0  0  0  0  0  0  0  0  0  0
    5.1362    1.5251    0.0000 C   0  0  0  0  0  0  0  0  0  0  0  0
    3.8918    2.3627    0.0000 C   0  0  0  0  0  0  0  0  0  0  0  0
    2.5443    1.7039    0.0000 C   0  0  0  0  0  0  0  0  0  0  0  0
    1.2999    2.5416    0.0000 C   0  0  0  0  0  0  0  0  0  0  0  0
   -0.0477    1.8827    0.0000 C   0  0  0  0  0  0  0  0  0  0  0  0
   -0.1509    0.3863    0.0000 C   0  0  0  0  0  0  0  0  0  0  0  0
    1.0934   -0.4513    0.0000 C   0  0  0  0  0  0  0  0  0  0  0  0
    2.4410    0.2075    0.0000 C   0  0  0  0  0  0  0  0  0  0  0  0
   -5.3347    0.7440    0.0000 C   0  0  0  0  0  0  0  0  0  0  0  0
   -5.2315    2.2404    0.0000 O   0  0  0  0  0  0  0  0  0  0  0  0
   -6.6823    0.0852    0.0000 O   0  0  0  0  0  0  0  0  0  0  0  0
  2  1  1  1
  2  3  1  0
  3  4  1  0
  4  5  1  0
  5  6  2  0
  6  7  1  0
  7  8  2  0
  8  9  1  0
  9 10  2  0
 10 11  1  0
 11 12  2  0
 12 13  1  0
 13 14  2  0
 14 15  1  0
 15 16  2  0
 16 17  1  0
 17 18  1  0
 18 19  2  0
  2 20  1  0
 20 21  2  0
 20 22  1  0
 17  4  2  0
 18  7  1  0
 19 10  1  0
 19 14  1  0
M  END
>  <rName>  (1079) 
D-Ala_pyren1yl

>  <PQ_SYMBOL>  (1079) 
D-Ala_pyren1yl

>  <FULL_NAME>  (1079) 
(2R)-2-amino-3-pyren-1-ylpropanoic acid

>  <IUPAC_CONDENSED>  (1079) 
D-Ala(pyren-1-yl)

>  <IUPAC>  (1079) 
(2R)-2-amino-3-pyren-1-ylpropanoic acid

>  <TYPE>  (1079) 
Backbone

>  <CLASS>  (1079) 
alpha

>  <ANALOG>  (1079) 
Phe

>  <MOL_WT>  (1079) 
289.334

>  <LOGP>  (1079) 
3.538400000000002

>  <TPSA>  (1079) 
63.32000000000001

>  <POPULARITY>  (1079) 
3.5

>  <PROTECTED>  (1079) 
TRUE

>  <SMILES>  (1079) 
N[C@H](Cc1(ccc2(ccc3(cccc4(ccc1c2c34)))))C(=O)O

>  <INCHIKEY>  (1079) 
VTMOPDBUZPBOPL-MRXNPFEDSA-N

$$$$
D-Ala_pyrid2yl_5Me
     RDKit          2D

 13 13  0  0  0  0  0  0  0  0999 V2000
   -1.5766    1.6851    0.0000 N   0  0  0  0  0  0  0  0  0  0  0  0
   -2.0128    0.2500    0.0000 C   0  0  0  0  0  0  0  0  0  0  0  0
   -0.9880   -0.8454    0.0000 C   0  0  0  0  0  0  0  0  0  0  0  0
    0.4730   -0.5055    0.0000 C   0  0  0  0  0  0  0  0  0  0  0  0
    0.9092    0.9296    0.0000 C   0  0  0  0  0  0  0  0  0  0  0  0
    2.3702    1.2695    0.0000 C   0  0  0  0  0  0  0  0  0  0  0  0
    3.3950    0.1741    0.0000 C   0  0  0  0  0  0  0  0  0  0  0  0
    4.8560    0.5140    0.0000 C   0  0  0  0  0  0  0  0  0  0  0  0
    2.9588   -1.2611    0.0000 C   0  0  0  0  0  0  0  0  0  0  0  0
    1.4978   -1.6009    0.0000 N   0  0  0  0  0  0  0  0  0  0  0  0
   -3.4738   -0.0899    0.0000 C   0  0  0  0  0  0  0  0  0  0  0  0
   -3.9100   -1.5250    0.0000 O   0  0  0  0  0  0  0  0  0  0  0  0
   -4.4986    1.0055    0.0000 O   0  0  0  0  0  0  0  0  0  0  0  0
  2  1  1  6
  2  3  1  0
  3  4  1  0
  4  5  1  0
  5  6  2  0
  6  7  1  0
  7  8  1  0
  7  9  2  0
  9 10  1  0
  2 11  1  0
 11 12  2  0
 11 13  1  0
 10  4  2  0
M  END
>  <rName>  (1080) 
D-Ala_pyrid2yl_5Me

>  <PQ_SYMBOL>  (1080) 
D-Ala_pyrid2yl_5Me

>  <FULL_NAME>  (1080) 
(R)-2-amino-3-(5-methylpyridin-2-yl)propanoic acid

>  <IUPAC_CONDENSED>  (1080) 
D-Ala(pyrid-2-yl(5-Me))

>  <IUPAC>  (1080) 
(2R)-2-amino-3-(5-methylpyridin-2-yl)propanoic acid

>  <TYPE>  (1080) 
Backbone

>  <CLASS>  (1080) 
alpha

>  <ANALOG>  (1080) 
Phe

>  <MOL_WT>  (1080) 
180.20699999999997

>  <LOGP>  (1080) 
0.3444200000000001

>  <TPSA>  (1080) 
76.21

>  <POPULARITY>  (1080) 
3.4

>  <PROTECTED>  (1080) 
TRUE

>  <SMILES>  (1080) 
N[C@H](Cc1(ccc(C)cn1))C(=O)O

>  <INCHIKEY>  (1080) 
KGYQCBBDLIEYEA-MRVPVSSYSA-N

$$$$
D-Ala_pyrid3yl_6OMe
     RDKit          2D

 14 14  0  0  0  0  0  0  0  0999 V2000
   -2.0397    1.6757    0.0000 N   0  0  0  0  0  0  0  0  0  0  0  0
   -2.4395    0.2299    0.0000 C   0  0  0  0  0  0  0  0  0  0  0  0
   -1.3873   -0.8392    0.0000 C   0  0  0  0  0  0  0  0  0  0  0  0
    0.0646   -0.4625    0.0000 C   0  0  0  0  0  0  0  0  0  0  0  0
    0.4644    0.9832    0.0000 C   0  0  0  0  0  0  0  0  0  0  0  0
    1.9164    1.3598    0.0000 C   0  0  0  0  0  0  0  0  0  0  0  0
    2.9685    0.2907    0.0000 C   0  0  0  0  0  0  0  0  0  0  0  0
    4.4205    0.6674    0.0000 O   0  0  0  0  0  0  0  0  0  0  0  0
    5.4726   -0.4017    0.0000 C   0  0  0  0  0  0  0  0  0  0  0  0
    2.5687   -1.1550    0.0000 N   0  0  0  0  0  0  0  0  0  0  0  0
    1.1168   -1.5316    0.0000 C   0  0  0  0  0  0  0  0  0  0  0  0
   -3.8914   -0.1467    0.0000 C   0  0  0  0  0  0  0  0  0  0  0  0
   -4.2912   -1.5924    0.0000 O   0  0  0  0  0  0  0  0  0  0  0  0
   -4.9436    0.9224    0.0000 O   0  0  0  0  0  0  0  0  0  0  0  0
  2  1  1  6
  2  3  1  0
  3  4  1  0
  4  5  1  0
  5  6  2  0
  6  7  1  0
  7  8  1  0
  8  9  1  0
  7 10  2  0
 10 11  1  0
  2 12  1  0
 12 13  2  0
 12 14  1  0
 11  4  2  0
M  END
>  <rName>  (1081) 
D-Ala_pyrid3yl_6OMe

>  <PQ_SYMBOL>  (1081) 
D-Ala_pyrid3yl_6OMe

>  <FULL_NAME>  (1081) 
(2R)-2-Amino-3-(6-methoxypyridin-3-yl)propanoic acid

>  <IUPAC_CONDENSED>  (1081) 
D-Ala(pyrid-3-yl(6-OMe))

>  <IUPAC>  (1081) 
(2R)-2-amino-3-(6-methoxypyridin-3-yl)propanoic acid

>  <TYPE>  (1081) 
Backbone

>  <CLASS>  (1081) 
alpha

>  <ANALOG>  (1081) 
Phe

>  <MOL_WT>  (1081) 
196.20599999999996

>  <LOGP>  (1081) 
0.044599999999999695

>  <TPSA>  (1081) 
85.44000000000001

>  <POPULARITY>  (1081) 
3.6

>  <PROTECTED>  (1081) 
TRUE

>  <SMILES>  (1081) 
N[C@H](Cc1(ccc(OC)nc1))C(=O)O

>  <INCHIKEY>  (1081) 
VJKOXBUJHKCZEC-SSDOTTSWSA-N

$$$$
D-Ala_pyridazin3yl
     RDKit          2D

 12 12  0  0  0  0  0  0  0  0999 V2000
   -1.2391    1.6805    0.0000 N   0  0  0  0  0  0  0  0  0  0  0  0
   -1.6184    0.2292    0.0000 C   0  0  0  0  0  0  0  0  0  0  0  0
   -0.5513   -0.8249    0.0000 C   0  0  0  0  0  0  0  0  0  0  0  0
    0.8952   -0.4278    0.0000 C   0  0  0  0  0  0  0  0  0  0  0  0
    1.2745    1.0235    0.0000 C   0  0  0  0  0  0  0  0  0  0  0  0
    2.7210    1.4206    0.0000 C   0  0  0  0  0  0  0  0  0  0  0  0
    3.7882    0.3665    0.0000 C   0  0  0  0  0  0  0  0  0  0  0  0
    3.4088   -1.0848    0.0000 N   0  0  0  0  0  0  0  0  0  0  0  0
    1.9624   -1.4819    0.0000 N   0  0  0  0  0  0  0  0  0  0  0  0
   -3.0649   -0.1679    0.0000 C   0  0  0  0  0  0  0  0  0  0  0  0
   -3.4442   -1.6191    0.0000 O   0  0  0  0  0  0  0  0  0  0  0  0
   -4.1321    0.8862    0.0000 O   0  0  0  0  0  0  0  0  0  0  0  0
  2  1  1  6
  2  3  1  0
  3  4  1  0
  4  5  2  0
  5  6  1  0
  6  7  2  0
  7  8  1  0
  8  9  2  0
  2 10  1  0
 10 11  2  0
 10 12  1  0
  9  4  1  0
M  END
>  <rName>  (1082) 
D-Ala_pyridazin3yl

>  <PQ_SYMBOL>  (1082) 
D-Ala_pyridazin3yl

>  <FULL_NAME>  (1082) 
(R)-2-Amino-3-(pyridazin-3-yl)propanoic acid

>  <IUPAC_CONDENSED>  (1082) 
D-Ala(pyridazin-3-yl)

>  <IUPAC>  (1082) 
(2R)-2-amino-3-(pyridazin-3-yl)propanoic acid

>  <TYPE>  (1082) 
Backbone

>  <CLASS>  (1082) 
alpha

>  <ANALOG>  (1082) 
Phe

>  <MOL_WT>  (1082) 
167.16799999999998

>  <LOGP>  (1082) 
-0.569

>  <TPSA>  (1082) 
89.10000000000001

>  <POPULARITY>  (1082) 
3.4

>  <PROTECTED>  (1082) 
TRUE

>  <SMILES>  (1082) 
N[C@H](Cc1(cccnn1))C(=O)O

>  <INCHIKEY>  (1082) 
BGMINVIHGGTWEC-ZCFIWIBFSA-N

$$$$
D-Ala_pyrimid4yl
     RDKit          2D

 12 12  0  0  0  0  0  0  0  0999 V2000
   -1.2391    1.6805    0.0000 N   0  0  0  0  0  0  0  0  0  0  0  0
   -1.6184    0.2292    0.0000 C   0  0  0  0  0  0  0  0  0  0  0  0
   -0.5513   -0.8249    0.0000 C   0  0  0  0  0  0  0  0  0  0  0  0
    0.8952   -0.4278    0.0000 C   0  0  0  0  0  0  0  0  0  0  0  0
    1.2745    1.0235    0.0000 C   0  0  0  0  0  0  0  0  0  0  0  0
    2.7210    1.4206    0.0000 C   0  0  0  0  0  0  0  0  0  0  0  0
    3.7882    0.3665    0.0000 N   0  0  0  0  0  0  0  0  0  0  0  0
    3.4088   -1.0848    0.0000 C   0  0  0  0  0  0  0  0  0  0  0  0
    1.9624   -1.4819    0.0000 N   0  0  0  0  0  0  0  0  0  0  0  0
   -3.0649   -0.1679    0.0000 C   0  0  0  0  0  0  0  0  0  0  0  0
   -3.4442   -1.6191    0.0000 O   0  0  0  0  0  0  0  0  0  0  0  0
   -4.1321    0.8862    0.0000 O   0  0  0  0  0  0  0  0  0  0  0  0
  2  1  1  6
  2  3  1  0
  3  4  1  0
  4  5  1  0
  5  6  2  0
  6  7  1  0
  7  8  2  0
  8  9  1  0
  2 10  1  0
 10 11  2  0
 10 12  1  0
  9  4  2  0
M  END
>  <rName>  (1083) 
D-Ala_pyrimid4yl

>  <PQ_SYMBOL>  (1083) 
D-Ala_pyrimid4yl

>  <FULL_NAME>  (1083) 
(2R)-2-Amino-3-(pyrimidin-4-YL)propanoic acid

>  <IUPAC_CONDENSED>  (1083) 
D-Ala(pyrimid-4-yl)

>  <IUPAC>  (1083) 
(2R)-2-amino-3-(pyrimidin-4-yl)propanoic acid

>  <TYPE>  (1083) 
Backbone

>  <CLASS>  (1083) 
alpha

>  <ANALOG>  (1083) 
Phe

>  <MOL_WT>  (1083) 
167.16799999999998

>  <LOGP>  (1083) 
-0.569

>  <TPSA>  (1083) 
89.10000000000001

>  <POPULARITY>  (1083) 
3.5

>  <PROTECTED>  (1083) 
TRUE

>  <SMILES>  (1083) 
N[C@H](Cc1(ccncn1))C(=O)O

>  <INCHIKEY>  (1083) 
VPAWHCGYWCVBBF-ZCFIWIBFSA-N

$$$$
D-Ala_pyrimid5yl
     RDKit          2D

 12 12  0  0  0  0  0  0  0  0999 V2000
   -1.2391    1.6805    0.0000 N   0  0  0  0  0  0  0  0  0  0  0  0
   -1.6184    0.2292    0.0000 C   0  0  0  0  0  0  0  0  0  0  0  0
   -0.5513   -0.8249    0.0000 C   0  0  0  0  0  0  0  0  0  0  0  0
    0.8952   -0.4278    0.0000 C   0  0  0  0  0  0  0  0  0  0  0  0
    1.2745    1.0235    0.0000 C   0  0  0  0  0  0  0  0  0  0  0  0
    2.7210    1.4206    0.0000 N   0  0  0  0  0  0  0  0  0  0  0  0
    3.7882    0.3665    0.0000 C   0  0  0  0  0  0  0  0  0  0  0  0
    3.4088   -1.0848    0.0000 N   0  0  0  0  0  0  0  0  0  0  0  0
    1.9624   -1.4819    0.0000 C   0  0  0  0  0  0  0  0  0  0  0  0
   -3.0649   -0.1679    0.0000 C   0  0  0  0  0  0  0  0  0  0  0  0
   -3.4442   -1.6191    0.0000 O   0  0  0  0  0  0  0  0  0  0  0  0
   -4.1321    0.8862    0.0000 O   0  0  0  0  0  0  0  0  0  0  0  0
  2  1  1  6
  2  3  1  0
  3  4  1  0
  4  5  2  0
  5  6  1  0
  6  7  2  0
  7  8  1  0
  8  9  2  0
  2 10  1  0
 10 11  2  0
 10 12  1  0
  9  4  1  0
M  END
>  <rName>  (1084) 
D-Ala_pyrimid5yl

>  <PQ_SYMBOL>  (1084) 
D-Ala_pyrimid5yl

>  <FULL_NAME>  (1084) 
(2R)-2-amino-3-(pyrimidin-5-yl)propanoic acid

>  <IUPAC_CONDENSED>  (1084) 
D-Ala(pyrimid-5-yl)

>  <IUPAC>  (1084) 
(2R)-2-amino-3-pyrimidin-5-ylpropanoic acid

>  <TYPE>  (1084) 
Backbone

>  <CLASS>  (1084) 
alpha

>  <ANALOG>  (1084) 
Phe

>  <MOL_WT>  (1084) 
167.16799999999998

>  <LOGP>  (1084) 
-0.5690000000000004

>  <TPSA>  (1084) 
89.10000000000001

>  <POPULARITY>  (1084) 
2.2

>  <PROTECTED>  (1084) 
TRUE

>  <SMILES>  (1084) 
N[C@H](Cc1(cncnc1))C(=O)O

>  <INCHIKEY>  (1084) 
UFURPNJIXOBVRS-ZCFIWIBFSA-N

$$$$
D-Ala_pyrimid5yl_2OMe
     RDKit          2D

 14 14  0  0  0  0  0  0  0  0999 V2000
   -2.0397    1.6757    0.0000 N   0  0  0  0  0  0  0  0  0  0  0  0
   -2.4395    0.2299    0.0000 C   0  0  0  0  0  0  0  0  0  0  0  0
   -1.3873   -0.8392    0.0000 C   0  0  0  0  0  0  0  0  0  0  0  0
    0.0646   -0.4625    0.0000 C   0  0  0  0  0  0  0  0  0  0  0  0
    0.4644    0.9832    0.0000 C   0  0  0  0  0  0  0  0  0  0  0  0
    1.9164    1.3598    0.0000 N   0  0  0  0  0  0  0  0  0  0  0  0
    2.9685    0.2907    0.0000 C   0  0  0  0  0  0  0  0  0  0  0  0
    4.4205    0.6674    0.0000 O   0  0  0  0  0  0  0  0  0  0  0  0
    5.4726   -0.4017    0.0000 C   0  0  0  0  0  0  0  0  0  0  0  0
    2.5687   -1.1550    0.0000 N   0  0  0  0  0  0  0  0  0  0  0  0
    1.1168   -1.5316    0.0000 C   0  0  0  0  0  0  0  0  0  0  0  0
   -3.8914   -0.1467    0.0000 C   0  0  0  0  0  0  0  0  0  0  0  0
   -4.2912   -1.5924    0.0000 O   0  0  0  0  0  0  0  0  0  0  0  0
   -4.9436    0.9224    0.0000 O   0  0  0  0  0  0  0  0  0  0  0  0
  2  1  1  6
  2  3  1  0
  3  4  1  0
  4  5  1  0
  5  6  2  0
  6  7  1  0
  7  8  1  0
  8  9  1  0
  7 10  2  0
 10 11  1  0
  2 12  1  0
 12 13  2  0
 12 14  1  0
 11  4  2  0
M  END
>  <rName>  (1085) 
D-Ala_pyrimid5yl_2OMe

>  <PQ_SYMBOL>  (1085) 
D-Ala_pyrimid5yl_2OMe

>  <FULL_NAME>  (1085) 
D-Ala(pyrimid-5-yl(2-OMe))

>  <IUPAC_CONDENSED>  (1085) 
D-Ala(pyrimid-5-yl(2-OMe))

>  <IUPAC>  (1085) 
(2R)-2-amino-3-(2-methoxypyrimidin-5-yl)propanoic acid

>  <TYPE>  (1085) 
Backbone

>  <CLASS>  (1085) 
alpha

>  <ANALOG>  (1085) 
Phe

>  <MOL_WT>  (1085) 
197.194

>  <LOGP>  (1085) 
-0.5604

>  <TPSA>  (1085) 
98.33

>  <POPULARITY>  (1085) 
2.2

>  <PROTECTED>  (1085) 
TRUE

>  <SMILES>  (1085) 
N[C@H](Cc1(cnc(OC)nc1))C(=O)O

>  <INCHIKEY>  (1085) 
VEYAOPBCJJVULL-ZCFIWIBFSA-N

$$$$
D-Ala_quinolin2yl
     RDKit          2D

 16 17  0  0  0  0  0  0  0  0999 V2000
   -2.0722    1.6358    0.0000 N   0  0  0  0  0  0  0  0  0  0  0  0
   -2.7778    0.3121    0.0000 C   0  0  0  0  0  0  0  0  0  0  0  0
   -1.9842   -0.9608    0.0000 C   0  0  0  0  0  0  0  0  0  0  0  0
   -0.4851   -0.9100    0.0000 C   0  0  0  0  0  0  0  0  0  0  0  0
    0.3084   -2.1829    0.0000 C   0  0  0  0  0  0  0  0  0  0  0  0
    1.8076   -2.1322    0.0000 C   0  0  0  0  0  0  0  0  0  0  0  0
    2.5132   -0.8085    0.0000 C   0  0  0  0  0  0  0  0  0  0  0  0
    4.0123   -0.7577    0.0000 C   0  0  0  0  0  0  0  0  0  0  0  0
    4.7179    0.5659    0.0000 C   0  0  0  0  0  0  0  0  0  0  0  0
    3.9244    1.8388    0.0000 C   0  0  0  0  0  0  0  0  0  0  0  0
    2.4253    1.7881    0.0000 C   0  0  0  0  0  0  0  0  0  0  0  0
    1.7196    0.4644    0.0000 C   0  0  0  0  0  0  0  0  0  0  0  0
    0.2205    0.4136    0.0000 N   0  0  0  0  0  0  0  0  0  0  0  0
   -4.2769    0.2614    0.0000 C   0  0  0  0  0  0  0  0  0  0  0  0
   -4.9825   -1.0623    0.0000 O   0  0  0  0  0  0  0  0  0  0  0  0
   -5.0704    1.5343    0.0000 O   0  0  0  0  0  0  0  0  0  0  0  0
  2  1  1  6
  2  3  1  0
  3  4  1  0
  4  5  1  0
  5  6  2  0
  6  7  1  0
  7  8  2  0
  8  9  1  0
  9 10  2  0
 10 11  1  0
 11 12  2  0
 12 13  1  0
  2 14  1  0
 14 15  2  0
 14 16  1  0
 12  7  1  0
 13  4  2  0
M  END
>  <rName>  (1086) 
D-Ala_quinolin2yl

>  <PQ_SYMBOL>  (1086) 
D-Ala_quinolin2yl

>  <FULL_NAME>  (1086) 
(R)-2-(2-Quinolinylmethyl)glycine

>  <IUPAC_CONDENSED>  (1086) 
D-Ala(quinolin-2-yl)

>  <IUPAC>  (1086) 
(2R)-2-amino-3-(2-azabicyclo[4.4.0]deca-1,3,5,7,9-pentaen-3-yl)propanoic acid

>  <TYPE>  (1086) 
Backbone

>  <CLASS>  (1086) 
alpha

>  <ANALOG>  (1086) 
Phe

>  <MOL_WT>  (1086) 
216.23999999999998

>  <LOGP>  (1086) 
1.1892

>  <TPSA>  (1086) 
76.21

>  <POPULARITY>  (1086) 
7.4

>  <PROTECTED>  (1086) 
TRUE

>  <SMILES>  (1086) 
N[C@H](Cc2(ccc1(ccccc1n2)))C(=O)O

>  <INCHIKEY>  (1086) 
CRSSRGSNAKKNNI-SNVBAGLBSA-N

$$$$
D-Ala_quinolin3yl
     RDKit          2D

 16 17  0  0  0  0  0  0  0  0999 V2000
   -2.0722    1.6358    0.0000 N   0  0  0  0  0  0  0  0  0  0  0  0
   -2.7778    0.3121    0.0000 C   0  0  0  0  0  0  0  0  0  0  0  0
   -1.9842   -0.9608    0.0000 C   0  0  0  0  0  0  0  0  0  0  0  0
   -0.4851   -0.9100    0.0000 C   0  0  0  0  0  0  0  0  0  0  0  0
    0.3084   -2.1829    0.0000 C   0  0  0  0  0  0  0  0  0  0  0  0
    1.8076   -2.1322    0.0000 N   0  0  0  0  0  0  0  0  0  0  0  0
    2.5132   -0.8085    0.0000 C   0  0  0  0  0  0  0  0  0  0  0  0
    4.0123   -0.7577    0.0000 C   0  0  0  0  0  0  0  0  0  0  0  0
    4.7179    0.5659    0.0000 C   0  0  0  0  0  0  0  0  0  0  0  0
    3.9244    1.8388    0.0000 C   0  0  0  0  0  0  0  0  0  0  0  0
    2.4253    1.7881    0.0000 C   0  0  0  0  0  0  0  0  0  0  0  0
    1.7196    0.4644    0.0000 C   0  0  0  0  0  0  0  0  0  0  0  0
    0.2205    0.4136    0.0000 C   0  0  0  0  0  0  0  0  0  0  0  0
   -4.2769    0.2614    0.0000 C   0  0  0  0  0  0  0  0  0  0  0  0
   -4.9825   -1.0623    0.0000 O   0  0  0  0  0  0  0  0  0  0  0  0
   -5.0704    1.5343    0.0000 O   0  0  0  0  0  0  0  0  0  0  0  0
  2  1  1  6
  2  3  1  0
  3  4  1  0
  4  5  1  0
  5  6  2  0
  6  7  1  0
  7  8  2  0
  8  9  1  0
  9 10  2  0
 10 11  1  0
 11 12  2  0
 12 13  1  0
  2 14  1  0
 14 15  2  0
 14 16  1  0
 12  7  1  0
 13  4  2  0
M  END
>  <rName>  (1087) 
D-Ala_quinolin3yl

>  <PQ_SYMBOL>  (1087) 
D-Ala_quinolin3yl

>  <FULL_NAME>  (1087) 
3-(3-quinolyl)-D-Alanine

>  <IUPAC_CONDENSED>  (1087) 
D-Ala(quinolin-3-yl)

>  <IUPAC>  (1087) 
(2R)-2-amino-3-(2-azabicyclo[4.4.0]deca-1,3,5,7,9-pentaen-4-yl)propanoic acid

>  <TYPE>  (1087) 
Backbone

>  <CLASS>  (1087) 
alpha

>  <ANALOG>  (1087) 
Phe

>  <MOL_WT>  (1087) 
216.23999999999998

>  <LOGP>  (1087) 
1.1892000000000003

>  <TPSA>  (1087) 
76.21

>  <POPULARITY>  (1087) 
3.5

>  <PROTECTED>  (1087) 
TRUE

>  <SMILES>  (1087) 
N[C@H](Cc2(cnc1(ccccc1c2)))C(=O)O

>  <INCHIKEY>  (1087) 
KWWSORXERGAEGJ-SNVBAGLBSA-N

$$$$
D-Ala_quinolin4yl
     RDKit          2D

 16 17  0  0  0  0  0  0  0  0999 V2000
   -2.7457   -1.6512    0.0000 N   0  0  0  0  0  0  0  0  0  0  0  0
   -2.6203   -0.1565    0.0000 C   0  0  0  0  0  0  0  0  0  0  0  0
   -1.2631    0.4823    0.0000 C   0  0  0  0  0  0  0  0  0  0  0  0
   -0.0314   -0.3737    0.0000 C   0  0  0  0  0  0  0  0  0  0  0  0
   -0.1568   -1.8684    0.0000 C   0  0  0  0  0  0  0  0  0  0  0  0
    1.0750   -2.7244    0.0000 C   0  0  0  0  0  0  0  0  0  0  0  0
    2.4322   -2.0856    0.0000 N   0  0  0  0  0  0  0  0  0  0  0  0
    2.5576   -0.5909    0.0000 C   0  0  0  0  0  0  0  0  0  0  0  0
    3.9148    0.0479    0.0000 C   0  0  0  0  0  0  0  0  0  0  0  0
    4.0402    1.5426    0.0000 C   0  0  0  0  0  0  0  0  0  0  0  0
    2.8084    2.3986    0.0000 C   0  0  0  0  0  0  0  0  0  0  0  0
    1.4512    1.7598    0.0000 C   0  0  0  0  0  0  0  0  0  0  0  0
    1.3258    0.2651    0.0000 C   0  0  0  0  0  0  0  0  0  0  0  0
   -3.8521    0.6995    0.0000 C   0  0  0  0  0  0  0  0  0  0  0  0
   -3.7267    2.1942    0.0000 O   0  0  0  0  0  0  0  0  0  0  0  0
   -5.2093    0.0607    0.0000 O   0  0  0  0  0  0  0  0  0  0  0  0
  2  1  1  1
  2  3  1  0
  3  4  1  0
  4  5  2  0
  5  6  1  0
  6  7  2  0
  7  8  1  0
  8  9  2  0
  9 10  1  0
 10 11  2  0
 11 12  1  0
 12 13  2  0
  2 14  1  0
 14 15  2  0
 14 16  1  0
 13  4  1  0
 13  8  1  0
M  END
>  <rName>  (1088) 
D-Ala_quinolin4yl

>  <PQ_SYMBOL>  (1088) 
D-Ala_quinolin4yl

>  <FULL_NAME>  (1088) 
(2R)-2-Amino-3-quinolin-4-ylpropanoic acid

>  <IUPAC_CONDENSED>  (1088) 
D-Ala(quinolin-4-yl)

>  <IUPAC>  (1088) 
(2R)-2-amino-3-(quinolin-4-yl)propanoic acid

>  <TYPE>  (1088) 
Backbone

>  <CLASS>  (1088) 
alpha

>  <ANALOG>  (1088) 
Phe

>  <MOL_WT>  (1088) 
216.23999999999998

>  <LOGP>  (1088) 
1.1892

>  <TPSA>  (1088) 
76.21

>  <POPULARITY>  (1088) 
3.5

>  <PROTECTED>  (1088) 
TRUE

>  <SMILES>  (1088) 
N[C@H](Cc1(ccnc2(ccccc12)))C(=O)O

>  <INCHIKEY>  (1088) 
ZUYBRQWHZZVAHM-SNVBAGLBSA-N

$$$$
D-Ala_quinolin6yl
     RDKit          2D

 16 17  0  0  0  0  0  0  0  0999 V2000
   -2.0722    1.6358    0.0000 N   0  0  0  0  0  0  0  0  0  0  0  0
   -2.7778    0.3121    0.0000 C   0  0  0  0  0  0  0  0  0  0  0  0
   -1.9842   -0.9608    0.0000 C   0  0  0  0  0  0  0  0  0  0  0  0
   -0.4851   -0.9100    0.0000 C   0  0  0  0  0  0  0  0  0  0  0  0
    0.3084   -2.1829    0.0000 C   0  0  0  0  0  0  0  0  0  0  0  0
    1.8076   -2.1322    0.0000 C   0  0  0  0  0  0  0  0  0  0  0  0
    2.5132   -0.8085    0.0000 C   0  0  0  0  0  0  0  0  0  0  0  0
    4.0123   -0.7577    0.0000 N   0  0  0  0  0  0  0  0  0  0  0  0
    4.7179    0.5659    0.0000 C   0  0  0  0  0  0  0  0  0  0  0  0
    3.9244    1.8388    0.0000 C   0  0  0  0  0  0  0  0  0  0  0  0
    2.4253    1.7881    0.0000 C   0  0  0  0  0  0  0  0  0  0  0  0
    1.7196    0.4644    0.0000 C   0  0  0  0  0  0  0  0  0  0  0  0
    0.2205    0.4136    0.0000 C   0  0  0  0  0  0  0  0  0  0  0  0
   -4.2769    0.2614    0.0000 C   0  0  0  0  0  0  0  0  0  0  0  0
   -4.9825   -1.0623    0.0000 O   0  0  0  0  0  0  0  0  0  0  0  0
   -5.0704    1.5343    0.0000 O   0  0  0  0  0  0  0  0  0  0  0  0
  2  1  1  6
  2  3  1  0
  3  4  1  0
  4  5  1  0
  5  6  2  0
  6  7  1  0
  7  8  2  0
  8  9  1  0
  9 10  2  0
 10 11  1  0
 11 12  2  0
 12 13  1  0
  2 14  1  0
 14 15  2  0
 14 16  1  0
 12  7  1  0
 13  4  2  0
M  END
>  <rName>  (1089) 
D-Ala_quinolin6yl

>  <PQ_SYMBOL>  (1089) 
D-Ala_quinolin6yl

>  <FULL_NAME>  (1089) 
(2R)-2-amino-3-(quinolin-6-yl)propanoic acid

>  <IUPAC_CONDENSED>  (1089) 
D-Ala(quinolin-6-yl)

>  <IUPAC>  (1089) 
(2R)-2-amino-3-(quinolin-6-yl)propanoic acid

>  <TYPE>  (1089) 
Backbone

>  <CLASS>  (1089) 
alpha

>  <ANALOG>  (1089) 
Phe

>  <MOL_WT>  (1089) 
216.23999999999998

>  <LOGP>  (1089) 
1.1892

>  <TPSA>  (1089) 
76.21

>  <POPULARITY>  (1089) 
4.4

>  <PROTECTED>  (1089) 
TRUE

>  <SMILES>  (1089) 
N[C@H](Cc2(ccc1(ncccc1c2)))C(=O)O

>  <INCHIKEY>  (1089) 
GVUXWMQJDJQMLK-SNVBAGLBSA-N

$$$$
D-Ala_quinolin6yl_2Me
     RDKit          2D

 17 18  0  0  0  0  0  0  0  0999 V2000
   -3.0886    1.6988    0.0000 N   0  0  0  0  0  0  0  0  0  0  0  0
   -3.3834    0.2280    0.0000 C   0  0  0  0  0  0  0  0  0  0  0  0
   -2.2570   -0.7626    0.0000 C   0  0  0  0  0  0  0  0  0  0  0  0
   -0.8359   -0.2824    0.0000 C   0  0  0  0  0  0  0  0  0  0  0  0
   -0.5412    1.1883    0.0000 C   0  0  0  0  0  0  0  0  0  0  0  0
    0.8799    1.6685    0.0000 C   0  0  0  0  0  0  0  0  0  0  0  0
    2.0062    0.6778    0.0000 C   0  0  0  0  0  0  0  0  0  0  0  0
    3.4273    1.1580    0.0000 N   0  0  0  0  0  0  0  0  0  0  0  0
    4.5537    0.1674    0.0000 C   0  0  0  0  0  0  0  0  0  0  0  0
    5.9747    0.6475    0.0000 C   0  0  0  0  0  0  0  0  0  0  0  0
    4.2589   -1.3034    0.0000 C   0  0  0  0  0  0  0  0  0  0  0  0
    2.8379   -1.7835    0.0000 C   0  0  0  0  0  0  0  0  0  0  0  0
    1.7115   -0.7929    0.0000 C   0  0  0  0  0  0  0  0  0  0  0  0
    0.2904   -1.2731    0.0000 C   0  0  0  0  0  0  0  0  0  0  0  0
   -4.8044   -0.2521    0.0000 C   0  0  0  0  0  0  0  0  0  0  0  0
   -5.0992   -1.7229    0.0000 O   0  0  0  0  0  0  0  0  0  0  0  0
   -5.9308    0.7385    0.0000 O   0  0  0  0  0  0  0  0  0  0  0  0
  2  1  1  6
  2  3  1  0
  3  4  1  0
  4  5  1  0
  5  6  2  0
  6  7  1  0
  7  8  2  0
  8  9  1  0
  9 10  1  0
  9 11  2  0
 11 12  1  0
 12 13  2  0
 13 14  1  0
  2 15  1  0
 15 16  2  0
 15 17  1  0
 13  7  1  0
 14  4  2  0
M  END
>  <rName>  (1090) 
D-Ala_quinolin6yl_2Me

>  <PQ_SYMBOL>  (1090) 
D-Ala_quinolin6yl_2Me

>  <FULL_NAME>  (1090) 
(2R)-2-amino-3-(2-methylquinolin-6-yl)propanoic acid

>  <IUPAC_CONDENSED>  (1090) 
D-Ala(quinolin-6-yl(2-Me))

>  <IUPAC>  (1090) 
(2R)-2-amino-3-(2-methylquinolin-6-yl)propanoic acid

>  <TYPE>  (1090) 
Backbone

>  <CLASS>  (1090) 
alpha

>  <ANALOG>  (1090) 
Phe

>  <MOL_WT>  (1090) 
230.267

>  <LOGP>  (1090) 
1.4976200000000002

>  <TPSA>  (1090) 
76.21

>  <POPULARITY>  (1090) 
4.3

>  <PROTECTED>  (1090) 
TRUE

>  <SMILES>  (1090) 
N[C@H](Cc2(ccc1(nc(C)ccc1c2)))C(=O)O

>  <INCHIKEY>  (1090) 
VTHJEFJVDSNDCV-LLVKDONJSA-N

$$$$
D-Ala_quinolin8yl_5Br
     RDKit          2D

 17 18  0  0  0  0  0  0  0  0999 V2000
   -2.7953   -1.7721    0.0000 N   0  0  0  0  0  0  0  0  0  0  0  0
   -2.8228   -0.2723    0.0000 C   0  0  0  0  0  0  0  0  0  0  0  0
   -1.5377    0.5013    0.0000 C   0  0  0  0  0  0  0  0  0  0  0  0
   -0.2252   -0.2248    0.0000 C   0  0  0  0  0  0  0  0  0  0  0  0
   -0.1977   -1.7245    0.0000 C   0  0  0  0  0  0  0  0  0  0  0  0
    1.1149   -2.4506    0.0000 C   0  0  0  0  0  0  0  0  0  0  0  0
    2.4000   -1.6769    0.0000 C   0  0  0  0  0  0  0  0  0  0  0  0
    3.7125   -2.4030    0.0000 Br  0  0  0  0  0  0  0  0  0  0  0  0
    2.3725   -0.1772    0.0000 C   0  0  0  0  0  0  0  0  0  0  0  0
    3.6576    0.5965    0.0000 C   0  0  0  0  0  0  0  0  0  0  0  0
    3.6301    2.0963    0.0000 C   0  0  0  0  0  0  0  0  0  0  0  0
    2.3175    2.8223    0.0000 C   0  0  0  0  0  0  0  0  0  0  0  0
    1.0324    2.0487    0.0000 N   0  0  0  0  0  0  0  0  0  0  0  0
    1.0599    0.5489    0.0000 C   0  0  0  0  0  0  0  0  0  0  0  0
   -4.1354    0.4537    0.0000 C   0  0  0  0  0  0  0  0  0  0  0  0
   -4.1628    1.9535    0.0000 O   0  0  0  0  0  0  0  0  0  0  0  0
   -5.4204   -0.3199    0.0000 O   0  0  0  0  0  0  0  0  0  0  0  0
  2  1  1  1
  2  3  1  0
  3  4  1  0
  4  5  2  0
  5  6  1  0
  6  7  2  0
  7  8  1  0
  7  9  1  0
  9 10  2  0
 10 11  1  0
 11 12  2  0
 12 13  1  0
 13 14  2  0
  2 15  1  0
 15 16  2  0
 15 17  1  0
 14  4  1  0
 14  9  1  0
M  END
>  <rName>  (1091) 
D-Ala_quinolin8yl_5Br

>  <PQ_SYMBOL>  (1091) 
D-Ala_quinolin8yl_5Br

>  <FULL_NAME>  (1091) 
(2R)-2-amino-3-(5-bromoquinolin-8-yl)propanoic acid

>  <IUPAC_CONDENSED>  (1091) 
D-Ala(quinolin-8-yl(5-Br))

>  <IUPAC>  (1091) 
(2R)-2-amino-3-(7-bromo-2-azabicyclo[4.4.0]deca-1,3,5,7,9-pentaen-10-yl)propanoic acid

>  <TYPE>  (1091) 
Backbone

>  <CLASS>  (1091) 
alpha

>  <ANALOG>  (1091) 
Phe

>  <MOL_WT>  (1091) 
295.136

>  <LOGP>  (1091) 
1.9517000000000002

>  <TPSA>  (1091) 
76.21

>  <POPULARITY>  (1091) 
2.8

>  <PROTECTED>  (1091) 
TRUE

>  <SMILES>  (1091) 
N[C@H](Cc1(ccc(Br)c2(cccnc12)))C(=O)O

>  <INCHIKEY>  (1091) 
ZMHJWHUUQABWFX-SNVBAGLBSA-N

$$$$
D-Ala_tBu
     RDKit          2D

 10  9  0  0  0  0  0  0  0  0999 V2000
    0.5029   -1.7542    0.0000 N   0  0  0  0  0  0  0  0  0  0  0  0
    0.7450   -0.2738    0.0000 C   0  0  0  0  0  0  0  0  0  0  0  0
   -0.4160    0.6760    0.0000 C   0  0  0  0  0  0  0  0  0  0  0  0
   -1.8190    0.1455    0.0000 C   0  0  0  0  0  0  0  0  0  0  0  0
   -2.3495    1.5485    0.0000 C   0  0  0  0  0  0  0  0  0  0  0  0
   -1.2885   -1.2576    0.0000 C   0  0  0  0  0  0  0  0  0  0  0  0
   -3.2221   -0.3850    0.0000 C   0  0  0  0  0  0  0  0  0  0  0  0
    2.1480    0.2567    0.0000 C   0  0  0  0  0  0  0  0  0  0  0  0
    2.3901    1.7370    0.0000 O   0  0  0  0  0  0  0  0  0  0  0  0
    3.3090   -0.6932    0.0000 O   0  0  0  0  0  0  0  0  0  0  0  0
  2  1  1  6
  2  3  1  0
  3  4  1  0
  4  5  1  0
  4  6  1  0
  4  7  1  0
  2  8  1  0
  8  9  2  0
  8 10  1  0
M  END
>  <rName>  (1092) 
D-Ala_tBu

>  <PQ_SYMBOL>  (1092) 
D-Ala_tBu

>  <FULL_NAME>  (1092) 
(R)-2-Amino-4,4-dimethylpentanoic acid

>  <IUPAC_CONDENSED>  (1092) 
D-Ala(tBu)

>  <IUPAC>  (1092) 
(2R)-2-amino-4,4-dimethylpentanoic acid

>  <TYPE>  (1092) 
Backbone

>  <CLASS>  (1092) 
alpha

>  <ANALOG>  (1092) 
Leu

>  <MOL_WT>  (1092) 
145.202

>  <LOGP>  (1092) 
0.8344999999999998

>  <TPSA>  (1092) 
63.32000000000001

>  <POPULARITY>  (1092) 
17.3

>  <PROTECTED>  (1092) 
TRUE

>  <SMILES>  (1092) 
N[C@H](CC(C)(C)C)C(=O)O

>  <INCHIKEY>  (1092) 
LPBSHGLDBQBSPI-RXMQYKEDSA-N

$$$$
D-Ala_tetrahydropyran4yl
     RDKit          2D

 12 12  0  0  0  0  0  0  0  0999 V2000
   -1.2391    1.6805    0.0000 N   0  0  0  0  0  0  0  0  0  0  0  0
   -1.6184    0.2292    0.0000 C   0  0  0  0  0  0  0  0  0  0  0  0
   -0.5513   -0.8249    0.0000 C   0  0  0  0  0  0  0  0  0  0  0  0
    0.8952   -0.4278    0.0000 C   0  0  0  0  0  0  0  0  0  0  0  0
    1.2745    1.0235    0.0000 C   0  0  0  0  0  0  0  0  0  0  0  0
    2.7210    1.4206    0.0000 C   0  0  0  0  0  0  0  0  0  0  0  0
    3.7882    0.3665    0.0000 O   0  0  0  0  0  0  0  0  0  0  0  0
    3.4088   -1.0848    0.0000 C   0  0  0  0  0  0  0  0  0  0  0  0
    1.9624   -1.4819    0.0000 C   0  0  0  0  0  0  0  0  0  0  0  0
   -3.0649   -0.1679    0.0000 C   0  0  0  0  0  0  0  0  0  0  0  0
   -3.4442   -1.6191    0.0000 O   0  0  0  0  0  0  0  0  0  0  0  0
   -4.1321    0.8862    0.0000 O   0  0  0  0  0  0  0  0  0  0  0  0
  2  1  1  6
  2  3  1  0
  3  4  1  0
  4  5  1  0
  5  6  1  0
  6  7  1  0
  7  8  1  0
  8  9  1  0
  2 10  1  0
 10 11  2  0
 10 12  1  0
  9  4  1  0
M  END
>  <rName>  (1093) 
D-Ala_tetrahydropyran4yl

>  <PQ_SYMBOL>  (1093) 
D-Ala_tetrahydropyran4yl

>  <FULL_NAME>  (1093) 
(2R)-2-amino-3-(oxan-4-yl)propanoic acid

>  <IUPAC_CONDENSED>  (1093) 
D-Ala(tetrahydropyran-4-yl)

>  <IUPAC>  (1093) 
(2R)-2-amino-3-(oxan-4-yl)propanoic acid

>  <TYPE>  (1093) 
Backbone

>  <CLASS>  (1093) 
alpha

>  <ANALOG>  (1093) 
X

>  <MOL_WT>  (1093) 
173.212

>  <LOGP>  (1093) 
0.2149999999999998

>  <TPSA>  (1093) 
72.55

>  <POPULARITY>  (1093) 
5.4

>  <PROTECTED>  (1093) 
TRUE

>  <SMILES>  (1093) 
N[C@H](CC1(CCOCC1))C(=O)O

>  <INCHIKEY>  (1093) 
JSHHRIISICNOLM-SSDOTTSWSA-N

$$$$
D-Ala_tetrazol5yl
     RDKit          2D

 11 11  0  0  0  0  0  0  0  0999 V2000
   -0.9461    1.6947    0.0000 N   0  0  0  0  0  0  0  0  0  0  0  0
   -1.3100    0.2395    0.0000 C   0  0  0  0  0  0  0  0  0  0  0  0
   -0.2317   -0.8032    0.0000 C   0  0  0  0  0  0  0  0  0  0  0  0
    1.2105   -0.3908    0.0000 C   0  0  0  0  0  0  0  0  0  0  0  0
    2.3919   -1.3151    0.0000 N   0  0  0  0  0  0  0  0  0  0  0  0
    3.6360   -0.4772    0.0000 N   0  0  0  0  0  0  0  0  0  0  0  0
    3.2236    0.9650    0.0000 N   0  0  0  0  0  0  0  0  0  0  0  0
    1.7245    1.0184    0.0000 N   0  0  0  0  0  0  0  0  0  0  0  0
   -2.7522   -0.1729    0.0000 C   0  0  0  0  0  0  0  0  0  0  0  0
   -3.1161   -1.6281    0.0000 O   0  0  0  0  0  0  0  0  0  0  0  0
   -3.8304    0.8698    0.0000 O   0  0  0  0  0  0  0  0  0  0  0  0
  2  1  1  6
  2  3  1  0
  3  4  1  0
  4  5  1  0
  5  6  2  0
  6  7  1  0
  7  8  1  0
  2  9  1  0
  9 10  2  0
  9 11  1  0
  8  4  2  0
M  END
>  <rName>  (1094) 
D-Ala_tetrazol5yl

>  <PQ_SYMBOL>  (1094) 
D-Ala_tetrazol5yl

>  <FULL_NAME>  (1094) 
(R)-alpha-Amino-1H-tetrazole-5-propanoic Acid

>  <IUPAC_CONDENSED>  (1094) 
D-Ala(tetrazol-5-yl)

>  <IUPAC>  (1094) 
(2R)-2-amino-3-(2H-tetrazol-5-yl)propanoic acid

>  <TYPE>  (1094) 
Backbone

>  <CLASS>  (1094) 
alpha

>  <ANALOG>  (1094) 
Phe

>  <MOL_WT>  (1094) 
157.133

>  <LOGP>  (1094) 
-1.8459000000000003

>  <TPSA>  (1094) 
117.78000000000002

>  <POPULARITY>  (1094) 
2.4

>  <PROTECTED>  (1094) 
TRUE

>  <SMILES>  (1094) 
N[C@H](Cc1(nn[nH]n1))C(=O)O

>  <INCHIKEY>  (1094) 
UHDMAEPGMOIEHH-UWTATZPHSA-N

$$$$
D-Ala_thiazol5yl
     RDKit          2D

 11 11  0  0  0  0  0  0  0  0999 V2000
   -0.9461    1.6947    0.0000 N   0  0  0  0  0  0  0  0  0  0  0  0
   -1.3100    0.2395    0.0000 C   0  0  0  0  0  0  0  0  0  0  0  0
   -0.2317   -0.8032    0.0000 C   0  0  0  0  0  0  0  0  0  0  0  0
    1.2105   -0.3908    0.0000 C   0  0  0  0  0  0  0  0  0  0  0  0
    2.3919   -1.3151    0.0000 C   0  0  0  0  0  0  0  0  0  0  0  0
    3.6360   -0.4772    0.0000 N   0  0  0  0  0  0  0  0  0  0  0  0
    3.2236    0.9650    0.0000 C   0  0  0  0  0  0  0  0  0  0  0  0
    1.7245    1.0184    0.0000 S   0  0  0  0  0  0  0  0  0  0  0  0
   -2.7522   -0.1729    0.0000 C   0  0  0  0  0  0  0  0  0  0  0  0
   -3.1161   -1.6281    0.0000 O   0  0  0  0  0  0  0  0  0  0  0  0
   -3.8304    0.8698    0.0000 O   0  0  0  0  0  0  0  0  0  0  0  0
  2  1  1  6
  2  3  1  0
  3  4  1  0
  4  5  2  0
  5  6  1  0
  6  7  2  0
  7  8  1  0
  2  9  1  0
  9 10  2  0
  9 11  1  0
  8  4  1  0
M  END
>  <rName>  (1095) 
D-Ala_thiazol5yl

>  <PQ_SYMBOL>  (1095) 
D-Ala_thiazol5yl

>  <FULL_NAME>  (1095) 
3-(1,3-Thiazol-5-yl)-D-alanine

>  <IUPAC_CONDENSED>  (1095) 
D-Ala(thiazol-5-yl)

>  <IUPAC>  (1095) 
(2R)-2-amino-3-(thiazol-5-yl)propanoic acid

>  <TYPE>  (1095) 
Backbone

>  <CLASS>  (1095) 
alpha

>  <ANALOG>  (1095) 
Phe

>  <MOL_WT>  (1095) 
172.20899999999997

>  <LOGP>  (1095) 
0.09749999999999986

>  <TPSA>  (1095) 
76.21

>  <POPULARITY>  (1095) 
3.2

>  <PROTECTED>  (1095) 
TRUE

>  <SMILES>  (1095) 
N[C@H](Cc1(cncs1))C(=O)O

>  <INCHIKEY>  (1095) 
XEGDVXZYFYKJJR-RXMQYKEDSA-N

$$$$
D-Ala_thien2yl_3Br
     RDKit          2D

 12 12  0  0  0  0  0  0  0  0999 V2000
   -0.9675    1.5404    0.0000 N   0  0  0  0  0  0  0  0  0  0  0  0
   -1.3813    0.0986    0.0000 C   0  0  0  0  0  0  0  0  0  0  0  0
   -0.3395   -0.9807    0.0000 C   0  0  0  0  0  0  0  0  0  0  0  0
    1.1160   -0.6181    0.0000 C   0  0  0  0  0  0  0  0  0  0  0  0
    2.2649   -1.5825    0.0000 S   0  0  0  0  0  0  0  0  0  0  0  0
    3.5371   -0.7879    0.0000 C   0  0  0  0  0  0  0  0  0  0  0  0
    3.1745    0.6676    0.0000 C   0  0  0  0  0  0  0  0  0  0  0  0
    1.6782    0.7725    0.0000 C   0  0  0  0  0  0  0  0  0  0  0  0
    0.8836    2.0448    0.0000 Br  0  0  0  0  0  0  0  0  0  0  0  0
   -2.8368   -0.2640    0.0000 C   0  0  0  0  0  0  0  0  0  0  0  0
   -3.2506   -1.7058    0.0000 O   0  0  0  0  0  0  0  0  0  0  0  0
   -3.8786    0.8152    0.0000 O   0  0  0  0  0  0  0  0  0  0  0  0
  2  1  1  6
  2  3  1  0
  3  4  1  0
  4  5  1  0
  5  6  1  0
  6  7  2  0
  7  8  1  0
  8  9  1  0
  2 10  1  0
 10 11  2  0
 10 12  1  0
  8  4  2  0
M  END
>  <rName>  (1096) 
D-Ala_thien2yl_3Br

>  <PQ_SYMBOL>  (1096) 
D-Ala_thien2yl_3Br

>  <FULL_NAME>  (1096) 
(2R)-2-amino-3-(3-bromothiophen-2-yl)propanoic acid

>  <IUPAC_CONDENSED>  (1096) 
D-Ala(thien-2-yl(3-Br))

>  <IUPAC>  (1096) 
(2R)-2-amino-3-(3-bromothiophen-2-yl)propanoic acid

>  <TYPE>  (1096) 
Backbone

>  <CLASS>  (1096) 
alpha

>  <ANALOG>  (1096) 
Phe

>  <MOL_WT>  (1096) 
250.11699999999996

>  <LOGP>  (1096) 
1.465

>  <TPSA>  (1096) 
63.32000000000001

>  <POPULARITY>  (1096) 
2.2

>  <PROTECTED>  (1096) 
TRUE

>  <SMILES>  (1096) 
N[C@H](Cc1(sccc1Br))C(=O)O

>  <INCHIKEY>  (1096) 
LROMXNHLKPFYBJ-RXMQYKEDSA-N

$$$$
D-Ala_thien2yl_3Cl
     RDKit          2D

 12 12  0  0  0  0  0  0  0  0999 V2000
   -0.9675    1.5404    0.0000 N   0  0  0  0  0  0  0  0  0  0  0  0
   -1.3813    0.0986    0.0000 C   0  0  0  0  0  0  0  0  0  0  0  0
   -0.3395   -0.9807    0.0000 C   0  0  0  0  0  0  0  0  0  0  0  0
    1.1160   -0.6181    0.0000 C   0  0  0  0  0  0  0  0  0  0  0  0
    2.2649   -1.5825    0.0000 S   0  0  0  0  0  0  0  0  0  0  0  0
    3.5371   -0.7879    0.0000 C   0  0  0  0  0  0  0  0  0  0  0  0
    3.1745    0.6676    0.0000 C   0  0  0  0  0  0  0  0  0  0  0  0
    1.6782    0.7725    0.0000 C   0  0  0  0  0  0  0  0  0  0  0  0
    0.8836    2.0448    0.0000 Cl  0  0  0  0  0  0  0  0  0  0  0  0
   -2.8368   -0.2640    0.0000 C   0  0  0  0  0  0  0  0  0  0  0  0
   -3.2506   -1.7058    0.0000 O   0  0  0  0  0  0  0  0  0  0  0  0
   -3.8786    0.8152    0.0000 O   0  0  0  0  0  0  0  0  0  0  0  0
  2  1  1  6
  2  3  1  0
  3  4  1  0
  4  5  1  0
  5  6  1  0
  6  7  2  0
  7  8  1  0
  8  9  1  0
  2 10  1  0
 10 11  2  0
 10 12  1  0
  8  4  2  0
M  END
>  <rName>  (1097) 
D-Ala_thien2yl_3Cl

>  <PQ_SYMBOL>  (1097) 
D-Ala_thien2yl_3Cl

>  <FULL_NAME>  (1097) 
(2R)-2-amino-3-(3-chlorothiophen-2-yl)propanoic acid

>  <IUPAC_CONDENSED>  (1097) 
D-Ala(thien-2-yl(3-Cl))

>  <IUPAC>  (1097) 
(2R)-2-amino-3-(3-chlorothiophen-2-yl)propanoic acid

>  <TYPE>  (1097) 
Backbone

>  <CLASS>  (1097) 
alpha

>  <ANALOG>  (1097) 
Phe

>  <MOL_WT>  (1097) 
205.66599999999997

>  <LOGP>  (1097) 
1.3559

>  <TPSA>  (1097) 
63.32000000000001

>  <POPULARITY>  (1097) 
2.2

>  <PROTECTED>  (1097) 
TRUE

>  <SMILES>  (1097) 
N[C@H](Cc1(sccc1Cl))C(=O)O

>  <INCHIKEY>  (1097) 
XQEDKUDVLNCBIW-RXMQYKEDSA-N

$$$$
D-Ala_thien2yl_5Br
     RDKit          2D

 12 12  0  0  0  0  0  0  0  0999 V2000
   -1.1070    1.6556    0.0000 N   0  0  0  0  0  0  0  0  0  0  0  0
   -1.6374    0.2525    0.0000 C   0  0  0  0  0  0  0  0  0  0  0  0
   -0.6875   -0.9084    0.0000 C   0  0  0  0  0  0  0  0  0  0  0  0
    0.7928   -0.6662    0.0000 C   0  0  0  0  0  0  0  0  0  0  0  0
    1.8589   -1.7215    0.0000 C   0  0  0  0  0  0  0  0  0  0  0  0
    3.1919   -1.0337    0.0000 C   0  0  0  0  0  0  0  0  0  0  0  0
    2.9497    0.4466    0.0000 C   0  0  0  0  0  0  0  0  0  0  0  0
    4.0050    1.5127    0.0000 Br  0  0  0  0  0  0  0  0  0  0  0  0
    1.4670    0.6737    0.0000 S   0  0  0  0  0  0  0  0  0  0  0  0
   -3.1177    0.0103    0.0000 C   0  0  0  0  0  0  0  0  0  0  0  0
   -3.6481   -1.3928    0.0000 O   0  0  0  0  0  0  0  0  0  0  0  0
   -4.0676    1.1712    0.0000 O   0  0  0  0  0  0  0  0  0  0  0  0
  2  1  1  6
  2  3  1  0
  3  4  1  0
  4  5  2  0
  5  6  1  0
  6  7  2  0
  7  8  1  0
  7  9  1  0
  2 10  1  0
 10 11  2  0
 10 12  1  0
  9  4  1  0
M  END
>  <rName>  (1098) 
D-Ala_thien2yl_5Br

>  <PQ_SYMBOL>  (1098) 
D-Ala_thien2yl_5Br

>  <FULL_NAME>  (1098) 
(R)-2-amino-3-(5-bromothiophen-2-yl)propanoic acid

>  <IUPAC_CONDENSED>  (1098) 
D-Ala(thien-2-yl(5-Br))

>  <IUPAC>  (1098) 
(2R)-2-amino-3-(5-bromothiophen-2-yl)propanoic acid

>  <TYPE>  (1098) 
Backbone

>  <CLASS>  (1098) 
alpha

>  <ANALOG>  (1098) 
Phe

>  <MOL_WT>  (1098) 
250.11699999999996

>  <LOGP>  (1098) 
1.465

>  <TPSA>  (1098) 
63.32000000000001

>  <POPULARITY>  (1098) 
6.0

>  <PROTECTED>  (1098) 
TRUE

>  <SMILES>  (1098) 
N[C@H](Cc1(ccc(Br)s1))C(=O)O

>  <INCHIKEY>  (1098) 
LKORPMMOJAJYLC-RXMQYKEDSA-N

$$$$
D-Asn_Me
     RDKit          2D

 10  9  0  0  0  0  0  0  0  0999 V2000
    0.8391   -1.7602    0.0000 N   0  0  0  0  0  0  0  0  0  0  0  0
    1.0145   -0.2705    0.0000 C   0  0  0  0  0  0  0  0  0  0  0  0
   -0.1878    0.6263    0.0000 C   0  0  0  0  0  0  0  0  0  0  0  0
   -1.5657    0.0334    0.0000 C   0  0  0  0  0  0  0  0  0  0  0  0
   -1.7412   -1.4563    0.0000 O   0  0  0  0  0  0  0  0  0  0  0  0
   -2.7681    0.9302    0.0000 N   0  0  0  0  0  0  0  0  0  0  0  0
   -4.1459    0.3373    0.0000 C   0  0  0  0  0  0  0  0  0  0  0  0
    2.3924    0.3223    0.0000 C   0  0  0  0  0  0  0  0  0  0  0  0
    2.5679    1.8120    0.0000 O   0  0  0  0  0  0  0  0  0  0  0  0
    3.5948   -0.5745    0.0000 O   0  0  0  0  0  0  0  0  0  0  0  0
  2  1  1  6
  2  3  1  0
  3  4  1  0
  4  5  2  0
  4  6  1  0
  6  7  1  0
  2  8  1  0
  8  9  2  0
  8 10  1  0
M  END
>  <rName>  (1099) 
D-Asn_Me

>  <PQ_SYMBOL>  (1099) 
D-Asn_Me

>  <FULL_NAME>  (1099) 
N4-Methyl-D-Asparagine

>  <IUPAC_CONDENSED>  (1099) 
D-Asn(Me)

>  <IUPAC>  (1099) 
(2R)-2-amino-3-(methylcarbamoyl)propanoic acid

>  <TYPE>  (1099) 
Backbone

>  <CLASS>  (1099) 
alpha

>  <ANALOG>  (1099) 
Asn

>  <MOL_WT>  (1099) 
146.146

>  <LOGP>  (1099) 
-1.4655999999999998

>  <TPSA>  (1099) 
92.42

>  <POPULARITY>  (1099) 
12.9

>  <PROTECTED>  (1099) 
TRUE

>  <SMILES>  (1099) 
N[C@H](CC(=O)NC)C(=O)O

>  <INCHIKEY>  (1099) 
CFRMVEKWKKDNAH-GSVOUGTGSA-N

$$$$
D-Asn_Me2
     RDKit          2D

 11 10  0  0  0  0  0  0  0  0999 V2000
    1.2990    1.8409    0.0000 N   0  0  0  0  0  0  0  0  0  0  0  0
    1.2990    0.3409    0.0000 C   0  0  0  0  0  0  0  0  0  0  0  0
   -0.0000   -0.4091    0.0000 C   0  0  0  0  0  0  0  0  0  0  0  0
   -1.2990    0.3409    0.0000 C   0  0  0  0  0  0  0  0  0  0  0  0
   -1.2990    1.8409    0.0000 O   0  0  0  0  0  0  0  0  0  0  0  0
   -2.5981   -0.4091    0.0000 N   0  0  0  0  0  0  0  0  0  0  0  0
   -3.8971    0.3409    0.0000 C   0  0  0  0  0  0  0  0  0  0  0  0
   -2.5981   -1.9091    0.0000 C   0  0  0  0  0  0  0  0  0  0  0  0
    2.5981   -0.4091    0.0000 C   0  0  0  0  0  0  0  0  0  0  0  0
    2.5981   -1.9091    0.0000 O   0  0  0  0  0  0  0  0  0  0  0  0
    3.8971    0.3409    0.0000 O   0  0  0  0  0  0  0  0  0  0  0  0
  2  1  1  1
  2  3  1  0
  3  4  1  0
  4  5  2  0
  4  6  1  0
  6  7  1  0
  6  8  1  0
  2  9  1  0
  9 10  2  0
  9 11  1  0
M  END
>  <rName>  (1100) 
D-Asn_Me2

>  <PQ_SYMBOL>  (1100) 
D-Asn_Me2

>  <FULL_NAME>  (1100) 
N4,N4-dimethyl-D-asparagine

>  <IUPAC_CONDENSED>  (1100) 
D-Asn(Me2)

>  <IUPAC>  (1100) 
(2R)-2-amino-3-(dimethylcarbamoyl)propanoic acid

>  <TYPE>  (1100) 
Backbone

>  <CLASS>  (1100) 
alpha

>  <ANALOG>  (1100) 
X

>  <MOL_WT>  (1100) 
160.173

>  <LOGP>  (1100) 
-1.1233999999999995

>  <TPSA>  (1100) 
83.63000000000001

>  <POPULARITY>  (1100) 
11.2

>  <PROTECTED>  (1100) 
TRUE

>  <SMILES>  (1100) 
N[C@H](CC(=O)N(C)C)C(=O)O

>  <INCHIKEY>  (1100) 
AHEBZPSPUGRPFZ-SCSAIBSYSA-N

$$$$
D-Asp-NH2
     RDKit          2D

  9  8  0  0  0  0  0  0  0  0999 V2000
   -0.2826   -1.7410    0.0000 N   0  0  0  0  0  0  0  0  0  0  0  0
   -0.5402   -0.2633    0.0000 C   0  0  0  0  0  0  0  0  0  0  0  0
   -1.9487    0.2525    0.0000 C   0  0  0  0  0  0  0  0  0  0  0  0
   -2.2062    1.7302    0.0000 O   0  0  0  0  0  0  0  0  0  0  0  0
   -3.0997   -0.7094    0.0000 N   0  0  0  0  0  0  0  0  0  0  0  0
    0.6108    0.6986    0.0000 C   0  0  0  0  0  0  0  0  0  0  0  0
    2.0193    0.1828    0.0000 C   0  0  0  0  0  0  0  0  0  0  0  0
    2.2769   -1.2950    0.0000 O   0  0  0  0  0  0  0  0  0  0  0  0
    3.1703    1.1447    0.0000 O   0  0  0  0  0  0  0  0  0  0  0  0
  2  1  1  1
  2  3  1  0
  3  4  2  0
  3  5  1  0
  2  6  1  0
  6  7  1  0
  7  8  2  0
  7  9  1  0
M  END
>  <rName>  (1101) 
D-Asp-NH2

>  <PQ_SYMBOL>  (1101) 
D-Asp-NH2

>  <FULL_NAME>  (1101) 
(R)-3,4-diamino-4-oxobutanoic acid

>  <IUPAC_CONDENSED>  (1101) 
D-Asp-NH2

>  <IUPAC>  (1101) 
(3R)-3-amino-3-carbamoylpropanoic acid

>  <TYPE>  (1101) 
Backbone

>  <CLASS>  (1101) 
beta

>  <ANALOG>  (1101) 
X

>  <MOL_WT>  (1101) 
132.119

>  <LOGP>  (1101) 
-1.7263000000000002

>  <TPSA>  (1101) 
106.41000000000001

>  <POPULARITY>  (1101) 
13.4

>  <PROTECTED>  (1101) 
TRUE

>  <SMILES>  (1101) 
N[C@@H](C(=O)N)CC(=O)O

>  <INCHIKEY>  (1101) 
PMLJIHNCYNOQEQ-UWTATZPHSA-N

$$$$
D-Asp-OMe
     RDKit          2D

 10  9  0  0  0  0  0  0  0  0999 V2000
    0.1391    1.7243    0.0000 N   0  0  0  0  0  0  0  0  0  0  0  0
   -0.0935    0.2424    0.0000 C   0  0  0  0  0  0  0  0  0  0  0  0
   -1.4930   -0.2972    0.0000 C   0  0  0  0  0  0  0  0  0  0  0  0
   -1.7256   -1.7790    0.0000 O   0  0  0  0  0  0  0  0  0  0  0  0
   -2.6601    0.6451    0.0000 O   0  0  0  0  0  0  0  0  0  0  0  0
   -4.0597    0.1056    0.0000 C   0  0  0  0  0  0  0  0  0  0  0  0
    1.0736   -0.6999    0.0000 C   0  0  0  0  0  0  0  0  0  0  0  0
    2.4732   -0.1603    0.0000 C   0  0  0  0  0  0  0  0  0  0  0  0
    2.7057    1.3216    0.0000 O   0  0  0  0  0  0  0  0  0  0  0  0
    3.6403   -1.1026    0.0000 O   0  0  0  0  0  0  0  0  0  0  0  0
  2  1  1  6
  2  3  1  0
  3  4  2  0
  3  5  1  0
  5  6  1  0
  2  7  1  0
  7  8  1  0
  8  9  2  0
  8 10  1  0
M  END
>  <rName>  (1102) 
D-Asp-OMe

>  <PQ_SYMBOL>  (1102) 
D-Asp-OMe

>  <FULL_NAME>  (1102) 
(R)-3-amino-4-methoxy-4-oxobutanoic acid

>  <IUPAC_CONDENSED>  (1102) 
D-Asp-OMe

>  <IUPAC>  (1102) 
(3R)-3-amino-3-(methoxycarbonyl)propanoic acid

>  <TYPE>  (1102) 
Backbone

>  <CLASS>  (1102) 
beta

>  <ANALOG>  (1102) 
X

>  <MOL_WT>  (1102) 
147.13

>  <LOGP>  (1102) 
-1.0385999999999997

>  <TPSA>  (1102) 
89.62000000000002

>  <POPULARITY>  (1102) 
9.1

>  <PROTECTED>  (1102) 
TRUE

>  <SMILES>  (1102) 
N[C@@H](C(=O)OC)CC(=O)O

>  <INCHIKEY>  (1102) 
SWWBMHIMADRNIK-GSVOUGTGSA-N

$$$$
D-Asp-Oallyl
     RDKit          2D

 12 11  0  0  0  0  0  0  0  0999 V2000
    1.0137    1.6688    0.0000 N   0  0  0  0  0  0  0  0  0  0  0  0
    0.8844    0.1744    0.0000 C   0  0  0  0  0  0  0  0  0  0  0  0
   -0.4745   -0.4608    0.0000 C   0  0  0  0  0  0  0  0  0  0  0  0
   -0.6039   -1.9552    0.0000 O   0  0  0  0  0  0  0  0  0  0  0  0
   -1.7040    0.3985    0.0000 O   0  0  0  0  0  0  0  0  0  0  0  0
   -3.0629   -0.2367    0.0000 C   0  0  0  0  0  0  0  0  0  0  0  0
   -4.2924    0.6225    0.0000 C   0  0  0  0  0  0  0  0  0  0  0  0
   -5.6513   -0.0126    0.0000 C   0  0  0  0  0  0  0  0  0  0  0  0
    2.1139   -0.6849    0.0000 C   0  0  0  0  0  0  0  0  0  0  0  0
    3.4728   -0.0497    0.0000 C   0  0  0  0  0  0  0  0  0  0  0  0
    3.6021    1.4447    0.0000 O   0  0  0  0  0  0  0  0  0  0  0  0
    4.7023   -0.9090    0.0000 O   0  0  0  0  0  0  0  0  0  0  0  0
  2  1  1  6
  2  3  1  0
  3  4  2  0
  3  5  1  0
  5  6  1  0
  6  7  1  0
  7  8  2  0
  2  9  1  0
  9 10  1  0
 10 11  2  0
 10 12  1  0
M  END
>  <rName>  (1103) 
D-Asp-Oallyl

>  <PQ_SYMBOL>  (1103) 
D-Asp-Oallyl

>  <FULL_NAME>  (1103) 
(R)-4-(allyloxy)-3-amino-4-oxobutanoic acid

>  <IUPAC_CONDENSED>  (1103) 
D-Asp-Oallyl

>  <IUPAC>  (1103) 
(3R)-3-amino-3-(((prop-2-en-1-yl)oxy)carbonyl)propanoic acid

>  <TYPE>  (1103) 
Backbone

>  <CLASS>  (1103) 
beta

>  <ANALOG>  (1103) 
X

>  <MOL_WT>  (1103) 
173.16799999999998

>  <LOGP>  (1103) 
-0.4824000000000002

>  <TPSA>  (1103) 
89.62000000000002

>  <POPULARITY>  (1103) 
3.6

>  <PROTECTED>  (1103) 
TRUE

>  <SMILES>  (1103) 
N[C@@H](C(=O)OCC=C)CC(=O)O

>  <INCHIKEY>  (1103) 
KHIQYWBMJLMXHH-RXMQYKEDSA-N

$$$$
D-Asp_OEt
     RDKit          2D

 11 10  0  0  0  0  0  0  0  0999 V2000
   -1.4761   -1.7560    0.0000 N   0  0  0  0  0  0  0  0  0  0  0  0
   -1.5273   -0.2569    0.0000 C   0  0  0  0  0  0  0  0  0  0  0  0
   -0.2547    0.5371    0.0000 C   0  0  0  0  0  0  0  0  0  0  0  0
    1.0692   -0.1681    0.0000 C   0  0  0  0  0  0  0  0  0  0  0  0
    1.1205   -1.6672    0.0000 O   0  0  0  0  0  0  0  0  0  0  0  0
    2.3419    0.6259    0.0000 O   0  0  0  0  0  0  0  0  0  0  0  0
    3.6658   -0.0793    0.0000 C   0  0  0  0  0  0  0  0  0  0  0  0
    4.9384    0.7147    0.0000 C   0  0  0  0  0  0  0  0  0  0  0  0
   -2.8513    0.4482    0.0000 C   0  0  0  0  0  0  0  0  0  0  0  0
   -2.9025    1.9474    0.0000 O   0  0  0  0  0  0  0  0  0  0  0  0
   -4.1239   -0.3457    0.0000 O   0  0  0  0  0  0  0  0  0  0  0  0
  2  1  1  1
  2  3  1  0
  3  4  1  0
  4  5  2  0
  4  6  1  0
  6  7  1  0
  7  8  1  0
  2  9  1  0
  9 10  2  0
  9 11  1  0
M  END
>  <rName>  (1104) 
D-Asp_OEt

>  <PQ_SYMBOL>  (1104) 
D-Asp_OEt

>  <FULL_NAME>  (1104) 
(R)-2-amino-4-ethoxy-4-oxobutanoic acid

>  <IUPAC_CONDENSED>  (1104) 
D-Asp(OEt)

>  <IUPAC>  (1104) 
(2R)-2-amino-3-(ethoxycarbonyl)propanoic acid

>  <TYPE>  (1104) 
Backbone

>  <CLASS>  (1104) 
alpha

>  <ANALOG>  (1104) 
Asp

>  <MOL_WT>  (1104) 
161.15699999999998

>  <LOGP>  (1104) 
-0.6484999999999999

>  <TPSA>  (1104) 
89.62000000000002

>  <POPULARITY>  (1104) 
7.0

>  <PROTECTED>  (1104) 
TRUE

>  <SMILES>  (1104) 
N[C@H](CC(=O)OCC)C(=O)O

>  <INCHIKEY>  (1104) 
KALSWOYBXAHEKF-SCSAIBSYSA-N

$$$$
D-Asp_OMe
     RDKit          2D

 10  9  0  0  0  0  0  0  0  0999 V2000
    0.8391   -1.7602    0.0000 N   0  0  0  0  0  0  0  0  0  0  0  0
    1.0145   -0.2705    0.0000 C   0  0  0  0  0  0  0  0  0  0  0  0
   -0.1878    0.6263    0.0000 C   0  0  0  0  0  0  0  0  0  0  0  0
   -1.5657    0.0334    0.0000 C   0  0  0  0  0  0  0  0  0  0  0  0
   -1.7412   -1.4563    0.0000 O   0  0  0  0  0  0  0  0  0  0  0  0
   -2.7681    0.9302    0.0000 O   0  0  0  0  0  0  0  0  0  0  0  0
   -4.1459    0.3373    0.0000 C   0  0  0  0  0  0  0  0  0  0  0  0
    2.3924    0.3223    0.0000 C   0  0  0  0  0  0  0  0  0  0  0  0
    2.5679    1.8120    0.0000 O   0  0  0  0  0  0  0  0  0  0  0  0
    3.5948   -0.5745    0.0000 O   0  0  0  0  0  0  0  0  0  0  0  0
  2  1  1  6
  2  3  1  0
  3  4  1  0
  4  5  2  0
  4  6  1  0
  6  7  1  0
  2  8  1  0
  8  9  2  0
  8 10  1  0
M  END
>  <rName>  (1105) 
D-Asp_OMe

>  <PQ_SYMBOL>  (1105) 
D-Asp_OMe

>  <FULL_NAME>  (1105) 
D-aspartic-acid-beta-methyl ester

>  <IUPAC_CONDENSED>  (1105) 
D-Asp(OMe)

>  <IUPAC>  (1105) 
(2R)-2-amino-3-(methoxycarbonyl)propanoic acid

>  <TYPE>  (1105) 
Backbone

>  <CLASS>  (1105) 
alpha

>  <ANALOG>  (1105) 
Asp

>  <MOL_WT>  (1105) 
147.13

>  <LOGP>  (1105) 
-1.0386000000000002

>  <TPSA>  (1105) 
89.62000000000002

>  <POPULARITY>  (1105) 
11.3

>  <PROTECTED>  (1105) 
TRUE

>  <SMILES>  (1105) 
N[C@H](CC(=O)OC)C(=O)O

>  <INCHIKEY>  (1105) 
SBRYFUVVWOMLLP-GSVOUGTGSA-N

$$$$
D-Asp_Oallyl
     RDKit          2D

 12 11  0  0  0  0  0  0  0  0999 V2000
    1.9988   -1.7558    0.0000 N   0  0  0  0  0  0  0  0  0  0  0  0
    2.0493   -0.2567    0.0000 C   0  0  0  0  0  0  0  0  0  0  0  0
    0.7763    0.5367    0.0000 C   0  0  0  0  0  0  0  0  0  0  0  0
   -0.5473   -0.1692    0.0000 C   0  0  0  0  0  0  0  0  0  0  0  0
   -0.5978   -1.6683    0.0000 O   0  0  0  0  0  0  0  0  0  0  0  0
   -1.8203    0.6242    0.0000 O   0  0  0  0  0  0  0  0  0  0  0  0
   -3.1439   -0.0816    0.0000 C   0  0  0  0  0  0  0  0  0  0  0  0
   -4.4169    0.7117    0.0000 C   0  0  0  0  0  0  0  0  0  0  0  0
   -5.7405    0.0059    0.0000 C   0  0  0  0  0  0  0  0  0  0  0  0
    3.3729    0.4491    0.0000 C   0  0  0  0  0  0  0  0  0  0  0  0
    3.4234    1.9483    0.0000 O   0  0  0  0  0  0  0  0  0  0  0  0
    4.6459   -0.3442    0.0000 O   0  0  0  0  0  0  0  0  0  0  0  0
  2  1  1  6
  2  3  1  0
  3  4  1  0
  4  5  2  0
  4  6  1  0
  6  7  1  0
  7  8  1  0
  8  9  2  0
  2 10  1  0
 10 11  2  0
 10 12  1  0
M  END
>  <rName>  (1106) 
D-Asp_Oallyl

>  <PQ_SYMBOL>  (1106) 
D-Asp_Oallyl

>  <FULL_NAME>  (1106) 
(R)-4-(allyloxy)-2-amino-4-oxobutanoic acid

>  <IUPAC_CONDENSED>  (1106) 
D-Asp(Oallyl)

>  <IUPAC>  (1106) 
(2R)-2-amino-3-(((prop-2-en-1-yl)oxy)carbonyl)propanoic acid

>  <TYPE>  (1106) 
Backbone

>  <CLASS>  (1106) 
alpha

>  <ANALOG>  (1106) 
Asp

>  <MOL_WT>  (1106) 
173.16799999999998

>  <LOGP>  (1106) 
-0.4824000000000002

>  <TPSA>  (1106) 
89.62000000000002

>  <POPULARITY>  (1106) 
3.6

>  <PROTECTED>  (1106) 
TRUE

>  <SMILES>  (1106) 
N[C@H](CC(=O)OCC=C)C(=O)O

>  <INCHIKEY>  (1106) 
NJVZTIBJVLBLOL-RXMQYKEDSA-N

$$$$
D-Asp_Ph_2iPr
     RDKit          2D

 18 18  0  0  0  0  0  0  0  0999 V2000
   -3.5569    1.7503    0.0000 N   0  0  0  0  0  0  0  0  0  0  0  0
   -3.5394    0.2504    0.0000 C   0  0  0  0  0  0  0  0  0  0  0  0
   -2.2317   -0.4844    0.0000 C   0  0  0  0  0  0  0  0  0  0  0  0
   -0.9415    0.2807    0.0000 C   0  0  0  0  0  0  0  0  0  0  0  0
   -0.9590    1.7806    0.0000 O   0  0  0  0  0  0  0  0  0  0  0  0
    0.3662   -0.4541    0.0000 O   0  0  0  0  0  0  0  0  0  0  0  0
    1.6564    0.3110    0.0000 C   0  0  0  0  0  0  0  0  0  0  0  0
    1.6389    1.8109    0.0000 C   0  0  0  0  0  0  0  0  0  0  0  0
    2.9291    2.5760    0.0000 C   0  0  0  0  0  0  0  0  0  0  0  0
    4.2368    1.8412    0.0000 C   0  0  0  0  0  0  0  0  0  0  0  0
    4.2543    0.3413    0.0000 C   0  0  0  0  0  0  0  0  0  0  0  0
    2.9641   -0.4238    0.0000 C   0  0  0  0  0  0  0  0  0  0  0  0
    2.9816   -1.9237    0.0000 C   0  0  0  0  0  0  0  0  0  0  0  0
    1.6914   -2.6888    0.0000 C   0  0  0  0  0  0  0  0  0  0  0  0
    4.2893   -2.6585    0.0000 C   0  0  0  0  0  0  0  0  0  0  0  0
   -4.8296   -0.5147    0.0000 C   0  0  0  0  0  0  0  0  0  0  0  0
   -4.8121   -2.0146    0.0000 O   0  0  0  0  0  0  0  0  0  0  0  0
   -6.1373    0.2201    0.0000 O   0  0  0  0  0  0  0  0  0  0  0  0
  2  1  1  6
  2  3  1  0
  3  4  1  0
  4  5  2  0
  4  6  1  0
  6  7  1  0
  7  8  2  0
  8  9  1  0
  9 10  2  0
 10 11  1  0
 11 12  2  0
 12 13  1  0
 13 14  1  0
 13 15  1  0
  2 16  1  0
 16 17  2  0
 16 18  1  0
 12  7  1  0
M  END
>  <rName>  (1107) 
D-Asp_Ph_2iPr

>  <PQ_SYMBOL>  (1107) 
D-Asp_Ph_2iPr

>  <FULL_NAME>  (1107) 
(R)-2-amino-4-(2-isopropylphenoxy)-4-oxobutanoic acid

>  <IUPAC_CONDENSED>  (1107) 
D-Asp(Ph(2-iPr))

>  <IUPAC>  (1107) 
(2R)-2-amino-3-(((2-(propan-2-yl)phenyl)oxy)carbonyl)propanoic acid

>  <TYPE>  (1107) 
Backbone

>  <CLASS>  (1107) 
alpha

>  <ANALOG>  (1107) 
Asp

>  <MOL_WT>  (1107) 
251.28199999999998

>  <LOGP>  (1107) 
1.5173999999999996

>  <TPSA>  (1107) 
89.62000000000002

>  <POPULARITY>  (1107) 
3.1

>  <PROTECTED>  (1107) 
TRUE

>  <SMILES>  (1107) 
N[C@H](CC(=O)Oc1(ccccc1C(C)C))C(=O)O

>  <INCHIKEY>  (1107) 
XFXMAOINGRMANA-SNVBAGLBSA-N

$$$$
D-Asu
     RDKit          2D

 13 12  0  0  0  0  0  0  0  0999 V2000
   -2.9072    1.8790    0.0000 N   0  0  0  0  0  0  0  0  0  0  0  0
   -2.9824    0.3808    0.0000 C   0  0  0  0  0  0  0  0  0  0  0  0
   -1.7226   -0.4334    0.0000 C   0  0  0  0  0  0  0  0  0  0  0  0
   -0.3876    0.2505    0.0000 C   0  0  0  0  0  0  0  0  0  0  0  0
    0.8722   -0.5637    0.0000 C   0  0  0  0  0  0  0  0  0  0  0  0
    2.2072    0.1202    0.0000 C   0  0  0  0  0  0  0  0  0  0  0  0
    3.4670   -0.6940    0.0000 C   0  0  0  0  0  0  0  0  0  0  0  0
    4.8020   -0.0101    0.0000 C   0  0  0  0  0  0  0  0  0  0  0  0
    4.8772    1.4880    0.0000 O   0  0  0  0  0  0  0  0  0  0  0  0
    6.0618   -0.8243    0.0000 O   0  0  0  0  0  0  0  0  0  0  0  0
   -4.3175   -0.3030    0.0000 C   0  0  0  0  0  0  0  0  0  0  0  0
   -4.3927   -1.8012    0.0000 O   0  0  0  0  0  0  0  0  0  0  0  0
   -5.5772    0.5112    0.0000 O   0  0  0  0  0  0  0  0  0  0  0  0
  2  1  1  6
  2  3  1  0
  3  4  1  0
  4  5  1  0
  5  6  1  0
  6  7  1  0
  7  8  1  0
  8  9  2  0
  8 10  1  0
  2 11  1  0
 11 12  2  0
 11 13  1  0
M  END
>  <rName>  (1108) 
D-Asu

>  <PQ_SYMBOL>  (1108) 
D-Asu

>  <FULL_NAME>  (1108) 
2-Aminosuberic acid

>  <IUPAC_CONDENSED>  (1108) 
D-Asu

>  <IUPAC>  (1108) 
(2R)-2-aminooctanedioic acid

>  <TYPE>  (1108) 
Backbone

>  <CLASS>  (1108) 
alpha

>  <ANALOG>  (1108) 
X

>  <MOL_WT>  (1108) 
189.211

>  <LOGP>  (1108) 
0.43339999999999945

>  <TPSA>  (1108) 
100.62000000000002

>  <POPULARITY>  (1108) 
9.7

>  <PROTECTED>  (1108) 
TRUE

>  <SMILES>  (1108) 
N[C@H](CCCCCC(=O)O)C(=O)O

>  <INCHIKEY>  (1108) 
YOFPFYYTUIARDI-ZCFIWIBFSA-N

$$$$
D-Aze
     RDKit          2D

  7  7  0  0  0  0  0  0  0  0999 V2000
    1.3117   -1.0607    0.0000 N   0  0  0  0  0  0  0  0  0  0  0  0
    0.2511    0.0000    0.0000 C   0  0  0  0  0  0  0  0  0  0  0  0
    1.3117    1.0607    0.0000 C   0  0  0  0  0  0  0  0  0  0  0  0
    2.3724    0.0000    0.0000 C   0  0  0  0  0  0  0  0  0  0  0  0
   -1.2489   -0.0000    0.0000 C   0  0  0  0  0  0  0  0  0  0  0  0
   -1.9989   -1.2990    0.0000 O   0  0  0  0  0  0  0  0  0  0  0  0
   -1.9989    1.2990    0.0000 O   0  0  0  0  0  0  0  0  0  0  0  0
  1  2  1  0
  2  3  1  0
  3  4  1  0
  2  5  1  1
  5  6  2  0
  5  7  1  0
  4  1  1  0
M  END
>  <rName>  (1109) 
D-Aze

>  <PQ_SYMBOL>  (1109) 
D-Aze

>  <FULL_NAME>  (1109) 
D-2-carboxyazetidine

>  <IUPAC_CONDENSED>  (1109) 
D-Aze

>  <IUPAC>  (1109) 
(2R)azetidine-2-carboxylic acid

>  <TYPE>  (1109) 
Backbone

>  <CLASS>  (1109) 
alpha

>  <ANALOG>  (1109) 
Pro

>  <MOL_WT>  (1109) 
101.10499999999999

>  <LOGP>  (1109) 
-0.5671000000000002

>  <TPSA>  (1109) 
49.33

>  <POPULARITY>  (1109) 
13.3

>  <PROTECTED>  (1109) 
TRUE

>  <SMILES>  (1109) 
N1[C@H](CC1)C(=O)O

>  <INCHIKEY>  (1109) 
IADUEWIQBXOCDZ-GSVOUGTGSA-N

$$$$
D-Aze_3SMe
     RDKit          2D

  8  8  0  0  0  0  0  0  0  0999 V2000
    0.6988   -1.6539    0.0000 N   0  0  0  0  0  0  0  0  0  0  0  0
   -0.0093   -0.3316    0.0000 C   0  0  0  0  0  0  0  0  0  0  0  0
    1.3130    0.3765    0.0000 C   0  0  0  0  0  0  0  0  0  0  0  0
    1.7473    1.8123    0.0000 C   0  0  0  0  0  0  0  0  0  0  0  0
    2.0211   -0.9458    0.0000 C   0  0  0  0  0  0  0  0  0  0  0  0
   -1.4451    0.1027    0.0000 C   0  0  0  0  0  0  0  0  0  0  0  0
   -2.5391   -0.9235    0.0000 O   0  0  0  0  0  0  0  0  0  0  0  0
   -1.7868    1.5633    0.0000 O   0  0  0  0  0  0  0  0  0  0  0  0
  1  2  1  0
  2  3  1  0
  3  4  1  1
  3  5  1  0
  2  6  1  1
  6  7  2  0
  6  8  1  0
  5  1  1  0
M  END
>  <rName>  (1110) 
D-Aze_3SMe

>  <PQ_SYMBOL>  (1110) 
D-Aze_3SMe

>  <FULL_NAME>  (1110) 
(2R,3S)-3-Methylazetidine-2-carboxylic acid

>  <IUPAC_CONDENSED>  (1110) 
D-Aze(3S-Me)

>  <IUPAC>  (1110) 
(2R,3S)-3-methylazetidine-2-carboxylic acid

>  <TYPE>  (1110) 
Backbone

>  <CLASS>  (1110) 
alpha

>  <ANALOG>  (1110) 
Pro

>  <MOL_WT>  (1110) 
115.13199999999999

>  <LOGP>  (1110) 
-0.3211000000000002

>  <TPSA>  (1110) 
49.33

>  <POPULARITY>  (1110) 
6.5

>  <PROTECTED>  (1110) 
TRUE

>  <SMILES>  (1110) 
N1[C@H]([C@@H](C)C1)C(=O)O

>  <INCHIKEY>  (1110) 
WDWMCQMMMOWQAP-IUYQGCFVSA-N

$$$$
D-Aze_4SMe
     RDKit          2D

  8  8  0  0  0  0  0  0  0  0999 V2000
    0.8277   -1.0607    0.0000 N   0  0  0  0  0  0  0  0  0  0  0  0
   -0.2330   -0.0000    0.0000 C   0  0  0  0  0  0  0  0  0  0  0  0
    0.8277    1.0607    0.0000 C   0  0  0  0  0  0  0  0  0  0  0  0
    1.8883    0.0000    0.0000 C   0  0  0  0  0  0  0  0  0  0  0  0
    3.3883    0.0000    0.0000 C   0  0  0  0  0  0  0  0  0  0  0  0
   -1.7330   -0.0000    0.0000 C   0  0  0  0  0  0  0  0  0  0  0  0
   -2.4830   -1.2990    0.0000 O   0  0  0  0  0  0  0  0  0  0  0  0
   -2.4830    1.2990    0.0000 O   0  0  0  0  0  0  0  0  0  0  0  0
  1  2  1  0
  2  3  1  0
  3  4  1  0
  4  5  1  6
  2  6  1  1
  6  7  2  0
  6  8  1  0
  4  1  1  0
M  END
>  <rName>  (1111) 
D-Aze_4SMe

>  <PQ_SYMBOL>  (1111) 
D-Aze_4SMe

>  <FULL_NAME>  (1111) 
trans-4-Methylazetidine-2-carboxylic acid

>  <IUPAC_CONDENSED>  (1111) 
D-Aze(4S-Me)

>  <IUPAC>  (1111) 
(2R,4S)-4-methylazetidine-2-carboxylic acid

>  <TYPE>  (1111) 
Backbone

>  <CLASS>  (1111) 
alpha

>  <ANALOG>  (1111) 
Pro

>  <MOL_WT>  (1111) 
115.13199999999999

>  <LOGP>  (1111) 
-0.17860000000000015

>  <TPSA>  (1111) 
49.33

>  <POPULARITY>  (1111) 
4.3

>  <PROTECTED>  (1111) 
TRUE

>  <SMILES>  (1111) 
N1[C@H](C[C@@H]1C)C(=O)O

>  <INCHIKEY>  (1111) 
HJNCIIYYAHQDGZ-IUYQGCFVSA-N

$$$$
D-AziCO2Et-OEt
     RDKit          2D

 13 13  0  0  0  0  0  0  0  0999 V2000
    0.3026   -2.2949    0.0000 N   0  0  0  0  0  0  0  0  0  0  0  0
    0.6920   -0.8463    0.0000 C   0  0  0  0  0  0  0  0  0  0  0  0
   -0.7572   -1.2334    0.0000 C   0  0  0  0  0  0  0  0  0  0  0  0
   -2.2057   -0.8440    0.0000 C   0  0  0  0  0  0  0  0  0  0  0  0
   -3.2673   -1.9038    0.0000 O   0  0  0  0  0  0  0  0  0  0  0  0
   -2.5928    0.6052    0.0000 O   0  0  0  0  0  0  0  0  0  0  0  0
   -4.0414    0.9946    0.0000 C   0  0  0  0  0  0  0  0  0  0  0  0
   -4.4284    2.4439    0.0000 C   0  0  0  0  0  0  0  0  0  0  0  0
    1.7536    0.2135    0.0000 C   0  0  0  0  0  0  0  0  0  0  0  0
    1.3665    1.6627    0.0000 O   0  0  0  0  0  0  0  0  0  0  0  0
    3.2021   -0.1759    0.0000 O   0  0  0  0  0  0  0  0  0  0  0  0
    4.2637    0.8839    0.0000 C   0  0  0  0  0  0  0  0  0  0  0  0
    5.7122    0.4945    0.0000 C   0  0  0  0  0  0  0  0  0  0  0  0
  1  2  1  0
  2  3  1  0
  3  4  1  1
  4  5  2  0
  4  6  1  0
  6  7  1  0
  7  8  1  0
  2  9  1  6
  9 10  2  0
  9 11  1  0
 11 12  1  0
 12 13  1  0
  3  1  1  0
M  END
>  <rName>  (1112) 
D-AziCO2Et-OEt

>  <PQ_SYMBOL>  (1112) 
D-AziCO2Et-OEt

>  <FULL_NAME>  (1112) 
diethyl (2R,3R)-aziridine-2,3-dicarboxylate

>  <IUPAC_CONDENSED>  (1112) 
D-Azi(CO2Et)-OEt

>  <IUPAC>  (1112) 
diethyl (2R,3R)-aziridine-2,3-dicarboxylate

>  <TYPE>  (1112) 
C-term cap

>  <CLASS>  (1112) 
c_cap

>  <ANALOG>  (1112) 
X

>  <MOL_WT>  (1112) 
187.19499999999996

>  <LOGP>  (1112) 
-0.5470000000000002

>  <TPSA>  (1112) 
74.54

>  <POPULARITY>  (1112) 
9.0

>  <PROTECTED>  (1112) 
TRUE

>  <SMILES>  (1112) 
N1[C@H]([C@@H]1C(=O)OCC)C(=O)OCC

>  <INCHIKEY>  (1112) 
ZDCRASVHGJDHRS-PHDIDXHHSA-N

$$$$
D-Bip
     RDKit          2D

 18 19  0  0  0  0  0  0  0  0999 V2000
   -3.2769    1.7174    0.0000 N   0  0  0  0  0  0  0  0  0  0  0  0
   -3.8349    0.3251    0.0000 C   0  0  0  0  0  0  0  0  0  0  0  0
   -2.9082   -0.8544    0.0000 C   0  0  0  0  0  0  0  0  0  0  0  0
   -1.4234   -0.6415    0.0000 C   0  0  0  0  0  0  0  0  0  0  0  0
   -0.8653    0.7508    0.0000 C   0  0  0  0  0  0  0  0  0  0  0  0
    0.6195    0.9637    0.0000 C   0  0  0  0  0  0  0  0  0  0  0  0
    1.5463   -0.2158    0.0000 C   0  0  0  0  0  0  0  0  0  0  0  0
    0.9882   -1.6081    0.0000 C   0  0  0  0  0  0  0  0  0  0  0  0
   -0.4966   -1.8210    0.0000 C   0  0  0  0  0  0  0  0  0  0  0  0
    3.0311   -0.0029    0.0000 C   0  0  0  0  0  0  0  0  0  0  0  0
    3.9578   -1.1824    0.0000 C   0  0  0  0  0  0  0  0  0  0  0  0
    5.4427   -0.9695    0.0000 C   0  0  0  0  0  0  0  0  0  0  0  0
    6.0007    0.4228    0.0000 C   0  0  0  0  0  0  0  0  0  0  0  0
    5.0740    1.6023    0.0000 C   0  0  0  0  0  0  0  0  0  0  0  0
    3.5891    1.3894    0.0000 C   0  0  0  0  0  0  0  0  0  0  0  0
   -5.3198    0.1122    0.0000 C   0  0  0  0  0  0  0  0  0  0  0  0
   -5.8778   -1.2801    0.0000 O   0  0  0  0  0  0  0  0  0  0  0  0
   -6.2465    1.2917    0.0000 O   0  0  0  0  0  0  0  0  0  0  0  0
  2  1  1  6
  2  3  1  0
  3  4  1  0
  4  5  1  0
  5  6  2  0
  6  7  1  0
  7  8  2  0
  8  9  1  0
  7 10  1  0
 10 11  2  0
 11 12  1  0
 12 13  2  0
 13 14  1  0
 14 15  2  0
  2 16  1  0
 16 17  2  0
 16 18  1  0
  9  4  2  0
 15 10  1  0
M  END
>  <rName>  (1113) 
D-Bip

>  <PQ_SYMBOL>  (1113) 
D-Bip

>  <FULL_NAME>  (1113) 
4-Phenyl-D-Phenylalanine

>  <IUPAC_CONDENSED>  (1113) 
D-Bip

>  <IUPAC>  (1113) 
(2R)-2-amino-3-(4-phenylphenyl)propanoic acid

>  <TYPE>  (1113) 
Backbone

>  <CLASS>  (1113) 
alpha

>  <ANALOG>  (1113) 
Phe

>  <MOL_WT>  (1113) 
241.29

>  <LOGP>  (1113) 
2.308

>  <TPSA>  (1113) 
63.32000000000001

>  <POPULARITY>  (1113) 
18.3

>  <PROTECTED>  (1113) 
TRUE

>  <SMILES>  (1113) 
N[C@H](Cc1(ccc(cc1)c2(ccccc2)))C(=O)O

>  <INCHIKEY>  (1113) 
JCZLABDVDPYLRZ-CQSZACIVSA-N

$$$$
D-Bmt
     RDKit          2D

 13 12  0  0  0  0  0  0  0  0999 V2000
   -0.7504   -0.9424    0.0000 N   0  0  0  0  0  0  0  0  0  0  0  0
    0.6917   -0.5296    0.0000 C   0  0  0  0  0  0  0  0  0  0  0  0
    1.0552    0.9257    0.0000 C   0  0  0  0  0  0  0  0  0  0  0  0
    2.4973    1.3384    0.0000 O   0  0  0  0  0  0  0  0  0  0  0  0
   -0.0233    1.9682    0.0000 C   0  0  0  0  0  0  0  0  0  0  0  0
    0.3403    3.4234    0.0000 C   0  0  0  0  0  0  0  0  0  0  0  0
   -1.4654    1.5554    0.0000 C   0  0  0  0  0  0  0  0  0  0  0  0
   -1.8289    0.1001    0.0000 C   0  0  0  0  0  0  0  0  0  0  0  0
   -3.2710   -0.3126    0.0000 C   0  0  0  0  0  0  0  0  0  0  0  0
   -3.6346   -1.7679    0.0000 C   0  0  0  0  0  0  0  0  0  0  0  0
    1.7702   -1.5721    0.0000 C   0  0  0  0  0  0  0  0  0  0  0  0
    3.2123   -1.1593    0.0000 O   0  0  0  0  0  0  0  0  0  0  0  0
    1.4066   -3.0274    0.0000 O   0  0  0  0  0  0  0  0  0  0  0  0
  2  1  1  6
  2  3  1  0
  3  4  1  6
  3  5  1  0
  5  6  1  6
  5  7  1  0
  7  8  1  0
  8  9  2  3
  9 10  1  0
  2 11  1  0
 11 12  2  0
 11 13  1  0
M  END
>  <rName>  (1114) 
D-Bmt

>  <PQ_SYMBOL>  (1114) 
D-Bmt

>  <FULL_NAME>  (1114) 
(2R,3S,4S)-2-amino-3-hydroxy-4-methyloct-6-enoic acid

>  <IUPAC_CONDENSED>  (1114) 
D-Bmt

>  <IUPAC>  (1114) 
(2R,3S,4S)-2-amino-3-hydroxy-4-methyloct-6-enoic acid

>  <TYPE>  (1114) 
Backbone

>  <CLASS>  (1114) 
alpha

>  <ANALOG>  (1114) 
Thr

>  <MOL_WT>  (1114) 
187.23899999999998

>  <LOGP>  (1114) 
0.36149999999999965

>  <TPSA>  (1114) 
83.55

>  <POPULARITY>  (1114) 
2.0

>  <PROTECTED>  (1114) 
FALSE

>  <SMILES>  (1114) 
N[C@H]([C@@H](O)[C@@H](C)CC=CC)C(=O)O

>  <INCHIKEY>  (1114) 
RPALEGQGCGCFCX-RNJXMRFFSA-N

$$$$
D-Bmt_E
     RDKit          2D

 13 12  0  0  0  0  0  0  0  0999 V2000
    2.2660    1.8292    0.0000 N   0  0  0  0  0  0  0  0  0  0  0  0
    1.8676    0.3831    0.0000 C   0  0  0  0  0  0  0  0  0  0  0  0
    0.4160    0.0051    0.0000 C   0  0  0  0  0  0  0  0  0  0  0  0
    0.0176   -1.4410    0.0000 O   0  0  0  0  0  0  0  0  0  0  0  0
   -0.6372    1.0732    0.0000 C   0  0  0  0  0  0  0  0  0  0  0  0
   -0.2388    2.5193    0.0000 C   0  0  0  0  0  0  0  0  0  0  0  0
   -2.0888    0.6952    0.0000 C   0  0  0  0  0  0  0  0  0  0  0  0
   -2.4872   -0.7510    0.0000 C   0  0  0  0  0  0  0  0  0  0  0  0
   -3.9388   -1.1290    0.0000 C   0  0  0  0  0  0  0  0  0  0  0  0
   -4.9919   -0.0609    0.0000 C   0  0  0  0  0  0  0  0  0  0  0  0
    2.9207   -0.6850    0.0000 C   0  0  0  0  0  0  0  0  0  0  0  0
    2.5223   -2.1311    0.0000 O   0  0  0  0  0  0  0  0  0  0  0  0
    4.3723   -0.3070    0.0000 O   0  0  0  0  0  0  0  0  0  0  0  0
  2  1  1  1
  2  3  1  0
  3  4  1  1
  3  5  1  0
  5  6  1  6
  5  7  1  0
  7  8  1  0
  8  9  2  0
  9 10  1  0
  2 11  1  0
 11 12  2  0
 11 13  1  0
M  END
>  <rName>  (1115) 
D-Bmt_E

>  <PQ_SYMBOL>  (1115) 
D-Bmt_E

>  <FULL_NAME>  (1115) 
(2R,3S,4S,6E)-2-amino-3-hydroxy-4-methyloct-6-enoic acid

>  <IUPAC_CONDENSED>  (1115) 
D-Bmt(E)

>  <IUPAC>  (1115) 
(2R,3S,4S,6Z)-2-amino-3-hydroxy-4-methyloct-6-enoic acid

>  <TYPE>  (1115) 
Backbone

>  <CLASS>  (1115) 
alpha

>  <ANALOG>  (1115) 
Thr

>  <MOL_WT>  (1115) 
187.23899999999998

>  <LOGP>  (1115) 
0.36149999999999965

>  <TPSA>  (1115) 
83.55

>  <POPULARITY>  (1115) 
1.3

>  <PROTECTED>  (1115) 
FALSE

>  <SMILES>  (1115) 
N[C@H]([C@@H](O)[C@@H](C)C/C=C\C)C(=O)O

>  <INCHIKEY>  (1115) 
RPALEGQGCGCFCX-YTUSVYGESA-N

$$$$
D-Bpa
     RDKit          2D

 20 21  0  0  0  0  0  0  0  0999 V2000
   -4.1652    1.5275    0.0000 N   0  0  0  0  0  0  0  0  0  0  0  0
   -4.3980    0.0457    0.0000 C   0  0  0  0  0  0  0  0  0  0  0  0
   -3.2311   -0.8968    0.0000 C   0  0  0  0  0  0  0  0  0  0  0  0
   -1.8314   -0.3576    0.0000 C   0  0  0  0  0  0  0  0  0  0  0  0
   -1.5986    1.1243    0.0000 C   0  0  0  0  0  0  0  0  0  0  0  0
   -0.1989    1.6635    0.0000 C   0  0  0  0  0  0  0  0  0  0  0  0
    0.9680    0.7210    0.0000 C   0  0  0  0  0  0  0  0  0  0  0  0
    0.7352   -0.7608    0.0000 C   0  0  0  0  0  0  0  0  0  0  0  0
   -0.6645   -1.3001    0.0000 C   0  0  0  0  0  0  0  0  0  0  0  0
    2.3677    1.2603    0.0000 C   0  0  0  0  0  0  0  0  0  0  0  0
    2.6006    2.7421    0.0000 O   0  0  0  0  0  0  0  0  0  0  0  0
    3.5346    0.3177    0.0000 C   0  0  0  0  0  0  0  0  0  0  0  0
    3.3018   -1.1641    0.0000 C   0  0  0  0  0  0  0  0  0  0  0  0
    4.4687   -2.1067    0.0000 C   0  0  0  0  0  0  0  0  0  0  0  0
    5.8684   -1.5674    0.0000 C   0  0  0  0  0  0  0  0  0  0  0  0
    6.1012   -0.0856    0.0000 C   0  0  0  0  0  0  0  0  0  0  0  0
    4.9343    0.8570    0.0000 C   0  0  0  0  0  0  0  0  0  0  0  0
   -5.7977   -0.4936    0.0000 C   0  0  0  0  0  0  0  0  0  0  0  0
   -6.0305   -1.9754    0.0000 O   0  0  0  0  0  0  0  0  0  0  0  0
   -6.9646    0.4490    0.0000 O   0  0  0  0  0  0  0  0  0  0  0  0
  2  1  1  6
  2  3  1  0
  3  4  1  0
  4  5  1  0
  5  6  2  0
  6  7  1  0
  7  8  2  0
  8  9  1  0
  7 10  1  0
 10 11  2  0
 10 12  1  0
 12 13  2  0
 13 14  1  0
 14 15  2  0
 15 16  1  0
 16 17  2  0
  2 18  1  0
 18 19  2  0
 18 20  1  0
  9  4  2  0
 17 12  1  0
M  END
>  <rName>  (1116) 
D-Bpa

>  <PQ_SYMBOL>  (1116) 
D-Bpa

>  <FULL_NAME>  (1116) 
4-Benzoyl-D-Phenylalanine

>  <IUPAC_CONDENSED>  (1116) 
D-Bpa

>  <IUPAC>  (1116) 
(2R)-2-amino-3-(4-((phenyl)carbonyl)phenyl)propanoic acid

>  <TYPE>  (1116) 
Backbone

>  <CLASS>  (1116) 
alpha

>  <ANALOG>  (1116) 
Phe

>  <MOL_WT>  (1116) 
269.29999999999995

>  <LOGP>  (1116) 
1.872

>  <TPSA>  (1116) 
80.39

>  <POPULARITY>  (1116) 
21.5

>  <PROTECTED>  (1116) 
TRUE

>  <SMILES>  (1116) 
N[C@H](Cc1(ccc(cc1)C(=O)c2(ccccc2)))C(=O)O

>  <INCHIKEY>  (1116) 
TVIDEEHSOPHZBR-CQSZACIVSA-N

$$$$
D-Cha
     RDKit          2D

 12 12  0  0  0  0  0  0  0  0999 V2000
   -1.2391    1.6805    0.0000 N   0  0  0  0  0  0  0  0  0  0  0  0
   -1.6184    0.2292    0.0000 C   0  0  0  0  0  0  0  0  0  0  0  0
   -0.5513   -0.8249    0.0000 C   0  0  0  0  0  0  0  0  0  0  0  0
    0.8952   -0.4278    0.0000 C   0  0  0  0  0  0  0  0  0  0  0  0
    1.2745    1.0235    0.0000 C   0  0  0  0  0  0  0  0  0  0  0  0
    2.7210    1.4206    0.0000 C   0  0  0  0  0  0  0  0  0  0  0  0
    3.7882    0.3665    0.0000 C   0  0  0  0  0  0  0  0  0  0  0  0
    3.4088   -1.0848    0.0000 C   0  0  0  0  0  0  0  0  0  0  0  0
    1.9624   -1.4819    0.0000 C   0  0  0  0  0  0  0  0  0  0  0  0
   -3.0649   -0.1679    0.0000 C   0  0  0  0  0  0  0  0  0  0  0  0
   -3.4442   -1.6191    0.0000 O   0  0  0  0  0  0  0  0  0  0  0  0
   -4.1321    0.8862    0.0000 O   0  0  0  0  0  0  0  0  0  0  0  0
  2  1  1  6
  2  3  1  0
  3  4  1  0
  4  5  1  0
  5  6  1  0
  6  7  1  0
  7  8  1  0
  8  9  1  0
  2 10  1  0
 10 11  2  0
 10 12  1  0
  9  4  1  0
M  END
>  <rName>  (1117) 
D-Cha

>  <PQ_SYMBOL>  (1117) 
D-Cha

>  <FULL_NAME>  (1117) 
3-Cyclohexyl-D-Alanine, D-Cyclohexanealanine, D-Ace

>  <IUPAC_CONDENSED>  (1117) 
D-Cha

>  <IUPAC>  (1117) 
(2R)-2-amino-3-cyclohexylpropanoic acid

>  <TYPE>  (1117) 
Backbone

>  <CLASS>  (1117) 
alpha

>  <ANALOG>  (1117) 
Ala

>  <MOL_WT>  (1117) 
171.24

>  <LOGP>  (1117) 
1.3687

>  <TPSA>  (1117) 
63.32000000000001

>  <POPULARITY>  (1117) 
36.1

>  <PROTECTED>  (1117) 
TRUE

>  <SMILES>  (1117) 
N[C@H](CC1(CCCCC1))C(=O)O

>  <INCHIKEY>  (1117) 
ORQXBVXKBGUSBA-MRVPVSSYSA-N

$$$$
D-Cha_72F
     RDKit          2D

 14 14  0  0  0  0  0  0  0  0999 V2000
   -1.8606    1.6756    0.0000 N   0  0  0  0  0  0  0  0  0  0  0  0
   -2.3089    0.2441    0.0000 C   0  0  0  0  0  0  0  0  0  0  0  0
   -1.2933   -0.8598    0.0000 C   0  0  0  0  0  0  0  0  0  0  0  0
    0.1705   -0.5324    0.0000 C   0  0  0  0  0  0  0  0  0  0  0  0
    0.6188    0.8991    0.0000 C   0  0  0  0  0  0  0  0  0  0  0  0
    2.0826    1.2266    0.0000 C   0  0  0  0  0  0  0  0  0  0  0  0
    3.0981    0.1226    0.0000 C   0  0  0  0  0  0  0  0  0  0  0  0
    4.0089    1.3144    0.0000 F   0  0  0  0  0  0  0  0  0  0  0  0
    4.4300   -0.5674    0.0000 F   0  0  0  0  0  0  0  0  0  0  0  0
    2.6498   -1.3088    0.0000 C   0  0  0  0  0  0  0  0  0  0  0  0
    1.1860   -1.6363    0.0000 C   0  0  0  0  0  0  0  0  0  0  0  0
   -3.7727   -0.0834    0.0000 C   0  0  0  0  0  0  0  0  0  0  0  0
   -4.2210   -1.5148    0.0000 O   0  0  0  0  0  0  0  0  0  0  0  0
   -4.7882    1.0206    0.0000 O   0  0  0  0  0  0  0  0  0  0  0  0
  2  1  1  6
  2  3  1  0
  3  4  1  0
  4  5  1  0
  5  6  1  0
  6  7  1  0
  7  8  1  0
  7  9  1  0
  7 10  1  0
 10 11  1  0
  2 12  1  0
 12 13  2  0
 12 14  1  0
 11  4  1  0
M  END
>  <rName>  (1118) 
D-Cha_72F

>  <PQ_SYMBOL>  (1118) 
D-Cha_72F

>  <FULL_NAME>  (1118) 
(2R)-2-amino-3-(4,4-difluorocyclohexyl)propanoic acid

>  <IUPAC_CONDENSED>  (1118) 
D-Cha(7-2F)

>  <IUPAC>  (1118) 
(2R)-2-amino-3-(4,4-difluorocyclohexyl)propanoic acid

>  <TYPE>  (1118) 
Backbone

>  <CLASS>  (1118) 
alpha

>  <ANALOG>  (1118) 
X

>  <MOL_WT>  (1118) 
207.21999999999997

>  <LOGP>  (1118) 
1.6139000000000001

>  <TPSA>  (1118) 
63.32000000000001

>  <POPULARITY>  (1118) 
5.1

>  <PROTECTED>  (1118) 
TRUE

>  <SMILES>  (1118) 
N[C@H](CC1(CCC(F)(F)CC1))C(=O)O

>  <INCHIKEY>  (1118) 
LXHJNUVCXGOEQF-SSDOTTSWSA-N

$$$$
D-Cha_Nsulfamoyl
     RDKit          2D

 16 16  0  0  0  0  0  0  0  0999 V2000
   -4.3395   -0.9760    0.0000 C   0  0  0  0  0  0  0  0  0  0  0  0
   -4.4172    0.5220    0.0000 C   0  0  0  0  0  0  0  0  0  0  0  0
   -3.1588    1.3382    0.0000 C   0  0  0  0  0  0  0  0  0  0  0  0
   -1.8226    0.6565    0.0000 C   0  0  0  0  0  0  0  0  0  0  0  0
   -1.7449   -0.8415    0.0000 C   0  0  0  0  0  0  0  0  0  0  0  0
   -3.0034   -1.6578    0.0000 C   0  0  0  0  0  0  0  0  0  0  0  0
   -0.5642    1.4728    0.0000 C   0  0  0  0  0  0  0  0  0  0  0  0
    0.7720    0.7910    0.0000 C   0  0  0  0  0  0  0  0  0  0  0  0
    0.8496   -0.7069    0.0000 N   0  0  0  0  0  0  0  0  0  0  0  0
    2.1858   -1.3887    0.0000 S   0  0  0  0  0  0  0  0  0  0  0  0
    2.8675   -0.0525    0.0000 O   0  0  0  0  0  0  0  0  0  0  0  0
    1.5041   -2.7248    0.0000 O   0  0  0  0  0  0  0  0  0  0  0  0
    3.5219   -2.0704    0.0000 N   0  0  0  0  0  0  0  0  0  0  0  0
    2.0304    1.6073    0.0000 C   0  0  0  0  0  0  0  0  0  0  0  0
    1.9528    3.1053    0.0000 O   0  0  0  0  0  0  0  0  0  0  0  0
    3.3666    0.9256    0.0000 O   0  0  0  0  0  0  0  0  0  0  0  0
  1  2  1  0
  2  3  1  0
  3  4  1  0
  4  5  1  0
  5  6  1  0
  4  7  1  0
  8  7  1  6
  8  9  1  0
  9 10  1  0
 10 11  2  0
 10 12  2  0
 10 13  1  0
  8 14  1  0
 14 15  2  0
 14 16  1  0
  6  1  1  0
M  END
>  <rName>  (1119) 
D-Cha_Nsulfamoyl

>  <PQ_SYMBOL>  (1119) 
D-Cha_Nsulfamoyl

>  <FULL_NAME>  (1119) 
3-cyclohexyl-N-sulfamoyl-D-alanine

>  <IUPAC_CONDENSED>  (1119) 
D-Cha(N-sulfamoyl)

>  <IUPAC>  (1119) 
(2R)-2-sulfamoylamino-3-cyclohexylpropanoic acid

>  <TYPE>  (1119) 
N-term cap

>  <CLASS>  (1119) 
n_cap

>  <ANALOG>  (1119) 
X

>  <MOL_WT>  (1119) 
250.32

>  <LOGP>  (1119) 
0.20310000000000034

>  <TPSA>  (1119) 
109.49

>  <POPULARITY>  (1119) 
1.5

>  <PROTECTED>  (1119) 
FALSE

>  <SMILES>  (1119) 
C1CCC(CC1)C[C@@H](NS(=O)(=O)N)C(=O)O

>  <INCHIKEY>  (1119) 
LHUDYJGZVNZVTM-MRVPVSSYSA-N

$$$$
D-Chg
     RDKit          2D

 11 11  0  0  0  0  0  0  0  0999 V2000
   -1.6031   -2.0851    0.0000 N   0  0  0  0  0  0  0  0  0  0  0  0
   -1.1770   -0.6469    0.0000 C   0  0  0  0  0  0  0  0  0  0  0  0
    0.2816   -0.2968    0.0000 C   0  0  0  0  0  0  0  0  0  0  0  0
    0.7077    1.1415    0.0000 C   0  0  0  0  0  0  0  0  0  0  0  0
    2.1662    1.4916    0.0000 C   0  0  0  0  0  0  0  0  0  0  0  0
    3.1987    0.4035    0.0000 C   0  0  0  0  0  0  0  0  0  0  0  0
    2.7726   -1.0347    0.0000 C   0  0  0  0  0  0  0  0  0  0  0  0
    1.3141   -1.3849    0.0000 C   0  0  0  0  0  0  0  0  0  0  0  0
   -2.2095    0.4412    0.0000 C   0  0  0  0  0  0  0  0  0  0  0  0
   -1.7834    1.8794    0.0000 O   0  0  0  0  0  0  0  0  0  0  0  0
   -3.6680    0.0911    0.0000 O   0  0  0  0  0  0  0  0  0  0  0  0
  2  1  1  1
  2  3  1  0
  3  4  1  0
  4  5  1  0
  5  6  1  0
  6  7  1  0
  7  8  1  0
  2  9  1  0
  9 10  2  0
  9 11  1  0
  8  3  1  0
M  END
>  <rName>  (1120) 
D-Chg

>  <PQ_SYMBOL>  (1120) 
D-Chg

>  <FULL_NAME>  (1120) 
D-Cyclohexylglycine

>  <IUPAC_CONDENSED>  (1120) 
D-Chg

>  <IUPAC>  (1120) 
(2R)-2-amino-2-cyclohexylacetic acid

>  <TYPE>  (1120) 
Backbone

>  <CLASS>  (1120) 
alpha

>  <ANALOG>  (1120) 
X

>  <MOL_WT>  (1120) 
157.21300000000002

>  <LOGP>  (1120) 
0.9785999999999997

>  <TPSA>  (1120) 
63.32000000000001

>  <POPULARITY>  (1120) 
20.3

>  <PROTECTED>  (1120) 
TRUE

>  <SMILES>  (1120) 
N[C@H](C1(CCCCC1))C(=O)O

>  <INCHIKEY>  (1120) 
WAMWSIDTKSNDCU-SSDOTTSWSA-N

$$$$
D-Chg_62F
     RDKit          2D

 13 13  0  0  0  0  0  0  0  0999 V2000
   -2.4133   -2.0260    0.0000 N   0  0  0  0  0  0  0  0  0  0  0  0
   -1.8886   -0.6208    0.0000 C   0  0  0  0  0  0  0  0  0  0  0  0
   -0.4092   -0.3726    0.0000 C   0  0  0  0  0  0  0  0  0  0  0  0
    0.1155    1.0326    0.0000 C   0  0  0  0  0  0  0  0  0  0  0  0
    1.5948    1.2808    0.0000 C   0  0  0  0  0  0  0  0  0  0  0  0
    2.5494    0.1237    0.0000 C   0  0  0  0  0  0  0  0  0  0  0  0
    3.5231    1.2647    0.0000 F   0  0  0  0  0  0  0  0  0  0  0  0
    3.8422   -0.6370    0.0000 F   0  0  0  0  0  0  0  0  0  0  0  0
    2.0247   -1.2815    0.0000 C   0  0  0  0  0  0  0  0  0  0  0  0
    0.5454   -1.5297    0.0000 C   0  0  0  0  0  0  0  0  0  0  0  0
   -2.8431    0.5363    0.0000 C   0  0  0  0  0  0  0  0  0  0  0  0
   -2.3184    1.9415    0.0000 O   0  0  0  0  0  0  0  0  0  0  0  0
   -4.3225    0.2881    0.0000 O   0  0  0  0  0  0  0  0  0  0  0  0
  2  1  1  1
  2  3  1  0
  3  4  1  0
  4  5  1  0
  5  6  1  0
  6  7  1  0
  6  8  1  0
  6  9  1  0
  9 10  1  0
  2 11  1  0
 11 12  2  0
 11 13  1  0
 10  3  1  0
M  END
>  <rName>  (1121) 
D-Chg_62F

>  <PQ_SYMBOL>  (1121) 
D-Chg_62F

>  <FULL_NAME>  (1121) 
(2R)-2-amino-2-(4,4-difluorocyclohexyl)acetic acid

>  <IUPAC_CONDENSED>  (1121) 
D-Chg(6-2F)

>  <IUPAC>  (1121) 
(2R)-2-amino-2-(4,4-difluorocyclohexyl)acetic acid

>  <TYPE>  (1121) 
Backbone

>  <CLASS>  (1121) 
alpha

>  <ANALOG>  (1121) 
X

>  <MOL_WT>  (1121) 
193.19299999999998

>  <LOGP>  (1121) 
1.2238

>  <TPSA>  (1121) 
63.32000000000001

>  <POPULARITY>  (1121) 
4.7

>  <PROTECTED>  (1121) 
TRUE

>  <SMILES>  (1121) 
N[C@H](C1(CCC(F)(F)CC1))C(=O)O

>  <INCHIKEY>  (1121) 
HOACGGSRPGHQFC-ZCFIWIBFSA-N

$$$$
D-Cit
     RDKit          2D

 12 11  0  0  0  0  0  0  0  0999 V2000
    2.4617   -1.9005    0.0000 N   0  0  0  0  0  0  0  0  0  0  0  0
    2.4001   -0.4018    0.0000 C   0  0  0  0  0  0  0  0  0  0  0  0
    1.0713    0.2943    0.0000 C   0  0  0  0  0  0  0  0  0  0  0  0
   -0.1958   -0.5085    0.0000 C   0  0  0  0  0  0  0  0  0  0  0  0
   -1.5245    0.1875    0.0000 C   0  0  0  0  0  0  0  0  0  0  0  0
   -2.7917   -0.6152    0.0000 N   0  0  0  0  0  0  0  0  0  0  0  0
   -4.1204    0.0808    0.0000 C   0  0  0  0  0  0  0  0  0  0  0  0
   -4.1820    1.5796    0.0000 O   0  0  0  0  0  0  0  0  0  0  0  0
   -5.3876   -0.7219    0.0000 N   0  0  0  0  0  0  0  0  0  0  0  0
    3.6672    0.4010    0.0000 C   0  0  0  0  0  0  0  0  0  0  0  0
    3.6056    1.8997    0.0000 O   0  0  0  0  0  0  0  0  0  0  0  0
    4.9960   -0.2950    0.0000 O   0  0  0  0  0  0  0  0  0  0  0  0
  2  1  1  6
  2  3  1  0
  3  4  1  0
  4  5  1  0
  5  6  1  0
  6  7  1  0
  7  8  2  0
  7  9  1  0
  2 10  1  0
 10 11  2  0
 10 12  1  0
M  END
>  <rName>  (1122) 
D-Cit

>  <PQ_SYMBOL>  (1122) 
D-Cit

>  <FULL_NAME>  (1122) 
D-Citrulline

>  <IUPAC_CONDENSED>  (1122) 
D-Cit

>  <IUPAC>  (1122) 
(2R)-2-amino-5-(carbamoylamino)pentanoic acid

>  <TYPE>  (1122) 
Backbone

>  <CLASS>  (1122) 
alpha

>  <ANALOG>  (1122) 
Arg

>  <MOL_WT>  (1122) 
175.188

>  <LOGP>  (1122) 
-1.1531999999999991

>  <TPSA>  (1122) 
118.44000000000001

>  <POPULARITY>  (1122) 
16.3

>  <PROTECTED>  (1122) 
TRUE

>  <SMILES>  (1122) 
N[C@H](CCCNC(=O)N)C(=O)O

>  <INCHIKEY>  (1122) 
RHGKLRLOHDJJDR-SCSAIBSYSA-N

$$$$
D-Cys_Bn
     RDKit          2D

 14 14  0  0  0  0  0  0  0  0999 V2000
   -2.7125    1.8435    0.0000 N   0  0  0  0  0  0  0  0  0  0  0  0
   -2.9490    0.3623    0.0000 C   0  0  0  0  0  0  0  0  0  0  0  0
   -1.7844   -0.5831    0.0000 C   0  0  0  0  0  0  0  0  0  0  0  0
   -0.3834   -0.0473    0.0000 S   0  0  0  0  0  0  0  0  0  0  0  0
    0.7812   -0.9927    0.0000 C   0  0  0  0  0  0  0  0  0  0  0  0
    2.1822   -0.4569    0.0000 C   0  0  0  0  0  0  0  0  0  0  0  0
    2.4187    1.0244    0.0000 C   0  0  0  0  0  0  0  0  0  0  0  0
    3.8197    1.5602    0.0000 C   0  0  0  0  0  0  0  0  0  0  0  0
    4.9842    0.6148    0.0000 C   0  0  0  0  0  0  0  0  0  0  0  0
    4.7478   -0.8664    0.0000 C   0  0  0  0  0  0  0  0  0  0  0  0
    3.3467   -1.4023    0.0000 C   0  0  0  0  0  0  0  0  0  0  0  0
   -4.3500   -0.1735    0.0000 C   0  0  0  0  0  0  0  0  0  0  0  0
   -4.5865   -1.6548    0.0000 O   0  0  0  0  0  0  0  0  0  0  0  0
   -5.5146    0.7719    0.0000 O   0  0  0  0  0  0  0  0  0  0  0  0
  2  1  1  6
  2  3  1  0
  3  4  1  0
  4  5  1  0
  5  6  1  0
  6  7  2  0
  7  8  1  0
  8  9  2  0
  9 10  1  0
 10 11  2  0
  2 12  1  0
 12 13  2  0
 12 14  1  0
 11  6  1  0
M  END
>  <rName>  (1123) 
D-Cys_Bn

>  <PQ_SYMBOL>  (1123) 
D-Cys_Bn

>  <FULL_NAME>  (1123) 
S-Benzyl-D-Cysteine

>  <IUPAC_CONDENSED>  (1123) 
D-Cys(Bn)

>  <IUPAC>  (1123) 
(2S)-2-amino-3-(benzylsulfanyl)propanoic acid

>  <TYPE>  (1123) 
Backbone

>  <CLASS>  (1123) 
alpha

>  <ANALOG>  (1123) 
Cys

>  <MOL_WT>  (1123) 
211.286

>  <LOGP>  (1123) 
1.3317

>  <TPSA>  (1123) 
63.32000000000001

>  <POPULARITY>  (1123) 
12.1

>  <PROTECTED>  (1123) 
TRUE

>  <SMILES>  (1123) 
N[C@H](CSCc1(ccccc1))C(=O)O

>  <INCHIKEY>  (1123) 
GHBAYRBVXCRIHT-SECBINFHSA-N

$$$$
D-Cys_Et
     RDKit          2D

  9  8  0  0  0  0  0  0  0  0999 V2000
    0.7616   -1.8791    0.0000 N   0  0  0  0  0  0  0  0  0  0  0  0
    0.8459   -0.3815    0.0000 C   0  0  0  0  0  0  0  0  0  0  0  0
   -0.4089    0.4403    0.0000 C   0  0  0  0  0  0  0  0  0  0  0  0
   -1.7480   -0.2354    0.0000 S   0  0  0  0  0  0  0  0  0  0  0  0
   -3.0029    0.5864    0.0000 C   0  0  0  0  0  0  0  0  0  0  0  0
   -4.3420   -0.0894    0.0000 C   0  0  0  0  0  0  0  0  0  0  0  0
    2.1851    0.2943    0.0000 C   0  0  0  0  0  0  0  0  0  0  0  0
    2.2694    1.7919    0.0000 O   0  0  0  0  0  0  0  0  0  0  0  0
    3.4399   -0.5275    0.0000 O   0  0  0  0  0  0  0  0  0  0  0  0
  2  1  1  6
  2  3  1  0
  3  4  1  0
  4  5  1  0
  5  6  1  0
  2  7  1  0
  7  8  2  0
  7  9  1  0
M  END
>  <rName>  (1124) 
D-Cys_Et

>  <PQ_SYMBOL>  (1124) 
D-Cys_Et

>  <FULL_NAME>  (1124) 
(2S)-2-amino-3-ethylsulfanylpropanoic acid

>  <IUPAC_CONDENSED>  (1124) 
D-Cys(Et)

>  <IUPAC>  (1124) 
(2S)-2-amino-3-(ethylsulfanyl)propanoic acid

>  <TYPE>  (1124) 
Backbone

>  <CLASS>  (1124) 
alpha

>  <ANALOG>  (1124) 
Cys

>  <MOL_WT>  (1124) 
149.215

>  <LOGP>  (1124) 
0.1513999999999997

>  <TPSA>  (1124) 
63.32000000000001

>  <POPULARITY>  (1124) 
14.2

>  <PROTECTED>  (1124) 
TRUE

>  <SMILES>  (1124) 
N[C@H](CSCC)C(=O)O

>  <INCHIKEY>  (1124) 
ULXKXLZEOGLCRJ-SCSAIBSYSA-N

$$$$
D-Cys_Mbzl
     RDKit          2D

 15 15  0  0  0  0  0  0  0  0999 V2000
   -3.0746    1.8754    0.0000 N   0  0  0  0  0  0  0  0  0  0  0  0
   -3.3626    0.4033    0.0000 C   0  0  0  0  0  0  0  0  0  0  0  0
   -2.2318   -0.5822    0.0000 C   0  0  0  0  0  0  0  0  0  0  0  0
   -0.8129   -0.0957    0.0000 S   0  0  0  0  0  0  0  0  0  0  0  0
    0.3179   -1.0812    0.0000 C   0  0  0  0  0  0  0  0  0  0  0  0
    1.7368   -0.5946    0.0000 C   0  0  0  0  0  0  0  0  0  0  0  0
    2.0249    0.8775    0.0000 C   0  0  0  0  0  0  0  0  0  0  0  0
    3.4437    1.3640    0.0000 C   0  0  0  0  0  0  0  0  0  0  0  0
    4.5746    0.3785    0.0000 C   0  0  0  0  0  0  0  0  0  0  0  0
    5.9935    0.8651    0.0000 C   0  0  0  0  0  0  0  0  0  0  0  0
    4.2865   -1.0935    0.0000 C   0  0  0  0  0  0  0  0  0  0  0  0
    2.8676   -1.5801    0.0000 C   0  0  0  0  0  0  0  0  0  0  0  0
   -4.7815   -0.0833    0.0000 C   0  0  0  0  0  0  0  0  0  0  0  0
   -5.0696   -1.5554    0.0000 O   0  0  0  0  0  0  0  0  0  0  0  0
   -5.9124    0.9022    0.0000 O   0  0  0  0  0  0  0  0  0  0  0  0
  2  1  1  6
  2  3  1  0
  3  4  1  0
  4  5  1  0
  5  6  1  0
  6  7  1  0
  7  8  2  0
  8  9  1  0
  9 10  1  0
  9 11  2  0
 11 12  1  0
  2 13  1  0
 13 14  2  0
 13 15  1  0
 12  6  2  0
M  END
>  <rName>  (1125) 
D-Cys_Mbzl

>  <PQ_SYMBOL>  (1125) 
D-Cys_Mbzl

>  <FULL_NAME>  (1125) 
S-(4-methylbenzyl)-D-cysteine

>  <IUPAC_CONDENSED>  (1125) 
D-Cys(Mbzl)

>  <IUPAC>  (1125) 
(2S)-2-amino-3-(((4-methylphenyl)methyl)sulfanyl)propanoic acid

>  <TYPE>  (1125) 
Backbone

>  <CLASS>  (1125) 
alpha

>  <ANALOG>  (1125) 
Cys

>  <MOL_WT>  (1125) 
225.313

>  <LOGP>  (1125) 
1.64012

>  <TPSA>  (1125) 
63.32000000000001

>  <POPULARITY>  (1125) 
5.5

>  <PROTECTED>  (1125) 
TRUE

>  <SMILES>  (1125) 
N[C@H](CSCc1(ccc(C)cc1))C(=O)O

>  <INCHIKEY>  (1125) 
QOAPFSZIUBUTNW-SNVBAGLBSA-N

$$$$
D-Cys_Me
     RDKit          2D

  8  7  0  0  0  0  0  0  0  0999 V2000
   -0.2517   -1.8862    0.0000 N   0  0  0  0  0  0  0  0  0  0  0  0
   -0.3100   -0.3873    0.0000 C   0  0  0  0  0  0  0  0  0  0  0  0
    0.9590    0.4126    0.0000 C   0  0  0  0  0  0  0  0  0  0  0  0
    2.2862   -0.2864    0.0000 S   0  0  0  0  0  0  0  0  0  0  0  0
    3.5551    0.5134    0.0000 C   0  0  0  0  0  0  0  0  0  0  0  0
   -1.6371    0.3117    0.0000 C   0  0  0  0  0  0  0  0  0  0  0  0
   -1.6954    1.8105    0.0000 O   0  0  0  0  0  0  0  0  0  0  0  0
   -2.9061   -0.4882    0.0000 O   0  0  0  0  0  0  0  0  0  0  0  0
  2  1  1  1
  2  3  1  0
  3  4  1  0
  4  5  1  0
  2  6  1  0
  6  7  2  0
  6  8  1  0
M  END
>  <rName>  (1126) 
D-Cys_Me

>  <PQ_SYMBOL>  (1126) 
D-Cys_Me

>  <FULL_NAME>  (1126) 
S-methyl-D-cysteine

>  <IUPAC_CONDENSED>  (1126) 
D-Cys(Me)

>  <IUPAC>  (1126) 
(2S)-2-amino-3-(methylsulfanyl)propanoic acid

>  <TYPE>  (1126) 
Backbone

>  <CLASS>  (1126) 
alpha

>  <ANALOG>  (1126) 
Cys

>  <MOL_WT>  (1126) 
135.188

>  <LOGP>  (1126) 
-0.2387000000000002

>  <TPSA>  (1126) 
63.32000000000001

>  <POPULARITY>  (1126) 
20.5

>  <PROTECTED>  (1126) 
TRUE

>  <SMILES>  (1126) 
N[C@H](CSC)C(=O)O

>  <INCHIKEY>  (1126) 
IDIDJDIHTAOVLG-GSVOUGTGSA-N

$$$$
D-Cys_NH2
     RDKit          2D

  8  7  0  0  0  0  0  0  0  0999 V2000
   -0.2517   -1.8862    0.0000 N   0  0  0  0  0  0  0  0  0  0  0  0
   -0.3100   -0.3873    0.0000 C   0  0  0  0  0  0  0  0  0  0  0  0
    0.9590    0.4126    0.0000 C   0  0  0  0  0  0  0  0  0  0  0  0
    2.2862   -0.2864    0.0000 S   0  0  0  0  0  0  0  0  0  0  0  0
    3.5551    0.5134    0.0000 N   0  0  0  0  0  0  0  0  0  0  0  0
   -1.6371    0.3117    0.0000 C   0  0  0  0  0  0  0  0  0  0  0  0
   -1.6954    1.8105    0.0000 O   0  0  0  0  0  0  0  0  0  0  0  0
   -2.9061   -0.4882    0.0000 O   0  0  0  0  0  0  0  0  0  0  0  0
  2  1  1  1
  2  3  1  0
  3  4  1  0
  4  5  1  0
  2  6  1  0
  6  7  2  0
  6  8  1  0
M  END
>  <rName>  (1127) 
D-Cys_NH2

>  <PQ_SYMBOL>  (1127) 
D-Cys_NH2

>  <FULL_NAME>  (1127) 
S-amino-D-cysteine

>  <IUPAC_CONDENSED>  (1127) 
D-Cys(NH2)

>  <IUPAC>  (1127) 
(2S)-2-amino-3-(aminosulfanyl)propanoic acid

>  <TYPE>  (1127) 
Backbone

>  <CLASS>  (1127) 
alpha

>  <ANALOG>  (1127) 
Cys

>  <MOL_WT>  (1127) 
136.17600000000002

>  <LOGP>  (1127) 
-0.9947999999999999

>  <TPSA>  (1127) 
89.34

>  <POPULARITY>  (1127) 
6.7

>  <PROTECTED>  (1127) 
TRUE

>  <SMILES>  (1127) 
N[C@H](CSN)C(=O)O

>  <INCHIKEY>  (1127) 
BIZJDMCTNSRKLZ-UWTATZPHSA-N

$$$$
D-Cys_O3H
     RDKit          2D

 10  9  0  0  0  0  0  0  0  0999 V2000
   -0.5029   -1.7542    0.0000 N   0  0  0  0  0  0  0  0  0  0  0  0
   -0.7450   -0.2738    0.0000 C   0  0  0  0  0  0  0  0  0  0  0  0
    0.4160    0.6760    0.0000 C   0  0  0  0  0  0  0  0  0  0  0  0
    1.8190    0.1455    0.0000 S   0  0  0  0  0  0  0  0  0  0  0  0
    2.3495    1.5485    0.0000 O   0  0  0  0  0  0  0  0  0  0  0  0
    1.2885   -1.2576    0.0000 O   0  0  0  0  0  0  0  0  0  0  0  0
    3.2221   -0.3850    0.0000 O   0  0  0  0  0  0  0  0  0  0  0  0
   -2.1480    0.2567    0.0000 C   0  0  0  0  0  0  0  0  0  0  0  0
   -2.3901    1.7370    0.0000 O   0  0  0  0  0  0  0  0  0  0  0  0
   -3.3090   -0.6932    0.0000 O   0  0  0  0  0  0  0  0  0  0  0  0
  2  1  1  1
  2  3  1  0
  3  4  1  0
  4  5  2  0
  4  6  2  0
  4  7  1  0
  2  8  1  0
  8  9  2  0
  8 10  1  0
M  END
>  <rName>  (1128) 
D-Cys_O3H

>  <PQ_SYMBOL>  (1128) 
D-Cys_O3H

>  <FULL_NAME>  (1128) 
D-Cysteic acid

>  <IUPAC_CONDENSED>  (1128) 
D-Cys(O3H)

>  <IUPAC>  (1128) 
(2S)-2-amino-3-sulfopropanoic acid

>  <TYPE>  (1128) 
Backbone

>  <CLASS>  (1128) 
alpha

>  <ANALOG>  (1128) 
X

>  <MOL_WT>  (1128) 
169.158

>  <LOGP>  (1128) 
-1.7138999999999998

>  <TPSA>  (1128) 
117.69000000000001

>  <POPULARITY>  (1128) 
12.9

>  <PROTECTED>  (1128) 
TRUE

>  <SMILES>  (1128) 
N[C@H](CS(=O)(=O)O)C(=O)O

>  <INCHIKEY>  (1128) 
XVOYSCVBGLVSOL-UWTATZPHSA-N

$$$$
D-Cys_benzhydryl
     RDKit          2D

 20 21  0  0  0  0  0  0  0  0999 V2000
   -2.9654   -2.8732    0.0000 N   0  0  0  0  0  0  0  0  0  0  0  0
   -3.1211   -1.3813    0.0000 C   0  0  0  0  0  0  0  0  0  0  0  0
   -1.9069   -0.5006    0.0000 C   0  0  0  0  0  0  0  0  0  0  0  0
   -0.5371   -1.1117    0.0000 S   0  0  0  0  0  0  0  0  0  0  0  0
    0.6771   -0.2310    0.0000 C   0  0  0  0  0  0  0  0  0  0  0  0
    2.0470   -0.8421    0.0000 C   0  0  0  0  0  0  0  0  0  0  0  0
    2.2027   -2.3340    0.0000 C   0  0  0  0  0  0  0  0  0  0  0  0
    3.5725   -2.9452    0.0000 C   0  0  0  0  0  0  0  0  0  0  0  0
    4.7867   -2.0644    0.0000 C   0  0  0  0  0  0  0  0  0  0  0  0
    4.6310   -0.5725    0.0000 C   0  0  0  0  0  0  0  0  0  0  0  0
    3.2612    0.0386    0.0000 C   0  0  0  0  0  0  0  0  0  0  0  0
    0.5215    1.2609    0.0000 C   0  0  0  0  0  0  0  0  0  0  0  0
    1.7357    2.1417    0.0000 C   0  0  0  0  0  0  0  0  0  0  0  0
    1.5800    3.6336    0.0000 C   0  0  0  0  0  0  0  0  0  0  0  0
    0.2102    4.2447    0.0000 C   0  0  0  0  0  0  0  0  0  0  0  0
   -1.0040    3.3640    0.0000 C   0  0  0  0  0  0  0  0  0  0  0  0
   -0.8484    1.8721    0.0000 C   0  0  0  0  0  0  0  0  0  0  0  0
   -4.4910   -0.7702    0.0000 C   0  0  0  0  0  0  0  0  0  0  0  0
   -4.6466    0.7217    0.0000 O   0  0  0  0  0  0  0  0  0  0  0  0
   -5.7051   -1.6510    0.0000 O   0  0  0  0  0  0  0  0  0  0  0  0
  2  1  1  1
  2  3  1  0
  3  4  1  0
  4  5  1  0
  5  6  1  0
  6  7  2  0
  7  8  1  0
  8  9  2  0
  9 10  1  0
 10 11  2  0
  5 12  1  0
 12 13  2  0
 13 14  1  0
 14 15  2  0
 15 16  1  0
 16 17  2  0
  2 18  1  0
 18 19  2  0
 18 20  1  0
 11  6  1  0
 17 12  1  0
M  END
>  <rName>  (1129) 
D-Cys_benzhydryl

>  <PQ_SYMBOL>  (1129) 
D-Cys_benzhydryl

>  <FULL_NAME>  (1129) 
S-benzhydryl-D-cysteine

>  <IUPAC_CONDENSED>  (1129) 
D-Cys(benzhydryl)

>  <IUPAC>  (1129) 
(2S)-2-amino-3-((diphenylmethyl)sulfanyl)propanoic acid

>  <TYPE>  (1129) 
Backbone

>  <CLASS>  (1129) 
alpha

>  <ANALOG>  (1129) 
Cys

>  <MOL_WT>  (1129) 
287.384

>  <LOGP>  (1129) 
2.921100000000001

>  <TPSA>  (1129) 
63.32000000000001

>  <POPULARITY>  (1129) 
6.3

>  <PROTECTED>  (1129) 
TRUE

>  <SMILES>  (1129) 
N[C@H](CSC(c1(ccccc1))c2(ccccc2))C(=O)O

>  <INCHIKEY>  (1129) 
SHOGZCIBPYFZRP-CQSZACIVSA-N

$$$$
D-Dab
     RDKit          2D

  8  7  0  0  0  0  0  0  0  0999 V2000
   -0.2517    1.8862    0.0000 N   0  0  0  0  0  0  0  0  0  0  0  0
   -0.3100    0.3873    0.0000 C   0  0  0  0  0  0  0  0  0  0  0  0
    0.9590   -0.4126    0.0000 C   0  0  0  0  0  0  0  0  0  0  0  0
    2.2862    0.2864    0.0000 C   0  0  0  0  0  0  0  0  0  0  0  0
    3.5551   -0.5134    0.0000 N   0  0  0  0  0  0  0  0  0  0  0  0
   -1.6371   -0.3117    0.0000 C   0  0  0  0  0  0  0  0  0  0  0  0
   -1.6954   -1.8105    0.0000 O   0  0  0  0  0  0  0  0  0  0  0  0
   -2.9061    0.4882    0.0000 O   0  0  0  0  0  0  0  0  0  0  0  0
  2  1  1  6
  2  3  1  0
  3  4  1  0
  4  5  1  0
  2  6  1  0
  6  7  2  0
  6  8  1  0
M  END
>  <rName>  (1130) 
D-Dab

>  <PQ_SYMBOL>  (1130) 
D-Dab

>  <FULL_NAME>  (1130) 
(R)-2,4-Diaminobutanoic acid

>  <IUPAC_CONDENSED>  (1130) 
D-Dab

>  <IUPAC>  (1130) 
(2R)-2,4-diaminobutanoic acid

>  <TYPE>  (1130) 
Backbone

>  <CLASS>  (1130) 
alpha

>  <ANALOG>  (1130) 
X

>  <MOL_WT>  (1130) 
118.13599999999998

>  <LOGP>  (1130) 
-1.2528999999999997

>  <TPSA>  (1130) 
89.34

>  <POPULARITY>  (1130) 
36.8

>  <PROTECTED>  (1130) 
TRUE

>  <SMILES>  (1130) 
N[C@H](CCN)C(=O)O

>  <INCHIKEY>  (1130) 
OGNSCSPNOLGXSM-GSVOUGTGSA-N

$$$$
D-Dab_Ac
     RDKit          2D

 11 10  0  0  0  0  0  0  0  0999 V2000
    4.6637    0.9280    0.0000 C   0  0  0  0  0  0  0  0  0  0  0  0
    3.4300    0.0748    0.0000 C   0  0  0  0  0  0  0  0  0  0  0  0
    3.5521   -1.4203    0.0000 O   0  0  0  0  0  0  0  0  0  0  0  0
    2.0743    0.7166    0.0000 N   0  0  0  0  0  0  0  0  0  0  0  0
    0.8406   -0.1366    0.0000 C   0  0  0  0  0  0  0  0  0  0  0  0
   -0.5152    0.5052    0.0000 C   0  0  0  0  0  0  0  0  0  0  0  0
   -1.7489   -0.3480    0.0000 C   0  0  0  0  0  0  0  0  0  0  0  0
   -1.6269   -1.8430    0.0000 N   0  0  0  0  0  0  0  0  0  0  0  0
   -3.1047    0.2938    0.0000 C   0  0  0  0  0  0  0  0  0  0  0  0
   -3.2267    1.7889    0.0000 O   0  0  0  0  0  0  0  0  0  0  0  0
   -4.3384   -0.5594    0.0000 O   0  0  0  0  0  0  0  0  0  0  0  0
  1  2  1  0
  2  3  2  0
  2  4  1  0
  4  5  1  0
  5  6  1  0
  6  7  1  0
  7  8  1  1
  7  9  1  0
  9 10  2  0
  9 11  1  0
M  END
>  <rName>  (1131) 
D-Dab_Ac

>  <PQ_SYMBOL>  (1131) 
D-Dab_Ac

>  <FULL_NAME>  (1131) 
(2R)-4-acetamido-2-aminobutanoic acid

>  <IUPAC_CONDENSED>  (1131) 
D-Dab(Ac)

>  <IUPAC>  (1131) 
(2R)-4-acetamido-2-aminobutanoic acid

>  <TYPE>  (1131) 
Backbone

>  <CLASS>  (1131) 
alpha

>  <ANALOG>  (1131) 
X

>  <MOL_WT>  (1131) 
160.173

>  <LOGP>  (1131) 
-1.0754999999999995

>  <TPSA>  (1131) 
92.42

>  <POPULARITY>  (1131) 
3.5

>  <PROTECTED>  (1131) 
TRUE

>  <SMILES>  (1131) 
CC(=O)NCC[C@@H](N)C(=O)O

>  <INCHIKEY>  (1131) 
YLZRFVZUZIJABA-RXMQYKEDSA-N

$$$$
D-Dab_Me
     RDKit          2D

  9  8  0  0  0  0  0  0  0  0999 V2000
    0.7616   -1.8791    0.0000 N   0  0  0  0  0  0  0  0  0  0  0  0
    0.8459   -0.3815    0.0000 C   0  0  0  0  0  0  0  0  0  0  0  0
   -0.4089    0.4403    0.0000 C   0  0  0  0  0  0  0  0  0  0  0  0
   -1.7480   -0.2354    0.0000 C   0  0  0  0  0  0  0  0  0  0  0  0
   -3.0029    0.5864    0.0000 N   0  0  0  0  0  0  0  0  0  0  0  0
   -4.3420   -0.0894    0.0000 C   0  0  0  0  0  0  0  0  0  0  0  0
    2.1851    0.2943    0.0000 C   0  0  0  0  0  0  0  0  0  0  0  0
    2.2694    1.7919    0.0000 O   0  0  0  0  0  0  0  0  0  0  0  0
    3.4399   -0.5275    0.0000 O   0  0  0  0  0  0  0  0  0  0  0  0
  2  1  1  6
  2  3  1  0
  3  4  1  0
  4  5  1  0
  5  6  1  0
  2  7  1  0
  7  8  2  0
  7  9  1  0
M  END
>  <rName>  (1132) 
D-Dab_Me

>  <PQ_SYMBOL>  (1132) 
D-Dab_Me

>  <FULL_NAME>  (1132) 
D-Dab(Me)

>  <IUPAC_CONDENSED>  (1132) 
D-Dab(Me)

>  <IUPAC>  (1132) 
(2R)-2-amino-4-(methylamino)butanoic acid

>  <TYPE>  (1132) 
Backbone

>  <CLASS>  (1132) 
alpha

>  <ANALOG>  (1132) 
X

>  <MOL_WT>  (1132) 
132.16299999999998

>  <LOGP>  (1132) 
-0.9921999999999997

>  <TPSA>  (1132) 
75.35

>  <POPULARITY>  (1132) 
3.5

>  <PROTECTED>  (1132) 
TRUE

>  <SMILES>  (1132) 
N[C@H](CCNC)C(=O)O

>  <INCHIKEY>  (1132) 
OZIXMSIQZYAGGK-SCSAIBSYSA-N

$$$$
D-Dab_N3
     RDKit          2D

 10  9  0  0  0  0  0  0  0  0999 V2000
   -1.2340    1.8694    0.0000 N   0  0  0  0  0  0  0  0  0  0  0  0
   -1.3962    0.3782    0.0000 C   0  0  0  0  0  0  0  0  0  0  0  0
   -0.1859   -0.5079    0.0000 C   0  0  0  0  0  0  0  0  0  0  0  0
    1.1866    0.0973    0.0000 C   0  0  0  0  0  0  0  0  0  0  0  0
    2.3969   -0.7888    0.0000 N   0  0  0  0  0  0  0  0  0  0  0  0
    3.7695   -0.1837    0.0000 N   0  0  0  0  0  0  0  0  0  0  0  0
    5.1420    0.4214    0.0000 N   0  0  0  0  0  0  0  0  0  0  0  0
   -2.7688   -0.2269    0.0000 C   0  0  0  0  0  0  0  0  0  0  0  0
   -2.9310   -1.7181    0.0000 O   0  0  0  0  0  0  0  0  0  0  0  0
   -3.9791    0.6591    0.0000 O   0  0  0  0  0  0  0  0  0  0  0  0
  2  1  1  6
  2  3  1  0
  3  4  1  0
  4  5  1  0
  5  6  2  0
  6  7  2  0
  2  8  1  0
  8  9  2  0
  8 10  1  0
M  CHG  2   6   1   7  -1
M  END
>  <rName>  (1133) 
D-Dab_N3

>  <PQ_SYMBOL>  (1133) 
D-Dab_N3

>  <FULL_NAME>  (1133) 
4-Azido-d-homoalanine

>  <IUPAC_CONDENSED>  (1133) 
D-Dab(N3)

>  <IUPAC>  (1133) 
(2R)-2-amino-4-azidobutanoic acid

>  <TYPE>  (1133) 
Backbone

>  <CLASS>  (1133) 
alpha

>  <ANALOG>  (1133) 
X

>  <MOL_WT>  (1133) 
144.13400000000001

>  <LOGP>  (1133) 
0.09869999999999973

>  <TPSA>  (1133) 
112.08

>  <POPULARITY>  (1133) 
3.5

>  <PROTECTED>  (1133) 
TRUE

>  <SMILES>  (1133) 
N[C@H](CCN=[N+]=[N-])C(=O)O

>  <INCHIKEY>  (1133) 
NNWQLZWAZSJGLY-GSVOUGTGSA-N

$$$$
D-Dap
     RDKit          2D

  7  6  0  0  0  0  0  0  0  0999 V2000
    0.5797   -1.7367    0.0000 N   0  0  0  0  0  0  0  0  0  0  0  0
    0.2514   -0.2730    0.0000 C   0  0  0  0  0  0  0  0  0  0  0  0
    1.3548    0.7431    0.0000 C   0  0  0  0  0  0  0  0  0  0  0  0
    2.7865    0.2956    0.0000 N   0  0  0  0  0  0  0  0  0  0  0  0
   -1.1803    0.1745    0.0000 C   0  0  0  0  0  0  0  0  0  0  0  0
   -1.5086    1.6381    0.0000 O   0  0  0  0  0  0  0  0  0  0  0  0
   -2.2837   -0.8417    0.0000 O   0  0  0  0  0  0  0  0  0  0  0  0
  2  1  1  1
  2  3  1  0
  3  4  1  0
  2  5  1  0
  5  6  2  0
  5  7  1  0
M  END
>  <rName>  (1134) 
D-Dap

>  <PQ_SYMBOL>  (1134) 
D-Dap

>  <FULL_NAME>  (1134) 
3-Amino-D-Alanine, (R)-2,3-Diaminopropionic acid

>  <IUPAC_CONDENSED>  (1134) 
D-Dap

>  <IUPAC>  (1134) 
(2R)-2,3-diaminopropanoic acid

>  <TYPE>  (1134) 
Backbone

>  <CLASS>  (1134) 
alpha

>  <ANALOG>  (1134) 
X

>  <MOL_WT>  (1134) 
104.10899999999998

>  <LOGP>  (1134) 
-1.6429999999999998

>  <TPSA>  (1134) 
89.34

>  <POPULARITY>  (1134) 
35.6

>  <PROTECTED>  (1134) 
TRUE

>  <SMILES>  (1134) 
N[C@H](CN)C(=O)O

>  <INCHIKEY>  (1134) 
PECYZEOJVXMISF-UWTATZPHSA-N

$$$$
D-Dap_3RMe
     RDKit          2D

  8  7  0  0  0  0  0  0  0  0999 V2000
    0.0000   -2.0625    0.0000 N   0  0  0  0  0  0  0  0  0  0  0  0
    0.0000   -0.5625    0.0000 C   0  0  0  0  0  0  0  0  0  0  0  0
   -1.2990    0.1875    0.0000 C   0  0  0  0  0  0  0  0  0  0  0  0
   -2.5981   -0.5625    0.0000 C   0  0  0  0  0  0  0  0  0  0  0  0
   -1.2990    1.6875    0.0000 N   0  0  0  0  0  0  0  0  0  0  0  0
    1.2990    0.1875    0.0000 C   0  0  0  0  0  0  0  0  0  0  0  0
    1.2990    1.6875    0.0000 O   0  0  0  0  0  0  0  0  0  0  0  0
    2.5981   -0.5625    0.0000 O   0  0  0  0  0  0  0  0  0  0  0  0
  2  1  1  6
  2  3  1  0
  3  4  1  1
  3  5  1  0
  2  6  1  0
  6  7  2  0
  6  8  1  0
M  END
>  <rName>  (1135) 
D-Dap_3RMe

>  <PQ_SYMBOL>  (1135) 
D-Dap_3RMe

>  <FULL_NAME>  (1135) 
(2R,3R)-2,3-DIAMINOBUTANOIC ACID

>  <IUPAC_CONDENSED>  (1135) 
D-Dap(3R-Me)

>  <IUPAC>  (1135) 
(2R,3R)-2,3-diaminobutanoic acid

>  <TYPE>  (1135) 
Backbone

>  <CLASS>  (1135) 
alpha

>  <ANALOG>  (1135) 
X

>  <MOL_WT>  (1135) 
118.136

>  <LOGP>  (1135) 
-1.2544999999999995

>  <TPSA>  (1135) 
89.34

>  <POPULARITY>  (1135) 
12.6

>  <PROTECTED>  (1135) 
TRUE

>  <SMILES>  (1135) 
N[C@H]([C@@H](C)N)C(=O)O

>  <INCHIKEY>  (1135) 
SXGMVGOVILIERA-PWNYCUMCSA-N

$$$$
D-Dap_3RMe_N3
     RDKit          2D

 10  9  0  0  0  0  0  0  0  0999 V2000
   -2.1925   -1.4493    0.0000 N   0  0  0  0  0  0  0  0  0  0  0  0
   -0.9836   -0.5613    0.0000 C   0  0  0  0  0  0  0  0  0  0  0  0
   -1.1482    0.9296    0.0000 C   0  0  0  0  0  0  0  0  0  0  0  0
   -2.5216    1.5326    0.0000 C   0  0  0  0  0  0  0  0  0  0  0  0
    0.0607    1.8176    0.0000 N   0  0  0  0  0  0  0  0  0  0  0  0
    1.4342    1.2147    0.0000 N   0  0  0  0  0  0  0  0  0  0  0  0
    2.8077    0.6117    0.0000 N   0  0  0  0  0  0  0  0  0  0  0  0
    0.3899   -1.1643    0.0000 C   0  0  0  0  0  0  0  0  0  0  0  0
    1.5988   -0.2763    0.0000 O   0  0  0  0  0  0  0  0  0  0  0  0
    0.5545   -2.6552    0.0000 O   0  0  0  0  0  0  0  0  0  0  0  0
  2  1  1  6
  2  3  1  0
  3  4  1  1
  3  5  1  0
  5  6  2  0
  6  7  2  0
  2  8  1  0
  8  9  2  0
  8 10  1  0
M  CHG  2   6   1   7  -1
M  END
>  <rName>  (1136) 
D-Dap_3RMe_N3

>  <PQ_SYMBOL>  (1136) 
D-Dap_3RMe_N3

>  <FULL_NAME>  (1136) 
(2R,3R)-2-amino-3-azidobutanoic acid

>  <IUPAC_CONDENSED>  (1136) 
D-Dap(3R-Me,N3)

>  <IUPAC>  (1136) 
(2R,3R)-2-amino-3-azidobutanoic acid

>  <TYPE>  (1136) 
Backbone

>  <CLASS>  (1136) 
alpha

>  <ANALOG>  (1136) 
X

>  <MOL_WT>  (1136) 
144.13400000000001

>  <LOGP>  (1136) 
0.09709999999999991

>  <TPSA>  (1136) 
112.08

>  <POPULARITY>  (1136) 
3.5

>  <PROTECTED>  (1136) 
TRUE

>  <SMILES>  (1136) 
N[C@H]([C@@H](C)N=[N+]=[N-])C(=O)O

>  <INCHIKEY>  (1136) 
VFSRYBKOKKWXQW-PWNYCUMCSA-N

$$$$
D-Dap_3SMe
     RDKit          2D

  8  7  0  0  0  0  0  0  0  0999 V2000
    0.0000   -2.0625    0.0000 N   0  0  0  0  0  0  0  0  0  0  0  0
    0.0000   -0.5625    0.0000 C   0  0  0  0  0  0  0  0  0  0  0  0
   -1.2990    0.1875    0.0000 C   0  0  0  0  0  0  0  0  0  0  0  0
   -2.5981   -0.5625    0.0000 C   0  0  0  0  0  0  0  0  0  0  0  0
   -1.2990    1.6875    0.0000 N   0  0  0  0  0  0  0  0  0  0  0  0
    1.2990    0.1875    0.0000 C   0  0  0  0  0  0  0  0  0  0  0  0
    1.2990    1.6875    0.0000 O   0  0  0  0  0  0  0  0  0  0  0  0
    2.5981   -0.5625    0.0000 O   0  0  0  0  0  0  0  0  0  0  0  0
  2  1  1  6
  2  3  1  0
  3  4  1  6
  3  5  1  0
  2  6  1  0
  6  7  2  0
  6  8  1  0
M  END
>  <rName>  (1137) 
D-Dap_3SMe

>  <PQ_SYMBOL>  (1137) 
D-Dap_3SMe

>  <FULL_NAME>  (1137) 
(2R,3S)-2,3-diaminobutanoic acid

>  <IUPAC_CONDENSED>  (1137) 
D-Dap(3S-Me)

>  <IUPAC>  (1137) 
(2R,3S)-2,3-diaminobutanoic acid

>  <TYPE>  (1137) 
Backbone

>  <CLASS>  (1137) 
alpha

>  <ANALOG>  (1137) 
X

>  <MOL_WT>  (1137) 
118.136

>  <LOGP>  (1137) 
-1.2544999999999995

>  <TPSA>  (1137) 
89.34

>  <POPULARITY>  (1137) 
11.2

>  <PROTECTED>  (1137) 
TRUE

>  <SMILES>  (1137) 
N[C@H]([C@H](C)N)C(=O)O

>  <INCHIKEY>  (1137) 
SXGMVGOVILIERA-STHAYSLISA-N

$$$$
D-Dap_3SMe_N3
     RDKit          2D

 10  9  0  0  0  0  0  0  0  0999 V2000
   -2.1925   -1.4493    0.0000 N   0  0  0  0  0  0  0  0  0  0  0  0
   -0.9836   -0.5613    0.0000 C   0  0  0  0  0  0  0  0  0  0  0  0
   -1.1482    0.9296    0.0000 C   0  0  0  0  0  0  0  0  0  0  0  0
   -2.5216    1.5326    0.0000 C   0  0  0  0  0  0  0  0  0  0  0  0
    0.0607    1.8176    0.0000 N   0  0  0  0  0  0  0  0  0  0  0  0
    1.4342    1.2147    0.0000 N   0  0  0  0  0  0  0  0  0  0  0  0
    2.8077    0.6117    0.0000 N   0  0  0  0  0  0  0  0  0  0  0  0
    0.3899   -1.1643    0.0000 C   0  0  0  0  0  0  0  0  0  0  0  0
    1.5988   -0.2763    0.0000 O   0  0  0  0  0  0  0  0  0  0  0  0
    0.5545   -2.6552    0.0000 O   0  0  0  0  0  0  0  0  0  0  0  0
  2  1  1  6
  2  3  1  0
  3  4  1  6
  3  5  1  0
  5  6  2  0
  6  7  2  0
  2  8  1  0
  8  9  2  0
  8 10  1  0
M  CHG  2   6   1   7  -1
M  END
>  <rName>  (1138) 
D-Dap_3SMe_N3

>  <PQ_SYMBOL>  (1138) 
D-Dap_3SMe_N3

>  <FULL_NAME>  (1138) 
D-Dap(3S-Me,N3)

>  <IUPAC_CONDENSED>  (1138) 
D-Dap(3S-Me,N3)

>  <IUPAC>  (1138) 
(2R,3S)-2-amino-3-azidobutanoic acid

>  <TYPE>  (1138) 
Backbone

>  <CLASS>  (1138) 
alpha

>  <ANALOG>  (1138) 
X

>  <MOL_WT>  (1138) 
144.13400000000001

>  <LOGP>  (1138) 
0.09709999999999991

>  <TPSA>  (1138) 
112.08

>  <POPULARITY>  (1138) 
3.5

>  <PROTECTED>  (1138) 
TRUE

>  <SMILES>  (1138) 
N[C@H]([C@H](C)N=[N+]=[N-])C(=O)O

>  <INCHIKEY>  (1138) 
VFSRYBKOKKWXQW-STHAYSLISA-N

$$$$
D-Dap_CONH2
     RDKit          2D

 10  9  0  0  0  0  0  0  0  0999 V2000
    1.2717    1.9622    0.0000 N   0  0  0  0  0  0  0  0  0  0  0  0
    1.1946    0.4642    0.0000 C   0  0  0  0  0  0  0  0  0  0  0  0
   -0.1413   -0.2180    0.0000 C   0  0  0  0  0  0  0  0  0  0  0  0
   -1.4001    0.5978    0.0000 N   0  0  0  0  0  0  0  0  0  0  0  0
   -2.7359   -0.0845    0.0000 C   0  0  0  0  0  0  0  0  0  0  0  0
   -2.8131   -1.5825    0.0000 O   0  0  0  0  0  0  0  0  0  0  0  0
   -3.9947    0.7313    0.0000 N   0  0  0  0  0  0  0  0  0  0  0  0
    2.4533   -0.3516    0.0000 C   0  0  0  0  0  0  0  0  0  0  0  0
    2.3762   -1.8496    0.0000 O   0  0  0  0  0  0  0  0  0  0  0  0
    3.7892    0.3306    0.0000 O   0  0  0  0  0  0  0  0  0  0  0  0
  2  1  1  1
  2  3  1  0
  3  4  1  0
  4  5  1  0
  5  6  2  0
  5  7  1  0
  2  8  1  0
  8  9  2  0
  8 10  1  0
M  END
>  <rName>  (1139) 
D-Dap_CONH2

>  <PQ_SYMBOL>  (1139) 
D-Dap_CONH2

>  <FULL_NAME>  (1139) 
D-Albizziin, 3-((aminocarbonyl)amino)-D-Alanine

>  <IUPAC_CONDENSED>  (1139) 
D-Dap(CONH2)

>  <IUPAC>  (1139) 
(2R)-2-amino-3-(carbamoylamino)propanoic acid

>  <TYPE>  (1139) 
Backbone

>  <CLASS>  (1139) 
alpha

>  <ANALOG>  (1139) 
Arg

>  <MOL_WT>  (1139) 
147.13400000000001

>  <LOGP>  (1139) 
-1.9333999999999998

>  <TPSA>  (1139) 
118.44000000000001

>  <POPULARITY>  (1139) 
8.1

>  <PROTECTED>  (1139) 
TRUE

>  <SMILES>  (1139) 
N[C@H](CNC(=O)N)C(=O)O

>  <INCHIKEY>  (1139) 
GZYFIMLSHBLMKF-UWTATZPHSA-N

$$$$
D-Dap_Me
     RDKit          2D

  8  7  0  0  0  0  0  0  0  0999 V2000
   -0.2517   -1.8862    0.0000 N   0  0  0  0  0  0  0  0  0  0  0  0
   -0.3100   -0.3873    0.0000 C   0  0  0  0  0  0  0  0  0  0  0  0
    0.9590    0.4126    0.0000 C   0  0  0  0  0  0  0  0  0  0  0  0
    2.2862   -0.2864    0.0000 N   0  0  0  0  0  0  0  0  0  0  0  0
    3.5551    0.5134    0.0000 C   0  0  0  0  0  0  0  0  0  0  0  0
   -1.6371    0.3117    0.0000 C   0  0  0  0  0  0  0  0  0  0  0  0
   -1.6954    1.8105    0.0000 O   0  0  0  0  0  0  0  0  0  0  0  0
   -2.9061   -0.4882    0.0000 O   0  0  0  0  0  0  0  0  0  0  0  0
  2  1  1  1
  2  3  1  0
  3  4  1  0
  4  5  1  0
  2  6  1  0
  6  7  2  0
  6  8  1  0
M  END
>  <rName>  (1140) 
D-Dap_Me

>  <PQ_SYMBOL>  (1140) 
D-Dap_Me

>  <FULL_NAME>  (1140) 
3-(N-Methylamino)-D-alanine

>  <IUPAC_CONDENSED>  (1140) 
D-Dap(Me)

>  <IUPAC>  (1140) 
(2R)-2-amino-3-(methylamino)propanoic acid

>  <TYPE>  (1140) 
Backbone

>  <CLASS>  (1140) 
alpha

>  <ANALOG>  (1140) 
X

>  <MOL_WT>  (1140) 
118.13599999999998

>  <LOGP>  (1140) 
-1.3822999999999996

>  <TPSA>  (1140) 
75.35

>  <POPULARITY>  (1140) 
3.5

>  <PROTECTED>  (1140) 
TRUE

>  <SMILES>  (1140) 
N[C@H](CNC)C(=O)O

>  <INCHIKEY>  (1140) 
UJVHVMNGOZXSOZ-GSVOUGTGSA-N

$$$$
D-Dap_Me2
     RDKit          2D

  9  8  0  0  0  0  0  0  0  0999 V2000
    0.2826   -1.7410    0.0000 N   0  0  0  0  0  0  0  0  0  0  0  0
    0.5402   -0.2633    0.0000 C   0  0  0  0  0  0  0  0  0  0  0  0
   -0.6108    0.6986    0.0000 C   0  0  0  0  0  0  0  0  0  0  0  0
   -2.0193    0.1828    0.0000 N   0  0  0  0  0  0  0  0  0  0  0  0
   -3.1703    1.1447    0.0000 C   0  0  0  0  0  0  0  0  0  0  0  0
   -2.2769   -1.2950    0.0000 C   0  0  0  0  0  0  0  0  0  0  0  0
    1.9487    0.2525    0.0000 C   0  0  0  0  0  0  0  0  0  0  0  0
    2.2062    1.7302    0.0000 O   0  0  0  0  0  0  0  0  0  0  0  0
    3.0997   -0.7094    0.0000 O   0  0  0  0  0  0  0  0  0  0  0  0
  2  1  1  6
  2  3  1  0
  3  4  1  0
  4  5  1  0
  4  6  1  0
  2  7  1  0
  7  8  2  0
  7  9  1  0
M  END
>  <rName>  (1141) 
D-Dap_Me2

>  <PQ_SYMBOL>  (1141) 
D-Dap_Me2

>  <FULL_NAME>  (1141) 
(2R)-2-amino-3-(dimethylamino)propanoic acid

>  <IUPAC_CONDENSED>  (1141) 
D-Dap(Me2)

>  <IUPAC>  (1141) 
(2R)-2-amino-3-(dimethylamino)propanoic acid

>  <TYPE>  (1141) 
Backbone

>  <CLASS>  (1141) 
alpha

>  <ANALOG>  (1141) 
X

>  <MOL_WT>  (1141) 
132.16299999999998

>  <LOGP>  (1141) 
-1.0400999999999994

>  <TPSA>  (1141) 
66.56

>  <POPULARITY>  (1141) 
12.9

>  <PROTECTED>  (1141) 
TRUE

>  <SMILES>  (1141) 
N[C@H](CN(C)C)C(=O)O

>  <INCHIKEY>  (1141) 
KEZRWUUMKVVUPT-SCSAIBSYSA-N

$$$$
D-Dap_acetyl
     RDKit          2D

 10  9  0  0  0  0  0  0  0  0999 V2000
    3.9947    0.7313    0.0000 C   0  0  0  0  0  0  0  0  0  0  0  0
    2.7359   -0.0845    0.0000 C   0  0  0  0  0  0  0  0  0  0  0  0
    2.8131   -1.5825    0.0000 O   0  0  0  0  0  0  0  0  0  0  0  0
    1.4001    0.5978    0.0000 N   0  0  0  0  0  0  0  0  0  0  0  0
    0.1413   -0.2180    0.0000 C   0  0  0  0  0  0  0  0  0  0  0  0
   -1.1946    0.4642    0.0000 C   0  0  0  0  0  0  0  0  0  0  0  0
   -1.2717    1.9622    0.0000 N   0  0  0  0  0  0  0  0  0  0  0  0
   -2.4533   -0.3516    0.0000 C   0  0  0  0  0  0  0  0  0  0  0  0
   -2.3762   -1.8496    0.0000 O   0  0  0  0  0  0  0  0  0  0  0  0
   -3.7892    0.3306    0.0000 O   0  0  0  0  0  0  0  0  0  0  0  0
  1  2  1  0
  2  3  2  0
  2  4  1  0
  4  5  1  0
  5  6  1  0
  6  7  1  6
  6  8  1  0
  8  9  2  0
  8 10  1  0
M  END
>  <rName>  (1142) 
D-Dap_acetyl

>  <PQ_SYMBOL>  (1142) 
D-Dap_acetyl

>  <FULL_NAME>  (1142) 
(2R)-3-acetamido-2-aminopropanoic acid

>  <IUPAC_CONDENSED>  (1142) 
D-Dap(acetyl)

>  <IUPAC>  (1142) 
(2R)-3-acetamido-2-aminopropanoic acid

>  <TYPE>  (1142) 
Backbone

>  <CLASS>  (1142) 
alpha

>  <ANALOG>  (1142) 
X

>  <MOL_WT>  (1142) 
146.14600000000002

>  <LOGP>  (1142) 
-1.4655999999999993

>  <TPSA>  (1142) 
92.42

>  <POPULARITY>  (1142) 
3.5

>  <PROTECTED>  (1142) 
TRUE

>  <SMILES>  (1142) 
CC(=O)NC[C@@H](N)C(=O)O

>  <INCHIKEY>  (1142) 
YSPAKPPINKSOKX-SCSAIBSYSA-N

$$$$
D-Dap_homovanilloyl
     RDKit          2D

 19 19  0  0  0  0  0  0  0  0999 V2000
   -4.8561   -2.0243    0.0000 N   0  0  0  0  0  0  0  0  0  0  0  0
   -4.7607   -0.5273    0.0000 C   0  0  0  0  0  0  0  0  0  0  0  0
   -3.4166    0.1386    0.0000 C   0  0  0  0  0  0  0  0  0  0  0  0
   -2.1679   -0.6925    0.0000 N   0  0  0  0  0  0  0  0  0  0  0  0
   -0.8238   -0.0266    0.0000 C   0  0  0  0  0  0  0  0  0  0  0  0
   -0.7284    1.4703    0.0000 O   0  0  0  0  0  0  0  0  0  0  0  0
    0.4249   -0.8577    0.0000 C   0  0  0  0  0  0  0  0  0  0  0  0
    1.7690   -0.1918    0.0000 C   0  0  0  0  0  0  0  0  0  0  0  0
    1.8644    1.3052    0.0000 C   0  0  0  0  0  0  0  0  0  0  0  0
    3.2085    1.9710    0.0000 C   0  0  0  0  0  0  0  0  0  0  0  0
    4.4572    1.1400    0.0000 C   0  0  0  0  0  0  0  0  0  0  0  0
    5.8013    1.8059    0.0000 O   0  0  0  0  0  0  0  0  0  0  0  0
    4.3618   -0.3570    0.0000 C   0  0  0  0  0  0  0  0  0  0  0  0
    5.6106   -1.1881    0.0000 O   0  0  0  0  0  0  0  0  0  0  0  0
    5.5152   -2.6850    0.0000 C   0  0  0  0  0  0  0  0  0  0  0  0
    3.0177   -1.0229    0.0000 C   0  0  0  0  0  0  0  0  0  0  0  0
   -6.0094    0.3038    0.0000 C   0  0  0  0  0  0  0  0  0  0  0  0
   -5.9141    1.8007    0.0000 O   0  0  0  0  0  0  0  0  0  0  0  0
   -7.3535   -0.3621    0.0000 O   0  0  0  0  0  0  0  0  0  0  0  0
  2  1  1  1
  2  3  1  0
  3  4  1  0
  4  5  1  0
  5  6  2  0
  5  7  1  0
  7  8  1  0
  8  9  1  0
  9 10  2  0
 10 11  1  0
 11 12  1  0
 11 13  2  0
 13 14  1  0
 14 15  1  0
 13 16  1  0
  2 17  1  0
 17 18  2  0
 17 19  1  0
 16  8  2  0
M  END
>  <rName>  (1143) 
D-Dap_homovanilloyl

>  <PQ_SYMBOL>  (1143) 
D-Dap_homovanilloyl

>  <FULL_NAME>  (1143) 
3-{[(4-hydroxy-3-methoxyphenyl)acetyl]amino}-D-alanine

>  <IUPAC_CONDENSED>  (1143) 
D-Dap(homovanilloyl)

>  <IUPAC>  (1143) 
(2R)-2-amino-3-((4-hydroxy-3-methoxyphenyl)methylcarbonylamino)propanoic acid

>  <TYPE>  (1143) 
N-term cap

>  <CLASS>  (1143) 
n_cap

>  <ANALOG>  (1143) 
X

>  <MOL_WT>  (1143) 
268.26899999999995

>  <LOGP>  (1143) 
-0.5286

>  <TPSA>  (1143) 
121.88000000000001

>  <POPULARITY>  (1143) 
0.7

>  <PROTECTED>  (1143) 
FALSE

>  <SMILES>  (1143) 
N[C@H](CNC(=O)Cc1(ccc(O)c(OC)c1))C(=O)O

>  <INCHIKEY>  (1143) 
MDFLYKRAUFGSSB-MRVPVSSYSA-N

$$$$
D-Dap_palmitoyl
     RDKit          2D

 24 23  0  0  0  0  0  0  0  0999 V2000
    9.1851   -2.0141    0.0000 N   0  0  0  0  0  0  0  0  0  0  0  0
    9.1976   -0.5142    0.0000 C   0  0  0  0  0  0  0  0  0  0  0  0
    7.9048    0.2466    0.0000 C   0  0  0  0  0  0  0  0  0  0  0  0
    6.5996   -0.4925    0.0000 N   0  0  0  0  0  0  0  0  0  0  0  0
    5.3068    0.2683    0.0000 C   0  0  0  0  0  0  0  0  0  0  0  0
    5.3193    1.7682    0.0000 O   0  0  0  0  0  0  0  0  0  0  0  0
    4.0016   -0.4709    0.0000 C   0  0  0  0  0  0  0  0  0  0  0  0
    2.7088    0.2899    0.0000 C   0  0  0  0  0  0  0  0  0  0  0  0
    1.4036   -0.4492    0.0000 C   0  0  0  0  0  0  0  0  0  0  0  0
    0.1109    0.3116    0.0000 C   0  0  0  0  0  0  0  0  0  0  0  0
   -1.1944   -0.4276    0.0000 C   0  0  0  0  0  0  0  0  0  0  0  0
   -2.4871    0.3332    0.0000 C   0  0  0  0  0  0  0  0  0  0  0  0
   -3.7924   -0.4059    0.0000 C   0  0  0  0  0  0  0  0  0  0  0  0
   -5.0851    0.3549    0.0000 C   0  0  0  0  0  0  0  0  0  0  0  0
   -6.3904   -0.3842    0.0000 C   0  0  0  0  0  0  0  0  0  0  0  0
   -7.6831    0.3766    0.0000 C   0  0  0  0  0  0  0  0  0  0  0  0
   -8.9883   -0.3626    0.0000 C   0  0  0  0  0  0  0  0  0  0  0  0
  -10.2811    0.3982    0.0000 C   0  0  0  0  0  0  0  0  0  0  0  0
  -11.5863   -0.3409    0.0000 C   0  0  0  0  0  0  0  0  0  0  0  0
  -12.8791    0.4199    0.0000 C   0  0  0  0  0  0  0  0  0  0  0  0
  -14.1843   -0.3193    0.0000 C   0  0  0  0  0  0  0  0  0  0  0  0
   10.5028    0.2250    0.0000 C   0  0  0  0  0  0  0  0  0  0  0  0
   10.5153    1.7249    0.0000 O   0  0  0  0  0  0  0  0  0  0  0  0
   11.7955   -0.5358    0.0000 O   0  0  0  0  0  0  0  0  0  0  0  0
  2  1  1  6
  2  3  1  0
  3  4  1  0
  4  5  1  0
  5  6  2  0
  5  7  1  0
  7  8  1  0
  8  9  1  0
  9 10  1  0
 10 11  1  0
 11 12  1  0
 12 13  1  0
 13 14  1  0
 14 15  1  0
 15 16  1  0
 16 17  1  0
 17 18  1  0
 18 19  1  0
 19 20  1  0
 20 21  1  0
  2 22  1  0
 22 23  2  0
 22 24  1  0
M  END
>  <rName>  (1144) 
D-Dap_palmitoyl

>  <PQ_SYMBOL>  (1144) 
D-Dap_palmitoyl

>  <FULL_NAME>  (1144) 
D-Dap(palmitoyl)

>  <IUPAC_CONDENSED>  (1144) 
D-Dap(palmitoyl)

>  <IUPAC>  (1144) 
(2R)-2-amino-3-(pentadecylcarbonylamino)propanoic acid

>  <TYPE>  (1144) 
Backbone

>  <CLASS>  (1144) 
alpha

>  <ANALOG>  (1144) 
X

>  <MOL_WT>  (1144) 
342.524

>  <LOGP>  (1144) 
3.995800000000002

>  <TPSA>  (1144) 
92.42

>  <POPULARITY>  (1144) 
3.5

>  <PROTECTED>  (1144) 
TRUE

>  <SMILES>  (1144) 
N[C@H](CNC(=O)CCCCCCCCCCCCCCC)C(=O)O

>  <INCHIKEY>  (1144) 
GINVXRGMDPCNIE-QGZVFWFLSA-N

$$$$
D-Dip
     RDKit          2D

 18 19  0  0  0  0  0  0  0  0999 V2000
    0.8407   -2.9122    0.0000 N   0  0  0  0  0  0  0  0  0  0  0  0
   -0.2402   -1.8721    0.0000 C   0  0  0  0  0  0  0  0  0  0  0  0
    0.1201   -0.4160    0.0000 C   0  0  0  0  0  0  0  0  0  0  0  0
    1.5612    0.0000    0.0000 C   0  0  0  0  0  0  0  0  0  0  0  0
    2.6421   -1.0401    0.0000 C   0  0  0  0  0  0  0  0  0  0  0  0
    4.0833   -0.6240    0.0000 C   0  0  0  0  0  0  0  0  0  0  0  0
    4.4436    0.8321    0.0000 C   0  0  0  0  0  0  0  0  0  0  0  0
    3.3627    1.8721    0.0000 C   0  0  0  0  0  0  0  0  0  0  0  0
    1.9215    1.4561    0.0000 C   0  0  0  0  0  0  0  0  0  0  0  0
   -0.9608    0.6240    0.0000 C   0  0  0  0  0  0  0  0  0  0  0  0
   -0.6005    2.0801    0.0000 C   0  0  0  0  0  0  0  0  0  0  0  0
   -1.6813    3.1202    0.0000 C   0  0  0  0  0  0  0  0  0  0  0  0
   -3.1225    2.7042    0.0000 C   0  0  0  0  0  0  0  0  0  0  0  0
   -3.4828    1.2481    0.0000 C   0  0  0  0  0  0  0  0  0  0  0  0
   -2.4019    0.2080    0.0000 C   0  0  0  0  0  0  0  0  0  0  0  0
   -1.6813   -2.2881    0.0000 C   0  0  0  0  0  0  0  0  0  0  0  0
   -2.7622   -1.2481    0.0000 O   0  0  0  0  0  0  0  0  0  0  0  0
   -2.0416   -3.7442    0.0000 O   0  0  0  0  0  0  0  0  0  0  0  0
  2  1  1  1
  2  3  1  0
  3  4  1  0
  4  5  2  0
  5  6  1  0
  6  7  2  0
  7  8  1  0
  8  9  2  0
  3 10  1  0
 10 11  2  0
 11 12  1  0
 12 13  2  0
 13 14  1  0
 14 15  2  0
  2 16  1  0
 16 17  2  0
 16 18  1  0
  9  4  1  0
 15 10  1  0
M  END
>  <rName>  (1145) 
D-Dip

>  <PQ_SYMBOL>  (1145) 
D-Dip

>  <FULL_NAME>  (1145) 
3,3-Diphenyl-D-Alanine

>  <IUPAC_CONDENSED>  (1145) 
D-Dip

>  <IUPAC>  (1145) 
(2R)-2-amino-3,3-diphenylpropanoic acid

>  <TYPE>  (1145) 
Backbone

>  <CLASS>  (1145) 
alpha

>  <ANALOG>  (1145) 
Phe

>  <MOL_WT>  (1145) 
241.29

>  <LOGP>  (1145) 
2.2304

>  <TPSA>  (1145) 
63.32000000000001

>  <POPULARITY>  (1145) 
19.2

>  <PROTECTED>  (1145) 
TRUE

>  <SMILES>  (1145) 
N[C@H](C(c1(ccccc1))c2(ccccc2))C(=O)O

>  <INCHIKEY>  (1145) 
PECGVEGMRUZOML-CQSZACIVSA-N

$$$$
D-Gla
     RDKit          2D

 13 12  0  0  0  0  0  0  0  0999 V2000
   -1.3045    1.6202    0.0000 N   0  0  0  0  0  0  0  0  0  0  0  0
   -1.4942    0.1323    0.0000 C   0  0  0  0  0  0  0  0  0  0  0  0
   -0.3004   -0.7759    0.0000 C   0  0  0  0  0  0  0  0  0  0  0  0
    1.0831   -0.1962    0.0000 C   0  0  0  0  0  0  0  0  0  0  0  0
    2.2769   -1.1044    0.0000 C   0  0  0  0  0  0  0  0  0  0  0  0
    2.0872   -2.5924    0.0000 O   0  0  0  0  0  0  0  0  0  0  0  0
    3.6603   -0.5247    0.0000 O   0  0  0  0  0  0  0  0  0  0  0  0
    1.2727    1.2918    0.0000 C   0  0  0  0  0  0  0  0  0  0  0  0
    0.0789    2.2000    0.0000 O   0  0  0  0  0  0  0  0  0  0  0  0
    2.6562    1.8715    0.0000 O   0  0  0  0  0  0  0  0  0  0  0  0
   -2.8776   -0.4475    0.0000 C   0  0  0  0  0  0  0  0  0  0  0  0
   -3.0672   -1.9354    0.0000 O   0  0  0  0  0  0  0  0  0  0  0  0
   -4.0714    0.4608    0.0000 O   0  0  0  0  0  0  0  0  0  0  0  0
  2  1  1  6
  2  3  1  0
  3  4  1  0
  4  5  1  0
  5  6  2  0
  5  7  1  0
  4  8  1  0
  8  9  2  0
  8 10  1  0
  2 11  1  0
 11 12  2  0
 11 13  1  0
M  END
>  <rName>  (1146) 
D-Gla

>  <PQ_SYMBOL>  (1146) 
D-Gla

>  <FULL_NAME>  (1146) 
(R)-3-aminopropane-1,1,3-tricarboxylic acid

>  <IUPAC_CONDENSED>  (1146) 
D-Gla

>  <IUPAC>  (1146) 
(2R)-2-amino-4-carboxypentanedioic acid

>  <TYPE>  (1146) 
Backbone

>  <CLASS>  (1146) 
alpha

>  <ANALOG>  (1146) 
Glu

>  <MOL_WT>  (1146) 
191.13899999999998

>  <LOGP>  (1146) 
-1.4261999999999997

>  <TPSA>  (1146) 
137.92000000000002

>  <POPULARITY>  (1146) 
6.4

>  <PROTECTED>  (1146) 
TRUE

>  <SMILES>  (1146) 
N[C@H](CC(C(=O)O)C(=O)O)C(=O)O

>  <INCHIKEY>  (1146) 
UHBYWPGGCSDKFX-GSVOUGTGSA-N

$$$$
D-Gln_Bn
     RDKit          2D

 17 17  0  0  0  0  0  0  0  0999 V2000
   -4.0665    2.0731    0.0000 N   0  0  0  0  0  0  0  0  0  0  0  0
   -4.2402    0.5832    0.0000 C   0  0  0  0  0  0  0  0  0  0  0  0
   -3.0367   -0.3122    0.0000 C   0  0  0  0  0  0  0  0  0  0  0  0
   -1.6596    0.2823    0.0000 C   0  0  0  0  0  0  0  0  0  0  0  0
   -0.4561   -0.6131    0.0000 C   0  0  0  0  0  0  0  0  0  0  0  0
   -0.6299   -2.1030    0.0000 O   0  0  0  0  0  0  0  0  0  0  0  0
    0.9210   -0.0186    0.0000 N   0  0  0  0  0  0  0  0  0  0  0  0
    2.1245   -0.9140    0.0000 C   0  0  0  0  0  0  0  0  0  0  0  0
    3.5016   -0.3194    0.0000 C   0  0  0  0  0  0  0  0  0  0  0  0
    3.6753    1.1705    0.0000 C   0  0  0  0  0  0  0  0  0  0  0  0
    5.0525    1.7650    0.0000 C   0  0  0  0  0  0  0  0  0  0  0  0
    6.2559    0.8696    0.0000 C   0  0  0  0  0  0  0  0  0  0  0  0
    6.0822   -0.6203    0.0000 C   0  0  0  0  0  0  0  0  0  0  0  0
    4.7050   -1.2148    0.0000 C   0  0  0  0  0  0  0  0  0  0  0  0
   -5.6173   -0.0113    0.0000 C   0  0  0  0  0  0  0  0  0  0  0  0
   -5.7910   -1.5012    0.0000 O   0  0  0  0  0  0  0  0  0  0  0  0
   -6.8208    0.8841    0.0000 O   0  0  0  0  0  0  0  0  0  0  0  0
  2  1  1  6
  2  3  1  0
  3  4  1  0
  4  5  1  0
  5  6  2  0
  5  7  1  0
  7  8  1  0
  8  9  1  0
  9 10  2  0
 10 11  1  0
 11 12  2  0
 12 13  1  0
 13 14  2  0
  2 15  1  0
 15 16  2  0
 15 17  1  0
 14  9  1  0
M  END
>  <rName>  (1147) 
D-Gln_Bn

>  <PQ_SYMBOL>  (1147) 
D-Gln_Bn

>  <FULL_NAME>  (1147) 
(2R)-2-amino-5-(benzylamino)-5-oxopentanoic acid

>  <IUPAC_CONDENSED>  (1147) 
D-Gln(Bn)

>  <IUPAC>  (1147) 
(2R)-2-amino-5-(benzylamino)-5-oxopentanoic acid

>  <TYPE>  (1147) 
Backbone

>  <CLASS>  (1147) 
alpha

>  <ANALOG>  (1147) 
Gln

>  <MOL_WT>  (1147) 
236.27100000000002

>  <LOGP>  (1147) 
0.4948999999999994

>  <TPSA>  (1147) 
92.42

>  <POPULARITY>  (1147) 
2.2

>  <PROTECTED>  (1147) 
TRUE

>  <SMILES>  (1147) 
N[C@H](CCC(=O)NCc1(ccccc1))C(=O)O

>  <INCHIKEY>  (1147) 
SCUJQBGQMWBTIG-SNVBAGLBSA-N

$$$$
D-Gln_Me2
     RDKit          2D

 12 11  0  0  0  0  0  0  0  0999 V2000
    1.8826   -1.9413    0.0000 N   0  0  0  0  0  0  0  0  0  0  0  0
    1.9344   -0.4422    0.0000 C   0  0  0  0  0  0  0  0  0  0  0  0
    0.6621    0.3523    0.0000 C   0  0  0  0  0  0  0  0  0  0  0  0
   -0.6621   -0.3523    0.0000 C   0  0  0  0  0  0  0  0  0  0  0  0
   -1.9344    0.4422    0.0000 C   0  0  0  0  0  0  0  0  0  0  0  0
   -1.8826    1.9413    0.0000 O   0  0  0  0  0  0  0  0  0  0  0  0
   -3.2586   -0.2625    0.0000 N   0  0  0  0  0  0  0  0  0  0  0  0
   -4.5309    0.5320    0.0000 C   0  0  0  0  0  0  0  0  0  0  0  0
   -3.3105   -1.7616    0.0000 C   0  0  0  0  0  0  0  0  0  0  0  0
    3.2586    0.2625    0.0000 C   0  0  0  0  0  0  0  0  0  0  0  0
    3.3105    1.7616    0.0000 O   0  0  0  0  0  0  0  0  0  0  0  0
    4.5309   -0.5320    0.0000 O   0  0  0  0  0  0  0  0  0  0  0  0
  2  1  1  6
  2  3  1  0
  3  4  1  0
  4  5  1  0
  5  6  2  0
  5  7  1  0
  7  8  1  0
  7  9  1  0
  2 10  1  0
 10 11  2  0
 10 12  1  0
M  END
>  <rName>  (1148) 
D-Gln_Me2

>  <PQ_SYMBOL>  (1148) 
D-Gln_Me2

>  <FULL_NAME>  (1148) 
N5,N5-dimethyl-D-glutamine

>  <IUPAC_CONDENSED>  (1148) 
D-Gln(Me2)

>  <IUPAC>  (1148) 
(2R)-2-amino-4-(dimethylcarbamoyl)butanoic acid

>  <TYPE>  (1148) 
Backbone

>  <CLASS>  (1148) 
alpha

>  <ANALOG>  (1148) 
Lys

>  <MOL_WT>  (1148) 
174.2

>  <LOGP>  (1148) 
-0.7332999999999998

>  <TPSA>  (1148) 
83.63000000000001

>  <POPULARITY>  (1148) 
9.0

>  <PROTECTED>  (1148) 
TRUE

>  <SMILES>  (1148) 
N[C@H](CCC(=O)N(C)C)C(=O)O

>  <INCHIKEY>  (1148) 
SMWQVIPJGSEJPA-RXMQYKEDSA-N

$$$$
D-Glu-NH2
     RDKit          2D

 10  9  0  0  0  0  0  0  0  0999 V2000
    1.2717   -1.9622    0.0000 N   0  0  0  0  0  0  0  0  0  0  0  0
    1.1946   -0.4642    0.0000 C   0  0  0  0  0  0  0  0  0  0  0  0
    2.4533    0.3516    0.0000 C   0  0  0  0  0  0  0  0  0  0  0  0
    2.3762    1.8496    0.0000 O   0  0  0  0  0  0  0  0  0  0  0  0
    3.7892   -0.3306    0.0000 N   0  0  0  0  0  0  0  0  0  0  0  0
   -0.1413    0.2180    0.0000 C   0  0  0  0  0  0  0  0  0  0  0  0
   -1.4001   -0.5978    0.0000 C   0  0  0  0  0  0  0  0  0  0  0  0
   -2.7359    0.0845    0.0000 C   0  0  0  0  0  0  0  0  0  0  0  0
   -2.8131    1.5825    0.0000 O   0  0  0  0  0  0  0  0  0  0  0  0
   -3.9947   -0.7313    0.0000 O   0  0  0  0  0  0  0  0  0  0  0  0
  2  1  1  6
  2  3  1  0
  3  4  2  0
  3  5  1  0
  2  6  1  0
  6  7  1  0
  7  8  1  0
  8  9  2  0
  8 10  1  0
M  END
>  <rName>  (1149) 
D-Glu-NH2

>  <PQ_SYMBOL>  (1149) 
D-Glu-NH2

>  <FULL_NAME>  (1149) 
D-alpha-glutamine

>  <IUPAC_CONDENSED>  (1149) 
D-Glu-NH2

>  <IUPAC>  (1149) 
(4R)-4-amino-4-carbamoylbutanoic acid

>  <TYPE>  (1149) 
Backbone

>  <CLASS>  (1149) 
gamma

>  <ANALOG>  (1149) 
X

>  <MOL_WT>  (1149) 
146.14600000000002

>  <LOGP>  (1149) 
-1.3362000000000005

>  <TPSA>  (1149) 
106.41000000000001

>  <POPULARITY>  (1149) 
25.6

>  <PROTECTED>  (1149) 
TRUE

>  <SMILES>  (1149) 
N[C@@H](C(=O)N)CCC(=O)O

>  <INCHIKEY>  (1149) 
AEFLONBTGZFSGQ-GSVOUGTGSA-N

$$$$
D-Glu-OMe
     RDKit          2D

 11 10  0  0  0  0  0  0  0  0999 V2000
    0.7523   -2.0298    0.0000 N   0  0  0  0  0  0  0  0  0  0  0  0
    0.7201   -0.5301    0.0000 C   0  0  0  0  0  0  0  0  0  0  0  0
    2.0028    0.2476    0.0000 C   0  0  0  0  0  0  0  0  0  0  0  0
    1.9706    1.7472    0.0000 O   0  0  0  0  0  0  0  0  0  0  0  0
    3.3176   -0.4744    0.0000 O   0  0  0  0  0  0  0  0  0  0  0  0
    4.6002    0.3033    0.0000 C   0  0  0  0  0  0  0  0  0  0  0  0
   -0.5947    0.1918    0.0000 C   0  0  0  0  0  0  0  0  0  0  0  0
   -1.8774   -0.5859    0.0000 C   0  0  0  0  0  0  0  0  0  0  0  0
   -3.1922    0.1361    0.0000 C   0  0  0  0  0  0  0  0  0  0  0  0
   -3.2244    1.6357    0.0000 O   0  0  0  0  0  0  0  0  0  0  0  0
   -4.4748   -0.6416    0.0000 O   0  0  0  0  0  0  0  0  0  0  0  0
  2  1  1  6
  2  3  1  0
  3  4  2  0
  3  5  1  0
  5  6  1  0
  2  7  1  0
  7  8  1  0
  8  9  1  0
  9 10  2  0
  9 11  1  0
M  END
>  <rName>  (1150) 
D-Glu-OMe

>  <PQ_SYMBOL>  (1150) 
D-Glu-OMe

>  <FULL_NAME>  (1150) 
(R)-4-amino-5-methoxy-5-oxopentanoic acid

>  <IUPAC_CONDENSED>  (1150) 
D-Glu-OMe

>  <IUPAC>  (1150) 
(4R)-4-amino-4-(methoxycarbonyl)butanoic acid

>  <TYPE>  (1150) 
Backbone

>  <CLASS>  (1150) 
gamma

>  <ANALOG>  (1150) 
X

>  <MOL_WT>  (1150) 
161.157

>  <LOGP>  (1150) 
-0.6484999999999999

>  <TPSA>  (1150) 
89.62000000000002

>  <POPULARITY>  (1150) 
10.1

>  <PROTECTED>  (1150) 
TRUE

>  <SMILES>  (1150) 
N[C@@H](C(=O)OC)CCC(=O)O

>  <INCHIKEY>  (1150) 
SEWIYICDCVPBEW-SCSAIBSYSA-N

$$$$
D-Glu_OBn
     RDKit          2D

 17 17  0  0  0  0  0  0  0  0999 V2000
   -4.0665    2.0731    0.0000 N   0  0  0  0  0  0  0  0  0  0  0  0
   -4.2402    0.5832    0.0000 C   0  0  0  0  0  0  0  0  0  0  0  0
   -3.0367   -0.3122    0.0000 C   0  0  0  0  0  0  0  0  0  0  0  0
   -1.6596    0.2823    0.0000 C   0  0  0  0  0  0  0  0  0  0  0  0
   -0.4561   -0.6131    0.0000 C   0  0  0  0  0  0  0  0  0  0  0  0
   -0.6299   -2.1030    0.0000 O   0  0  0  0  0  0  0  0  0  0  0  0
    0.9210   -0.0186    0.0000 O   0  0  0  0  0  0  0  0  0  0  0  0
    2.1245   -0.9140    0.0000 C   0  0  0  0  0  0  0  0  0  0  0  0
    3.5016   -0.3194    0.0000 C   0  0  0  0  0  0  0  0  0  0  0  0
    3.6753    1.1705    0.0000 C   0  0  0  0  0  0  0  0  0  0  0  0
    5.0525    1.7650    0.0000 C   0  0  0  0  0  0  0  0  0  0  0  0
    6.2559    0.8696    0.0000 C   0  0  0  0  0  0  0  0  0  0  0  0
    6.0822   -0.6203    0.0000 C   0  0  0  0  0  0  0  0  0  0  0  0
    4.7050   -1.2148    0.0000 C   0  0  0  0  0  0  0  0  0  0  0  0
   -5.6173   -0.0113    0.0000 C   0  0  0  0  0  0  0  0  0  0  0  0
   -5.7910   -1.5012    0.0000 O   0  0  0  0  0  0  0  0  0  0  0  0
   -6.8208    0.8841    0.0000 O   0  0  0  0  0  0  0  0  0  0  0  0
  2  1  1  6
  2  3  1  0
  3  4  1  0
  4  5  1  0
  5  6  2  0
  5  7  1  0
  7  8  1  0
  8  9  1  0
  9 10  2  0
 10 11  1  0
 11 12  2  0
 12 13  1  0
 13 14  2  0
  2 15  1  0
 15 16  2  0
 15 17  1  0
 14  9  1  0
M  END
>  <rName>  (1151) 
D-Glu_OBn

>  <PQ_SYMBOL>  (1151) 
D-Glu_OBn

>  <FULL_NAME>  (1151) 
D-Glutamic acid gamma-benzyl ester

>  <IUPAC_CONDENSED>  (1151) 
D-Glu(OBn)

>  <IUPAC>  (1151) 
(2R)-2-amino-4-(benzyloxycarbonyl)butanoic acid

>  <TYPE>  (1151) 
N-term cap

>  <CLASS>  (1151) 
n_cap

>  <ANALOG>  (1151) 
X

>  <MOL_WT>  (1151) 
237.25500000000002

>  <LOGP>  (1151) 
0.9218999999999999

>  <TPSA>  (1151) 
89.62000000000002

>  <POPULARITY>  (1151) 
7.4

>  <PROTECTED>  (1151) 
TRUE

>  <SMILES>  (1151) 
N[C@H](CCC(=O)OCc1(ccccc1))C(=O)O

>  <INCHIKEY>  (1151) 
BGGHCRNCRWQABU-SNVBAGLBSA-N

$$$$
D-Glu_ODmab
     RDKit          2D

 25 25  0  0  0  0  0  0  0  0999 V2000
    5.5222    2.3072    0.0000 N   0  0  0  0  0  0  0  0  0  0  0  0
    5.6390    0.8118    0.0000 C   0  0  0  0  0  0  0  0  0  0  0  0
    4.4023   -0.0371    0.0000 C   0  0  0  0  0  0  0  0  0  0  0  0
    3.0488    0.6095    0.0000 C   0  0  0  0  0  0  0  0  0  0  0  0
    1.8121   -0.2393    0.0000 C   0  0  0  0  0  0  0  0  0  0  0  0
    1.9289   -1.7348    0.0000 O   0  0  0  0  0  0  0  0  0  0  0  0
    0.4586    0.4073    0.0000 O   0  0  0  0  0  0  0  0  0  0  0  0
   -0.7781   -0.4415    0.0000 C   0  0  0  0  0  0  0  0  0  0  0  0
   -0.6613   -1.9370    0.0000 C   0  0  0  0  0  0  0  0  0  0  0  0
   -1.8980   -2.7858    0.0000 C   0  0  0  0  0  0  0  0  0  0  0  0
   -1.7813   -4.2813    0.0000 C   0  0  0  0  0  0  0  0  0  0  0  0
   -2.9348   -2.4383    0.0000 C   0  0  0  0  0  0  0  0  0  0  0  0
   -2.1316    0.2051    0.0000 C   0  0  0  0  0  0  0  0  0  0  0  0
   -3.3683   -0.6438    0.0000 C   0  0  0  0  0  0  0  0  0  0  0  0
   -3.4167   -1.7362    0.0000 O   0  0  0  0  0  0  0  0  0  0  0  0
   -4.7218    0.0028    0.0000 C   0  0  0  0  0  0  0  0  0  0  0  0
   -4.8385    1.4983    0.0000 C   0  0  0  0  0  0  0  0  0  0  0  0
   -6.2910    1.1236    0.0000 C   0  0  0  0  0  0  0  0  0  0  0  0
   -5.4597    2.8636    0.0000 C   0  0  0  0  0  0  0  0  0  0  0  0
   -3.6018    2.3471    0.0000 C   0  0  0  0  0  0  0  0  0  0  0  0
   -2.2483    1.7005    0.0000 C   0  0  0  0  0  0  0  0  0  0  0  0
   -1.0116    2.5493    0.0000 O   0  0  0  0  0  0  0  0  0  0  0  0
    6.9925    0.1652    0.0000 C   0  0  0  0  0  0  0  0  0  0  0  0
    7.1093   -1.3303    0.0000 O   0  0  0  0  0  0  0  0  0  0  0  0
    8.2292    1.0140    0.0000 O   0  0  0  0  0  0  0  0  0  0  0  0
  2  1  1  1
  2  3  1  0
  3  4  1  0
  4  5  1  0
  5  6  2  0
  5  7  1  0
  7  8  1  0
  8  9  1  0
  9 10  1  0
 10 11  1  0
 10 12  1  0
  8 13  2  0
 13 14  1  0
 14 15  2  0
 14 16  1  0
 16 17  1  0
 17 18  1  0
 17 19  1  0
 17 20  1  0
 20 21  1  0
 21 22  2  0
  2 23  1  0
 23 24  2  0
 23 25  1  0
 21 13  1  0
M  END
>  <rName>  (1152) 
D-Glu_ODmab

>  <PQ_SYMBOL>  (1152) 
D-Glu_ODmab

>  <FULL_NAME>  (1152) 
(R)-2-amino-5-(1-(4,4-dimethyl-2,6-dioxocyclohexylidene)-3-methylbutoxy)-5-oxopentanoic acid

>  <IUPAC_CONDENSED>  (1152) 
D-Glu(ODmab)

>  <IUPAC>  (1152) 
(2R)-2-amino-4-(((1-(4,4-dimethyl-2,6-dioxocyclohexylidene)-3-methylbutyl)oxy)carbonyl)butanoic acid

>  <TYPE>  (1152) 
Backbone

>  <CLASS>  (1152) 
alpha

>  <ANALOG>  (1152) 
Glu

>  <MOL_WT>  (1152) 
353.41500000000013

>  <LOGP>  (1152) 
1.9800999999999997

>  <TPSA>  (1152) 
123.76

>  <POPULARITY>  (1152) 
2.3

>  <PROTECTED>  (1152) 
TRUE

>  <SMILES>  (1152) 
N[C@H](CCC(=O)OC(CC(C)C)=C1(C(=O)CC(C)(C)CC1=O))C(=O)O

>  <INCHIKEY>  (1152) 
UJPHTRWPYMGLAC-LLVKDONJSA-N

$$$$
D-Glu_OMe
     RDKit          2D

 11 10  0  0  0  0  0  0  0  0999 V2000
    1.7502    1.9632    0.0000 N   0  0  0  0  0  0  0  0  0  0  0  0
    1.6777    0.4649    0.0000 C   0  0  0  0  0  0  0  0  0  0  0  0
    0.3440   -0.2214    0.0000 C   0  0  0  0  0  0  0  0  0  0  0  0
   -0.9173    0.5905    0.0000 C   0  0  0  0  0  0  0  0  0  0  0  0
   -2.2511   -0.0959    0.0000 C   0  0  0  0  0  0  0  0  0  0  0  0
   -2.3235   -1.5941    0.0000 O   0  0  0  0  0  0  0  0  0  0  0  0
   -3.5123    0.7160    0.0000 O   0  0  0  0  0  0  0  0  0  0  0  0
   -4.8461    0.0297    0.0000 C   0  0  0  0  0  0  0  0  0  0  0  0
    2.9390   -0.3470    0.0000 C   0  0  0  0  0  0  0  0  0  0  0  0
    2.8665   -1.8452    0.0000 O   0  0  0  0  0  0  0  0  0  0  0  0
    4.2728    0.3394    0.0000 O   0  0  0  0  0  0  0  0  0  0  0  0
  2  1  1  1
  2  3  1  0
  3  4  1  0
  4  5  1  0
  5  6  2  0
  5  7  1  0
  7  8  1  0
  2  9  1  0
  9 10  2  0
  9 11  1  0
M  END
>  <rName>  (1153) 
D-Glu_OMe

>  <PQ_SYMBOL>  (1153) 
D-Glu_OMe

>  <FULL_NAME>  (1153) 
5-Methyl D-glutamate

>  <IUPAC_CONDENSED>  (1153) 
D-Glu(OMe)

>  <IUPAC>  (1153) 
(2R)-2-amino-4-(methoxycarbonyl)butanoic acid

>  <TYPE>  (1153) 
Backbone

>  <CLASS>  (1153) 
alpha

>  <ANALOG>  (1153) 
Glu

>  <MOL_WT>  (1153) 
161.15699999999998

>  <LOGP>  (1153) 
-0.6484999999999999

>  <TPSA>  (1153) 
89.62000000000002

>  <POPULARITY>  (1153) 
9.7

>  <PROTECTED>  (1153) 
TRUE

>  <SMILES>  (1153) 
N[C@H](CCC(=O)OC)C(=O)O

>  <INCHIKEY>  (1153) 
ZGEYCCHDTIDZAE-SCSAIBSYSA-N

$$$$
D-Glu_Oallyl
     RDKit          2D

 13 12  0  0  0  0  0  0  0  0999 V2000
    2.7270    1.9800    0.0000 N   0  0  0  0  0  0  0  0  0  0  0  0
    2.7052    0.4801    0.0000 C   0  0  0  0  0  0  0  0  0  0  0  0
    1.3955   -0.2510    0.0000 C   0  0  0  0  0  0  0  0  0  0  0  0
    0.1074    0.5177    0.0000 C   0  0  0  0  0  0  0  0  0  0  0  0
   -1.2023   -0.2134    0.0000 C   0  0  0  0  0  0  0  0  0  0  0  0
   -1.2240   -1.7132    0.0000 O   0  0  0  0  0  0  0  0  0  0  0  0
   -2.4904    0.5553    0.0000 O   0  0  0  0  0  0  0  0  0  0  0  0
   -3.8001   -0.1758    0.0000 C   0  0  0  0  0  0  0  0  0  0  0  0
   -5.0882    0.5930    0.0000 C   0  0  0  0  0  0  0  0  0  0  0  0
   -6.3979   -0.1382    0.0000 C   0  0  0  0  0  0  0  0  0  0  0  0
    3.9933   -0.2886    0.0000 C   0  0  0  0  0  0  0  0  0  0  0  0
    3.9716   -1.7885    0.0000 O   0  0  0  0  0  0  0  0  0  0  0  0
    5.3030    0.4425    0.0000 O   0  0  0  0  0  0  0  0  0  0  0  0
  2  1  1  1
  2  3  1  0
  3  4  1  0
  4  5  1  0
  5  6  2  0
  5  7  1  0
  7  8  1  0
  8  9  1  0
  9 10  2  0
  2 11  1  0
 11 12  2  0
 11 13  1  0
M  END
>  <rName>  (1154) 
D-Glu_Oallyl

>  <PQ_SYMBOL>  (1154) 
D-Glu_Oallyl

>  <FULL_NAME>  (1154) 
(R)-5-(allyloxy)-2-amino-5-oxopentanoic acid

>  <IUPAC_CONDENSED>  (1154) 
D-Glu(Oallyl)

>  <IUPAC>  (1154) 
(2R)-2-amino-4-(((prop-2-en-1-yl)oxy)carbonyl)butanoic acid

>  <TYPE>  (1154) 
Backbone

>  <CLASS>  (1154) 
alpha

>  <ANALOG>  (1154) 
Glu

>  <MOL_WT>  (1154) 
187.19499999999996

>  <LOGP>  (1154) 
-0.09230000000000033

>  <TPSA>  (1154) 
89.62000000000002

>  <POPULARITY>  (1154) 
3.5

>  <PROTECTED>  (1154) 
TRUE

>  <SMILES>  (1154) 
N[C@H](CCC(=O)OCC=C)C(=O)O

>  <INCHIKEY>  (1154) 
VTLKWXRVMXKNBW-ZCFIWIBFSA-N

$$$$
D-Gly_13benzodioxol5yl
     RDKit          2D

 14 15  0  0  0  0  0  0  0  0999 V2000
    2.3976    2.1566    0.0000 N   0  0  0  0  0  0  0  0  0  0  0  0
    2.1137    0.6837    0.0000 C   0  0  0  0  0  0  0  0  0  0  0  0
    0.6962    0.1932    0.0000 C   0  0  0  0  0  0  0  0  0  0  0  0
    0.4123   -1.2797    0.0000 C   0  0  0  0  0  0  0  0  0  0  0  0
   -1.0052   -1.7703    0.0000 C   0  0  0  0  0  0  0  0  0  0  0  0
   -2.1388   -0.7880    0.0000 C   0  0  0  0  0  0  0  0  0  0  0  0
   -3.6274   -0.9732    0.0000 O   0  0  0  0  0  0  0  0  0  0  0  0
   -4.2634    0.3853    0.0000 C   0  0  0  0  0  0  0  0  0  0  0  0
   -3.1680    1.4100    0.0000 O   0  0  0  0  0  0  0  0  0  0  0  0
   -1.8549    0.6849    0.0000 C   0  0  0  0  0  0  0  0  0  0  0  0
   -0.4374    1.1755    0.0000 C   0  0  0  0  0  0  0  0  0  0  0  0
    3.2473   -0.2986    0.0000 C   0  0  0  0  0  0  0  0  0  0  0  0
    2.9634   -1.7715    0.0000 O   0  0  0  0  0  0  0  0  0  0  0  0
    4.6648    0.1920    0.0000 O   0  0  0  0  0  0  0  0  0  0  0  0
  2  1  1  1
  2  3  1  0
  3  4  1  0
  4  5  2  0
  5  6  1  0
  6  7  1  0
  7  8  1  0
  8  9  1  0
  9 10  1  0
 10 11  1  0
  2 12  1  0
 12 13  2  0
 12 14  1  0
 10  6  2  0
 11  3  2  0
M  END
>  <rName>  (1155) 
D-Gly_13benzodioxol5yl

>  <PQ_SYMBOL>  (1155) 
D-Gly_13benzodioxol5yl

>  <FULL_NAME>  (1155) 
(R)-2-Amino-2-(benzo[D][1,3]dioxol-5-YL)acetic acid

>  <IUPAC_CONDENSED>  (1155) 
D-Gly(1,3-benzodioxol-5-yl)

>  <IUPAC>  (1155) 
(2R)-2-amino-2-(7,9-dioxabicyclo[4.3.0]nona-1,3,5-trien-3-yl)acetic acid

>  <TYPE>  (1155) 
Backbone

>  <CLASS>  (1155) 
alpha

>  <ANALOG>  (1155) 
X

>  <MOL_WT>  (1155) 
195.17399999999998

>  <LOGP>  (1155) 
0.4997

>  <TPSA>  (1155) 
81.78

>  <POPULARITY>  (1155) 
5.1

>  <PROTECTED>  (1155) 
TRUE

>  <SMILES>  (1155) 
N[C@H](c2(ccc1(OCOc1c2)))C(=O)O

>  <INCHIKEY>  (1155) 
VFERSVITJKMHLM-MRVPVSSYSA-N

$$$$
D-Gly_2bromoallyl
     RDKit          2D

  9  8  0  0  0  0  0  0  0  0999 V2000
   -0.2826   -1.7410    0.0000 N   0  0  0  0  0  0  0  0  0  0  0  0
   -0.5402   -0.2633    0.0000 C   0  0  0  0  0  0  0  0  0  0  0  0
    0.6108    0.6986    0.0000 C   0  0  0  0  0  0  0  0  0  0  0  0
    2.0193    0.1828    0.0000 C   0  0  0  0  0  0  0  0  0  0  0  0
    3.1703    1.1447    0.0000 C   0  0  0  0  0  0  0  0  0  0  0  0
    2.2769   -1.2950    0.0000 Br  0  0  0  0  0  0  0  0  0  0  0  0
   -1.9487    0.2525    0.0000 C   0  0  0  0  0  0  0  0  0  0  0  0
   -2.2062    1.7302    0.0000 O   0  0  0  0  0  0  0  0  0  0  0  0
   -3.0997   -0.7094    0.0000 O   0  0  0  0  0  0  0  0  0  0  0  0
  2  1  1  1
  2  3  1  0
  3  4  1  0
  4  5  2  0
  4  6  1  0
  2  7  1  0
  7  8  2  0
  7  9  1  0
M  END
>  <rName>  (1156) 
D-Gly_2bromoallyl

>  <PQ_SYMBOL>  (1156) 
D-Gly_2bromoallyl

>  <FULL_NAME>  (1156) 
(R)-2-Amino-4-bromopent-4-enoic acid

>  <IUPAC_CONDENSED>  (1156) 
D-Gly(2-bromoallyl)

>  <IUPAC>  (1156) 
(2R)-2-amino-4-bromopent-4-enoic acid

>  <TYPE>  (1156) 
Backbone

>  <CLASS>  (1156) 
alpha

>  <ANALOG>  (1156) 
X

>  <MOL_WT>  (1156) 
194.028

>  <LOGP>  (1156) 
0.6969999999999998

>  <TPSA>  (1156) 
63.32000000000001

>  <POPULARITY>  (1156) 
5.2

>  <PROTECTED>  (1156) 
TRUE

>  <SMILES>  (1156) 
N[C@H](CC(=C)Br)C(=O)O

>  <INCHIKEY>  (1156) 
YTCSGBSYHNQHFD-SCSAIBSYSA-N

$$$$
D-Gly_CF3_CO2H
     RDKit          2D

 12 11  0  0  0  0  0  0  0  0999 V2000
   -0.0000    2.0136    0.0000 N   0  0  0  0  0  0  0  0  0  0  0  0
   -0.0000    0.5136    0.0000 C   0  0  0  0  0  0  0  0  0  0  0  0
   -1.5000    0.5136    0.0000 C   0  0  0  0  0  0  0  0  0  0  0  0
   -2.4028   -0.6843    0.0000 O   0  0  0  0  0  0  0  0  0  0  0  0
   -2.2500    1.8127    0.0000 O   0  0  0  0  0  0  0  0  0  0  0  0
    0.0000   -0.9864    0.0000 C   0  0  0  0  0  0  0  0  0  0  0  0
    0.0000   -2.4864    0.0000 F   0  0  0  0  0  0  0  0  0  0  0  0
   -1.4888   -1.1692    0.0000 F   0  0  0  0  0  0  0  0  0  0  0  0
    1.4888   -1.1692    0.0000 F   0  0  0  0  0  0  0  0  0  0  0  0
    1.5000    0.5136    0.0000 C   0  0  0  0  0  0  0  0  0  0  0  0
    2.4028   -0.6843    0.0000 O   0  0  0  0  0  0  0  0  0  0  0  0
    2.2500    1.8127    0.0000 O   0  0  0  0  0  0  0  0  0  0  0  0
  1  2  1  0
  2  3  1  0
  3  4  2  0
  3  5  1  0
  2  6  1  0
  6  7  1  0
  6  8  1  0
  6  9  1  0
  2 10  1  0
 10 11  2  0
 10 12  1  0
M  END
>  <rName>  (1157) 
D-Gly_CF3_CO2H

>  <PQ_SYMBOL>  (1157) 
D-Gly_CF3_CO2H

>  <FULL_NAME>  (1157) 
2-Alpha-Carboxy-(3,3,3-Trifluoro)-D-Alanine

>  <IUPAC_CONDENSED>  (1157) 
D-Gly(CF3,CO2H)

>  <IUPAC>  (1157) 
2-amino-2-(trifluoromethyl)malonic acid

>  <TYPE>  (1157) 
Backbone

>  <CLASS>  (1157) 
alpha

>  <ANALOG>  (1157) 
X

>  <MOL_WT>  (1157) 
187.073

>  <LOGP>  (1157) 
-0.5846

>  <TPSA>  (1157) 
100.62000000000002

>  <POPULARITY>  (1157) 
0.6

>  <PROTECTED>  (1157) 
FALSE

>  <SMILES>  (1157) 
NC(C(=O)O)(C(F)(F)F)C(=O)O

>  <INCHIKEY>  (1157) 
CNSZRAUOSJANBF-UHFFFAOYSA-N

$$$$
D-Gly_CF3_Me
     RDKit          2D

 10  9  0  0  0  0  0  0  0  0999 V2000
    1.2240    1.7781    0.0000 N   0  0  0  0  0  0  0  0  0  0  0  0
    0.1277    0.7543    0.0000 C   0  0  0  0  0  0  0  0  0  0  0  0
   -0.8961    1.8506    0.0000 C   0  0  0  0  0  0  0  0  0  0  0  0
   -0.9686   -0.2694    0.0000 C   0  0  0  0  0  0  0  0  0  0  0  0
   -2.0649   -1.2932    0.0000 F   0  0  0  0  0  0  0  0  0  0  0  0
   -1.9924    0.8269    0.0000 F   0  0  0  0  0  0  0  0  0  0  0  0
   -0.0861   -1.4824    0.0000 F   0  0  0  0  0  0  0  0  0  0  0  0
    1.1515   -0.3420    0.0000 C   0  0  0  0  0  0  0  0  0  0  0  0
    0.8921   -1.8194    0.0000 O   0  0  0  0  0  0  0  0  0  0  0  0
    2.6128   -0.0035    0.0000 O   0  0  0  0  0  0  0  0  0  0  0  0
  1  2  1  0
  2  3  1  1
  2  4  1  0
  4  5  1  0
  4  6  1  0
  4  7  1  0
  2  8  1  0
  8  9  2  0
  8 10  1  0
M  END
>  <rName>  (1158) 
D-Gly_CF3_Me

>  <PQ_SYMBOL>  (1158) 
D-Gly_CF3_Me

>  <FULL_NAME>  (1158) 
(R)-2-amino-3,3,3-trifluoro-2-methylpropanoic acid

>  <IUPAC_CONDENSED>  (1158) 
D-Gly(CF3,Me)

>  <IUPAC>  (1158) 
(2R)-2-amino-2-(trifluoromethyl)propanoic acid

>  <TYPE>  (1158) 
Backbone

>  <CLASS>  (1158) 
alpha

>  <ANALOG>  (1158) 
X

>  <MOL_WT>  (1158) 
157.091

>  <LOGP>  (1158) 
0.3506999999999998

>  <TPSA>  (1158) 
63.32000000000001

>  <POPULARITY>  (1158) 
6.7

>  <PROTECTED>  (1158) 
TRUE

>  <SMILES>  (1158) 
N[C@@](C)(C(F)(F)F)C(=O)O

>  <INCHIKEY>  (1158) 
JBQBFDPQDFDHEC-GSVOUGTGSA-N

$$$$
D-Gly_CO2H
     RDKit          2D

  8  7  0  0  0  0  0  0  0  0999 V2000
   -0.0000   -2.0625    0.0000 N   0  0  0  0  0  0  0  0  0  0  0  0
   -0.0000   -0.5625    0.0000 C   0  0  0  0  0  0  0  0  0  0  0  0
    1.2990    0.1875    0.0000 C   0  0  0  0  0  0  0  0  0  0  0  0
    1.2990    1.6875    0.0000 O   0  0  0  0  0  0  0  0  0  0  0  0
    2.5981   -0.5625    0.0000 O   0  0  0  0  0  0  0  0  0  0  0  0
   -1.2990    0.1875    0.0000 C   0  0  0  0  0  0  0  0  0  0  0  0
   -1.2990    1.6875    0.0000 O   0  0  0  0  0  0  0  0  0  0  0  0
   -2.5981   -0.5625    0.0000 O   0  0  0  0  0  0  0  0  0  0  0  0
  1  2  1  0
  2  3  1  0
  3  4  2  0
  3  5  1  0
  2  6  1  0
  6  7  2  0
  6  8  1  0
M  END
>  <rName>  (1159) 
D-Gly_CO2H

>  <PQ_SYMBOL>  (1159) 
D-Gly_CO2H

>  <FULL_NAME>  (1159) 
D-Aminomalonic acid

>  <IUPAC_CONDENSED>  (1159) 
D-Gly(CO2H)

>  <IUPAC>  (1159) 
2-aminopropanedioic acid

>  <TYPE>  (1159) 
Backbone

>  <CLASS>  (1159) 
alpha

>  <ANALOG>  (1159) 
X

>  <MOL_WT>  (1159) 
119.07599999999998

>  <LOGP>  (1159) 
-1.5171000000000001

>  <TPSA>  (1159) 
100.62000000000002

>  <POPULARITY>  (1159) 
7.1

>  <PROTECTED>  (1159) 
FALSE

>  <SMILES>  (1159) 
NC(C(=O)O)C(=O)O

>  <INCHIKEY>  (1159) 
JINBYESILADKFW-UHFFFAOYSA-N

$$$$
D-Gly_adamantyl
     RDKit          2D

 15 17  0  0  0  0  0  0  0  0999 V2000
   -1.4385   -1.9134    0.0000 N   0  0  0  0  0  0  0  0  0  0  0  0
   -1.3594   -0.4155    0.0000 C   0  0  0  0  0  0  0  0  0  0  0  0
   -0.0227    0.2650    0.0000 C   0  0  0  0  0  0  0  0  0  0  0  0
    1.2350   -0.5525    0.0000 C   0  0  0  0  0  0  0  0  0  0  0  0
    2.5718    0.1280    0.0000 C   0  0  0  0  0  0  0  0  0  0  0  0
    2.6509    1.6259    0.0000 C   0  0  0  0  0  0  0  0  0  0  0  0
    1.3932    2.4433    0.0000 C   0  0  0  0  0  0  0  0  0  0  0  0
    0.4755   -0.7136    0.0000 C   0  0  0  0  0  0  0  0  0  0  0  0
    1.1559   -2.0504    0.0000 C   0  0  0  0  0  0  0  0  0  0  0  0
    2.4927   -1.3700    0.0000 C   0  0  0  0  0  0  0  0  0  0  0  0
   -0.1018   -1.2330    0.0000 C   0  0  0  0  0  0  0  0  0  0  0  0
    0.0564    1.7629    0.0000 C   0  0  0  0  0  0  0  0  0  0  0  0
   -2.6171    0.4020    0.0000 C   0  0  0  0  0  0  0  0  0  0  0  0
   -2.5380    1.8999    0.0000 O   0  0  0  0  0  0  0  0  0  0  0  0
   -3.9539   -0.2785    0.0000 O   0  0  0  0  0  0  0  0  0  0  0  0
  2  1  1  1
  2  3  1  0
  3  4  1  0
  4  5  1  0
  5  6  1  0
  6  7  1  0
  7  8  1  0
  8  9  1  0
  9 10  1  0
  9 11  1  0
  7 12  1  0
  2 13  1  0
 13 14  2  0
 13 15  1  0
 10  5  1  0
 11  3  1  0
 12  3  1  0
M  END
>  <rName>  (1160) 
D-Gly_adamantyl

>  <PQ_SYMBOL>  (1160) 
D-Gly_adamantyl

>  <FULL_NAME>  (1160) 
(R)-2-(Adamantan-1-yl)-2-aminoacetic acid

>  <IUPAC_CONDENSED>  (1160) 
D-Gly(adamantyl)

>  <IUPAC>  (1160) 
(2R)-2-(1-adamantyl)-2-aminoacetic acid

>  <TYPE>  (1160) 
Backbone

>  <CLASS>  (1160) 
alpha

>  <ANALOG>  (1160) 
X

>  <MOL_WT>  (1160) 
209.28899999999993

>  <LOGP>  (1160) 
1.6147

>  <TPSA>  (1160) 
63.32000000000001

>  <POPULARITY>  (1160) 
3.5

>  <PROTECTED>  (1160) 
TRUE

>  <SMILES>  (1160) 
N[C@H](C32(CC1(CC(CC(C1)C2)C3)))C(=O)O

>  <INCHIKEY>  (1160) 
NJRFVURYVWPLKB-SPPFVYQKSA-N

$$$$
D-Gly_allyl
     RDKit          2D

  8  7  0  0  0  0  0  0  0  0999 V2000
   -0.2517   -1.8862    0.0000 N   0  0  0  0  0  0  0  0  0  0  0  0
   -0.3100   -0.3873    0.0000 C   0  0  0  0  0  0  0  0  0  0  0  0
    0.9590    0.4126    0.0000 C   0  0  0  0  0  0  0  0  0  0  0  0
    2.2862   -0.2864    0.0000 C   0  0  0  0  0  0  0  0  0  0  0  0
    3.5551    0.5134    0.0000 C   0  0  0  0  0  0  0  0  0  0  0  0
   -1.6371    0.3117    0.0000 C   0  0  0  0  0  0  0  0  0  0  0  0
   -1.6954    1.8105    0.0000 O   0  0  0  0  0  0  0  0  0  0  0  0
   -2.9061   -0.4882    0.0000 O   0  0  0  0  0  0  0  0  0  0  0  0
  2  1  1  1
  2  3  1  0
  3  4  1  0
  4  5  2  0
  2  6  1  0
  6  7  2  0
  6  8  1  0
M  END
>  <rName>  (1161) 
D-Gly_allyl

>  <PQ_SYMBOL>  (1161) 
D-Gly_allyl

>  <FULL_NAME>  (1161) 
D-Allylglycine

>  <IUPAC_CONDENSED>  (1161) 
D-Gly(allyl)

>  <IUPAC>  (1161) 
(2R)-2-aminopent-4-enoic acid

>  <TYPE>  (1161) 
Backbone

>  <CLASS>  (1161) 
alpha

>  <ANALOG>  (1161) 
Val

>  <MOL_WT>  (1161) 
115.13199999999999

>  <LOGP>  (1161) 
-0.025600000000000345

>  <TPSA>  (1161) 
63.32000000000001

>  <POPULARITY>  (1161) 
20.4

>  <PROTECTED>  (1161) 
TRUE

>  <SMILES>  (1161) 
N[C@H](CC=C)C(=O)O

>  <INCHIKEY>  (1161) 
WNNNWFKQCKFSDK-SCSAIBSYSA-N

$$$$
D-Gly_benzofuran2yl
     RDKit          2D

 14 15  0  0  0  0  0  0  0  0999 V2000
   -2.8664   -1.9991    0.0000 N   0  0  0  0  0  0  0  0  0  0  0  0
   -2.3059   -0.6077    0.0000 C   0  0  0  0  0  0  0  0  0  0  0  0
   -0.8208   -0.3974    0.0000 C   0  0  0  0  0  0  0  0  0  0  0  0
    0.2224   -1.4753    0.0000 C   0  0  0  0  0  0  0  0  0  0  0  0
    1.5699   -0.8163    0.0000 C   0  0  0  0  0  0  0  0  0  0  0  0
    2.9612   -1.3767    0.0000 C   0  0  0  0  0  0  0  0  0  0  0  0
    4.1423   -0.4520    0.0000 C   0  0  0  0  0  0  0  0  0  0  0  0
    3.9319    1.0332    0.0000 C   0  0  0  0  0  0  0  0  0  0  0  0
    2.5406    1.5936    0.0000 C   0  0  0  0  0  0  0  0  0  0  0  0
    1.3595    0.6689    0.0000 C   0  0  0  0  0  0  0  0  0  0  0  0
   -0.1180    0.9278    0.0000 O   0  0  0  0  0  0  0  0  0  0  0  0
   -3.2307    0.5733    0.0000 C   0  0  0  0  0  0  0  0  0  0  0  0
   -2.6702    1.9647    0.0000 O   0  0  0  0  0  0  0  0  0  0  0  0
   -4.7159    0.3630    0.0000 O   0  0  0  0  0  0  0  0  0  0  0  0
  2  1  1  1
  2  3  1  0
  3  4  2  0
  4  5  1  0
  5  6  2  0
  6  7  1  0
  7  8  2  0
  8  9  1  0
  9 10  2  0
 10 11  1  0
  2 12  1  0
 12 13  2  0
 12 14  1  0
 10  5  1  0
 11  3  1  0
M  END
>  <rName>  (1162) 
D-Gly_benzofuran2yl

>  <PQ_SYMBOL>  (1162) 
D-Gly_benzofuran2yl

>  <FULL_NAME>  (1162) 
(R)-2-Amino-2-(benzofuran-2-YL)acetic acid

>  <IUPAC_CONDENSED>  (1162) 
D-Gly(benzofuran-2-yl)

>  <IUPAC>  (1162) 
(2R)-2-amino-2-(1-benzofuran-2-yl)acetic acid

>  <TYPE>  (1162) 
Backbone

>  <CLASS>  (1162) 
alpha

>  <ANALOG>  (1162) 
X

>  <MOL_WT>  (1162) 
191.18599999999995

>  <LOGP>  (1162) 
1.5172

>  <TPSA>  (1162) 
76.46

>  <POPULARITY>  (1162) 
2.2

>  <PROTECTED>  (1162) 
TRUE

>  <SMILES>  (1162) 
N[C@H](c2(cc1(ccccc1o2)))C(=O)O

>  <INCHIKEY>  (1162) 
PQSKXCUSMBAOPA-SECBINFHSA-N

$$$$
D-Gly_bicyclo111pentylmethyl
     RDKit          2D

 11 12  0  0  0  0  0  0  0  0999 V2000
   -0.8386    1.6923    0.0000 N   0  0  0  0  0  0  0  0  0  0  0  0
   -1.2062    0.2380    0.0000 C   0  0  0  0  0  0  0  0  0  0  0  0
   -0.1307   -0.8075    0.0000 C   0  0  0  0  0  0  0  0  0  0  0  0
    1.3126   -0.3988    0.0000 C   0  0  0  0  0  0  0  0  0  0  0  0
    2.6221   -1.1304    0.0000 C   0  0  0  0  0  0  0  0  0  0  0  0
    3.3536    0.1791    0.0000 C   0  0  0  0  0  0  0  0  0  0  0  0
    2.0441    0.9107    0.0000 C   0  0  0  0  0  0  0  0  0  0  0  0
    2.2348    0.2372    0.0000 C   0  0  0  0  0  0  0  0  0  0  0  0
   -2.6495   -0.1706    0.0000 C   0  0  0  0  0  0  0  0  0  0  0  0
   -3.0172   -1.6249    0.0000 O   0  0  0  0  0  0  0  0  0  0  0  0
   -3.7251    0.8749    0.0000 O   0  0  0  0  0  0  0  0  0  0  0  0
  2  1  1  6
  2  3  1  0
  3  4  1  0
  4  5  1  0
  5  6  1  0
  6  7  1  0
  6  8  1  0
  2  9  1  0
  9 10  2  0
  9 11  1  0
  7  4  1  0
  8  4  1  0
M  END
>  <rName>  (1163) 
D-Gly_bicyclo111pentylmethyl

>  <PQ_SYMBOL>  (1163) 
D-Gly_bicyclo111pentylmethyl

>  <FULL_NAME>  (1163) 
(R)-2-amino-3-(bicyclo[1.1.1]pentan-1-yl)propanoic acid

>  <IUPAC_CONDENSED>  (1163) 
D-Gly(bicyclo[1.1.1]pentylmethyl)

>  <IUPAC>  (1163) 
(2R)-2-amino-3-(bicyclo[1.1.1]pentan-1-yl)propanoic acid

>  <TYPE>  (1163) 
Backbone

>  <CLASS>  (1163) 
alpha

>  <ANALOG>  (1163) 
Ala

>  <MOL_WT>  (1163) 
155.197

>  <LOGP>  (1163) 
0.5884999999999998

>  <TPSA>  (1163) 
63.32000000000001

>  <POPULARITY>  (1163) 
6.1

>  <PROTECTED>  (1163) 
TRUE

>  <SMILES>  (1163) 
N[C@H](CC12(CC(C1)C2))C(=O)O

>  <INCHIKEY>  (1163) 
IENPWSBMRBJIBM-NAJVVJGSSA-N

$$$$
D-Gly_cBu
     RDKit          2D

  9  9  0  0  0  0  0  0  0  0999 V2000
   -0.9174   -2.0793    0.0000 N   0  0  0  0  0  0  0  0  0  0  0  0
   -0.5683   -0.6205    0.0000 C   0  0  0  0  0  0  0  0  0  0  0  0
    0.8696   -0.1934    0.0000 C   0  0  0  0  0  0  0  0  0  0  0  0
    1.5845    1.1253    0.0000 C   0  0  0  0  0  0  0  0  0  0  0  0
    2.9032    0.4104    0.0000 C   0  0  0  0  0  0  0  0  0  0  0  0
    2.1884   -0.9083    0.0000 C   0  0  0  0  0  0  0  0  0  0  0  0
   -1.6571    0.4113    0.0000 C   0  0  0  0  0  0  0  0  0  0  0  0
   -1.3079    1.8701    0.0000 O   0  0  0  0  0  0  0  0  0  0  0  0
   -3.0950   -0.0157    0.0000 O   0  0  0  0  0  0  0  0  0  0  0  0
  2  1  1  1
  2  3  1  0
  3  4  1  0
  4  5  1  0
  5  6  1  0
  2  7  1  0
  7  8  2  0
  7  9  1  0
  6  3  1  0
M  END
>  <rName>  (1164) 
D-Gly_cBu

>  <PQ_SYMBOL>  (1164) 
D-Gly_cBu

>  <FULL_NAME>  (1164) 
(R)-2-amino-2-cyclobutylacetic acid

>  <IUPAC_CONDENSED>  (1164) 
D-Gly(cBu)

>  <IUPAC>  (1164) 
(2R)-2-amino-2-cyclobutylacetic acid

>  <TYPE>  (1164) 
Backbone

>  <CLASS>  (1164) 
alpha

>  <ANALOG>  (1164) 
X

>  <MOL_WT>  (1164) 
129.15900000000002

>  <LOGP>  (1164) 
0.19839999999999985

>  <TPSA>  (1164) 
63.32000000000001

>  <POPULARITY>  (1164) 
6.1

>  <PROTECTED>  (1164) 
TRUE

>  <SMILES>  (1164) 
N[C@H](C1(CCC1))C(=O)O

>  <INCHIKEY>  (1164) 
FZENWFNLDOYYFB-RXMQYKEDSA-N

$$$$
D-Gly_cHept
     RDKit          2D

 12 12  0  0  0  0  0  0  0  0999 V2000
   -1.9165   -2.0857    0.0000 N   0  0  0  0  0  0  0  0  0  0  0  0
   -1.4640   -0.6556    0.0000 C   0  0  0  0  0  0  0  0  0  0  0  0
    0.0008   -0.3324    0.0000 C   0  0  0  0  0  0  0  0  0  0  0  0
    0.9275   -1.5119    0.0000 C   0  0  0  0  0  0  0  0  0  0  0  0
    2.4275   -1.5227    0.0000 C   0  0  0  0  0  0  0  0  0  0  0  0
    3.3712   -0.3568    0.0000 C   0  0  0  0  0  0  0  0  0  0  0  0
    3.0480    1.1080    0.0000 C   0  0  0  0  0  0  0  0  0  0  0  0
    1.7013    1.7686    0.0000 C   0  0  0  0  0  0  0  0  0  0  0  0
    0.3452    1.1275    0.0000 C   0  0  0  0  0  0  0  0  0  0  0  0
   -2.4762    0.4513    0.0000 C   0  0  0  0  0  0  0  0  0  0  0  0
   -2.0238    1.8815    0.0000 O   0  0  0  0  0  0  0  0  0  0  0  0
   -3.9410    0.1282    0.0000 O   0  0  0  0  0  0  0  0  0  0  0  0
  2  1  1  1
  2  3  1  0
  3  4  1  0
  4  5  1  0
  5  6  1  0
  6  7  1  0
  7  8  1  0
  8  9  1  0
  2 10  1  0
 10 11  2  0
 10 12  1  0
  9  3  1  0
M  END
>  <rName>  (1165) 
D-Gly_cHept

>  <PQ_SYMBOL>  (1165) 
D-Gly_cHept

>  <FULL_NAME>  (1165) 
(R)-2-amino-2-cycloheptylacetic acid

>  <IUPAC_CONDENSED>  (1165) 
D-Gly(cHept)

>  <IUPAC>  (1165) 
(2R)-2-amino-2-cycloheptylacetic acid

>  <TYPE>  (1165) 
Backbone

>  <CLASS>  (1165) 
alpha

>  <ANALOG>  (1165) 
X

>  <MOL_WT>  (1165) 
171.24

>  <LOGP>  (1165) 
1.3687

>  <TPSA>  (1165) 
63.32000000000001

>  <POPULARITY>  (1165) 
4.1

>  <PROTECTED>  (1165) 
TRUE

>  <SMILES>  (1165) 
N[C@H](C1(CCCCCC1))C(=O)O

>  <INCHIKEY>  (1165) 
GMLQOIMQMLOTNY-MRVPVSSYSA-N

$$$$
D-Gly_cPent
     RDKit          2D

 10 10  0  0  0  0  0  0  0  0999 V2000
   -1.2726   -2.0834    0.0000 N   0  0  0  0  0  0  0  0  0  0  0  0
   -0.8797   -0.6358    0.0000 C   0  0  0  0  0  0  0  0  0  0  0  0
    0.5705   -0.2522    0.0000 C   0  0  0  0  0  0  0  0  0  0  0  0
    1.7331   -1.2000    0.0000 C   0  0  0  0  0  0  0  0  0  0  0  0
    2.9938   -0.3872    0.0000 C   0  0  0  0  0  0  0  0  0  0  0  0
    2.6103    1.0630    0.0000 C   0  0  0  0  0  0  0  0  0  0  0  0
    1.1126    1.1464    0.0000 C   0  0  0  0  0  0  0  0  0  0  0  0
   -1.9369    0.4284    0.0000 C   0  0  0  0  0  0  0  0  0  0  0  0
   -1.5439    1.8760    0.0000 O   0  0  0  0  0  0  0  0  0  0  0  0
   -3.3870    0.0449    0.0000 O   0  0  0  0  0  0  0  0  0  0  0  0
  2  1  1  1
  2  3  1  0
  3  4  1  0
  4  5  1  0
  5  6  1  0
  6  7  1  0
  2  8  1  0
  8  9  2  0
  8 10  1  0
  7  3  1  0
M  END
>  <rName>  (1166) 
D-Gly_cPent

>  <PQ_SYMBOL>  (1166) 
D-Gly_cPent

>  <FULL_NAME>  (1166) 
(R)-2-Amino-2-cyclopentylacetic acid

>  <IUPAC_CONDENSED>  (1166) 
D-Gly(cPent)

>  <IUPAC>  (1166) 
(2R)-2-amino-2-cyclopentylacetic acid

>  <TYPE>  (1166) 
Backbone

>  <CLASS>  (1166) 
alpha

>  <ANALOG>  (1166) 
X

>  <MOL_WT>  (1166) 
143.186

>  <LOGP>  (1166) 
0.5884999999999998

>  <TPSA>  (1166) 
63.32000000000001

>  <POPULARITY>  (1166) 
17.9

>  <PROTECTED>  (1166) 
TRUE

>  <SMILES>  (1166) 
N[C@H](C1(CCCC1))C(=O)O

>  <INCHIKEY>  (1166) 
XBPKRVHTESHFAA-ZCFIWIBFSA-N

$$$$
D-Gly_cPr
     RDKit          2D

  8  8  0  0  0  0  0  0  0  0999 V2000
   -0.5237   -2.0692    0.0000 N   0  0  0  0  0  0  0  0  0  0  0  0
   -0.2372   -0.5968    0.0000 C   0  0  0  0  0  0  0  0  0  0  0  0
    1.1811   -0.1087    0.0000 C   0  0  0  0  0  0  0  0  0  0  0  0
    2.6535   -0.3952    0.0000 C   0  0  0  0  0  0  0  0  0  0  0  0
    2.1655    1.0231    0.0000 C   0  0  0  0  0  0  0  0  0  0  0  0
   -1.3691    0.3875    0.0000 C   0  0  0  0  0  0  0  0  0  0  0  0
   -1.0826    1.8599    0.0000 O   0  0  0  0  0  0  0  0  0  0  0  0
   -2.7875   -0.1006    0.0000 O   0  0  0  0  0  0  0  0  0  0  0  0
  2  1  1  1
  2  3  1  0
  3  4  1  0
  4  5  1  0
  2  6  1  0
  6  7  2  0
  6  8  1  0
  5  3  1  0
M  END
>  <rName>  (1167) 
D-Gly_cPr

>  <PQ_SYMBOL>  (1167) 
D-Gly_cPr

>  <FULL_NAME>  (1167) 
D-Cyclopropylglycine

>  <IUPAC_CONDENSED>  (1167) 
D-Gly(cPr)

>  <IUPAC>  (1167) 
(2R)-2-amino-2-cyclopropylacetic acid

>  <TYPE>  (1167) 
Backbone

>  <CLASS>  (1167) 
alpha

>  <ANALOG>  (1167) 
X

>  <MOL_WT>  (1167) 
115.13199999999999

>  <LOGP>  (1167) 
-0.19170000000000004

>  <TPSA>  (1167) 
63.32000000000001

>  <POPULARITY>  (1167) 
13.0

>  <PROTECTED>  (1167) 
TRUE

>  <SMILES>  (1167) 
N[C@H](C1(CC1))C(=O)O

>  <INCHIKEY>  (1167) 
BUSBCPMSNBMUMT-SCSAIBSYSA-N

$$$$
D-Gly_imidazol4yl
     RDKit          2D

 10 10  0  0  0  0  0  0  0  0999 V2000
   -1.2726   -2.0834    0.0000 N   0  0  0  0  0  0  0  0  0  0  0  0
   -0.8797   -0.6358    0.0000 C   0  0  0  0  0  0  0  0  0  0  0  0
    0.5705   -0.2522    0.0000 C   0  0  0  0  0  0  0  0  0  0  0  0
    1.7331   -1.2000    0.0000 C   0  0  0  0  0  0  0  0  0  0  0  0
    2.9938   -0.3872    0.0000 N   0  0  0  0  0  0  0  0  0  0  0  0
    2.6103    1.0630    0.0000 C   0  0  0  0  0  0  0  0  0  0  0  0
    1.1126    1.1464    0.0000 N   0  0  0  0  0  0  0  0  0  0  0  0
   -1.9369    0.4284    0.0000 C   0  0  0  0  0  0  0  0  0  0  0  0
   -1.5439    1.8760    0.0000 O   0  0  0  0  0  0  0  0  0  0  0  0
   -3.3870    0.0449    0.0000 O   0  0  0  0  0  0  0  0  0  0  0  0
  2  1  1  1
  2  3  1  0
  3  4  2  0
  4  5  1  0
  5  6  2  0
  6  7  1  0
  2  8  1  0
  8  9  2  0
  8 10  1  0
  7  3  1  0
M  END
>  <rName>  (1168) 
D-Gly_imidazol4yl

>  <PQ_SYMBOL>  (1168) 
D-Gly_imidazol4yl

>  <FULL_NAME>  (1168) 
(2R)-2-amino-2-(1H-imidazol-5-yl)acetic acid

>  <IUPAC_CONDENSED>  (1168) 
D-Gly(imidazol-4-yl)

>  <IUPAC>  (1168) 
(2R)-2-amino-2-(1H-imidazol-5-yl)acetic acid

>  <TYPE>  (1168) 
Backbone

>  <CLASS>  (1168) 
alpha

>  <ANALOG>  (1168) 
X

>  <MOL_WT>  (1168) 
141.13

>  <LOGP>  (1168) 
-0.5059000000000002

>  <TPSA>  (1168) 
92.0

>  <POPULARITY>  (1168) 
2.2

>  <PROTECTED>  (1168) 
TRUE

>  <SMILES>  (1168) 
N[C@H](c1(cnc[nH]1))C(=O)O

>  <INCHIKEY>  (1168) 
CXGIFAVNSNJADH-SCSAIBSYSA-N

$$$$
D-Gly_indan2yl
     RDKit          2D

 14 15  0  0  0  0  0  0  0  0999 V2000
   -2.8664   -1.9991    0.0000 N   0  0  0  0  0  0  0  0  0  0  0  0
   -2.3059   -0.6077    0.0000 C   0  0  0  0  0  0  0  0  0  0  0  0
   -0.8208   -0.3974    0.0000 C   0  0  0  0  0  0  0  0  0  0  0  0
    0.2224   -1.4753    0.0000 C   0  0  0  0  0  0  0  0  0  0  0  0
    1.5699   -0.8163    0.0000 C   0  0  0  0  0  0  0  0  0  0  0  0
    2.9612   -1.3767    0.0000 C   0  0  0  0  0  0  0  0  0  0  0  0
    4.1423   -0.4520    0.0000 C   0  0  0  0  0  0  0  0  0  0  0  0
    3.9319    1.0332    0.0000 C   0  0  0  0  0  0  0  0  0  0  0  0
    2.5406    1.5936    0.0000 C   0  0  0  0  0  0  0  0  0  0  0  0
    1.3595    0.6689    0.0000 C   0  0  0  0  0  0  0  0  0  0  0  0
   -0.1180    0.9278    0.0000 C   0  0  0  0  0  0  0  0  0  0  0  0
   -3.2307    0.5733    0.0000 C   0  0  0  0  0  0  0  0  0  0  0  0
   -2.6702    1.9647    0.0000 O   0  0  0  0  0  0  0  0  0  0  0  0
   -4.7159    0.3630    0.0000 O   0  0  0  0  0  0  0  0  0  0  0  0
  2  1  1  1
  2  3  1  0
  3  4  1  0
  4  5  1  0
  5  6  2  0
  6  7  1  0
  7  8  2  0
  8  9  1  0
  9 10  2  0
 10 11  1  0
  2 12  1  0
 12 13  2  0
 12 14  1  0
 10  5  1  0
 11  3  1  0
M  END
>  <rName>  (1169) 
D-Gly_indan2yl

>  <PQ_SYMBOL>  (1169) 
D-Gly_indan2yl

>  <FULL_NAME>  (1169) 
D-2-Indanylglycine

>  <IUPAC_CONDENSED>  (1169) 
D-Gly(indan-2-yl)

>  <IUPAC>  (1169) 
(2R)-2-amino-2-(indan-2-yl)acetic acid

>  <TYPE>  (1169) 
Backbone

>  <CLASS>  (1169) 
alpha

>  <ANALOG>  (1169) 
Phe

>  <MOL_WT>  (1169) 
191.22999999999996

>  <LOGP>  (1169) 
0.8132999999999999

>  <TPSA>  (1169) 
63.32000000000001

>  <POPULARITY>  (1169) 
17.5

>  <PROTECTED>  (1169) 
TRUE

>  <SMILES>  (1169) 
N[C@H](C2(Cc1(ccccc1C2)))C(=O)O

>  <INCHIKEY>  (1169) 
GUDHMDVRURNAHL-SNVBAGLBSA-N

$$$$
D-Gly_naphth2yl
     RDKit          2D

 15 16  0  0  0  0  0  0  0  0999 V2000
   -3.4053   -1.7128    0.0000 N   0  0  0  0  0  0  0  0  0  0  0  0
   -2.5492   -0.4811    0.0000 C   0  0  0  0  0  0  0  0  0  0  0  0
   -1.0545   -0.6067    0.0000 C   0  0  0  0  0  0  0  0  0  0  0  0
   -0.4159   -1.9639    0.0000 C   0  0  0  0  0  0  0  0  0  0  0  0
    1.0789   -2.0895    0.0000 C   0  0  0  0  0  0  0  0  0  0  0  0
    1.9350   -0.8578    0.0000 C   0  0  0  0  0  0  0  0  0  0  0  0
    3.4297   -0.9834    0.0000 C   0  0  0  0  0  0  0  0  0  0  0  0
    4.2858    0.2483    0.0000 C   0  0  0  0  0  0  0  0  0  0  0  0
    3.6472    1.6056    0.0000 C   0  0  0  0  0  0  0  0  0  0  0  0
    2.1525    1.7311    0.0000 C   0  0  0  0  0  0  0  0  0  0  0  0
    1.2964    0.4995    0.0000 C   0  0  0  0  0  0  0  0  0  0  0  0
   -0.1984    0.6250    0.0000 C   0  0  0  0  0  0  0  0  0  0  0  0
   -3.1878    0.8762    0.0000 C   0  0  0  0  0  0  0  0  0  0  0  0
   -2.3317    2.1078    0.0000 O   0  0  0  0  0  0  0  0  0  0  0  0
   -4.6826    1.0017    0.0000 O   0  0  0  0  0  0  0  0  0  0  0  0
  2  1  1  1
  2  3  1  0
  3  4  1  0
  4  5  2  0
  5  6  1  0
  6  7  2  0
  7  8  1  0
  8  9  2  0
  9 10  1  0
 10 11  2  0
 11 12  1  0
  2 13  1  0
 13 14  2  0
 13 15  1  0
 11  6  1  0
 12  3  2  0
M  END
>  <rName>  (1170) 
D-Gly_naphth2yl

>  <PQ_SYMBOL>  (1170) 
D-Gly_naphth2yl

>  <FULL_NAME>  (1170) 
(R)-Amino-naphthalen-2-YL-acetic acid

>  <IUPAC_CONDENSED>  (1170) 
D-Gly(naphth-2-yl)

>  <IUPAC>  (1170) 
(2R)-2-amino-2-naphthalen-2-ylacetic acid

>  <TYPE>  (1170) 
Backbone

>  <CLASS>  (1170) 
alpha

>  <ANALOG>  (1170) 
X

>  <MOL_WT>  (1170) 
201.22499999999997

>  <LOGP>  (1170) 
1.9242000000000001

>  <TPSA>  (1170) 
63.32000000000001

>  <POPULARITY>  (1170) 
2.2

>  <PROTECTED>  (1170) 
TRUE

>  <SMILES>  (1170) 
N[C@H](c2(ccc1(ccccc1c2)))C(=O)O

>  <INCHIKEY>  (1170) 
XAJPMFUAJFQIIT-LLVKDONJSA-N

$$$$
D-Gly_tetrahydropyran4yl
     RDKit          2D

 11 11  0  0  0  0  0  0  0  0999 V2000
   -1.6031   -2.0851    0.0000 N   0  0  0  0  0  0  0  0  0  0  0  0
   -1.1770   -0.6469    0.0000 C   0  0  0  0  0  0  0  0  0  0  0  0
    0.2816   -0.2968    0.0000 C   0  0  0  0  0  0  0  0  0  0  0  0
    0.7077    1.1415    0.0000 C   0  0  0  0  0  0  0  0  0  0  0  0
    2.1662    1.4916    0.0000 C   0  0  0  0  0  0  0  0  0  0  0  0
    3.1987    0.4035    0.0000 O   0  0  0  0  0  0  0  0  0  0  0  0
    2.7726   -1.0347    0.0000 C   0  0  0  0  0  0  0  0  0  0  0  0
    1.3141   -1.3849    0.0000 C   0  0  0  0  0  0  0  0  0  0  0  0
   -2.2095    0.4412    0.0000 C   0  0  0  0  0  0  0  0  0  0  0  0
   -1.7834    1.8794    0.0000 O   0  0  0  0  0  0  0  0  0  0  0  0
   -3.6680    0.0911    0.0000 O   0  0  0  0  0  0  0  0  0  0  0  0
  2  1  1  1
  2  3  1  0
  3  4  1  0
  4  5  1  0
  5  6  1  0
  6  7  1  0
  7  8  1  0
  2  9  1  0
  9 10  2  0
  9 11  1  0
  8  3  1  0
M  END
>  <rName>  (1171) 
D-Gly_tetrahydropyran4yl

>  <PQ_SYMBOL>  (1171) 
D-Gly_tetrahydropyran4yl

>  <FULL_NAME>  (1171) 
(R)-2-amino-2-(tetrahydro-2H-pyran-4-yl)acetic acid

>  <IUPAC_CONDENSED>  (1171) 
D-Gly(tetrahydropyran-4-yl)

>  <IUPAC>  (1171) 
(2R)-2-amino-2-(oxan-4-yl)acetic acid

>  <TYPE>  (1171) 
Backbone

>  <CLASS>  (1171) 
alpha

>  <ANALOG>  (1171) 
X

>  <MOL_WT>  (1171) 
159.185

>  <LOGP>  (1171) 
-0.17510000000000053

>  <TPSA>  (1171) 
72.55

>  <POPULARITY>  (1171) 
6.7

>  <PROTECTED>  (1171) 
TRUE

>  <SMILES>  (1171) 
N[C@H](C1(CCOCC1))C(=O)O

>  <INCHIKEY>  (1171) 
XLZJPHKIECMDPG-ZCFIWIBFSA-N

$$$$
D-Gly_thien2yl
     RDKit          2D

 10 10  0  0  0  0  0  0  0  0999 V2000
   -1.2726   -2.0834    0.0000 N   0  0  0  0  0  0  0  0  0  0  0  0
   -0.8797   -0.6358    0.0000 C   0  0  0  0  0  0  0  0  0  0  0  0
    0.5705   -0.2522    0.0000 C   0  0  0  0  0  0  0  0  0  0  0  0
    1.7331   -1.2000    0.0000 C   0  0  0  0  0  0  0  0  0  0  0  0
    2.9938   -0.3872    0.0000 C   0  0  0  0  0  0  0  0  0  0  0  0
    2.6103    1.0630    0.0000 C   0  0  0  0  0  0  0  0  0  0  0  0
    1.1126    1.1464    0.0000 S   0  0  0  0  0  0  0  0  0  0  0  0
   -1.9369    0.4284    0.0000 C   0  0  0  0  0  0  0  0  0  0  0  0
   -1.5439    1.8760    0.0000 O   0  0  0  0  0  0  0  0  0  0  0  0
   -3.3870    0.0449    0.0000 O   0  0  0  0  0  0  0  0  0  0  0  0
  2  1  1  1
  2  3  1  0
  3  4  2  0
  4  5  1  0
  5  6  2  0
  6  7  1  0
  2  8  1  0
  8  9  2  0
  8 10  1  0
  7  3  1  0
M  END
>  <rName>  (1172) 
D-Gly_thien2yl

>  <PQ_SYMBOL>  (1172) 
D-Gly_thien2yl

>  <FULL_NAME>  (1172) 
D-alpha-(2-Thienyl)glycine

>  <IUPAC_CONDENSED>  (1172) 
D-Gly(thien-2-yl)

>  <IUPAC>  (1172) 
(2S)-2-amino-2-(thiophen-2-yl)acetic acid

>  <TYPE>  (1172) 
Backbone

>  <CLASS>  (1172) 
alpha

>  <ANALOG>  (1172) 
X

>  <MOL_WT>  (1172) 
157.194

>  <LOGP>  (1172) 
0.8325000000000002

>  <TPSA>  (1172) 
63.32000000000001

>  <POPULARITY>  (1172) 
8.5

>  <PROTECTED>  (1172) 
TRUE

>  <SMILES>  (1172) 
N[C@H](c1(cccs1))C(=O)O

>  <INCHIKEY>  (1172) 
XLMSKXASROPJNG-RXMQYKEDSA-N

$$$$
D-Gly_thien3yl
     RDKit          2D

 10 10  0  0  0  0  0  0  0  0999 V2000
   -1.2726   -2.0834    0.0000 N   0  0  0  0  0  0  0  0  0  0  0  0
   -0.8797   -0.6358    0.0000 C   0  0  0  0  0  0  0  0  0  0  0  0
    0.5705   -0.2522    0.0000 C   0  0  0  0  0  0  0  0  0  0  0  0
    1.7331   -1.2000    0.0000 C   0  0  0  0  0  0  0  0  0  0  0  0
    2.9938   -0.3872    0.0000 C   0  0  0  0  0  0  0  0  0  0  0  0
    2.6103    1.0630    0.0000 S   0  0  0  0  0  0  0  0  0  0  0  0
    1.1126    1.1464    0.0000 C   0  0  0  0  0  0  0  0  0  0  0  0
   -1.9369    0.4284    0.0000 C   0  0  0  0  0  0  0  0  0  0  0  0
   -1.5439    1.8760    0.0000 O   0  0  0  0  0  0  0  0  0  0  0  0
   -3.3870    0.0449    0.0000 O   0  0  0  0  0  0  0  0  0  0  0  0
  2  1  1  1
  2  3  1  0
  3  4  1  0
  4  5  2  0
  5  6  1  0
  6  7  1  0
  2  8  1  0
  8  9  2  0
  8 10  1  0
  7  3  2  0
M  END
>  <rName>  (1173) 
D-Gly_thien3yl

>  <PQ_SYMBOL>  (1173) 
D-Gly_thien3yl

>  <FULL_NAME>  (1173) 
D-alpha-(3-Thienyl)glycine

>  <IUPAC_CONDENSED>  (1173) 
D-Gly(thien-3-yl)

>  <IUPAC>  (1173) 
(2R)-2-amino-2-(thiophen-3-yl)acetic acid

>  <TYPE>  (1173) 
Backbone

>  <CLASS>  (1173) 
alpha

>  <ANALOG>  (1173) 
X

>  <MOL_WT>  (1173) 
157.194

>  <LOGP>  (1173) 
0.8325000000000002

>  <TPSA>  (1173) 
63.32000000000001

>  <POPULARITY>  (1173) 
6.7

>  <PROTECTED>  (1173) 
TRUE

>  <SMILES>  (1173) 
N[C@H](c1(ccsc1))C(=O)O

>  <INCHIKEY>  (1173) 
BVGBBSAQOQTNGF-RXMQYKEDSA-N

$$$$
D-Gly_vinyl
     RDKit          2D

  7  6  0  0  0  0  0  0  0  0999 V2000
   -0.5797   -1.7367    0.0000 N   0  0  0  0  0  0  0  0  0  0  0  0
   -0.2514   -0.2730    0.0000 C   0  0  0  0  0  0  0  0  0  0  0  0
   -1.3548    0.7431    0.0000 C   0  0  0  0  0  0  0  0  0  0  0  0
   -2.7865    0.2956    0.0000 C   0  0  0  0  0  0  0  0  0  0  0  0
    1.1803    0.1745    0.0000 C   0  0  0  0  0  0  0  0  0  0  0  0
    1.5086    1.6381    0.0000 O   0  0  0  0  0  0  0  0  0  0  0  0
    2.2837   -0.8417    0.0000 O   0  0  0  0  0  0  0  0  0  0  0  0
  2  1  1  6
  2  3  1  0
  3  4  2  0
  2  5  1  0
  5  6  2  0
  5  7  1  0
M  END
>  <rName>  (1174) 
D-Gly_vinyl

>  <PQ_SYMBOL>  (1174) 
D-Gly_vinyl

>  <FULL_NAME>  (1174) 
D-Vinylglycine

>  <IUPAC_CONDENSED>  (1174) 
D-Gly(vinyl)

>  <IUPAC>  (1174) 
(2R)-2-aminobut-3-enoic acid

>  <TYPE>  (1174) 
Backbone

>  <CLASS>  (1174) 
alpha

>  <ANALOG>  (1174) 
Ala

>  <MOL_WT>  (1174) 
101.10499999999999

>  <LOGP>  (1174) 
-0.41570000000000024

>  <TPSA>  (1174) 
63.32000000000001

>  <POPULARITY>  (1174) 
10.8

>  <PROTECTED>  (1174) 
TRUE

>  <SMILES>  (1174) 
N[C@H](C=C)C(=O)O

>  <INCHIKEY>  (1174) 
RQVLGLPAZTUBKX-GSVOUGTGSA-N

$$$$
D-Hcy
     RDKit          2D

  8  7  0  0  0  0  0  0  0  0999 V2000
   -0.2517   -1.8862    0.0000 N   0  0  0  0  0  0  0  0  0  0  0  0
   -0.3100   -0.3873    0.0000 C   0  0  0  0  0  0  0  0  0  0  0  0
    0.9590    0.4126    0.0000 C   0  0  0  0  0  0  0  0  0  0  0  0
    2.2862   -0.2864    0.0000 C   0  0  0  0  0  0  0  0  0  0  0  0
    3.5551    0.5134    0.0000 S   0  0  0  0  0  0  0  0  0  0  0  0
   -1.6371    0.3117    0.0000 C   0  0  0  0  0  0  0  0  0  0  0  0
   -1.6954    1.8105    0.0000 O   0  0  0  0  0  0  0  0  0  0  0  0
   -2.9061   -0.4882    0.0000 O   0  0  0  0  0  0  0  0  0  0  0  0
  2  1  1  1
  2  3  1  0
  3  4  1  0
  4  5  1  0
  2  6  1  0
  6  7  2  0
  6  8  1  0
M  END
>  <rName>  (1175) 
D-Hcy

>  <PQ_SYMBOL>  (1175) 
D-Hcy

>  <FULL_NAME>  (1175) 
Homo-D-Cysteine

>  <IUPAC_CONDENSED>  (1175) 
D-Hcy

>  <IUPAC>  (1175) 
(2R)-2-amino-4-sulfanylbutanoic acid

>  <TYPE>  (1175) 
Backbone

>  <CLASS>  (1175) 
alpha

>  <ANALOG>  (1175) 
Cys

>  <MOL_WT>  (1175) 
135.188

>  <LOGP>  (1175) 
-0.28180000000000033

>  <TPSA>  (1175) 
63.32000000000001

>  <POPULARITY>  (1175) 
25.0

>  <PROTECTED>  (1175) 
TRUE

>  <SMILES>  (1175) 
N[C@H](CCS)C(=O)O

>  <INCHIKEY>  (1175) 
FFFHZYDWPBMWHY-GSVOUGTGSA-N

$$$$
D-His_1Bn
     RDKit          2D

 18 19  0  0  0  0  0  0  0  0999 V2000
   -3.5350    1.7533    0.0000 N   0  0  0  0  0  0  0  0  0  0  0  0
   -4.0246    0.3354    0.0000 C   0  0  0  0  0  0  0  0  0  0  0  0
   -3.0415   -0.7975    0.0000 C   0  0  0  0  0  0  0  0  0  0  0  0
   -1.5688   -0.5126    0.0000 C   0  0  0  0  0  0  0  0  0  0  0  0
   -0.4726   -1.5365    0.0000 C   0  0  0  0  0  0  0  0  0  0  0  0
    0.8399   -0.8104    0.0000 N   0  0  0  0  0  0  0  0  0  0  0  0
    0.5550    0.6623    0.0000 C   0  0  0  0  0  0  0  0  0  0  0  0
   -0.9337    0.8464    0.0000 N   0  0  0  0  0  0  0  0  0  0  0  0
    2.1989   -1.4455    0.0000 C   0  0  0  0  0  0  0  0  0  0  0  0
    3.4283   -0.5862    0.0000 C   0  0  0  0  0  0  0  0  0  0  0  0
    4.7872   -1.2213    0.0000 C   0  0  0  0  0  0  0  0  0  0  0  0
    6.0167   -0.3620    0.0000 C   0  0  0  0  0  0  0  0  0  0  0  0
    5.8873    1.1324    0.0000 C   0  0  0  0  0  0  0  0  0  0  0  0
    4.5283    1.7675    0.0000 C   0  0  0  0  0  0  0  0  0  0  0  0
    3.2989    0.9082    0.0000 C   0  0  0  0  0  0  0  0  0  0  0  0
   -5.4973    0.0504    0.0000 C   0  0  0  0  0  0  0  0  0  0  0  0
   -5.9868   -1.3674    0.0000 O   0  0  0  0  0  0  0  0  0  0  0  0
   -6.4804    1.1834    0.0000 O   0  0  0  0  0  0  0  0  0  0  0  0
  2  1  1  6
  2  3  1  0
  3  4  1  0
  4  5  2  0
  5  6  1  0
  6  7  1  0
  7  8  2  0
  6  9  1  0
  9 10  1  0
 10 11  2  0
 11 12  1  0
 12 13  2  0
 13 14  1  0
 14 15  2  0
  2 16  1  0
 16 17  2  0
 16 18  1  0
  8  4  1  0
 15 10  1  0
M  END
>  <rName>  (1176) 
D-His_1Bn

>  <PQ_SYMBOL>  (1176) 
D-His_1Bn

>  <FULL_NAME>  (1176) 
(2R)-2-amino-3-(1-benzylimidazol-4-yl)propanoic acid

>  <IUPAC_CONDENSED>  (1176) 
D-His(1-Bn)

>  <IUPAC>  (1176) 
(2R)-2-amino-3-(1-benzyl-1H-imidazol-4-yl)propanoic acid

>  <TYPE>  (1176) 
Backbone

>  <CLASS>  (1176) 
alpha

>  <ANALOG>  (1176) 
His

>  <MOL_WT>  (1176) 
245.282

>  <LOGP>  (1176) 
0.8857999999999997

>  <TPSA>  (1176) 
81.14

>  <POPULARITY>  (1176) 
7.6

>  <PROTECTED>  (1176) 
TRUE

>  <SMILES>  (1176) 
N[C@H](Cc1(cn(cn1)Cc2(ccccc2)))C(=O)O

>  <INCHIKEY>  (1176) 
NMXSWQMJOZUQKY-GFCCVEGCSA-N

$$$$
D-His_1Me
     RDKit          2D

 12 12  0  0  0  0  0  0  0  0999 V2000
   -1.4659    1.6962    0.0000 N   0  0  0  0  0  0  0  0  0  0  0  0
   -1.7460    0.2226    0.0000 C   0  0  0  0  0  0  0  0  0  0  0  0
   -0.6098   -0.7568    0.0000 C   0  0  0  0  0  0  0  0  0  0  0  0
    0.8064   -0.2625    0.0000 C   0  0  0  0  0  0  0  0  0  0  0  0
    2.0387   -1.1177    0.0000 C   0  0  0  0  0  0  0  0  0  0  0  0
    3.2329   -0.2100    0.0000 N   0  0  0  0  0  0  0  0  0  0  0  0
    4.6692   -0.6425    0.0000 C   0  0  0  0  0  0  0  0  0  0  0  0
    2.7386    1.2062    0.0000 C   0  0  0  0  0  0  0  0  0  0  0  0
    1.2389    1.1738    0.0000 N   0  0  0  0  0  0  0  0  0  0  0  0
   -3.1622   -0.2717    0.0000 C   0  0  0  0  0  0  0  0  0  0  0  0
   -3.4423   -1.7453    0.0000 O   0  0  0  0  0  0  0  0  0  0  0  0
   -4.2984    0.7077    0.0000 O   0  0  0  0  0  0  0  0  0  0  0  0
  2  1  1  6
  2  3  1  0
  3  4  1  0
  4  5  2  0
  5  6  1  0
  6  7  1  0
  6  8  1  0
  8  9  2  0
  2 10  1  0
 10 11  2  0
 10 12  1  0
  9  4  1  0
M  END
>  <rName>  (1177) 
D-His_1Me

>  <PQ_SYMBOL>  (1177) 
D-His_1Me

>  <FULL_NAME>  (1177) 
1-Methyl-D-histidine

>  <IUPAC_CONDENSED>  (1177) 
D-His(1-Me)

>  <IUPAC>  (1177) 
(2R)-2-amino-3-(1-methyl-1H-imidazol-4-yl)propanoic acid

>  <TYPE>  (1177) 
Backbone

>  <CLASS>  (1177) 
alpha

>  <ANALOG>  (1177) 
His

>  <MOL_WT>  (1177) 
169.184

>  <LOGP>  (1177) 
-0.6255000000000002

>  <TPSA>  (1177) 
81.14

>  <POPULARITY>  (1177) 
7.2

>  <PROTECTED>  (1177) 
TRUE

>  <SMILES>  (1177) 
N[C@H](Cc1(cn(C)cn1))C(=O)O

>  <INCHIKEY>  (1177) 
BRMWTNUJHUMWMS-ZCFIWIBFSA-N

$$$$
D-His_2OH
     RDKit          2D

 12 12  0  0  0  0  0  0  0  0999 V2000
   -1.1070    1.6556    0.0000 N   0  0  0  0  0  0  0  0  0  0  0  0
   -1.6374    0.2525    0.0000 C   0  0  0  0  0  0  0  0  0  0  0  0
   -0.6875   -0.9084    0.0000 C   0  0  0  0  0  0  0  0  0  0  0  0
    0.7928   -0.6662    0.0000 C   0  0  0  0  0  0  0  0  0  0  0  0
    1.8589   -1.7215    0.0000 C   0  0  0  0  0  0  0  0  0  0  0  0
    3.1919   -1.0337    0.0000 N   0  0  0  0  0  0  0  0  0  0  0  0
    2.9497    0.4466    0.0000 C   0  0  0  0  0  0  0  0  0  0  0  0
    4.0050    1.5127    0.0000 O   0  0  0  0  0  0  0  0  0  0  0  0
    1.4670    0.6737    0.0000 N   0  0  0  0  0  0  0  0  0  0  0  0
   -3.1177    0.0103    0.0000 C   0  0  0  0  0  0  0  0  0  0  0  0
   -3.6481   -1.3928    0.0000 O   0  0  0  0  0  0  0  0  0  0  0  0
   -4.0676    1.1712    0.0000 O   0  0  0  0  0  0  0  0  0  0  0  0
  2  1  1  6
  2  3  1  0
  3  4  1  0
  4  5  2  0
  5  6  1  0
  6  7  1  0
  7  8  1  0
  7  9  2  0
  2 10  1  0
 10 11  2  0
 10 12  1  0
  9  4  1  0
M  END
>  <rName>  (1178) 
D-His_2OH

>  <PQ_SYMBOL>  (1178) 
D-His_2OH

>  <FULL_NAME>  (1178) 
(2R)-2-amino-3-(2-hydroxy-1H-imidazol-4-yl)propanoic acid

>  <IUPAC_CONDENSED>  (1178) 
D-His(2-OH)

>  <IUPAC>  (1178) 
(2R)-2-amino-3-(2-hydroxy-1H-imidazol-4-yl)propanoic acid

>  <TYPE>  (1178) 
Backbone

>  <CLASS>  (1178) 
alpha

>  <ANALOG>  (1178) 
His

>  <MOL_WT>  (1178) 
171.15599999999998

>  <LOGP>  (1178) 
-0.9303000000000003

>  <TPSA>  (1178) 
112.23

>  <POPULARITY>  (1178) 
2.2

>  <PROTECTED>  (1178) 
TRUE

>  <SMILES>  (1178) 
N[C@H](Cc1(c[nH]c(O)n1))C(=O)O

>  <INCHIKEY>  (1178) 
KXHSJJRXZAKKRP-SCSAIBSYSA-N

$$$$
D-His_3Me
     RDKit          2D

 12 12  0  0  0  0  0  0  0  0999 V2000
   -0.9675    1.5404    0.0000 N   0  0  0  0  0  0  0  0  0  0  0  0
   -1.3813    0.0986    0.0000 C   0  0  0  0  0  0  0  0  0  0  0  0
   -0.3395   -0.9807    0.0000 C   0  0  0  0  0  0  0  0  0  0  0  0
    1.1160   -0.6181    0.0000 C   0  0  0  0  0  0  0  0  0  0  0  0
    2.2649   -1.5825    0.0000 C   0  0  0  0  0  0  0  0  0  0  0  0
    3.5371   -0.7879    0.0000 N   0  0  0  0  0  0  0  0  0  0  0  0
    3.1745    0.6676    0.0000 C   0  0  0  0  0  0  0  0  0  0  0  0
    1.6782    0.7725    0.0000 N   0  0  0  0  0  0  0  0  0  0  0  0
    0.8836    2.0448    0.0000 C   0  0  0  0  0  0  0  0  0  0  0  0
   -2.8368   -0.2640    0.0000 C   0  0  0  0  0  0  0  0  0  0  0  0
   -3.2506   -1.7058    0.0000 O   0  0  0  0  0  0  0  0  0  0  0  0
   -3.8786    0.8152    0.0000 O   0  0  0  0  0  0  0  0  0  0  0  0
  2  1  1  6
  2  3  1  0
  3  4  1  0
  4  5  2  0
  5  6  1  0
  6  7  2  0
  7  8  1  0
  8  9  1  0
  2 10  1  0
 10 11  2  0
 10 12  1  0
  8  4  1  0
M  END
>  <rName>  (1179) 
D-His_3Me

>  <PQ_SYMBOL>  (1179) 
D-His_3Me

>  <FULL_NAME>  (1179) 
3-methyl-D-histidine

>  <IUPAC_CONDENSED>  (1179) 
D-His(3-Me)

>  <IUPAC>  (1179) 
(2R)-2-amino-3-(1-methyl-1H-imidazol-5-yl)propanoic acid

>  <TYPE>  (1179) 
Backbone

>  <CLASS>  (1179) 
alpha

>  <ANALOG>  (1179) 
His

>  <MOL_WT>  (1179) 
169.184

>  <LOGP>  (1179) 
-0.6255000000000002

>  <TPSA>  (1179) 
81.14

>  <POPULARITY>  (1179) 
10.4

>  <PROTECTED>  (1179) 
TRUE

>  <SMILES>  (1179) 
N[C@H](Cc1(cncn1C))C(=O)O

>  <INCHIKEY>  (1179) 
JDHILDINMRGULE-ZCFIWIBFSA-N

$$$$
D-Hse
     RDKit          2D

  8  7  0  0  0  0  0  0  0  0999 V2000
   -0.2517   -1.8862    0.0000 N   0  0  0  0  0  0  0  0  0  0  0  0
   -0.3100   -0.3873    0.0000 C   0  0  0  0  0  0  0  0  0  0  0  0
    0.9590    0.4126    0.0000 C   0  0  0  0  0  0  0  0  0  0  0  0
    2.2862   -0.2864    0.0000 C   0  0  0  0  0  0  0  0  0  0  0  0
    3.5551    0.5134    0.0000 O   0  0  0  0  0  0  0  0  0  0  0  0
   -1.6371    0.3117    0.0000 C   0  0  0  0  0  0  0  0  0  0  0  0
   -1.6954    1.8105    0.0000 O   0  0  0  0  0  0  0  0  0  0  0  0
   -2.9061   -0.4882    0.0000 O   0  0  0  0  0  0  0  0  0  0  0  0
  2  1  1  1
  2  3  1  0
  3  4  1  0
  4  5  1  0
  2  6  1  0
  6  7  2  0
  6  8  1  0
M  END
>  <rName>  (1180) 
D-Hse

>  <PQ_SYMBOL>  (1180) 
D-Hse

>  <FULL_NAME>  (1180) 
Homo-D-Serine

>  <IUPAC_CONDENSED>  (1180) 
D-Hse

>  <IUPAC>  (1180) 
(2R)-2-amino-4-hydroxybutanoic acid

>  <TYPE>  (1180) 
Backbone

>  <CLASS>  (1180) 
alpha

>  <ANALOG>  (1180) 
Ser

>  <MOL_WT>  (1180) 
119.11999999999998

>  <LOGP>  (1180) 
-1.2192999999999998

>  <TPSA>  (1180) 
83.55

>  <POPULARITY>  (1180) 
14.3

>  <PROTECTED>  (1180) 
TRUE

>  <SMILES>  (1180) 
N[C@H](CCO)C(=O)O

>  <INCHIKEY>  (1180) 
UKAUYVFTDYCKQA-GSVOUGTGSA-N

$$$$
D-Hse_Et
     RDKit          2D

 10  9  0  0  0  0  0  0  0  0999 V2000
   -1.4166   -1.8843    0.0000 N   0  0  0  0  0  0  0  0  0  0  0  0
   -1.4265   -0.3844    0.0000 C   0  0  0  0  0  0  0  0  0  0  0  0
   -0.1324    0.3741    0.0000 C   0  0  0  0  0  0  0  0  0  0  0  0
    1.1716   -0.3673    0.0000 C   0  0  0  0  0  0  0  0  0  0  0  0
    2.4657    0.3912    0.0000 O   0  0  0  0  0  0  0  0  0  0  0  0
    3.7696   -0.3503    0.0000 C   0  0  0  0  0  0  0  0  0  0  0  0
    5.0637    0.4082    0.0000 C   0  0  0  0  0  0  0  0  0  0  0  0
   -2.7304    0.3571    0.0000 C   0  0  0  0  0  0  0  0  0  0  0  0
   -2.7402    1.8571    0.0000 O   0  0  0  0  0  0  0  0  0  0  0  0
   -4.0245   -0.4014    0.0000 O   0  0  0  0  0  0  0  0  0  0  0  0
  2  1  1  1
  2  3  1  0
  3  4  1  0
  4  5  1  0
  5  6  1  0
  6  7  1  0
  2  8  1  0
  8  9  2  0
  8 10  1  0
M  END
>  <rName>  (1181) 
D-Hse_Et

>  <PQ_SYMBOL>  (1181) 
D-Hse_Et

>  <FULL_NAME>  (1181) 
(2R)-2-Amino-4-ethoxybutanoic acid

>  <IUPAC_CONDENSED>  (1181) 
D-Hse(Et)

>  <IUPAC>  (1181) 
(2R)-2-amino-4-ethoxybutanoic acid

>  <TYPE>  (1181) 
Backbone

>  <CLASS>  (1181) 
alpha

>  <ANALOG>  (1181) 
Ser

>  <MOL_WT>  (1181) 
147.174

>  <LOGP>  (1181) 
-0.17510000000000053

>  <TPSA>  (1181) 
72.55

>  <POPULARITY>  (1181) 
2.2

>  <PROTECTED>  (1181) 
TRUE

>  <SMILES>  (1181) 
N[C@H](CCOCC)C(=O)O

>  <INCHIKEY>  (1181) 
YCSFMOVBARTLBW-RXMQYKEDSA-N

$$$$
D-Hse_EtOMe
     RDKit          2D

 12 11  0  0  0  0  0  0  0  0999 V2000
    2.5981    1.8750    0.0000 N   0  0  0  0  0  0  0  0  0  0  0  0
    2.5981    0.3750    0.0000 C   0  0  0  0  0  0  0  0  0  0  0  0
    1.2990   -0.3750    0.0000 C   0  0  0  0  0  0  0  0  0  0  0  0
    0.0000    0.3750    0.0000 C   0  0  0  0  0  0  0  0  0  0  0  0
   -1.2990   -0.3750    0.0000 O   0  0  0  0  0  0  0  0  0  0  0  0
   -2.5981    0.3750    0.0000 C   0  0  0  0  0  0  0  0  0  0  0  0
   -3.8971   -0.3750    0.0000 C   0  0  0  0  0  0  0  0  0  0  0  0
   -5.1962    0.3750    0.0000 O   0  0  0  0  0  0  0  0  0  0  0  0
   -6.4952   -0.3750    0.0000 C   0  0  0  0  0  0  0  0  0  0  0  0
    3.8971   -0.3750    0.0000 C   0  0  0  0  0  0  0  0  0  0  0  0
    3.8971   -1.8750    0.0000 O   0  0  0  0  0  0  0  0  0  0  0  0
    5.1962    0.3750    0.0000 O   0  0  0  0  0  0  0  0  0  0  0  0
  2  1  1  1
  2  3  1  0
  3  4  1  0
  4  5  1  0
  5  6  1  0
  6  7  1  0
  7  8  1  0
  8  9  1  0
  2 10  1  0
 10 11  2  0
 10 12  1  0
M  END
>  <rName>  (1182) 
D-Hse_EtOMe

>  <PQ_SYMBOL>  (1182) 
D-Hse_EtOMe

>  <FULL_NAME>  (1182) 
(2R)-2-amino-4-(2-methoxyethoxy)butanoic acid

>  <IUPAC_CONDENSED>  (1182) 
D-Hse(EtOMe)

>  <IUPAC>  (1182) 
(2R)-2-amino-4-(2-methoxyethoxy)butanoic acid

>  <TYPE>  (1182) 
Backbone

>  <CLASS>  (1182) 
alpha

>  <ANALOG>  (1182) 
Ser

>  <MOL_WT>  (1182) 
177.2

>  <LOGP>  (1182) 
-0.5486

>  <TPSA>  (1182) 
81.78

>  <POPULARITY>  (1182) 
2.2

>  <PROTECTED>  (1182) 
TRUE

>  <SMILES>  (1182) 
N[C@H](CCOCCOC)C(=O)O

>  <INCHIKEY>  (1182) 
QAHGFIIGXSSIJF-ZCFIWIBFSA-N

$$$$
D-Hse_Me
     RDKit          2D

  9  8  0  0  0  0  0  0  0  0999 V2000
    0.7616   -1.8791    0.0000 N   0  0  0  0  0  0  0  0  0  0  0  0
    0.8459   -0.3815    0.0000 C   0  0  0  0  0  0  0  0  0  0  0  0
   -0.4089    0.4403    0.0000 C   0  0  0  0  0  0  0  0  0  0  0  0
   -1.7480   -0.2354    0.0000 C   0  0  0  0  0  0  0  0  0  0  0  0
   -3.0029    0.5864    0.0000 O   0  0  0  0  0  0  0  0  0  0  0  0
   -4.3420   -0.0894    0.0000 C   0  0  0  0  0  0  0  0  0  0  0  0
    2.1851    0.2943    0.0000 C   0  0  0  0  0  0  0  0  0  0  0  0
    2.2694    1.7919    0.0000 O   0  0  0  0  0  0  0  0  0  0  0  0
    3.4399   -0.5275    0.0000 O   0  0  0  0  0  0  0  0  0  0  0  0
  2  1  1  6
  2  3  1  0
  3  4  1  0
  4  5  1  0
  5  6  1  0
  2  7  1  0
  7  8  2  0
  7  9  1  0
M  END
>  <rName>  (1183) 
D-Hse_Me

>  <PQ_SYMBOL>  (1183) 
D-Hse_Me

>  <FULL_NAME>  (1183) 
O-methyl-D-homoserine

>  <IUPAC_CONDENSED>  (1183) 
D-Hse(Me)

>  <IUPAC>  (1183) 
(2R)-2-amino-4-methoxybutanoic acid

>  <TYPE>  (1183) 
Backbone

>  <CLASS>  (1183) 
alpha

>  <ANALOG>  (1183) 
Ser

>  <MOL_WT>  (1183) 
133.147

>  <LOGP>  (1183) 
-0.5652000000000004

>  <TPSA>  (1183) 
72.55

>  <POPULARITY>  (1183) 
11.9

>  <PROTECTED>  (1183) 
TRUE

>  <SMILES>  (1183) 
N[C@H](CCOC)C(=O)O

>  <INCHIKEY>  (1183) 
KFHRMMHGGBCRIV-SCSAIBSYSA-N

$$$$
D-Hse_Ph
     RDKit          2D

 14 14  0  0  0  0  0  0  0  0999 V2000
   -2.7125    1.8435    0.0000 N   0  0  0  0  0  0  0  0  0  0  0  0
   -2.9490    0.3623    0.0000 C   0  0  0  0  0  0  0  0  0  0  0  0
   -1.7844   -0.5831    0.0000 C   0  0  0  0  0  0  0  0  0  0  0  0
   -0.3834   -0.0473    0.0000 C   0  0  0  0  0  0  0  0  0  0  0  0
    0.7812   -0.9927    0.0000 O   0  0  0  0  0  0  0  0  0  0  0  0
    2.1822   -0.4569    0.0000 C   0  0  0  0  0  0  0  0  0  0  0  0
    2.4187    1.0244    0.0000 C   0  0  0  0  0  0  0  0  0  0  0  0
    3.8197    1.5602    0.0000 C   0  0  0  0  0  0  0  0  0  0  0  0
    4.9842    0.6148    0.0000 C   0  0  0  0  0  0  0  0  0  0  0  0
    4.7478   -0.8664    0.0000 C   0  0  0  0  0  0  0  0  0  0  0  0
    3.3467   -1.4023    0.0000 C   0  0  0  0  0  0  0  0  0  0  0  0
   -4.3500   -0.1735    0.0000 C   0  0  0  0  0  0  0  0  0  0  0  0
   -4.5865   -1.6548    0.0000 O   0  0  0  0  0  0  0  0  0  0  0  0
   -5.5146    0.7719    0.0000 O   0  0  0  0  0  0  0  0  0  0  0  0
  2  1  1  6
  2  3  1  0
  3  4  1  0
  4  5  1  0
  5  6  1  0
  6  7  2  0
  7  8  1  0
  8  9  2  0
  9 10  1  0
 10 11  2  0
  2 12  1  0
 12 13  2  0
 12 14  1  0
 11  6  1  0
M  END
>  <rName>  (1184) 
D-Hse_Ph

>  <PQ_SYMBOL>  (1184) 
D-Hse_Ph

>  <FULL_NAME>  (1184) 
(2R)-2-Amino-4-phenoxybutanoic acid

>  <IUPAC_CONDENSED>  (1184) 
D-Hse(Ph)

>  <IUPAC>  (1184) 
(2R)-2-amino-4-phenoxybutanoic acid

>  <TYPE>  (1184) 
Backbone

>  <CLASS>  (1184) 
alpha

>  <ANALOG>  (1184) 
Ser

>  <MOL_WT>  (1184) 
195.218

>  <LOGP>  (1184) 
0.8674

>  <TPSA>  (1184) 
72.55

>  <POPULARITY>  (1184) 
9.2

>  <PROTECTED>  (1184) 
TRUE

>  <SMILES>  (1184) 
N[C@H](CCOc1(ccccc1))C(=O)O

>  <INCHIKEY>  (1184) 
OZTJTXTWPFGIHY-SECBINFHSA-N

$$$$
D-Hyp
     RDKit          2D

  9  9  0  0  0  0  0  0  0  0999 V2000
   -0.1792   -1.4541    0.0000 N   0  0  0  0  0  0  0  0  0  0  0  0
    0.4598   -0.0969    0.0000 C   0  0  0  0  0  0  0  0  0  0  0  0
   -0.6334    0.9301    0.0000 C   0  0  0  0  0  0  0  0  0  0  0  0
   -1.9481    0.2077    0.0000 C   0  0  0  0  0  0  0  0  0  0  0  0
   -3.3052    0.8467    0.0000 O   0  0  0  0  0  0  0  0  0  0  0  0
   -1.6673   -1.2657    0.0000 C   0  0  0  0  0  0  0  0  0  0  0  0
    1.9333    0.1838    0.0000 C   0  0  0  0  0  0  0  0  0  0  0  0
    2.4269    1.6003    0.0000 O   0  0  0  0  0  0  0  0  0  0  0  0
    2.9132   -0.9519    0.0000 O   0  0  0  0  0  0  0  0  0  0  0  0
  1  2  1  0
  2  3  1  0
  3  4  1  0
  4  5  1  1
  4  6  1  0
  2  7  1  6
  7  8  2  0
  7  9  1  0
  6  1  1  0
M  END
>  <rName>  (1185) 
D-Hyp

>  <PQ_SYMBOL>  (1185) 
D-Hyp

>  <FULL_NAME>  (1185) 
trans-4-Hydroxy-D-proline

>  <IUPAC_CONDENSED>  (1185) 
D-Hyp

>  <IUPAC>  (1185) 
(2R,4S)-4-hydroxypyrrolidine-2-carboxylic acid

>  <TYPE>  (1185) 
Backbone

>  <CLASS>  (1185) 
alpha

>  <ANALOG>  (1185) 
Pro

>  <MOL_WT>  (1185) 
131.131

>  <LOGP>  (1185) 
-1.2062000000000004

>  <TPSA>  (1185) 
69.56

>  <POPULARITY>  (1185) 
22.3

>  <PROTECTED>  (1185) 
TRUE

>  <SMILES>  (1185) 
N1[C@H](C[C@H](O)C1)C(=O)O

>  <INCHIKEY>  (1185) 
PMMYEEVYMWASQN-IUYQGCFVSA-N

$$$$
D-Hyp_CF3
     RDKit          2D

 13 13  0  0  0  0  0  0  0  0999 V2000
    1.7738   -1.6971    0.0000 N   0  0  0  0  0  0  0  0  0  0  0  0
    1.7765   -0.1971    0.0000 C   0  0  0  0  0  0  0  0  0  0  0  0
    0.3507    0.2689    0.0000 C   0  0  0  0  0  0  0  0  0  0  0  0
   -0.5331   -0.9431    0.0000 C   0  0  0  0  0  0  0  0  0  0  0  0
   -2.0331   -0.9404    0.0000 O   0  0  0  0  0  0  0  0  0  0  0  0
   -2.7808    0.3600    0.0000 C   0  0  0  0  0  0  0  0  0  0  0  0
   -3.5285    1.6603    0.0000 F   0  0  0  0  0  0  0  0  0  0  0  0
   -4.0812   -0.3878    0.0000 F   0  0  0  0  0  0  0  0  0  0  0  0
   -1.4805    1.1077    0.0000 F   0  0  0  0  0  0  0  0  0  0  0  0
    0.3464   -2.1581    0.0000 C   0  0  0  0  0  0  0  0  0  0  0  0
    2.9916    0.6824    0.0000 C   0  0  0  0  0  0  0  0  0  0  0  0
    2.8374    2.1745    0.0000 O   0  0  0  0  0  0  0  0  0  0  0  0
    4.3608    0.0699    0.0000 O   0  0  0  0  0  0  0  0  0  0  0  0
  1  2  1  0
  2  3  1  0
  3  4  1  0
  4  5  1  1
  5  6  1  0
  6  7  1  0
  6  8  1  0
  6  9  1  0
  4 10  1  0
  2 11  1  6
 11 12  2  0
 11 13  1  0
 10  1  1  0
M  END
>  <rName>  (1186) 
D-Hyp_CF3

>  <PQ_SYMBOL>  (1186) 
D-Hyp_CF3

>  <FULL_NAME>  (1186) 
(2R,4S)-4-(trifluoromethoxy)pyrrolidine-2-carboxylic acid

>  <IUPAC_CONDENSED>  (1186) 
D-Hyp(CF3)

>  <IUPAC>  (1186) 
(2R,4S)-4-((trifluoromethyl)oxy)pyrrolidine-2-carboxylic acid

>  <TYPE>  (1186) 
Backbone

>  <CLASS>  (1186) 
alpha

>  <ANALOG>  (1186) 
Pro

>  <MOL_WT>  (1186) 
199.128

>  <LOGP>  (1186) 
0.33790000000000003

>  <TPSA>  (1186) 
58.56

>  <POPULARITY>  (1186) 
3.0

>  <PROTECTED>  (1186) 
TRUE

>  <SMILES>  (1186) 
N1[C@H](C[C@H](OC(F)(F)F)C1)C(=O)O

>  <INCHIKEY>  (1186) 
KNQAAVYPDKAZPC-IUYQGCFVSA-N

$$$$
D-Hyp_CHF2
     RDKit          2D

 12 12  0  0  0  0  0  0  0  0999 V2000
    1.5111   -1.6952    0.0000 N   0  0  0  0  0  0  0  0  0  0  0  0
    1.5414   -0.1955    0.0000 C   0  0  0  0  0  0  0  0  0  0  0  0
    0.1245    0.2967    0.0000 C   0  0  0  0  0  0  0  0  0  0  0  0
   -0.7815   -0.8988    0.0000 C   0  0  0  0  0  0  0  0  0  0  0  0
   -2.2812   -0.8686    0.0000 O   0  0  0  0  0  0  0  0  0  0  0  0
   -3.0049    0.4453    0.0000 C   0  0  0  0  0  0  0  0  0  0  0  0
   -4.5046    0.4756    0.0000 F   0  0  0  0  0  0  0  0  0  0  0  0
   -2.2288    1.7290    0.0000 F   0  0  0  0  0  0  0  0  0  0  0  0
    0.0755   -2.1299    0.0000 C   0  0  0  0  0  0  0  0  0  0  0  0
    2.7725    0.6615    0.0000 C   0  0  0  0  0  0  0  0  0  0  0  0
    2.6458    2.1561    0.0000 O   0  0  0  0  0  0  0  0  0  0  0  0
    4.1302    0.0239    0.0000 O   0  0  0  0  0  0  0  0  0  0  0  0
  1  2  1  0
  2  3  1  0
  3  4  1  0
  4  5  1  1
  5  6  1  0
  6  7  1  0
  6  8  1  0
  4  9  1  0
  2 10  1  6
 10 11  2  0
 10 12  1  0
  9  1  1  0
M  END
>  <rName>  (1187) 
D-Hyp_CHF2

>  <PQ_SYMBOL>  (1187) 
D-Hyp_CHF2

>  <FULL_NAME>  (1187) 
(2R,4S)-4-(difluoromethoxy)pyrrolidine-2-carboxylic acid

>  <IUPAC_CONDENSED>  (1187) 
D-Hyp(CHF2)

>  <IUPAC>  (1187) 
(2R,4S)-4-((difluoromethyl)oxy)pyrrolidine-2-carboxylic acid

>  <TYPE>  (1187) 
Backbone

>  <CLASS>  (1187) 
alpha

>  <ANALOG>  (1187) 
Pro

>  <MOL_WT>  (1187) 
181.138

>  <LOGP>  (1187) 
0.0406999999999999

>  <TPSA>  (1187) 
58.56

>  <POPULARITY>  (1187) 
3.2

>  <PROTECTED>  (1187) 
TRUE

>  <SMILES>  (1187) 
N1[C@H](C[C@H](OC(F)F)C1)C(=O)O

>  <INCHIKEY>  (1187) 
YYWVQGXOBZCIRD-IUYQGCFVSA-N

$$$$
D-Hyp_Me
     RDKit          2D

 10 10  0  0  0  0  0  0  0  0999 V2000
    0.5059   -1.6189    0.0000 N   0  0  0  0  0  0  0  0  0  0  0  0
    0.8536   -0.1598    0.0000 C   0  0  0  0  0  0  0  0  0  0  0  0
   -0.4267    0.6218    0.0000 C   0  0  0  0  0  0  0  0  0  0  0  0
   -1.5656   -0.3543    0.0000 C   0  0  0  0  0  0  0  0  0  0  0  0
   -3.0248   -0.0066    0.0000 O   0  0  0  0  0  0  0  0  0  0  0  0
   -3.4533    1.4309    0.0000 C   0  0  0  0  0  0  0  0  0  0  0  0
   -0.9893   -1.7392    0.0000 C   0  0  0  0  0  0  0  0  0  0  0  0
    2.2384    0.4166    0.0000 C   0  0  0  0  0  0  0  0  0  0  0  0
    2.4317    1.9041    0.0000 O   0  0  0  0  0  0  0  0  0  0  0  0
    3.4300   -0.4945    0.0000 O   0  0  0  0  0  0  0  0  0  0  0  0
  1  2  1  0
  2  3  1  0
  3  4  1  0
  4  5  1  1
  5  6  1  0
  4  7  1  0
  2  8  1  6
  8  9  2  0
  8 10  1  0
  7  1  1  0
M  END
>  <rName>  (1188) 
D-Hyp_Me

>  <PQ_SYMBOL>  (1188) 
D-Hyp_Me

>  <FULL_NAME>  (1188) 
(2R,4S)-4-methoxypyrrolidine-2-carboxylic acid

>  <IUPAC_CONDENSED>  (1188) 
D-Hyp(Me)

>  <IUPAC>  (1188) 
(2R,4S)-4-methoxypyrrolidine-2-carboxylic acid

>  <TYPE>  (1188) 
Backbone

>  <CLASS>  (1188) 
alpha

>  <ANALOG>  (1188) 
Pro

>  <MOL_WT>  (1188) 
145.15800000000002

>  <LOGP>  (1188) 
-0.5521

>  <TPSA>  (1188) 
58.56

>  <POPULARITY>  (1188) 
2.2

>  <PROTECTED>  (1188) 
TRUE

>  <SMILES>  (1188) 
N1[C@H](C[C@H](OC)C1)C(=O)O

>  <INCHIKEY>  (1188) 
RNXKXUOGQKYKTH-CRCLSJGQSA-N

$$$$
D-Hyp_Ph
     RDKit          2D

 15 16  0  0  0  0  0  0  0  0999 V2000
   -1.9780    1.3585    0.0000 N   0  0  0  0  0  0  0  0  0  0  0  0
   -2.7771    0.0891    0.0000 C   0  0  0  0  0  0  0  0  0  0  0  0
   -1.8168   -1.0632    0.0000 C   0  0  0  0  0  0  0  0  0  0  0  0
   -0.4242   -0.5059    0.0000 C   0  0  0  0  0  0  0  0  0  0  0  0
    0.8452   -1.3051    0.0000 O   0  0  0  0  0  0  0  0  0  0  0  0
    2.1720   -0.6053    0.0000 C   0  0  0  0  0  0  0  0  0  0  0  0
    3.4414   -1.4044    0.0000 C   0  0  0  0  0  0  0  0  0  0  0  0
    4.7682   -0.7047    0.0000 C   0  0  0  0  0  0  0  0  0  0  0  0
    4.8256    0.7942    0.0000 C   0  0  0  0  0  0  0  0  0  0  0  0
    3.5562    1.5934    0.0000 C   0  0  0  0  0  0  0  0  0  0  0  0
    2.2294    0.8936    0.0000 C   0  0  0  0  0  0  0  0  0  0  0  0
   -0.5238    0.9908    0.0000 C   0  0  0  0  0  0  0  0  0  0  0  0
   -4.2738   -0.0105    0.0000 C   0  0  0  0  0  0  0  0  0  0  0  0
   -4.9359   -1.3565    0.0000 O   0  0  0  0  0  0  0  0  0  0  0  0
   -5.1084    1.2359    0.0000 O   0  0  0  0  0  0  0  0  0  0  0  0
  1  2  1  0
  2  3  1  0
  3  4  1  0
  4  5  1  1
  5  6  1  0
  6  7  2  0
  7  8  1  0
  8  9  2  0
  9 10  1  0
 10 11  2  0
  4 12  1  0
  2 13  1  6
 13 14  2  0
 13 15  1  0
 11  6  1  0
 12  1  1  0
M  END
>  <rName>  (1189) 
D-Hyp_Ph

>  <PQ_SYMBOL>  (1189) 
D-Hyp_Ph

>  <FULL_NAME>  (1189) 
D-Hyp(Ph)

>  <IUPAC_CONDENSED>  (1189) 
D-Hyp(Ph)

>  <IUPAC>  (1189) 
(2R,4S)-4-phenoxypyrrolidine-2-carboxylic acid

>  <TYPE>  (1189) 
Backbone

>  <CLASS>  (1189) 
alpha

>  <ANALOG>  (1189) 
Pro

>  <MOL_WT>  (1189) 
207.22899999999998

>  <LOGP>  (1189) 
0.8805000000000001

>  <TPSA>  (1189) 
58.56

>  <POPULARITY>  (1189) 
2.2

>  <PROTECTED>  (1189) 
TRUE

>  <SMILES>  (1189) 
N2[C@H](C[C@H](Oc1(ccccc1))C2)C(=O)O

>  <INCHIKEY>  (1189) 
RWSHAZYNUOFZMI-VHSXEESVSA-N

$$$$
D-Idc
     RDKit          2D

 12 13  0  0  0  0  0  0  0  0999 V2000
   -0.5689    1.2135    0.0000 N   0  0  0  0  0  0  0  0  0  0  0  0
   -1.4506   -0.0000    0.0000 C   0  0  0  0  0  0  0  0  0  0  0  0
   -0.5689   -1.2135    0.0000 C   0  0  0  0  0  0  0  0  0  0  0  0
    0.8577   -0.7500    0.0000 C   0  0  0  0  0  0  0  0  0  0  0  0
    2.1567   -1.5000    0.0000 C   0  0  0  0  0  0  0  0  0  0  0  0
    3.4557   -0.7500    0.0000 C   0  0  0  0  0  0  0  0  0  0  0  0
    3.4557    0.7500    0.0000 C   0  0  0  0  0  0  0  0  0  0  0  0
    2.1567    1.5000    0.0000 C   0  0  0  0  0  0  0  0  0  0  0  0
    0.8577    0.7500    0.0000 C   0  0  0  0  0  0  0  0  0  0  0  0
   -2.9506   -0.0000    0.0000 C   0  0  0  0  0  0  0  0  0  0  0  0
   -3.7006   -1.2990    0.0000 O   0  0  0  0  0  0  0  0  0  0  0  0
   -3.7006    1.2990    0.0000 O   0  0  0  0  0  0  0  0  0  0  0  0
  1  2  1  0
  2  3  1  0
  3  4  1  0
  4  5  2  0
  5  6  1  0
  6  7  2  0
  7  8  1  0
  8  9  2  0
  2 10  1  6
 10 11  2  0
 10 12  1  0
  9  1  1  0
  9  4  1  0
M  END
>  <rName>  (1190) 
D-Idc

>  <PQ_SYMBOL>  (1190) 
D-Idc

>  <FULL_NAME>  (1190) 
D-Indoline-2-Carboxylic acid

>  <IUPAC_CONDENSED>  (1190) 
D-Idc

>  <IUPAC>  (1190) 
(2R)-indoline-2-carboxylic acid

>  <TYPE>  (1190) 
Backbone

>  <CLASS>  (1190) 
alpha

>  <ANALOG>  (1190) 
Pro

>  <MOL_WT>  (1190) 
163.17599999999996

>  <LOGP>  (1190) 
1.1078000000000001

>  <TPSA>  (1190) 
49.33

>  <POPULARITY>  (1190) 
12.2

>  <PROTECTED>  (1190) 
TRUE

>  <SMILES>  (1190) 
N1[C@H](Cc2(ccccc12))C(=O)O

>  <INCHIKEY>  (1190) 
QNRXNRGSOJZINA-MRVPVSSYSA-N

$$$$
D-Iva
     RDKit          2D

  8  7  0  0  0  0  0  0  0  0999 V2000
    1.3909    1.3248    0.0000 N   0  0  0  0  0  0  0  0  0  0  0  0
    0.1650    0.4604    0.0000 C   0  0  0  0  0  0  0  0  0  0  0  0
   -0.6994    1.6864    0.0000 C   0  0  0  0  0  0  0  0  0  0  0  0
    1.0293   -0.7655    0.0000 C   0  0  0  0  0  0  0  0  0  0  0  0
    2.5232   -0.6299    0.0000 C   0  0  0  0  0  0  0  0  0  0  0  0
   -1.0610   -0.4039    0.0000 C   0  0  0  0  0  0  0  0  0  0  0  0
   -2.4225    0.2256    0.0000 O   0  0  0  0  0  0  0  0  0  0  0  0
   -0.9254   -1.8978    0.0000 O   0  0  0  0  0  0  0  0  0  0  0  0
  1  2  1  0
  2  3  1  1
  2  4  1  0
  4  5  1  0
  2  6  1  0
  6  7  2  0
  6  8  1  0
M  END
>  <rName>  (1191) 
D-Iva

>  <PQ_SYMBOL>  (1191) 
D-Iva

>  <FULL_NAME>  (1191) 
D-Isovaline

>  <IUPAC_CONDENSED>  (1191) 
D-Iva

>  <IUPAC>  (1191) 
(2R)-2-amino-2-methylbutanoic acid

>  <TYPE>  (1191) 
Backbone

>  <CLASS>  (1191) 
alpha

>  <ANALOG>  (1191) 
Val

>  <MOL_WT>  (1191) 
117.14799999999998

>  <LOGP>  (1191) 
0.19839999999999985

>  <TPSA>  (1191) 
63.32000000000001

>  <POPULARITY>  (1191) 
32.9

>  <PROTECTED>  (1191) 
TRUE

>  <SMILES>  (1191) 
N[C@](C)(CC)C(=O)O

>  <INCHIKEY>  (1191) 
GCHPUFAZSONQIV-RXMQYKEDSA-N

$$$$
D-Iva_prop2ynyl
     RDKit          2D

 11 10  0  0  0  0  0  0  0  0999 V2000
   -0.4322    1.7421    0.0000 N   0  0  0  0  0  0  0  0  0  0  0  0
   -1.3757    0.5760    0.0000 C   0  0  0  0  0  0  0  0  0  0  0  0
   -2.5419    1.5195    0.0000 C   0  0  0  0  0  0  0  0  0  0  0  0
   -0.2096   -0.3675    0.0000 C   0  0  0  0  0  0  0  0  0  0  0  0
    1.1905    0.1706    0.0000 C   0  0  0  0  0  0  0  0  0  0  0  0
    2.3566   -0.7729    0.0000 C   0  0  0  0  0  0  0  0  0  0  0  0
    3.7568   -0.2348    0.0000 C   0  0  0  0  0  0  0  0  0  0  0  0
    5.1569    0.3033    0.0000 C   0  0  0  0  0  0  0  0  0  0  0  0
   -2.3193   -0.5901    0.0000 C   0  0  0  0  0  0  0  0  0  0  0  0
   -3.8009   -0.3560    0.0000 O   0  0  0  0  0  0  0  0  0  0  0  0
   -1.7811   -1.9902    0.0000 O   0  0  0  0  0  0  0  0  0  0  0  0
  1  2  1  0
  2  3  1  1
  2  4  1  0
  4  5  1  0
  5  6  1  0
  6  7  1  0
  7  8  3  0
  2  9  1  0
  9 10  2  0
  9 11  1  0
M  END
>  <rName>  (1192) 
D-Iva_prop2ynyl

>  <PQ_SYMBOL>  (1192) 
D-Iva_prop2ynyl

>  <FULL_NAME>  (1192) 
(2R)-2-amino-2-methylhept-6-ynoic acid

>  <IUPAC_CONDENSED>  (1192) 
D-Iva(prop-2-ynyl)

>  <IUPAC>  (1192) 
(2R)-2-amino-2-methylhept-6-ynoic acid

>  <TYPE>  (1192) 
Backbone

>  <CLASS>  (1192) 
alpha

>  <ANALOG>  (1192) 
Leu

>  <MOL_WT>  (1192) 
155.197

>  <LOGP>  (1192) 
0.5918999999999999

>  <TPSA>  (1192) 
63.32000000000001

>  <POPULARITY>  (1192) 
2.2

>  <PROTECTED>  (1192) 
TRUE

>  <SMILES>  (1192) 
N[C@](C)(CCCC#C)C(=O)O

>  <INCHIKEY>  (1192) 
XDTDZXZZJXVVOL-MRVPVSSYSA-N

$$$$
D-Leu-OMe
     RDKit          2D

 10  9  0  0  0  0  0  0  0  0999 V2000
    0.1391    1.7243    0.0000 N   0  0  0  0  0  0  0  0  0  0  0  0
   -0.0935    0.2424    0.0000 C   0  0  0  0  0  0  0  0  0  0  0  0
   -1.4930   -0.2972    0.0000 C   0  0  0  0  0  0  0  0  0  0  0  0
   -1.7256   -1.7790    0.0000 O   0  0  0  0  0  0  0  0  0  0  0  0
   -2.6601    0.6451    0.0000 O   0  0  0  0  0  0  0  0  0  0  0  0
   -4.0597    0.1056    0.0000 C   0  0  0  0  0  0  0  0  0  0  0  0
    1.0736   -0.6999    0.0000 C   0  0  0  0  0  0  0  0  0  0  0  0
    2.4732   -0.1603    0.0000 C   0  0  0  0  0  0  0  0  0  0  0  0
    3.6403   -1.1026    0.0000 C   0  0  0  0  0  0  0  0  0  0  0  0
    2.7057    1.3216    0.0000 C   0  0  0  0  0  0  0  0  0  0  0  0
  2  1  1  6
  2  3  1  0
  3  4  2  0
  3  5  1  0
  5  6  1  0
  2  7  1  0
  7  8  1  0
  8  9  1  0
  8 10  1  0
M  END
>  <rName>  (1193) 
D-Leu-OMe

>  <PQ_SYMBOL>  (1193) 
D-Leu-OMe

>  <FULL_NAME>  (1193) 
D-Leucine methyl ester

>  <IUPAC_CONDENSED>  (1193) 
D-Leu-OMe

>  <IUPAC>  (1193) 
methyl (2R)-2-amino-4-methylpentanoate

>  <TYPE>  (1193) 
C-term cap

>  <CLASS>  (1193) 
c_cap

>  <ANALOG>  (1193) 
X

>  <MOL_WT>  (1193) 
145.20199999999997

>  <LOGP>  (1193) 
0.5327999999999997

>  <TPSA>  (1193) 
52.32000000000001

>  <POPULARITY>  (1193) 
14.3

>  <PROTECTED>  (1193) 
TRUE

>  <SMILES>  (1193) 
N[C@@H](C(=O)OC)CC(C)C

>  <INCHIKEY>  (1193) 
QVDXUKJJGUSGLS-ZCFIWIBFSA-N

$$$$
D-Leu_3ROH
     RDKit          2D

 10  9  0  0  0  0  0  0  0  0999 V2000
    0.3742   -1.9487    0.0000 N   0  0  0  0  0  0  0  0  0  0  0  0
    0.5891   -0.4642    0.0000 C   0  0  0  0  0  0  0  0  0  0  0  0
   -0.5891    0.4642    0.0000 C   0  0  0  0  0  0  0  0  0  0  0  0
   -0.3742    1.9487    0.0000 O   0  0  0  0  0  0  0  0  0  0  0  0
   -1.9822   -0.0920    0.0000 C   0  0  0  0  0  0  0  0  0  0  0  0
   -3.1604    0.8364    0.0000 C   0  0  0  0  0  0  0  0  0  0  0  0
   -2.1971   -1.5765    0.0000 C   0  0  0  0  0  0  0  0  0  0  0  0
    1.9822    0.0920    0.0000 C   0  0  0  0  0  0  0  0  0  0  0  0
    2.1971    1.5765    0.0000 O   0  0  0  0  0  0  0  0  0  0  0  0
    3.1604   -0.8364    0.0000 O   0  0  0  0  0  0  0  0  0  0  0  0
  2  1  1  6
  2  3  1  0
  3  4  1  1
  3  5  1  0
  5  6  1  0
  5  7  1  0
  2  8  1  0
  8  9  2  0
  8 10  1  0
M  END
>  <rName>  (1194) 
D-Leu_3ROH

>  <PQ_SYMBOL>  (1194) 
D-Leu_3ROH

>  <FULL_NAME>  (1194) 
87421-24-7

>  <IUPAC_CONDENSED>  (1194) 
D-Leu(3R-OH)

>  <IUPAC>  (1194) 
(2R,3R)-2-amino-3-hydroxy-4-methylpentanoic acid

>  <TYPE>  (1194) 
Backbone

>  <CLASS>  (1194) 
alpha

>  <ANALOG>  (1194) 
Thr

>  <MOL_WT>  (1194) 
147.174

>  <LOGP>  (1194) 
-0.5848000000000007

>  <TPSA>  (1194) 
83.55

>  <POPULARITY>  (1194) 
15.2

>  <PROTECTED>  (1194) 
TRUE

>  <SMILES>  (1194) 
N[C@H]([C@H](O)C(C)C)C(=O)O

>  <INCHIKEY>  (1194) 
ZAYJDMWJYCTABM-RFZPGFLSSA-N

$$$$
D-Leu_3SOH
     RDKit          2D

 10  9  0  0  0  0  0  0  0  0999 V2000
    0.3742   -1.9487    0.0000 N   0  0  0  0  0  0  0  0  0  0  0  0
    0.5891   -0.4642    0.0000 C   0  0  0  0  0  0  0  0  0  0  0  0
   -0.5891    0.4642    0.0000 C   0  0  0  0  0  0  0  0  0  0  0  0
   -0.3742    1.9487    0.0000 O   0  0  0  0  0  0  0  0  0  0  0  0
   -1.9822   -0.0920    0.0000 C   0  0  0  0  0  0  0  0  0  0  0  0
   -3.1604    0.8364    0.0000 C   0  0  0  0  0  0  0  0  0  0  0  0
   -2.1971   -1.5765    0.0000 C   0  0  0  0  0  0  0  0  0  0  0  0
    1.9822    0.0920    0.0000 C   0  0  0  0  0  0  0  0  0  0  0  0
    2.1971    1.5765    0.0000 O   0  0  0  0  0  0  0  0  0  0  0  0
    3.1604   -0.8364    0.0000 O   0  0  0  0  0  0  0  0  0  0  0  0
  2  1  1  6
  2  3  1  0
  3  4  1  6
  3  5  1  0
  5  6  1  0
  5  7  1  0
  2  8  1  0
  8  9  2  0
  8 10  1  0
M  END
>  <rName>  (1195) 
D-Leu_3SOH

>  <PQ_SYMBOL>  (1195) 
D-Leu_3SOH

>  <FULL_NAME>  (1195) 
(3S)-3-Hydroxy-D-Leucine

>  <IUPAC_CONDENSED>  (1195) 
D-Leu(3S-OH)

>  <IUPAC>  (1195) 
(2R,3S)-2-amino-3-hydroxy-4-methylpentanoic acid

>  <TYPE>  (1195) 
Backbone

>  <CLASS>  (1195) 
alpha

>  <ANALOG>  (1195) 
Thr

>  <MOL_WT>  (1195) 
147.174

>  <LOGP>  (1195) 
-0.5848000000000007

>  <TPSA>  (1195) 
83.55

>  <POPULARITY>  (1195) 
14.3

>  <PROTECTED>  (1195) 
TRUE

>  <SMILES>  (1195) 
N[C@H]([C@@H](O)C(C)C)C(=O)O

>  <INCHIKEY>  (1195) 
ZAYJDMWJYCTABM-UHNVWZDZSA-N

$$$$
D-Leu_45dehydro
     RDKit          2D

  9  8  0  0  0  0  0  0  0  0999 V2000
    0.2826   -1.7410    0.0000 N   0  0  0  0  0  0  0  0  0  0  0  0
    0.5402   -0.2633    0.0000 C   0  0  0  0  0  0  0  0  0  0  0  0
   -0.6108    0.6986    0.0000 C   0  0  0  0  0  0  0  0  0  0  0  0
   -2.0193    0.1828    0.0000 C   0  0  0  0  0  0  0  0  0  0  0  0
   -3.1703    1.1447    0.0000 C   0  0  0  0  0  0  0  0  0  0  0  0
   -2.2769   -1.2950    0.0000 C   0  0  0  0  0  0  0  0  0  0  0  0
    1.9487    0.2525    0.0000 C   0  0  0  0  0  0  0  0  0  0  0  0
    2.2062    1.7302    0.0000 O   0  0  0  0  0  0  0  0  0  0  0  0
    3.0997   -0.7094    0.0000 O   0  0  0  0  0  0  0  0  0  0  0  0
  2  1  1  6
  2  3  1  0
  3  4  1  0
  4  5  2  0
  4  6  1  0
  2  7  1  0
  7  8  2  0
  7  9  1  0
M  END
>  <rName>  (1196) 
D-Leu_45dehydro

>  <PQ_SYMBOL>  (1196) 
D-Leu_45dehydro

>  <FULL_NAME>  (1196) 
(R)-2-amino-4-methylpent-4-enoic acid

>  <IUPAC_CONDENSED>  (1196) 
D-Leu(4,5-dehydro)

>  <IUPAC>  (1196) 
(2R)-2-amino-4-methylpent-4-enoic acid

>  <TYPE>  (1196) 
Backbone

>  <CLASS>  (1196) 
alpha

>  <ANALOG>  (1196) 
Leu

>  <MOL_WT>  (1196) 
129.159

>  <LOGP>  (1196) 
0.3645

>  <TPSA>  (1196) 
63.32000000000001

>  <POPULARITY>  (1196) 
9.0

>  <PROTECTED>  (1196) 
TRUE

>  <SMILES>  (1196) 
N[C@H](CC(=C)C)C(=O)O

>  <INCHIKEY>  (1196) 
PABWDKROPVYJBH-RXMQYKEDSA-N

$$$$
D-Lys_CON_piperazino_4CH2CO2H
     RDKit          2D

 22 22  0  0  0  0  0  0  0  0999 V2000
   -7.0280   -1.6051    0.0000 N   0  0  0  0  0  0  0  0  0  0  0  0
   -6.8516   -0.1155    0.0000 C   0  0  0  0  0  0  0  0  0  0  0  0
   -5.4733    0.4765    0.0000 C   0  0  0  0  0  0  0  0  0  0  0  0
   -4.2715   -0.4211    0.0000 C   0  0  0  0  0  0  0  0  0  0  0  0
   -2.8933    0.1710    0.0000 C   0  0  0  0  0  0  0  0  0  0  0  0
   -1.6915   -0.7266    0.0000 C   0  0  0  0  0  0  0  0  0  0  0  0
   -0.3132   -0.1346    0.0000 N   0  0  0  0  0  0  0  0  0  0  0  0
    0.8886   -1.0321    0.0000 C   0  0  0  0  0  0  0  0  0  0  0  0
    0.7122   -2.5217    0.0000 O   0  0  0  0  0  0  0  0  0  0  0  0
    2.2668   -0.4401    0.0000 N   0  0  0  0  0  0  0  0  0  0  0  0
    2.4432    1.0495    0.0000 C   0  0  0  0  0  0  0  0  0  0  0  0
    3.8214    1.6415    0.0000 C   0  0  0  0  0  0  0  0  0  0  0  0
    5.0233    0.7440    0.0000 N   0  0  0  0  0  0  0  0  0  0  0  0
    6.4015    1.3360    0.0000 C   0  0  0  0  0  0  0  0  0  0  0  0
    7.6033    0.4384    0.0000 C   0  0  0  0  0  0  0  0  0  0  0  0
    7.4269   -1.0511    0.0000 O   0  0  0  0  0  0  0  0  0  0  0  0
    8.9815    1.0305    0.0000 O   0  0  0  0  0  0  0  0  0  0  0  0
    4.8469   -0.7456    0.0000 C   0  0  0  0  0  0  0  0  0  0  0  0
    3.4686   -1.3376    0.0000 C   0  0  0  0  0  0  0  0  0  0  0  0
   -8.0534    0.7820    0.0000 C   0  0  0  0  0  0  0  0  0  0  0  0
   -7.8770    2.2716    0.0000 O   0  0  0  0  0  0  0  0  0  0  0  0
   -9.4316    0.1900    0.0000 O   0  0  0  0  0  0  0  0  0  0  0  0
  2  1  1  1
  2  3  1  0
  3  4  1  0
  4  5  1  0
  5  6  1  0
  6  7  1  0
  7  8  1  0
  8  9  2  0
  8 10  1  0
 10 11  1  0
 11 12  1  0
 12 13  1  0
 13 14  1  0
 14 15  1  0
 15 16  2  0
 15 17  1  0
 13 18  1  0
 18 19  1  0
  2 20  1  0
 20 21  2  0
 20 22  1  0
 19 10  1  0
M  END
>  <rName>  (1197) 
D-Lys_CON_piperazino_4CH2CO2H

>  <PQ_SYMBOL>  (1197) 
D-Lys_CON_piperazino_4CH2CO2H

>  <FULL_NAME>  (1197) 
N6-(4-(carboxymethyl)piperazine-1-carbonyl)-D-lysine

>  <IUPAC_CONDENSED>  (1197) 
D-Lys(CON(piperazino(4-CH2CO2H)))

>  <IUPAC>  (1197) 
(2R)-2-amino-6-(4-(2-hydroxy-2-oxoethyl)piperazin-1-ylcarbonylamino)hexanoic acid

>  <TYPE>  (1197) 
Backbone

>  <CLASS>  (1197) 
alpha

>  <ANALOG>  (1197) 
Gly

>  <MOL_WT>  (1197) 
316.35800000000006

>  <LOGP>  (1197) 
-1.019599999999996

>  <TPSA>  (1197) 
136.2

>  <POPULARITY>  (1197) 
3.0

>  <PROTECTED>  (1197) 
TRUE

>  <SMILES>  (1197) 
N[C@H](CCCCNC(=O)N1CCN(CC(=O)O)CC1)C(=O)O

>  <INCHIKEY>  (1197) 
SBZYGFGUJJCDND-SNVBAGLBSA-N

$$$$
D-Lys_DOTA
     RDKit          2D

 37 37  0  0  0  0  0  0  0  0999 V2000
   -9.8033    1.9016    0.0000 N   0  0  0  0  0  0  0  0  0  0  0  0
  -10.0171    0.4169    0.0000 C   0  0  0  0  0  0  0  0  0  0  0  0
   -8.8382   -0.5107    0.0000 C   0  0  0  0  0  0  0  0  0  0  0  0
   -7.4456    0.0465    0.0000 C   0  0  0  0  0  0  0  0  0  0  0  0
   -6.2667   -0.8810    0.0000 C   0  0  0  0  0  0  0  0  0  0  0  0
   -4.8740   -0.3239    0.0000 C   0  0  0  0  0  0  0  0  0  0  0  0
   -3.6952   -1.2514    0.0000 N   0  0  0  0  0  0  0  0  0  0  0  0
   -2.3025   -0.6942    0.0000 C   0  0  0  0  0  0  0  0  0  0  0  0
   -2.0886    0.7904    0.0000 O   0  0  0  0  0  0  0  0  0  0  0  0
   -1.1236   -1.6218    0.0000 C   0  0  0  0  0  0  0  0  0  0  0  0
    0.2691   -1.0646    0.0000 N   0  0  0  0  0  0  0  0  0  0  0  0
    0.0914    0.4248    0.0000 C   0  0  0  0  0  0  0  0  0  0  0  0
    0.6822    1.8036    0.0000 C   0  0  0  0  0  0  0  0  0  0  0  0
    1.8832    2.7022    0.0000 N   0  0  0  0  0  0  0  0  0  0  0  0
    1.3260    4.0949    0.0000 C   0  0  0  0  0  0  0  0  0  0  0  0
    2.2536    5.2737    0.0000 C   0  0  0  0  0  0  0  0  0  0  0  0
    3.7382    5.0599    0.0000 O   0  0  0  0  0  0  0  0  0  0  0  0
    1.6964    6.6664    0.0000 O   0  0  0  0  0  0  0  0  0  0  0  0
    3.3726    2.8799    0.0000 C   0  0  0  0  0  0  0  0  0  0  0  0
    4.7514    2.2891    0.0000 C   0  0  0  0  0  0  0  0  0  0  0  0
    5.6500    1.0881    0.0000 N   0  0  0  0  0  0  0  0  0  0  0  0
    7.0427    1.6452    0.0000 C   0  0  0  0  0  0  0  0  0  0  0  0
    8.2215    0.7177    0.0000 C   0  0  0  0  0  0  0  0  0  0  0  0
    8.0077   -0.7670    0.0000 O   0  0  0  0  0  0  0  0  0  0  0  0
    9.6142    1.2749    0.0000 O   0  0  0  0  0  0  0  0  0  0  0  0
    5.8277   -0.4014    0.0000 C   0  0  0  0  0  0  0  0  0  0  0  0
    5.2369   -1.7801    0.0000 C   0  0  0  0  0  0  0  0  0  0  0  0
    4.0359   -2.6787    0.0000 N   0  0  0  0  0  0  0  0  0  0  0  0
    4.5930   -4.0714    0.0000 C   0  0  0  0  0  0  0  0  0  0  0  0
    3.6655   -5.2503    0.0000 C   0  0  0  0  0  0  0  0  0  0  0  0
    2.1808   -5.0364    0.0000 O   0  0  0  0  0  0  0  0  0  0  0  0
    4.2227   -6.6430    0.0000 O   0  0  0  0  0  0  0  0  0  0  0  0
    2.5464   -2.8564    0.0000 C   0  0  0  0  0  0  0  0  0  0  0  0
    1.1677   -2.2656    0.0000 C   0  0  0  0  0  0  0  0  0  0  0  0
  -11.4098   -0.1403    0.0000 C   0  0  0  0  0  0  0  0  0  0  0  0
  -11.6236   -1.6250    0.0000 O   0  0  0  0  0  0  0  0  0  0  0  0
  -12.5886    0.7872    0.0000 O   0  0  0  0  0  0  0  0  0  0  0  0
  2  1  1  6
  2  3  1  0
  3  4  1  0
  4  5  1  0
  5  6  1  0
  6  7  1  0
  7  8  1  0
  8  9  2  0
  8 10  1  0
 10 11  1  0
 11 12  1  0
 12 13  1  0
 13 14  1  0
 14 15  1  0
 15 16  1  0
 16 17  2  0
 16 18  1  0
 14 19  1  0
 19 20  1  0
 20 21  1  0
 21 22  1  0
 22 23  1  0
 23 24  2  0
 23 25  1  0
 21 26  1  0
 26 27  1  0
 27 28  1  0
 28 29  1  0
 29 30  1  0
 30 31  2  0
 30 32  1  0
 28 33  1  0
 33 34  1  0
  2 35  1  0
 35 36  2  0
 35 37  1  0
 34 11  1  0
M  END
>  <rName>  (1198) 
D-Lys_DOTA

>  <PQ_SYMBOL>  (1198) 
D-Lys_DOTA

>  <FULL_NAME>  (1198) 
(R)-2,2',2''-(10-(2-((5-amino-5-carboxypentyl)amino)-2-oxoethyl)-1,4,7,10-tetraazacyclododecane-1,4,7-triyl)triacetic acid

>  <IUPAC_CONDENSED>  (1198) 
D-Lys(DOTA)

>  <IUPAC>  (1198) 
(2R)-2-amino-6-((4,7,10-tris(2-hydroxy-2-oxoethyl)-1,4,7,10-tetraazacyclododecan-1-yl)methylcarbonylamino)hexanoic acid

>  <TYPE>  (1198) 
Backbone

>  <CLASS>  (1198) 
alpha

>  <ANALOG>  (1198) 
X

>  <MOL_WT>  (1198) 
532.5950000000005

>  <LOGP>  (1198) 
-2.8397999999999923

>  <TPSA>  (1198) 
217.27999999999997

>  <POPULARITY>  (1198) 
3.3

>  <PROTECTED>  (1198) 
TRUE

>  <SMILES>  (1198) 
N[C@H](CCCCNC(=O)CN1CCN(CC(=O)O)CCN(CC(=O)O)CCN(CC(=O)O)CC1)C(=O)O

>  <INCHIKEY>  (1198) 
JCEJITBDLXNFBI-QGZVFWFLSA-N

$$$$
D-Lys_Me
     RDKit          2D

 11 10  0  0  0  0  0  0  0  0999 V2000
    1.9630   -1.8884    0.0000 N   0  0  0  0  0  0  0  0  0  0  0  0
    1.9989   -0.3888    0.0000 C   0  0  0  0  0  0  0  0  0  0  0  0
    0.7181    0.3920    0.0000 C   0  0  0  0  0  0  0  0  0  0  0  0
   -0.5985   -0.3267    0.0000 C   0  0  0  0  0  0  0  0  0  0  0  0
   -1.8792    0.4541    0.0000 C   0  0  0  0  0  0  0  0  0  0  0  0
   -3.1958   -0.2646    0.0000 C   0  0  0  0  0  0  0  0  0  0  0  0
   -4.4765    0.5162    0.0000 N   0  0  0  0  0  0  0  0  0  0  0  0
   -5.7931   -0.2025    0.0000 C   0  0  0  0  0  0  0  0  0  0  0  0
    3.3155    0.3299    0.0000 C   0  0  0  0  0  0  0  0  0  0  0  0
    3.3513    1.8295    0.0000 O   0  0  0  0  0  0  0  0  0  0  0  0
    4.5962   -0.4509    0.0000 O   0  0  0  0  0  0  0  0  0  0  0  0
  2  1  1  6
  2  3  1  0
  3  4  1  0
  4  5  1  0
  5  6  1  0
  6  7  1  0
  7  8  1  0
  2  9  1  0
  9 10  2  0
  9 11  1  0
M  END
>  <rName>  (1199) 
D-Lys_Me

>  <PQ_SYMBOL>  (1199) 
D-Lys_Me

>  <FULL_NAME>  (1199) 
D-N-epsilon-Methyllysine

>  <IUPAC_CONDENSED>  (1199) 
D-Lys(Me)

>  <IUPAC>  (1199) 
(2R)-2-amino-6-(methylamino)hexanoic acid

>  <TYPE>  (1199) 
Backbone

>  <CLASS>  (1199) 
alpha

>  <ANALOG>  (1199) 
Lys

>  <MOL_WT>  (1199) 
160.217

>  <LOGP>  (1199) 
-0.21200000000000047

>  <TPSA>  (1199) 
75.35

>  <POPULARITY>  (1199) 
14.8

>  <PROTECTED>  (1199) 
TRUE

>  <SMILES>  (1199) 
N[C@H](CCCCNC)C(=O)O

>  <INCHIKEY>  (1199) 
PQNASZJZHFPQLE-ZCFIWIBFSA-N

$$$$
D-Lys_Me2
     RDKit          2D

 12 11  0  0  0  0  0  0  0  0999 V2000
    2.4617    1.9005    0.0000 N   0  0  0  0  0  0  0  0  0  0  0  0
    2.4001    0.4018    0.0000 C   0  0  0  0  0  0  0  0  0  0  0  0
    1.0713   -0.2943    0.0000 C   0  0  0  0  0  0  0  0  0  0  0  0
   -0.1958    0.5085    0.0000 C   0  0  0  0  0  0  0  0  0  0  0  0
   -1.5245   -0.1875    0.0000 C   0  0  0  0  0  0  0  0  0  0  0  0
   -2.7917    0.6152    0.0000 C   0  0  0  0  0  0  0  0  0  0  0  0
   -4.1204   -0.0808    0.0000 N   0  0  0  0  0  0  0  0  0  0  0  0
   -5.3876    0.7219    0.0000 C   0  0  0  0  0  0  0  0  0  0  0  0
   -4.1820   -1.5796    0.0000 C   0  0  0  0  0  0  0  0  0  0  0  0
    3.6672   -0.4010    0.0000 C   0  0  0  0  0  0  0  0  0  0  0  0
    3.6056   -1.8997    0.0000 O   0  0  0  0  0  0  0  0  0  0  0  0
    4.9960    0.2950    0.0000 O   0  0  0  0  0  0  0  0  0  0  0  0
  2  1  1  1
  2  3  1  0
  3  4  1  0
  4  5  1  0
  5  6  1  0
  6  7  1  0
  7  8  1  0
  7  9  1  0
  2 10  1  0
 10 11  2  0
 10 12  1  0
M  END
>  <rName>  (1200) 
D-Lys_Me2

>  <PQ_SYMBOL>  (1200) 
D-Lys_Me2

>  <FULL_NAME>  (1200) 
D-N-epsilon-Dimethyllysine

>  <IUPAC_CONDENSED>  (1200) 
D-Lys(Me2)

>  <IUPAC>  (1200) 
(2R)-2-amino-6-(dimethylamino)hexanoic acid

>  <TYPE>  (1200) 
Backbone

>  <CLASS>  (1200) 
alpha

>  <ANALOG>  (1200) 
Lys

>  <MOL_WT>  (1200) 
174.244

>  <LOGP>  (1200) 
0.13020000000000004

>  <TPSA>  (1200) 
66.56

>  <POPULARITY>  (1200) 
11.1

>  <PROTECTED>  (1200) 
TRUE

>  <SMILES>  (1200) 
N[C@H](CCCCN(C)C)C(=O)O

>  <INCHIKEY>  (1200) 
XXEWFEBMSGLYBY-SSDOTTSWSA-N

$$$$
D-Lys_N6Gly
     RDKit          2D

 14 13  0  0  0  0  0  0  0  0999 V2000
   -3.4434    1.8746    0.0000 N   0  0  0  0  0  0  0  0  0  0  0  0
   -3.5124    0.3762    0.0000 C   0  0  0  0  0  0  0  0  0  0  0  0
   -2.2492   -0.4328    0.0000 C   0  0  0  0  0  0  0  0  0  0  0  0
   -0.9171    0.2567    0.0000 C   0  0  0  0  0  0  0  0  0  0  0  0
    0.3461   -0.5522    0.0000 C   0  0  0  0  0  0  0  0  0  0  0  0
    1.6783    0.1373    0.0000 C   0  0  0  0  0  0  0  0  0  0  0  0
    2.9415   -0.6717    0.0000 N   0  0  0  0  0  0  0  0  0  0  0  0
    4.2736    0.0178    0.0000 C   0  0  0  0  0  0  0  0  0  0  0  0
    4.3426    1.5162    0.0000 O   0  0  0  0  0  0  0  0  0  0  0  0
    5.5368   -0.7911    0.0000 C   0  0  0  0  0  0  0  0  0  0  0  0
    6.8689   -0.1016    0.0000 N   0  0  0  0  0  0  0  0  0  0  0  0
   -4.8445   -0.3133    0.0000 C   0  0  0  0  0  0  0  0  0  0  0  0
   -4.9135   -1.8117    0.0000 O   0  0  0  0  0  0  0  0  0  0  0  0
   -6.1077    0.4956    0.0000 O   0  0  0  0  0  0  0  0  0  0  0  0
  2  1  1  6
  2  3  1  0
  3  4  1  0
  4  5  1  0
  5  6  1  0
  6  7  1  0
  7  8  1  0
  8  9  2  0
  8 10  1  0
 10 11  1  0
  2 12  1  0
 12 13  2  0
 12 14  1  0
M  END
>  <rName>  (1201) 
D-Lys_N6Gly

>  <PQ_SYMBOL>  (1201) 
D-Lys_N6Gly

>  <FULL_NAME>  (1201) 
(2R)-2-amino-6-[(2-aminoacetyl)amino]hexanoic acid

>  <IUPAC_CONDENSED>  (1201) 
D-Lys(N6-Gly)

>  <IUPAC>  (1201) 
(2R)-2-amino-6-[(2-aminoacetyl)amino]hexanoic acid

>  <TYPE>  (1201) 
Backbone

>  <CLASS>  (1201) 
alpha

>  <ANALOG>  (1201) 
Lys

>  <MOL_WT>  (1201) 
203.242

>  <LOGP>  (1201) 
-1.3564999999999978

>  <TPSA>  (1201) 
118.44000000000001

>  <POPULARITY>  (1201) 
2.2

>  <PROTECTED>  (1201) 
TRUE

>  <SMILES>  (1201) 
N[C@H](CCCCNC(=O)CN)C(=O)O

>  <INCHIKEY>  (1201) 
YOYBPHLYMUAKGZ-ZCFIWIBFSA-N

$$$$
D-Lys_acetyl
     RDKit          2D

 13 12  0  0  0  0  0  0  0  0999 V2000
    6.0618    0.8243    0.0000 C   0  0  0  0  0  0  0  0  0  0  0  0
    4.8020    0.0101    0.0000 C   0  0  0  0  0  0  0  0  0  0  0  0
    4.8772   -1.4880    0.0000 O   0  0  0  0  0  0  0  0  0  0  0  0
    3.4670    0.6940    0.0000 N   0  0  0  0  0  0  0  0  0  0  0  0
    2.2072   -0.1202    0.0000 C   0  0  0  0  0  0  0  0  0  0  0  0
    0.8722    0.5637    0.0000 C   0  0  0  0  0  0  0  0  0  0  0  0
   -0.3876   -0.2505    0.0000 C   0  0  0  0  0  0  0  0  0  0  0  0
   -1.7226    0.4334    0.0000 C   0  0  0  0  0  0  0  0  0  0  0  0
   -2.9824   -0.3808    0.0000 C   0  0  0  0  0  0  0  0  0  0  0  0
   -2.9072   -1.8790    0.0000 N   0  0  0  0  0  0  0  0  0  0  0  0
   -4.3175    0.3030    0.0000 C   0  0  0  0  0  0  0  0  0  0  0  0
   -4.3927    1.8012    0.0000 O   0  0  0  0  0  0  0  0  0  0  0  0
   -5.5772   -0.5112    0.0000 O   0  0  0  0  0  0  0  0  0  0  0  0
  1  2  1  0
  2  3  2  0
  2  4  1  0
  4  5  1  0
  5  6  1  0
  6  7  1  0
  7  8  1  0
  8  9  1  0
  9 10  1  1
  9 11  1  0
 11 12  2  0
 11 13  1  0
M  END
>  <rName>  (1202) 
D-Lys_acetyl

>  <PQ_SYMBOL>  (1202) 
D-Lys_acetyl

>  <FULL_NAME>  (1202) 
(2R)-6-acetamido-2-aminohexanoic acid

>  <IUPAC_CONDENSED>  (1202) 
D-Lys(acetyl)

>  <IUPAC>  (1202) 
(2R)-6-acetamido-2-aminohexanoic acid

>  <TYPE>  (1202) 
Backbone

>  <CLASS>  (1202) 
alpha

>  <ANALOG>  (1202) 
Lys

>  <MOL_WT>  (1202) 
188.22699999999998

>  <LOGP>  (1202) 
-0.2952999999999993

>  <TPSA>  (1202) 
92.42

>  <POPULARITY>  (1202) 
3.5

>  <PROTECTED>  (1202) 
TRUE

>  <SMILES>  (1202) 
CC(=O)NCCCC[C@@H](N)C(=O)O

>  <INCHIKEY>  (1202) 
DTERQYGMUDWYAZ-SSDOTTSWSA-N

$$$$
D-Lys_biotinyl
     RDKit          2D

 25 26  0  0  0  0  0  0  0  0999 V2000
   -8.6944   -1.4032    0.0000 N   0  0  0  0  0  0  0  0  0  0  0  0
   -8.4746    0.0806    0.0000 C   0  0  0  0  0  0  0  0  0  0  0  0
   -7.0796    0.6321    0.0000 C   0  0  0  0  0  0  0  0  0  0  0  0
   -5.9045   -0.3001    0.0000 C   0  0  0  0  0  0  0  0  0  0  0  0
   -4.5096    0.2514    0.0000 C   0  0  0  0  0  0  0  0  0  0  0  0
   -3.3345   -0.6809    0.0000 C   0  0  0  0  0  0  0  0  0  0  0  0
   -1.9396   -0.1293    0.0000 N   0  0  0  0  0  0  0  0  0  0  0  0
   -0.7645   -1.0616    0.0000 C   0  0  0  0  0  0  0  0  0  0  0  0
   -0.9843   -2.5454    0.0000 O   0  0  0  0  0  0  0  0  0  0  0  0
    0.6305   -0.5101    0.0000 C   0  0  0  0  0  0  0  0  0  0  0  0
    1.8056   -1.4423    0.0000 C   0  0  0  0  0  0  0  0  0  0  0  0
    3.2005   -0.8908    0.0000 C   0  0  0  0  0  0  0  0  0  0  0  0
    4.3756   -1.8231    0.0000 C   0  0  0  0  0  0  0  0  0  0  0  0
    5.7705   -1.2715    0.0000 C   0  0  0  0  0  0  0  0  0  0  0  0
    7.0366   -2.0759    0.0000 S   0  0  0  0  0  0  0  0  0  0  0  0
    8.1928   -1.1203    0.0000 C   0  0  0  0  0  0  0  0  0  0  0  0
    7.6413    0.2746    0.0000 C   0  0  0  0  0  0  0  0  0  0  0  0
    8.0150    1.7273    0.0000 N   0  0  0  0  0  0  0  0  0  0  0  0
    6.7489    2.5317    0.0000 C   0  0  0  0  0  0  0  0  0  0  0  0
    6.6554    4.0288    0.0000 O   0  0  0  0  0  0  0  0  0  0  0  0
    5.5927    1.5761    0.0000 N   0  0  0  0  0  0  0  0  0  0  0  0
    6.1442    0.1812    0.0000 C   0  0  0  0  0  0  0  0  0  0  0  0
   -9.6497    1.0129    0.0000 C   0  0  0  0  0  0  0  0  0  0  0  0
   -9.4298    2.4967    0.0000 O   0  0  0  0  0  0  0  0  0  0  0  0
  -11.0446    0.4613    0.0000 O   0  0  0  0  0  0  0  0  0  0  0  0
  2  1  1  1
  2  3  1  0
  3  4  1  0
  4  5  1  0
  5  6  1  0
  6  7  1  0
  7  8  1  0
  8  9  2  0
  8 10  1  0
 10 11  1  0
 11 12  1  0
 12 13  1  0
 14 13  1  1
 14 15  1  0
 15 16  1  0
 17 16  1  1
 17 18  1  0
 18 19  1  0
 19 20  2  0
 19 21  1  0
 22 21  1  1
  2 23  1  0
 23 24  2  0
 23 25  1  0
 22 14  1  0
 22 17  1  0
M  END
>  <rName>  (1203) 
D-Lys_biotinyl

>  <PQ_SYMBOL>  (1203) 
D-Lys_biotinyl

>  <FULL_NAME>  (1203) 
N6-(5-((3aS,4S,6aR)-2-oxohexahydro-1H-thieno[3,4-d]imidazol-4-yl)pentanoyl)-D-lysine

>  <IUPAC_CONDENSED>  (1203) 
D-Lys(biotinyl)

>  <IUPAC>  (1203) 
(2R)-2-amino-6-(4-((1S,2S,5R)-7-oxo-3-thia-6,8-diazabicyclo[3.3.0]octan-2-yl)butylcarbonylamino)hexanoic acid

>  <TYPE>  (1203) 
Backbone

>  <CLASS>  (1203) 
alpha

>  <ANALOG>  (1203) 
Arg

>  <MOL_WT>  (1203) 
372.49100000000004

>  <LOGP>  (1203) 
0.41060000000000124

>  <TPSA>  (1203) 
133.54999999999998

>  <POPULARITY>  (1203) 
5.6

>  <PROTECTED>  (1203) 
TRUE

>  <SMILES>  (1203) 
N[C@H](CCCCNC(=O)CCCC[C@@H]1SC[C@@H]2NC(=O)N[C@@H]21)C(=O)O

>  <INCHIKEY>  (1203) 
BAQMYDQNMFBZNA-UHXUPSOCSA-N

$$$$
D-Lys_iPr
     RDKit          2D

 13 12  0  0  0  0  0  0  0  0999 V2000
    2.9072   -1.8790    0.0000 N   0  0  0  0  0  0  0  0  0  0  0  0
    2.9824   -0.3808    0.0000 C   0  0  0  0  0  0  0  0  0  0  0  0
    1.7226    0.4334    0.0000 C   0  0  0  0  0  0  0  0  0  0  0  0
    0.3876   -0.2505    0.0000 C   0  0  0  0  0  0  0  0  0  0  0  0
   -0.8722    0.5637    0.0000 C   0  0  0  0  0  0  0  0  0  0  0  0
   -2.2072   -0.1202    0.0000 C   0  0  0  0  0  0  0  0  0  0  0  0
   -3.4670    0.6940    0.0000 N   0  0  0  0  0  0  0  0  0  0  0  0
   -4.8020    0.0101    0.0000 C   0  0  0  0  0  0  0  0  0  0  0  0
   -6.0618    0.8243    0.0000 C   0  0  0  0  0  0  0  0  0  0  0  0
   -4.8772   -1.4880    0.0000 C   0  0  0  0  0  0  0  0  0  0  0  0
    4.3175    0.3030    0.0000 C   0  0  0  0  0  0  0  0  0  0  0  0
    4.3927    1.8012    0.0000 O   0  0  0  0  0  0  0  0  0  0  0  0
    5.5772   -0.5112    0.0000 O   0  0  0  0  0  0  0  0  0  0  0  0
  2  1  1  6
  2  3  1  0
  3  4  1  0
  4  5  1  0
  5  6  1  0
  6  7  1  0
  7  8  1  0
  8  9  1  0
  8 10  1  0
  2 11  1  0
 11 12  2  0
 11 13  1  0
M  END
>  <rName>  (1204) 
D-Lys_iPr

>  <PQ_SYMBOL>  (1204) 
D-Lys_iPr

>  <FULL_NAME>  (1204) 
(2R)-2-amino-6-(propan-2-ylamino)hexanoic acid

>  <IUPAC_CONDENSED>  (1204) 
D-Lys(iPr)

>  <IUPAC>  (1204) 
(2R)-2-amino-6-((propan-2-yl)amino)hexanoic acid

>  <TYPE>  (1204) 
Backbone

>  <CLASS>  (1204) 
alpha

>  <ANALOG>  (1204) 
Lys

>  <MOL_WT>  (1204) 
188.271

>  <LOGP>  (1204) 
0.5665999999999998

>  <TPSA>  (1204) 
75.35

>  <POPULARITY>  (1204) 
12.7

>  <PROTECTED>  (1204) 
TRUE

>  <SMILES>  (1204) 
N[C@H](CCCCNC(C)C)C(=O)O

>  <INCHIKEY>  (1204) 
CBAWNLIZBXJSFS-MRVPVSSYSA-N

$$$$
D-Lys_nicotinoyl
     RDKit          2D

 18 18  0  0  0  0  0  0  0  0999 V2000
   -5.2698   -1.7320    0.0000 N   0  0  0  0  0  0  0  0  0  0  0  0
   -5.1566   -0.2362    0.0000 C   0  0  0  0  0  0  0  0  0  0  0  0
   -3.8046    0.4135    0.0000 C   0  0  0  0  0  0  0  0  0  0  0  0
   -2.5659   -0.4325    0.0000 C   0  0  0  0  0  0  0  0  0  0  0  0
   -1.2139    0.2173    0.0000 C   0  0  0  0  0  0  0  0  0  0  0  0
    0.0248   -0.6287    0.0000 C   0  0  0  0  0  0  0  0  0  0  0  0
    1.3767    0.0211    0.0000 N   0  0  0  0  0  0  0  0  0  0  0  0
    2.6154   -0.8249    0.0000 C   0  0  0  0  0  0  0  0  0  0  0  0
    2.5021   -2.3206    0.0000 O   0  0  0  0  0  0  0  0  0  0  0  0
    3.9674   -0.1751    0.0000 C   0  0  0  0  0  0  0  0  0  0  0  0
    4.0807    1.3206    0.0000 C   0  0  0  0  0  0  0  0  0  0  0  0
    5.4326    1.9703    0.0000 C   0  0  0  0  0  0  0  0  0  0  0  0
    6.6713    1.1244    0.0000 C   0  0  0  0  0  0  0  0  0  0  0  0
    6.5580   -0.3713    0.0000 N   0  0  0  0  0  0  0  0  0  0  0  0
    5.2061   -1.0211    0.0000 C   0  0  0  0  0  0  0  0  0  0  0  0
   -6.3952    0.6097    0.0000 C   0  0  0  0  0  0  0  0  0  0  0  0
   -6.2820    2.1054    0.0000 O   0  0  0  0  0  0  0  0  0  0  0  0
   -7.7472   -0.0400    0.0000 O   0  0  0  0  0  0  0  0  0  0  0  0
  2  1  1  1
  2  3  1  0
  3  4  1  0
  4  5  1  0
  5  6  1  0
  6  7  1  0
  7  8  1  0
  8  9  2  0
  8 10  1  0
 10 11  2  0
 11 12  1  0
 12 13  2  0
 13 14  1  0
 14 15  2  0
  2 16  1  0
 16 17  2  0
 16 18  1  0
 15 10  1  0
M  END
>  <rName>  (1205) 
D-Lys_nicotinoyl

>  <PQ_SYMBOL>  (1205) 
D-Lys_nicotinoyl

>  <FULL_NAME>  (1205) 
N6-nicotinoyl-D-lysine

>  <IUPAC_CONDENSED>  (1205) 
D-Lys(nicotinoyl)

>  <IUPAC>  (1205) 
(2R)-2-amino-6-(pyridin-3-ylcarbonylamino)hexanoic acid

>  <TYPE>  (1205) 
Backbone

>  <CLASS>  (1205) 
alpha

>  <ANALOG>  (1205) 
Lys

>  <MOL_WT>  (1205) 
251.28600000000003

>  <LOGP>  (1205) 
0.39359999999999906

>  <TPSA>  (1205) 
105.30999999999999

>  <POPULARITY>  (1205) 
6.8

>  <PROTECTED>  (1205) 
TRUE

>  <SMILES>  (1205) 
N[C@H](CCCCNC(=O)c1cccnc1)C(=O)O

>  <INCHIKEY>  (1205) 
GPGQRQZBZHOSJY-SNVBAGLBSA-N

$$$$
D-Lys_palmitoyl
     RDKit          2D

 27 26  0  0  0  0  0  0  0  0999 V2000
  -16.0714   -0.3744    0.0000 C   0  0  0  0  0  0  0  0  0  0  0  0
  -14.7691    0.3699    0.0000 C   0  0  0  0  0  0  0  0  0  0  0  0
  -13.4733   -0.3857    0.0000 C   0  0  0  0  0  0  0  0  0  0  0  0
  -12.1710    0.3586    0.0000 C   0  0  0  0  0  0  0  0  0  0  0  0
  -10.8753   -0.3970    0.0000 C   0  0  0  0  0  0  0  0  0  0  0  0
   -9.5730    0.3473    0.0000 C   0  0  0  0  0  0  0  0  0  0  0  0
   -8.2772   -0.4084    0.0000 C   0  0  0  0  0  0  0  0  0  0  0  0
   -6.9749    0.3360    0.0000 C   0  0  0  0  0  0  0  0  0  0  0  0
   -5.6792   -0.4197    0.0000 C   0  0  0  0  0  0  0  0  0  0  0  0
   -4.3769    0.3246    0.0000 C   0  0  0  0  0  0  0  0  0  0  0  0
   -3.0811   -0.4310    0.0000 C   0  0  0  0  0  0  0  0  0  0  0  0
   -1.7788    0.3133    0.0000 C   0  0  0  0  0  0  0  0  0  0  0  0
   -0.4831   -0.4423    0.0000 C   0  0  0  0  0  0  0  0  0  0  0  0
    0.8192    0.3020    0.0000 C   0  0  0  0  0  0  0  0  0  0  0  0
    2.1150   -0.4537    0.0000 C   0  0  0  0  0  0  0  0  0  0  0  0
    3.4173    0.2907    0.0000 C   0  0  0  0  0  0  0  0  0  0  0  0
    3.4238    1.7906    0.0000 O   0  0  0  0  0  0  0  0  0  0  0  0
    4.7130   -0.4650    0.0000 N   0  0  0  0  0  0  0  0  0  0  0  0
    6.0153    0.2793    0.0000 C   0  0  0  0  0  0  0  0  0  0  0  0
    7.3111   -0.4763    0.0000 C   0  0  0  0  0  0  0  0  0  0  0  0
    8.6134    0.2680    0.0000 C   0  0  0  0  0  0  0  0  0  0  0  0
    9.9091   -0.4876    0.0000 C   0  0  0  0  0  0  0  0  0  0  0  0
   11.2114    0.2567    0.0000 C   0  0  0  0  0  0  0  0  0  0  0  0
   11.2180    1.7567    0.0000 N   0  0  0  0  0  0  0  0  0  0  0  0
   12.5072   -0.4990    0.0000 C   0  0  0  0  0  0  0  0  0  0  0  0
   12.5007   -1.9990    0.0000 O   0  0  0  0  0  0  0  0  0  0  0  0
   13.8095    0.2454    0.0000 O   0  0  0  0  0  0  0  0  0  0  0  0
  1  2  1  0
  2  3  1  0
  3  4  1  0
  4  5  1  0
  5  6  1  0
  6  7  1  0
  7  8  1  0
  8  9  1  0
  9 10  1  0
 10 11  1  0
 11 12  1  0
 12 13  1  0
 13 14  1  0
 14 15  1  0
 15 16  1  0
 16 17  2  0
 16 18  1  0
 18 19  1  0
 19 20  1  0
 20 21  1  0
 21 22  1  0
 22 23  1  0
 23 24  1  1
 23 25  1  0
 25 26  2  0
 25 27  1  0
M  END
>  <rName>  (1206) 
D-Lys_palmitoyl

>  <PQ_SYMBOL>  (1206) 
D-Lys_palmitoyl

>  <FULL_NAME>  (1206) 
N6-palmitoyl-D-lysine

>  <IUPAC_CONDENSED>  (1206) 
D-Lys(palmitoyl)

>  <IUPAC>  (1206) 
(2R)-2-amino-6-(pentadecylcarbonylamino)hexanoic acid

>  <TYPE>  (1206) 
Backbone

>  <CLASS>  (1206) 
alpha

>  <ANALOG>  (1206) 
Lys

>  <MOL_WT>  (1206) 
384.6050000000002

>  <LOGP>  (1206) 
5.166100000000003

>  <TPSA>  (1206) 
92.42

>  <POPULARITY>  (1206) 
6.3

>  <PROTECTED>  (1206) 
TRUE

>  <SMILES>  (1206) 
CCCCCCCCCCCCCCCC(=O)NCCCC[C@@H](N)C(=O)O

>  <INCHIKEY>  (1206) 
IWKZTTDNVPAHNP-HXUWFJFHSA-N

$$$$
D-Lys_pent4ynoyl
     RDKit          2D

 16 15  0  0  0  0  0  0  0  0999 V2000
    8.3748   -1.0810    0.0000 C   0  0  0  0  0  0  0  0  0  0  0  0
    7.0677   -0.3451    0.0000 C   0  0  0  0  0  0  0  0  0  0  0  0
    5.7606    0.3907    0.0000 C   0  0  0  0  0  0  0  0  0  0  0  0
    4.4698   -0.3734    0.0000 C   0  0  0  0  0  0  0  0  0  0  0  0
    3.1627    0.3625    0.0000 C   0  0  0  0  0  0  0  0  0  0  0  0
    3.1464    1.8624    0.0000 O   0  0  0  0  0  0  0  0  0  0  0  0
    1.8718   -0.4016    0.0000 N   0  0  0  0  0  0  0  0  0  0  0  0
    0.5647    0.3343    0.0000 C   0  0  0  0  0  0  0  0  0  0  0  0
   -0.7261   -0.4298    0.0000 C   0  0  0  0  0  0  0  0  0  0  0  0
   -2.0332    0.3061    0.0000 C   0  0  0  0  0  0  0  0  0  0  0  0
   -3.3240   -0.4580    0.0000 C   0  0  0  0  0  0  0  0  0  0  0  0
   -4.6311    0.2779    0.0000 C   0  0  0  0  0  0  0  0  0  0  0  0
   -4.6474    1.7778    0.0000 N   0  0  0  0  0  0  0  0  0  0  0  0
   -5.9219   -0.4862    0.0000 C   0  0  0  0  0  0  0  0  0  0  0  0
   -5.9056   -1.9861    0.0000 O   0  0  0  0  0  0  0  0  0  0  0  0
   -7.2290    0.2496    0.0000 O   0  0  0  0  0  0  0  0  0  0  0  0
  1  2  3  0
  2  3  1  0
  3  4  1  0
  4  5  1  0
  5  6  2  0
  5  7  1  0
  7  8  1  0
  8  9  1  0
  9 10  1  0
 10 11  1  0
 11 12  1  0
 12 13  1  6
 12 14  1  0
 14 15  2  0
 14 16  1  0
M  END
>  <rName>  (1207) 
D-Lys_pent4ynoyl

>  <PQ_SYMBOL>  (1207) 
D-Lys_pent4ynoyl

>  <FULL_NAME>  (1207) 
N6-(pent-4-ynoyl)-D-lysine

>  <IUPAC_CONDENSED>  (1207) 
D-Lys(pent-4-ynoyl)

>  <IUPAC>  (1207) 
(2R)-2-amino-6-(but-3-yn-1-ylcarbonylamino)hexanoic acid

>  <TYPE>  (1207) 
Backbone

>  <CLASS>  (1207) 
alpha

>  <ANALOG>  (1207) 
Lys

>  <MOL_WT>  (1207) 
226.27599999999998

>  <LOGP>  (1207) 
0.09820000000000079

>  <TPSA>  (1207) 
92.42

>  <POPULARITY>  (1207) 
5.3

>  <PROTECTED>  (1207) 
TRUE

>  <SMILES>  (1207) 
C#CCCC(=O)NCCCC[C@@H](N)C(=O)O

>  <INCHIKEY>  (1207) 
RYIXPBHBRDRADN-SECBINFHSA-N

$$$$
D-Met-NH2
     RDKit          2D

  9  8  0  0  0  0  0  0  0  0999 V2000
    0.7616   -1.8791    0.0000 N   0  0  0  0  0  0  0  0  0  0  0  0
    0.8459   -0.3815    0.0000 C   0  0  0  0  0  0  0  0  0  0  0  0
    2.1851    0.2943    0.0000 C   0  0  0  0  0  0  0  0  0  0  0  0
    2.2694    1.7919    0.0000 O   0  0  0  0  0  0  0  0  0  0  0  0
    3.4399   -0.5275    0.0000 N   0  0  0  0  0  0  0  0  0  0  0  0
   -0.4089    0.4403    0.0000 C   0  0  0  0  0  0  0  0  0  0  0  0
   -1.7480   -0.2354    0.0000 C   0  0  0  0  0  0  0  0  0  0  0  0
   -3.0029    0.5864    0.0000 S   0  0  0  0  0  0  0  0  0  0  0  0
   -4.3420   -0.0894    0.0000 C   0  0  0  0  0  0  0  0  0  0  0  0
  2  1  1  6
  2  3  1  0
  3  4  2  0
  3  5  1  0
  2  6  1  0
  6  7  1  0
  7  8  1  0
  8  9  1  0
M  END
>  <rName>  (1208) 
D-Met-NH2

>  <PQ_SYMBOL>  (1208) 
D-Met-NH2

>  <FULL_NAME>  (1208) 
D-methioninamide

>  <IUPAC_CONDENSED>  (1208) 
D-Met-NH2

>  <IUPAC>  (1208) 
(2R)-2-amino-4-(methylsulfanyl)butanamide

>  <TYPE>  (1208) 
C-term cap

>  <CLASS>  (1208) 
c_cap

>  <ANALOG>  (1208) 
X

>  <MOL_WT>  (1208) 
148.231

>  <LOGP>  (1208) 
-0.4479000000000002

>  <TPSA>  (1208) 
69.11

>  <POPULARITY>  (1208) 
11.2

>  <PROTECTED>  (1208) 
FALSE

>  <SMILES>  (1208) 
N[C@@H](C(=O)N)CCSC

>  <INCHIKEY>  (1208) 
GSYTVXOARWSQSV-SCSAIBSYSA-N

$$$$
D-Met_O2
     RDKit          2D

 11 10  0  0  0  0  0  0  0  0999 V2000
    1.5275   -1.9644    0.0000 N   0  0  0  0  0  0  0  0  0  0  0  0
    1.4450   -0.4666    0.0000 C   0  0  0  0  0  0  0  0  0  0  0  0
    0.1067    0.2107    0.0000 C   0  0  0  0  0  0  0  0  0  0  0  0
   -1.1491   -0.6096    0.0000 C   0  0  0  0  0  0  0  0  0  0  0  0
   -2.4875    0.0678    0.0000 S   0  0  0  0  0  0  0  0  0  0  0  0
   -3.1649   -1.2706    0.0000 O   0  0  0  0  0  0  0  0  0  0  0  0
   -1.8101    1.4061    0.0000 O   0  0  0  0  0  0  0  0  0  0  0  0
   -3.8258    0.7452    0.0000 C   0  0  0  0  0  0  0  0  0  0  0  0
    2.7008    0.3537    0.0000 C   0  0  0  0  0  0  0  0  0  0  0  0
    2.6183    1.8514    0.0000 O   0  0  0  0  0  0  0  0  0  0  0  0
    4.0391   -0.3237    0.0000 O   0  0  0  0  0  0  0  0  0  0  0  0
  2  1  1  6
  2  3  1  0
  3  4  1  0
  4  5  1  0
  5  6  2  0
  5  7  2  0
  5  8  1  0
  2  9  1  0
  9 10  2  0
  9 11  1  0
M  END
>  <rName>  (1209) 
D-Met_O2

>  <PQ_SYMBOL>  (1209) 
D-Met_O2

>  <FULL_NAME>  (1209) 
D-Methionine Sulfone

>  <IUPAC_CONDENSED>  (1209) 
D-Met(O2)

>  <IUPAC>  (1209) 
(2R)-2-amino-4-(methylsulfonyl)butanoic acid

>  <TYPE>  (1209) 
Backbone

>  <CLASS>  (1209) 
alpha

>  <ANALOG>  (1209) 
X

>  <MOL_WT>  (1209) 
181.213

>  <LOGP>  (1209) 
-1.167

>  <TPSA>  (1209) 
97.46000000000001

>  <POPULARITY>  (1209) 
7.8

>  <PROTECTED>  (1209) 
TRUE

>  <SMILES>  (1209) 
N[C@H](CCS(=O)(=O)C)C(=O)O

>  <INCHIKEY>  (1209) 
UCUNFLYVYCGDHP-SCSAIBSYSA-N

$$$$
D-Met_SO
     RDKit          2D

 10  9  0  0  0  0  0  0  0  0999 V2000
   -1.2717    1.9622    0.0000 N   0  0  0  0  0  0  0  0  0  0  0  0
   -1.1946    0.4642    0.0000 C   0  0  0  0  0  0  0  0  0  0  0  0
    0.1413   -0.2180    0.0000 C   0  0  0  0  0  0  0  0  0  0  0  0
    1.4001    0.5978    0.0000 C   0  0  0  0  0  0  0  0  0  0  0  0
    2.7359   -0.0845    0.0000 S   0  0  0  0  0  4  0  0  0  0  0  0
    2.8131   -1.5825    0.0000 O   0  0  0  0  0  0  0  0  0  0  0  0
    3.9947    0.7313    0.0000 C   0  0  0  0  0  0  0  0  0  0  0  0
   -2.4533   -0.3516    0.0000 C   0  0  0  0  0  0  0  0  0  0  0  0
   -2.3762   -1.8496    0.0000 O   0  0  0  0  0  0  0  0  0  0  0  0
   -3.7892    0.3306    0.0000 O   0  0  0  0  0  0  0  0  0  0  0  0
  2  1  1  6
  2  3  1  0
  3  4  1  0
  4  5  1  0
  5  6  2  0
  5  7  1  6
  2  8  1  0
  8  9  2  0
  8 10  1  0
M  END
>  <rName>  (1210) 
D-Met_SO

>  <PQ_SYMBOL>  (1210) 
D-Met_SO

>  <FULL_NAME>  (1210) 
(2R)-2-amino-4-[(S)-methanesulfinyl]butanoic acid

>  <IUPAC_CONDENSED>  (1210) 
D-Met(S-O)

>  <IUPAC>  (1210) 
(2R)-2-amino-4-((S)-methylsulfinyl)butanoic acid

>  <TYPE>  (1210) 
Backbone

>  <CLASS>  (1210) 
alpha

>  <ANALOG>  (1210) 
Met

>  <MOL_WT>  (1210) 
165.214

>  <LOGP>  (1210) 
-0.8331000000000004

>  <TPSA>  (1210) 
80.39

>  <POPULARITY>  (1210) 
2.1

>  <PROTECTED>  (1210) 
FALSE

>  <SMILES>  (1210) 
N[C@H](CC[S@@](=O)C)C(=O)O

>  <INCHIKEY>  (1210) 
QEFRNWWLZKMPFJ-KNODYTOMSA-N

$$$$
D-Nar
     RDKit          2D

 11 10  0  0  0  0  0  0  0  0999 V2000
   -1.6269    1.8430    0.0000 N   0  0  0  0  0  0  0  0  0  0  0  0
   -1.7489    0.3480    0.0000 C   0  0  0  0  0  0  0  0  0  0  0  0
   -0.5152   -0.5052    0.0000 C   0  0  0  0  0  0  0  0  0  0  0  0
    0.8406    0.1366    0.0000 C   0  0  0  0  0  0  0  0  0  0  0  0
    2.0743   -0.7166    0.0000 N   0  0  0  0  0  0  0  0  0  0  0  0
    3.4300   -0.0748    0.0000 C   0  0  0  0  0  0  0  0  0  0  0  0
    3.5521    1.4203    0.0000 N   0  0  0  0  0  0  0  0  0  0  0  0
    4.6637   -0.9280    0.0000 N   0  0  0  0  0  0  0  0  0  0  0  0
   -3.1047   -0.2938    0.0000 C   0  0  0  0  0  0  0  0  0  0  0  0
   -3.2267   -1.7889    0.0000 O   0  0  0  0  0  0  0  0  0  0  0  0
   -4.3384    0.5594    0.0000 O   0  0  0  0  0  0  0  0  0  0  0  0
  2  1  1  6
  2  3  1  0
  3  4  1  0
  4  5  1  0
  5  6  1  0
  6  7  2  0
  6  8  1  0
  2  9  1  0
  9 10  2  0
  9 11  1  0
M  END
>  <rName>  (1211) 
D-Nar

>  <PQ_SYMBOL>  (1211) 
D-Nar

>  <FULL_NAME>  (1211) 
D-Norarginine

>  <IUPAC_CONDENSED>  (1211) 
D-Nar

>  <IUPAC>  (1211) 
(2R)-2-amino-4-(((amino)(imino)methyl)amino)butanoic acid

>  <TYPE>  (1211) 
Backbone

>  <CLASS>  (1211) 
alpha

>  <ANALOG>  (1211) 
Arg

>  <MOL_WT>  (1211) 
160.177

>  <LOGP>  (1211) 
-1.7285299999999992

>  <TPSA>  (1211) 
125.22000000000001

>  <POPULARITY>  (1211) 
15.3

>  <PROTECTED>  (1211) 
TRUE

>  <SMILES>  (1211) 
N[C@H](CCNC(=N)N)C(=O)O

>  <INCHIKEY>  (1211) 
IFPQOXNWLSRZKX-GSVOUGTGSA-N

$$$$
D-Nle
     RDKit          2D

  9  8  0  0  0  0  0  0  0  0999 V2000
    0.7616   -1.8791    0.0000 N   0  0  0  0  0  0  0  0  0  0  0  0
    0.8459   -0.3815    0.0000 C   0  0  0  0  0  0  0  0  0  0  0  0
   -0.4089    0.4403    0.0000 C   0  0  0  0  0  0  0  0  0  0  0  0
   -1.7480   -0.2354    0.0000 C   0  0  0  0  0  0  0  0  0  0  0  0
   -3.0029    0.5864    0.0000 C   0  0  0  0  0  0  0  0  0  0  0  0
   -4.3420   -0.0894    0.0000 C   0  0  0  0  0  0  0  0  0  0  0  0
    2.1851    0.2943    0.0000 C   0  0  0  0  0  0  0  0  0  0  0  0
    2.2694    1.7919    0.0000 O   0  0  0  0  0  0  0  0  0  0  0  0
    3.4399   -0.5275    0.0000 O   0  0  0  0  0  0  0  0  0  0  0  0
  2  1  1  6
  2  3  1  0
  3  4  1  0
  4  5  1  0
  5  6  1  0
  2  7  1  0
  7  8  2  0
  7  9  1  0
M  END
>  <rName>  (1212) 
D-Nle

>  <PQ_SYMBOL>  (1212) 
D-Nle

>  <FULL_NAME>  (1212) 
D-Norleucine

>  <IUPAC_CONDENSED>  (1212) 
D-Nle

>  <IUPAC>  (1212) 
(2R)-2-aminohexanoic acid

>  <TYPE>  (1212) 
Backbone

>  <CLASS>  (1212) 
alpha

>  <ANALOG>  (1212) 
Leu

>  <MOL_WT>  (1212) 
131.175

>  <LOGP>  (1212) 
0.5884999999999998

>  <TPSA>  (1212) 
63.32000000000001

>  <POPULARITY>  (1212) 
42.3

>  <PROTECTED>  (1212) 
TRUE

>  <SMILES>  (1212) 
N[C@H](CCCC)C(=O)O

>  <INCHIKEY>  (1212) 
LRQKBLKVPFOOQJ-RXMQYKEDSA-N

$$$$
D-Nle_44diMe
     RDKit          2D

 11 10  0  0  0  0  0  0  0  0999 V2000
    0.5813   -1.6858    0.0000 N   0  0  0  0  0  0  0  0  0  0  0  0
    1.0339   -0.2557    0.0000 C   0  0  0  0  0  0  0  0  0  0  0  0
    0.0217    0.8513    0.0000 C   0  0  0  0  0  0  0  0  0  0  0  0
   -1.4431    0.5282    0.0000 C   0  0  0  0  0  0  0  0  0  0  0  0
   -1.7663    1.9930    0.0000 C   0  0  0  0  0  0  0  0  0  0  0  0
   -1.1200   -0.9366    0.0000 C   0  0  0  0  0  0  0  0  0  0  0  0
   -2.9079    0.2050    0.0000 C   0  0  0  0  0  0  0  0  0  0  0  0
   -3.3605   -1.2251    0.0000 C   0  0  0  0  0  0  0  0  0  0  0  0
    2.4987    0.0675    0.0000 C   0  0  0  0  0  0  0  0  0  0  0  0
    2.9512    1.4976    0.0000 O   0  0  0  0  0  0  0  0  0  0  0  0
    3.5109   -1.0395    0.0000 O   0  0  0  0  0  0  0  0  0  0  0  0
  2  1  1  6
  2  3  1  0
  3  4  1  0
  4  5  1  0
  4  6  1  0
  4  7  1  0
  7  8  1  0
  2  9  1  0
  9 10  2  0
  9 11  1  0
M  END
>  <rName>  (1213) 
D-Nle_44diMe

>  <PQ_SYMBOL>  (1213) 
D-Nle_44diMe

>  <FULL_NAME>  (1213) 
(R)-2-amino-4,4-dimethylhexanoic acid

>  <IUPAC_CONDENSED>  (1213) 
D-Nle(4,4-diMe)

>  <IUPAC>  (1213) 
(2R)-2-amino-4,4-dimethylhexanoic acid

>  <TYPE>  (1213) 
Backbone

>  <CLASS>  (1213) 
alpha

>  <ANALOG>  (1213) 
Leu

>  <MOL_WT>  (1213) 
159.22899999999998

>  <LOGP>  (1213) 
1.2245999999999997

>  <TPSA>  (1213) 
63.32000000000001

>  <POPULARITY>  (1213) 
10.4

>  <PROTECTED>  (1213) 
TRUE

>  <SMILES>  (1213) 
N[C@H](CC(C)(C)CC)C(=O)O

>  <INCHIKEY>  (1213) 
UUJYECQXYRUUEJ-ZCFIWIBFSA-N

$$$$
D-Nle_4Et
     RDKit          2D

 11 10  0  0  0  0  0  0  0  0999 V2000
   -0.9775   -1.6170    0.0000 N   0  0  0  0  0  0  0  0  0  0  0  0
   -0.9473   -0.1173    0.0000 C   0  0  0  0  0  0  0  0  0  0  0  0
    0.3666    0.6064    0.0000 C   0  0  0  0  0  0  0  0  0  0  0  0
    1.6502   -0.1696    0.0000 C   0  0  0  0  0  0  0  0  0  0  0  0
    2.9641    0.5541    0.0000 C   0  0  0  0  0  0  0  0  0  0  0  0
    2.9943    2.0538    0.0000 C   0  0  0  0  0  0  0  0  0  0  0  0
    1.6200   -1.6693    0.0000 C   0  0  0  0  0  0  0  0  0  0  0  0
    0.3062   -2.3930    0.0000 C   0  0  0  0  0  0  0  0  0  0  0  0
   -2.2310    0.6587    0.0000 C   0  0  0  0  0  0  0  0  0  0  0  0
   -2.2008    2.1584    0.0000 O   0  0  0  0  0  0  0  0  0  0  0  0
   -3.5449   -0.0650    0.0000 O   0  0  0  0  0  0  0  0  0  0  0  0
  2  1  1  1
  2  3  1  0
  3  4  1  0
  4  5  1  0
  5  6  1  0
  4  7  1  0
  7  8  1  0
  2  9  1  0
  9 10  2  0
  9 11  1  0
M  END
>  <rName>  (1214) 
D-Nle_4Et

>  <PQ_SYMBOL>  (1214) 
D-Nle_4Et

>  <FULL_NAME>  (1214) 
4-Ethyl-D-Norleucine

>  <IUPAC_CONDENSED>  (1214) 
D-Nle(4-Et)

>  <IUPAC>  (1214) 
(2R)-2-amino-4-ethylhexanoic acid

>  <TYPE>  (1214) 
Backbone

>  <CLASS>  (1214) 
alpha

>  <ANALOG>  (1214) 
Leu

>  <MOL_WT>  (1214) 
159.229

>  <LOGP>  (1214) 
1.2245999999999997

>  <TPSA>  (1214) 
63.32000000000001

>  <POPULARITY>  (1214) 
14.5

>  <PROTECTED>  (1214) 
TRUE

>  <SMILES>  (1214) 
N[C@H](CC(CC)CC)C(=O)O

>  <INCHIKEY>  (1214) 
FNTZSUXNNTXOEI-SSDOTTSWSA-N

$$$$
D-Nle_56dehydro_5Me
     RDKit          2D

 10  9  0  0  0  0  0  0  0  0999 V2000
    1.2717    1.9622    0.0000 N   0  0  0  0  0  0  0  0  0  0  0  0
    1.1946    0.4642    0.0000 C   0  0  0  0  0  0  0  0  0  0  0  0
   -0.1413   -0.2180    0.0000 C   0  0  0  0  0  0  0  0  0  0  0  0
   -1.4001    0.5978    0.0000 C   0  0  0  0  0  0  0  0  0  0  0  0
   -2.7359   -0.0845    0.0000 C   0  0  0  0  0  0  0  0  0  0  0  0
   -3.9947    0.7313    0.0000 C   0  0  0  0  0  0  0  0  0  0  0  0
   -2.8131   -1.5825    0.0000 C   0  0  0  0  0  0  0  0  0  0  0  0
    2.4533   -0.3516    0.0000 C   0  0  0  0  0  0  0  0  0  0  0  0
    2.3762   -1.8496    0.0000 O   0  0  0  0  0  0  0  0  0  0  0  0
    3.7892    0.3306    0.0000 O   0  0  0  0  0  0  0  0  0  0  0  0
  2  1  1  1
  2  3  1  0
  3  4  1  0
  4  5  1  0
  5  6  2  0
  5  7  1  0
  2  8  1  0
  8  9  2  0
  8 10  1  0
M  END
>  <rName>  (1215) 
D-Nle_56dehydro_5Me

>  <PQ_SYMBOL>  (1215) 
D-Nle_56dehydro_5Me

>  <FULL_NAME>  (1215) 
(R)-2-amino-5-methylhex-5-enoic acid

>  <IUPAC_CONDENSED>  (1215) 
D-Nle(5,6-dehydro,5-Me)

>  <IUPAC>  (1215) 
(2R)-2-amino-5-methylhex-5-enoic acid

>  <TYPE>  (1215) 
Backbone

>  <CLASS>  (1215) 
alpha

>  <ANALOG>  (1215) 
Leu

>  <MOL_WT>  (1215) 
143.186

>  <LOGP>  (1215) 
0.7545999999999999

>  <TPSA>  (1215) 
63.32000000000001

>  <POPULARITY>  (1215) 
8.7

>  <PROTECTED>  (1215) 
TRUE

>  <SMILES>  (1215) 
N[C@H](CCC(=C)C)C(=O)O

>  <INCHIKEY>  (1215) 
OYGZAERTQAIZGU-ZCFIWIBFSA-N

$$$$
D-Nle_Bu
     RDKit          2D

 13 12  0  0  0  0  0  0  0  0999 V2000
    3.1740   -1.8865    0.0000 N   0  0  0  0  0  0  0  0  0  0  0  0
    3.1930   -0.3866    0.0000 C   0  0  0  0  0  0  0  0  0  0  0  0
    1.9036    0.3798    0.0000 C   0  0  0  0  0  0  0  0  0  0  0  0
    0.5951   -0.3537    0.0000 C   0  0  0  0  0  0  0  0  0  0  0  0
   -0.6943    0.4127    0.0000 C   0  0  0  0  0  0  0  0  0  0  0  0
   -2.0027   -0.3208    0.0000 C   0  0  0  0  0  0  0  0  0  0  0  0
   -3.2922    0.4456    0.0000 C   0  0  0  0  0  0  0  0  0  0  0  0
   -4.6006   -0.2879    0.0000 C   0  0  0  0  0  0  0  0  0  0  0  0
   -5.8900    0.4785    0.0000 C   0  0  0  0  0  0  0  0  0  0  0  0
   -7.1985   -0.2550    0.0000 C   0  0  0  0  0  0  0  0  0  0  0  0
    4.5014    0.3468    0.0000 C   0  0  0  0  0  0  0  0  0  0  0  0
    4.5204    1.8467    0.0000 O   0  0  0  0  0  0  0  0  0  0  0  0
    5.7909   -0.4196    0.0000 O   0  0  0  0  0  0  0  0  0  0  0  0
  2  1  1  6
  2  3  1  0
  3  4  1  0
  4  5  1  0
  5  6  1  0
  6  7  1  0
  7  8  1  0
  8  9  1  0
  9 10  1  0
  2 11  1  0
 11 12  2  0
 11 13  1  0
M  END
>  <rName>  (1216) 
D-Nle_Bu

>  <PQ_SYMBOL>  (1216) 
D-Nle_Bu

>  <FULL_NAME>  (1216) 
(R)-2-Aminodecanoic acid

>  <IUPAC_CONDENSED>  (1216) 
D-Nle(Bu)

>  <IUPAC>  (1216) 
(2R)-2-aminodecanoic acid

>  <TYPE>  (1216) 
Backbone

>  <CLASS>  (1216) 
alpha

>  <ANALOG>  (1216) 
X

>  <MOL_WT>  (1216) 
187.28300000000002

>  <LOGP>  (1216) 
2.1489

>  <TPSA>  (1216) 
63.32000000000001

>  <POPULARITY>  (1216) 
11.0

>  <PROTECTED>  (1216) 
TRUE

>  <SMILES>  (1216) 
N[C@H](CCCCCCCC)C(=O)O

>  <INCHIKEY>  (1216) 
JINGUCXQUOKWKH-SECBINFHSA-N

$$$$
D-Nle_CF3
     RDKit          2D

 13 12  0  0  0  0  0  0  0  0999 V2000
    2.7828   -1.9007    0.0000 N   0  0  0  0  0  0  0  0  0  0  0  0
    2.7179   -0.4021    0.0000 C   0  0  0  0  0  0  0  0  0  0  0  0
    1.3877    0.2910    0.0000 C   0  0  0  0  0  0  0  0  0  0  0  0
    0.1223   -0.5144    0.0000 C   0  0  0  0  0  0  0  0  0  0  0  0
   -1.2080    0.1787    0.0000 C   0  0  0  0  0  0  0  0  0  0  0  0
   -2.4734   -0.6267    0.0000 C   0  0  0  0  0  0  0  0  0  0  0  0
   -3.8036    0.0664    0.0000 C   0  0  0  0  0  0  0  0  0  0  0  0
   -5.1339    0.7595    0.0000 F   0  0  0  0  0  0  0  0  0  0  0  0
   -4.4968   -1.2639    0.0000 F   0  0  0  0  0  0  0  0  0  0  0  0
   -3.1105    1.3966    0.0000 F   0  0  0  0  0  0  0  0  0  0  0  0
    3.9833    0.4034    0.0000 C   0  0  0  0  0  0  0  0  0  0  0  0
    3.9185    1.9020    0.0000 O   0  0  0  0  0  0  0  0  0  0  0  0
    5.3136   -0.2898    0.0000 O   0  0  0  0  0  0  0  0  0  0  0  0
  2  1  1  6
  2  3  1  0
  3  4  1  0
  4  5  1  0
  5  6  1  0
  6  7  1  0
  7  8  1  0
  7  9  1  0
  7 10  1  0
  2 11  1  0
 11 12  2  0
 11 13  1  0
M  END
>  <rName>  (1217) 
D-Nle_CF3

>  <PQ_SYMBOL>  (1217) 
D-Nle_CF3

>  <FULL_NAME>  (1217) 
(2R)-2-amino-7,7,7-trifluoroheptanoic acid

>  <IUPAC_CONDENSED>  (1217) 
D-Nle(CF3)

>  <IUPAC>  (1217) 
(2R)-2-amino-7,7,7-trifluoroheptanoic acid

>  <TYPE>  (1217) 
Backbone

>  <CLASS>  (1217) 
alpha

>  <ANALOG>  (1217) 
X

>  <MOL_WT>  (1217) 
199.172

>  <LOGP>  (1217) 
1.5210000000000001

>  <TPSA>  (1217) 
63.32000000000001

>  <POPULARITY>  (1217) 
2.2

>  <PROTECTED>  (1217) 
TRUE

>  <SMILES>  (1217) 
N[C@H](CCCCC(F)(F)F)C(=O)O

>  <INCHIKEY>  (1217) 
RDMRTEFVHPSCBQ-RXMQYKEDSA-N

$$$$
D-Nle_Et
     RDKit          2D

 11 10  0  0  0  0  0  0  0  0999 V2000
    1.9630   -1.8884    0.0000 N   0  0  0  0  0  0  0  0  0  0  0  0
    1.9989   -0.3888    0.0000 C   0  0  0  0  0  0  0  0  0  0  0  0
    0.7181    0.3920    0.0000 C   0  0  0  0  0  0  0  0  0  0  0  0
   -0.5985   -0.3267    0.0000 C   0  0  0  0  0  0  0  0  0  0  0  0
   -1.8792    0.4541    0.0000 C   0  0  0  0  0  0  0  0  0  0  0  0
   -3.1958   -0.2646    0.0000 C   0  0  0  0  0  0  0  0  0  0  0  0
   -4.4765    0.5162    0.0000 C   0  0  0  0  0  0  0  0  0  0  0  0
   -5.7931   -0.2025    0.0000 C   0  0  0  0  0  0  0  0  0  0  0  0
    3.3155    0.3299    0.0000 C   0  0  0  0  0  0  0  0  0  0  0  0
    3.3513    1.8295    0.0000 O   0  0  0  0  0  0  0  0  0  0  0  0
    4.5962   -0.4509    0.0000 O   0  0  0  0  0  0  0  0  0  0  0  0
  2  1  1  6
  2  3  1  0
  3  4  1  0
  4  5  1  0
  5  6  1  0
  6  7  1  0
  7  8  1  0
  2  9  1  0
  9 10  2  0
  9 11  1  0
M  END
>  <rName>  (1218) 
D-Nle_Et

>  <PQ_SYMBOL>  (1218) 
D-Nle_Et

>  <FULL_NAME>  (1218) 
(R)-2-Aminooctanoic acid, R-Capryline

>  <IUPAC_CONDENSED>  (1218) 
D-Nle(Et)

>  <IUPAC>  (1218) 
(2R)-2-aminooctanoic acid

>  <TYPE>  (1218) 
Backbone

>  <CLASS>  (1218) 
alpha

>  <ANALOG>  (1218) 
Leu

>  <MOL_WT>  (1218) 
159.229

>  <LOGP>  (1218) 
1.3687

>  <TPSA>  (1218) 
63.32000000000001

>  <POPULARITY>  (1218) 
17.8

>  <PROTECTED>  (1218) 
TRUE

>  <SMILES>  (1218) 
N[C@H](CCCCCC)C(=O)O

>  <INCHIKEY>  (1218) 
AKVBCGQVQXPRLD-SSDOTTSWSA-N

$$$$
D-Nle_Me
     RDKit          2D

 10  9  0  0  0  0  0  0  0  0999 V2000
   -1.4166   -1.8843    0.0000 N   0  0  0  0  0  0  0  0  0  0  0  0
   -1.4265   -0.3844    0.0000 C   0  0  0  0  0  0  0  0  0  0  0  0
   -0.1324    0.3741    0.0000 C   0  0  0  0  0  0  0  0  0  0  0  0
    1.1716   -0.3673    0.0000 C   0  0  0  0  0  0  0  0  0  0  0  0
    2.4657    0.3912    0.0000 C   0  0  0  0  0  0  0  0  0  0  0  0
    3.7696   -0.3503    0.0000 C   0  0  0  0  0  0  0  0  0  0  0  0
    5.0637    0.4082    0.0000 C   0  0  0  0  0  0  0  0  0  0  0  0
   -2.7304    0.3571    0.0000 C   0  0  0  0  0  0  0  0  0  0  0  0
   -2.7402    1.8571    0.0000 O   0  0  0  0  0  0  0  0  0  0  0  0
   -4.0245   -0.4014    0.0000 O   0  0  0  0  0  0  0  0  0  0  0  0
  2  1  1  1
  2  3  1  0
  3  4  1  0
  4  5  1  0
  5  6  1  0
  6  7  1  0
  2  8  1  0
  8  9  2  0
  8 10  1  0
M  END
>  <rName>  (1219) 
D-Nle_Me

>  <PQ_SYMBOL>  (1219) 
D-Nle_Me

>  <FULL_NAME>  (1219) 
(R)-2-Aminoheptanoic acid

>  <IUPAC_CONDENSED>  (1219) 
D-Nle(Me)

>  <IUPAC>  (1219) 
(2R)-2-aminoheptanoic acid

>  <TYPE>  (1219) 
Backbone

>  <CLASS>  (1219) 
alpha

>  <ANALOG>  (1219) 
Leu

>  <MOL_WT>  (1219) 
145.202

>  <LOGP>  (1219) 
0.9785999999999997

>  <TPSA>  (1219) 
63.32000000000001

>  <POPULARITY>  (1219) 
15.0

>  <PROTECTED>  (1219) 
TRUE

>  <SMILES>  (1219) 
N[C@H](CCCCC)C(=O)O

>  <INCHIKEY>  (1219) 
RDFMDVXONNIGBC-ZCFIWIBFSA-N

$$$$
D-Nle_N3
     RDKit          2D

 12 11  0  0  0  0  0  0  0  0999 V2000
   -2.4844    1.9079    0.0000 N   0  0  0  0  0  0  0  0  0  0  0  0
   -2.5775    0.4108    0.0000 C   0  0  0  0  0  0  0  0  0  0  0  0
   -1.3276   -0.4184    0.0000 C   0  0  0  0  0  0  0  0  0  0  0  0
    0.0155    0.2495    0.0000 C   0  0  0  0  0  0  0  0  0  0  0  0
    1.2655   -0.5797    0.0000 C   0  0  0  0  0  0  0  0  0  0  0  0
    2.6086    0.0882    0.0000 C   0  0  0  0  0  0  0  0  0  0  0  0
    3.8585   -0.7410    0.0000 N   0  0  0  0  0  0  0  0  0  0  0  0
    5.2016   -0.0731    0.0000 N   0  0  0  0  0  0  0  0  0  0  0  0
    6.5447    0.5948    0.0000 N   0  0  0  0  0  0  0  0  0  0  0  0
   -3.9206   -0.2571    0.0000 C   0  0  0  0  0  0  0  0  0  0  0  0
   -4.0138   -1.7542    0.0000 O   0  0  0  0  0  0  0  0  0  0  0  0
   -5.1706    0.5722    0.0000 O   0  0  0  0  0  0  0  0  0  0  0  0
  2  1  1  6
  2  3  1  0
  3  4  1  0
  4  5  1  0
  5  6  1  0
  6  7  1  0
  7  8  2  0
  8  9  2  0
  2 10  1  0
 10 11  2  0
 10 12  1  0
M  CHG  2   8   1   9  -1
M  END
>  <rName>  (1220) 
D-Nle_N3

>  <PQ_SYMBOL>  (1220) 
D-Nle_N3

>  <FULL_NAME>  (1220) 
6-Azido-D-Norleucine (azido-D-Lysine)

>  <IUPAC_CONDENSED>  (1220) 
D-Nle(N3)

>  <IUPAC>  (1220) 
(2R)-2-amino-6-azidohexanoic acid

>  <TYPE>  (1220) 
Backbone

>  <CLASS>  (1220) 
alpha

>  <ANALOG>  (1220) 
Lys

>  <MOL_WT>  (1220) 
172.18800000000002

>  <LOGP>  (1220) 
0.8788999999999998

>  <TPSA>  (1220) 
112.08

>  <POPULARITY>  (1220) 
7.2

>  <PROTECTED>  (1220) 
TRUE

>  <SMILES>  (1220) 
N[C@H](CCCCN=[N+]=[N-])C(=O)O

>  <INCHIKEY>  (1220) 
HTFFMYRVHHNNBE-RXMQYKEDSA-N

$$$$
D-Nle_OH
     RDKit          2D

 10  9  0  0  0  0  0  0  0  0999 V2000
   -1.4166    1.8843    0.0000 N   0  0  0  0  0  0  0  0  0  0  0  0
   -1.4265    0.3844    0.0000 C   0  0  0  0  0  0  0  0  0  0  0  0
   -0.1324   -0.3741    0.0000 C   0  0  0  0  0  0  0  0  0  0  0  0
    1.1716    0.3673    0.0000 C   0  0  0  0  0  0  0  0  0  0  0  0
    2.4657   -0.3912    0.0000 C   0  0  0  0  0  0  0  0  0  0  0  0
    3.7696    0.3503    0.0000 C   0  0  0  0  0  0  0  0  0  0  0  0
    5.0637   -0.4082    0.0000 O   0  0  0  0  0  0  0  0  0  0  0  0
   -2.7304   -0.3571    0.0000 C   0  0  0  0  0  0  0  0  0  0  0  0
   -2.7402   -1.8571    0.0000 O   0  0  0  0  0  0  0  0  0  0  0  0
   -4.0245    0.4014    0.0000 O   0  0  0  0  0  0  0  0  0  0  0  0
  2  1  1  6
  2  3  1  0
  3  4  1  0
  4  5  1  0
  5  6  1  0
  6  7  1  0
  2  8  1  0
  8  9  2  0
  8 10  1  0
M  END
>  <rName>  (1221) 
D-Nle_OH

>  <PQ_SYMBOL>  (1221) 
D-Nle_OH

>  <FULL_NAME>  (1221) 
6-Hydroxy-D-Norleucine

>  <IUPAC_CONDENSED>  (1221) 
D-Nle(OH)

>  <IUPAC>  (1221) 
(2R)-2-amino-6-hydroxyhexanoic acid

>  <TYPE>  (1221) 
Backbone

>  <CLASS>  (1221) 
alpha

>  <ANALOG>  (1221) 
X

>  <MOL_WT>  (1221) 
147.174

>  <LOGP>  (1221) 
-0.43910000000000055

>  <TPSA>  (1221) 
83.55

>  <POPULARITY>  (1221) 
9.7

>  <PROTECTED>  (1221) 
TRUE

>  <SMILES>  (1221) 
N[C@H](CCCCO)C(=O)O

>  <INCHIKEY>  (1221) 
OLUWXTFAPJJWPL-RXMQYKEDSA-N

$$$$
D-Nle_Ph
     RDKit          2D

 15 15  0  0  0  0  0  0  0  0999 V2000
   -3.8892   -1.8424    0.0000 N   0  0  0  0  0  0  0  0  0  0  0  0
   -3.7074   -0.3535    0.0000 C   0  0  0  0  0  0  0  0  0  0  0  0
   -2.3271    0.2336    0.0000 C   0  0  0  0  0  0  0  0  0  0  0  0
   -1.1285   -0.6682    0.0000 C   0  0  0  0  0  0  0  0  0  0  0  0
    0.2518   -0.0811    0.0000 C   0  0  0  0  0  0  0  0  0  0  0  0
    1.4504   -0.9830    0.0000 C   0  0  0  0  0  0  0  0  0  0  0  0
    2.8308   -0.3959    0.0000 C   0  0  0  0  0  0  0  0  0  0  0  0
    3.0125    1.0931    0.0000 C   0  0  0  0  0  0  0  0  0  0  0  0
    4.3928    1.6802    0.0000 C   0  0  0  0  0  0  0  0  0  0  0  0
    5.5914    0.7783    0.0000 C   0  0  0  0  0  0  0  0  0  0  0  0
    5.4097   -0.7106    0.0000 C   0  0  0  0  0  0  0  0  0  0  0  0
    4.0294   -1.2977    0.0000 C   0  0  0  0  0  0  0  0  0  0  0  0
   -4.9060    0.5484    0.0000 C   0  0  0  0  0  0  0  0  0  0  0  0
   -4.7243    2.0373    0.0000 O   0  0  0  0  0  0  0  0  0  0  0  0
   -6.2864   -0.0387    0.0000 O   0  0  0  0  0  0  0  0  0  0  0  0
  2  1  1  1
  2  3  1  0
  3  4  1  0
  4  5  1  0
  5  6  1  0
  6  7  1  0
  7  8  2  0
  8  9  1  0
  9 10  2  0
 10 11  1  0
 11 12  2  0
  2 13  1  0
 13 14  2  0
 13 15  1  0
 12  7  1  0
M  END
>  <rName>  (1222) 
D-Nle_Ph

>  <PQ_SYMBOL>  (1222) 
D-Nle_Ph

>  <FULL_NAME>  (1222) 
(R)-2-Amino-6-phenylhexanoic acid

>  <IUPAC_CONDENSED>  (1222) 
D-Nle(Ph)

>  <IUPAC>  (1222) 
(2R)-2-amino-6-phenylhexanoic acid

>  <TYPE>  (1222) 
Backbone

>  <CLASS>  (1222) 
alpha

>  <ANALOG>  (1222) 
X

>  <MOL_WT>  (1222) 
207.273

>  <LOGP>  (1222) 
1.8113000000000001

>  <TPSA>  (1222) 
63.32000000000001

>  <POPULARITY>  (1222) 
2.2

>  <PROTECTED>  (1222) 
TRUE

>  <SMILES>  (1222) 
N[C@H](CCCCc1(ccccc1))C(=O)O

>  <INCHIKEY>  (1222) 
PZXDKILRPSNHBC-LLVKDONJSA-N

$$$$
D-Nle_Ph_4F
     RDKit          2D

 16 16  0  0  0  0  0  0  0  0999 V2000
   -4.3874   -1.7808    0.0000 N   0  0  0  0  0  0  0  0  0  0  0  0
   -4.1556   -0.2988    0.0000 C   0  0  0  0  0  0  0  0  0  0  0  0
   -2.7563    0.2414    0.0000 C   0  0  0  0  0  0  0  0  0  0  0  0
   -1.5888   -0.7004    0.0000 C   0  0  0  0  0  0  0  0  0  0  0  0
   -0.1894   -0.1602    0.0000 C   0  0  0  0  0  0  0  0  0  0  0  0
    0.9781   -1.1019    0.0000 C   0  0  0  0  0  0  0  0  0  0  0  0
    2.3775   -0.5617    0.0000 C   0  0  0  0  0  0  0  0  0  0  0  0
    2.6093    0.9203    0.0000 C   0  0  0  0  0  0  0  0  0  0  0  0
    4.0086    1.4605    0.0000 C   0  0  0  0  0  0  0  0  0  0  0  0
    5.1761    0.5187    0.0000 C   0  0  0  0  0  0  0  0  0  0  0  0
    6.5755    1.0590    0.0000 F   0  0  0  0  0  0  0  0  0  0  0  0
    4.9443   -0.9632    0.0000 C   0  0  0  0  0  0  0  0  0  0  0  0
    3.5450   -1.5035    0.0000 C   0  0  0  0  0  0  0  0  0  0  0  0
   -5.3231    0.6429    0.0000 C   0  0  0  0  0  0  0  0  0  0  0  0
   -5.0913    2.1249    0.0000 O   0  0  0  0  0  0  0  0  0  0  0  0
   -6.7225    0.1027    0.0000 O   0  0  0  0  0  0  0  0  0  0  0  0
  2  1  1  1
  2  3  1  0
  3  4  1  0
  4  5  1  0
  5  6  1  0
  6  7  1  0
  7  8  1  0
  8  9  2  0
  9 10  1  0
 10 11  1  0
 10 12  2  0
 12 13  1  0
  2 14  1  0
 14 15  2  0
 14 16  1  0
 13  7  2  0
M  END
>  <rName>  (1223) 
D-Nle_Ph_4F

>  <PQ_SYMBOL>  (1223) 
D-Nle_Ph_4F

>  <FULL_NAME>  (1223) 
D-Nle(Ph(4-F))

>  <IUPAC_CONDENSED>  (1223) 
D-Nle(Ph(4-F))

>  <IUPAC>  (1223) 
(2R)-2-amino-6-(4-fluorophenyl)hexanoic acid

>  <TYPE>  (1223) 
Backbone

>  <CLASS>  (1223) 
alpha

>  <ANALOG>  (1223) 
X

>  <MOL_WT>  (1223) 
225.26299999999998

>  <LOGP>  (1223) 
1.9504

>  <TPSA>  (1223) 
63.32000000000001

>  <POPULARITY>  (1223) 
2.2

>  <PROTECTED>  (1223) 
TRUE

>  <SMILES>  (1223) 
N[C@H](CCCCc1(ccc(F)cc1))C(=O)O

>  <INCHIKEY>  (1223) 
FZZCQRPGKURJHO-LLVKDONJSA-N

$$$$
D-Nle_Pr
     RDKit          2D

 12 11  0  0  0  0  0  0  0  0999 V2000
    2.5981    1.8750    0.0000 N   0  0  0  0  0  0  0  0  0  0  0  0
    2.5981    0.3750    0.0000 C   0  0  0  0  0  0  0  0  0  0  0  0
    1.2990   -0.3750    0.0000 C   0  0  0  0  0  0  0  0  0  0  0  0
    0.0000    0.3750    0.0000 C   0  0  0  0  0  0  0  0  0  0  0  0
   -1.2990   -0.3750    0.0000 C   0  0  0  0  0  0  0  0  0  0  0  0
   -2.5981    0.3750    0.0000 C   0  0  0  0  0  0  0  0  0  0  0  0
   -3.8971   -0.3750    0.0000 C   0  0  0  0  0  0  0  0  0  0  0  0
   -5.1962    0.3750    0.0000 C   0  0  0  0  0  0  0  0  0  0  0  0
   -6.4952   -0.3750    0.0000 C   0  0  0  0  0  0  0  0  0  0  0  0
    3.8971   -0.3750    0.0000 C   0  0  0  0  0  0  0  0  0  0  0  0
    3.8971   -1.8750    0.0000 O   0  0  0  0  0  0  0  0  0  0  0  0
    5.1962    0.3750    0.0000 O   0  0  0  0  0  0  0  0  0  0  0  0
  2  1  1  1
  2  3  1  0
  3  4  1  0
  4  5  1  0
  5  6  1  0
  6  7  1  0
  7  8  1  0
  8  9  1  0
  2 10  1  0
 10 11  2  0
 10 12  1  0
M  END
>  <rName>  (1224) 
D-Nle_Pr

>  <PQ_SYMBOL>  (1224) 
D-Nle_Pr

>  <FULL_NAME>  (1224) 
(R)-2-aminononanoic acid

>  <IUPAC_CONDENSED>  (1224) 
D-Nle(Pr)

>  <IUPAC>  (1224) 
(2R)-2-aminononanoic acid

>  <TYPE>  (1224) 
Backbone

>  <CLASS>  (1224) 
alpha

>  <ANALOG>  (1224) 
X

>  <MOL_WT>  (1224) 
173.256

>  <LOGP>  (1224) 
1.7588

>  <TPSA>  (1224) 
63.32000000000001

>  <POPULARITY>  (1224) 
12.4

>  <PROTECTED>  (1224) 
TRUE

>  <SMILES>  (1224) 
N[C@H](CCCCCCC)C(=O)O

>  <INCHIKEY>  (1224) 
JVPFOKXICYJJSC-MRVPVSSYSA-N

$$$$
D-Nle_SH
     RDKit          2D

 10  9  0  0  0  0  0  0  0  0999 V2000
   -1.4166    1.8843    0.0000 N   0  0  0  0  0  0  0  0  0  0  0  0
   -1.4265    0.3844    0.0000 C   0  0  0  0  0  0  0  0  0  0  0  0
   -0.1324   -0.3741    0.0000 C   0  0  0  0  0  0  0  0  0  0  0  0
    1.1716    0.3673    0.0000 C   0  0  0  0  0  0  0  0  0  0  0  0
    2.4657   -0.3912    0.0000 C   0  0  0  0  0  0  0  0  0  0  0  0
    3.7696    0.3503    0.0000 C   0  0  0  0  0  0  0  0  0  0  0  0
    5.0637   -0.4082    0.0000 S   0  0  0  0  0  0  0  0  0  0  0  0
   -2.7304   -0.3571    0.0000 C   0  0  0  0  0  0  0  0  0  0  0  0
   -2.7402   -1.8571    0.0000 O   0  0  0  0  0  0  0  0  0  0  0  0
   -4.0245    0.4014    0.0000 O   0  0  0  0  0  0  0  0  0  0  0  0
  2  1  1  6
  2  3  1  0
  3  4  1  0
  4  5  1  0
  5  6  1  0
  6  7  1  0
  2  8  1  0
  8  9  2  0
  8 10  1  0
M  END
>  <rName>  (1225) 
D-Nle_SH

>  <PQ_SYMBOL>  (1225) 
D-Nle_SH

>  <FULL_NAME>  (1225) 
(R)-2-amino-6-mercaptohexanoic acid

>  <IUPAC_CONDENSED>  (1225) 
D-Nle(SH)

>  <IUPAC>  (1225) 
(2R)-2-amino-6-sulfanylhexanoic acid

>  <TYPE>  (1225) 
Backbone

>  <CLASS>  (1225) 
alpha

>  <ANALOG>  (1225) 
X

>  <MOL_WT>  (1225) 
163.24200000000002

>  <LOGP>  (1225) 
0.49839999999999995

>  <TPSA>  (1225) 
63.32000000000001

>  <POPULARITY>  (1225) 
6.9

>  <PROTECTED>  (1225) 
TRUE

>  <SMILES>  (1225) 
N[C@H](CCCCS)C(=O)O

>  <INCHIKEY>  (1225) 
HBMWPJLCTYKAGL-RXMQYKEDSA-N

$$$$
D-Nle_allyl
     RDKit          2D

 12 11  0  0  0  0  0  0  0  0999 V2000
    2.5981    1.8750    0.0000 N   0  0  0  0  0  0  0  0  0  0  0  0
    2.5981    0.3750    0.0000 C   0  0  0  0  0  0  0  0  0  0  0  0
    1.2990   -0.3750    0.0000 C   0  0  0  0  0  0  0  0  0  0  0  0
    0.0000    0.3750    0.0000 C   0  0  0  0  0  0  0  0  0  0  0  0
   -1.2990   -0.3750    0.0000 C   0  0  0  0  0  0  0  0  0  0  0  0
   -2.5981    0.3750    0.0000 C   0  0  0  0  0  0  0  0  0  0  0  0
   -3.8971   -0.3750    0.0000 C   0  0  0  0  0  0  0  0  0  0  0  0
   -5.1962    0.3750    0.0000 C   0  0  0  0  0  0  0  0  0  0  0  0
   -6.4952   -0.3750    0.0000 C   0  0  0  0  0  0  0  0  0  0  0  0
    3.8971   -0.3750    0.0000 C   0  0  0  0  0  0  0  0  0  0  0  0
    3.8971   -1.8750    0.0000 O   0  0  0  0  0  0  0  0  0  0  0  0
    5.1962    0.3750    0.0000 O   0  0  0  0  0  0  0  0  0  0  0  0
  2  1  1  1
  2  3  1  0
  3  4  1  0
  4  5  1  0
  5  6  1  0
  6  7  1  0
  7  8  1  0
  8  9  2  0
  2 10  1  0
 10 11  2  0
 10 12  1  0
M  END
>  <rName>  (1226) 
D-Nle_allyl

>  <PQ_SYMBOL>  (1226) 
D-Nle_allyl

>  <FULL_NAME>  (1226) 
(R)-2-aminonon-8-enoic acid

>  <IUPAC_CONDENSED>  (1226) 
D-Nle(allyl)

>  <IUPAC>  (1226) 
(2R)-2-aminonon-8-enoic acid

>  <TYPE>  (1226) 
Backbone

>  <CLASS>  (1226) 
alpha

>  <ANALOG>  (1226) 
X

>  <MOL_WT>  (1226) 
171.24

>  <LOGP>  (1226) 
1.5348

>  <TPSA>  (1226) 
63.32000000000001

>  <POPULARITY>  (1226) 
15.9

>  <PROTECTED>  (1226) 
TRUE

>  <SMILES>  (1226) 
N[C@H](CCCCCC=C)C(=O)O

>  <INCHIKEY>  (1226) 
LKMSSWRWDBZUFC-MRVPVSSYSA-N

$$$$
D-Nle_but3enyl
     RDKit          2D

 13 12  0  0  0  0  0  0  0  0999 V2000
    3.1740   -1.8865    0.0000 N   0  0  0  0  0  0  0  0  0  0  0  0
    3.1930   -0.3866    0.0000 C   0  0  0  0  0  0  0  0  0  0  0  0
    1.9036    0.3798    0.0000 C   0  0  0  0  0  0  0  0  0  0  0  0
    0.5951   -0.3537    0.0000 C   0  0  0  0  0  0  0  0  0  0  0  0
   -0.6943    0.4127    0.0000 C   0  0  0  0  0  0  0  0  0  0  0  0
   -2.0027   -0.3208    0.0000 C   0  0  0  0  0  0  0  0  0  0  0  0
   -3.2922    0.4456    0.0000 C   0  0  0  0  0  0  0  0  0  0  0  0
   -4.6006   -0.2879    0.0000 C   0  0  0  0  0  0  0  0  0  0  0  0
   -5.8900    0.4785    0.0000 C   0  0  0  0  0  0  0  0  0  0  0  0
   -7.1985   -0.2550    0.0000 C   0  0  0  0  0  0  0  0  0  0  0  0
    4.5014    0.3468    0.0000 C   0  0  0  0  0  0  0  0  0  0  0  0
    4.5204    1.8467    0.0000 O   0  0  0  0  0  0  0  0  0  0  0  0
    5.7909   -0.4196    0.0000 O   0  0  0  0  0  0  0  0  0  0  0  0
  2  1  1  6
  2  3  1  0
  3  4  1  0
  4  5  1  0
  5  6  1  0
  6  7  1  0
  7  8  1  0
  8  9  1  0
  9 10  2  0
  2 11  1  0
 11 12  2  0
 11 13  1  0
M  END
>  <rName>  (1227) 
D-Nle_but3enyl

>  <PQ_SYMBOL>  (1227) 
D-Nle_but3enyl

>  <FULL_NAME>  (1227) 
(R)-2-aminodec-9-enoic acid

>  <IUPAC_CONDENSED>  (1227) 
D-Nle(but-3-enyl)

>  <IUPAC>  (1227) 
(2R)-2-aminodec-9-enoic acid

>  <TYPE>  (1227) 
Backbone

>  <CLASS>  (1227) 
alpha

>  <ANALOG>  (1227) 
X

>  <MOL_WT>  (1227) 
185.267

>  <LOGP>  (1227) 
1.9248999999999998

>  <TPSA>  (1227) 
63.32000000000001

>  <POPULARITY>  (1227) 
7.5

>  <PROTECTED>  (1227) 
TRUE

>  <SMILES>  (1227) 
N[C@H](CCCCCCC=C)C(=O)O

>  <INCHIKEY>  (1227) 
XDHWDJVNBSJHRY-SECBINFHSA-N

$$$$
D-Nle_carbonyl
     RDKit          2D

 10  9  0  0  0  0  0  0  0  0999 V2000
   -1.2717    1.9622    0.0000 N   0  0  0  0  0  0  0  0  0  0  0  0
   -1.1946    0.4642    0.0000 C   0  0  0  0  0  0  0  0  0  0  0  0
    0.1413   -0.2180    0.0000 C   0  0  0  0  0  0  0  0  0  0  0  0
    1.4001    0.5978    0.0000 C   0  0  0  0  0  0  0  0  0  0  0  0
    2.7359   -0.0845    0.0000 C   0  0  0  0  0  0  0  0  0  0  0  0
    2.8131   -1.5825    0.0000 O   0  0  0  0  0  0  0  0  0  0  0  0
    3.9947    0.7313    0.0000 C   0  0  0  0  0  0  0  0  0  0  0  0
   -2.4533   -0.3516    0.0000 C   0  0  0  0  0  0  0  0  0  0  0  0
   -2.3762   -1.8496    0.0000 O   0  0  0  0  0  0  0  0  0  0  0  0
   -3.7892    0.3306    0.0000 O   0  0  0  0  0  0  0  0  0  0  0  0
  2  1  1  6
  2  3  1  0
  3  4  1  0
  4  5  1  0
  5  6  2  0
  5  7  1  0
  2  8  1  0
  8  9  2  0
  8 10  1  0
M  END
>  <rName>  (1228) 
D-Nle_carbonyl

>  <PQ_SYMBOL>  (1228) 
D-Nle_carbonyl

>  <FULL_NAME>  (1228) 
5-Oxo-D-Norleucine

>  <IUPAC_CONDENSED>  (1228) 
D-Nle(carbonyl)

>  <IUPAC>  (1228) 
(2R)-2-amino-5-oxohexanoic acid

>  <TYPE>  (1228) 
Backbone

>  <CLASS>  (1228) 
alpha

>  <ANALOG>  (1228) 
X

>  <MOL_WT>  (1228) 
145.158

>  <LOGP>  (1228) 
-0.23250000000000043

>  <TPSA>  (1228) 
80.39

>  <POPULARITY>  (1228) 
7.4

>  <PROTECTED>  (1228) 
TRUE

>  <SMILES>  (1228) 
N[C@H](CCC(=O)C)C(=O)O

>  <INCHIKEY>  (1228) 
KSIJECNNZVKMJG-RXMQYKEDSA-N

$$$$
D-Nle_ethynyl
     RDKit          2D

 11 10  0  0  0  0  0  0  0  0999 V2000
   -2.1124    1.8649    0.0000 N   0  0  0  0  0  0  0  0  0  0  0  0
   -2.0306    0.3672    0.0000 C   0  0  0  0  0  0  0  0  0  0  0  0
   -0.6927   -0.3109    0.0000 C   0  0  0  0  0  0  0  0  0  0  0  0
    0.5636    0.5087    0.0000 C   0  0  0  0  0  0  0  0  0  0  0  0
    1.9016   -0.1694    0.0000 C   0  0  0  0  0  0  0  0  0  0  0  0
    3.1578    0.6503    0.0000 C   0  0  0  0  0  0  0  0  0  0  0  0
    4.4958   -0.0278    0.0000 C   0  0  0  0  0  0  0  0  0  0  0  0
    5.8338   -0.7059    0.0000 C   0  0  0  0  0  0  0  0  0  0  0  0
   -3.2869   -0.4525    0.0000 C   0  0  0  0  0  0  0  0  0  0  0  0
   -3.2051   -1.9503    0.0000 O   0  0  0  0  0  0  0  0  0  0  0  0
   -4.6248    0.2256    0.0000 O   0  0  0  0  0  0  0  0  0  0  0  0
  2  1  1  6
  2  3  1  0
  3  4  1  0
  4  5  1  0
  5  6  1  0
  6  7  1  0
  7  8  3  0
  2  9  1  0
  9 10  2  0
  9 11  1  0
M  END
>  <rName>  (1229) 
D-Nle_ethynyl

>  <PQ_SYMBOL>  (1229) 
D-Nle_ethynyl

>  <FULL_NAME>  (1229) 
(R)-2-aminooct-7-ynoic acid

>  <IUPAC_CONDENSED>  (1229) 
D-Nle(ethynyl)

>  <IUPAC>  (1229) 
(2R)-2-aminooct-7-ynoic acid

>  <TYPE>  (1229) 
Backbone

>  <CLASS>  (1229) 
alpha

>  <ANALOG>  (1229) 
Leu

>  <MOL_WT>  (1229) 
155.197

>  <LOGP>  (1229) 
0.5918999999999999

>  <TPSA>  (1229) 
63.32000000000001

>  <POPULARITY>  (1229) 
4.8

>  <PROTECTED>  (1229) 
TRUE

>  <SMILES>  (1229) 
N[C@H](CCCCC#C)C(=O)O

>  <INCHIKEY>  (1229) 
HYWGKAZTGORCAE-SSDOTTSWSA-N

$$$$
D-Nle_hexyl
     RDKit          2D

 15 14  0  0  0  0  0  0  0  0999 V2000
    4.4025   -1.8836    0.0000 N   0  0  0  0  0  0  0  0  0  0  0  0
    4.4139   -0.3836    0.0000 C   0  0  0  0  0  0  0  0  0  0  0  0
    3.1206    0.3763    0.0000 C   0  0  0  0  0  0  0  0  0  0  0  0
    1.8159   -0.3638    0.0000 C   0  0  0  0  0  0  0  0  0  0  0  0
    0.5226    0.3960    0.0000 C   0  0  0  0  0  0  0  0  0  0  0  0
   -0.7821   -0.3441    0.0000 C   0  0  0  0  0  0  0  0  0  0  0  0
   -2.0754    0.4158    0.0000 C   0  0  0  0  0  0  0  0  0  0  0  0
   -3.3801   -0.3243    0.0000 C   0  0  0  0  0  0  0  0  0  0  0  0
   -4.6734    0.4356    0.0000 C   0  0  0  0  0  0  0  0  0  0  0  0
   -5.9781   -0.3045    0.0000 C   0  0  0  0  0  0  0  0  0  0  0  0
   -7.2714    0.4554    0.0000 C   0  0  0  0  0  0  0  0  0  0  0  0
   -8.5761   -0.2847    0.0000 C   0  0  0  0  0  0  0  0  0  0  0  0
    5.7186    0.3565    0.0000 C   0  0  0  0  0  0  0  0  0  0  0  0
    5.7301    1.8564    0.0000 O   0  0  0  0  0  0  0  0  0  0  0  0
    7.0119   -0.4034    0.0000 O   0  0  0  0  0  0  0  0  0  0  0  0
  2  1  1  6
  2  3  1  0
  3  4  1  0
  4  5  1  0
  5  6  1  0
  6  7  1  0
  7  8  1  0
  8  9  1  0
  9 10  1  0
 10 11  1  0
 11 12  1  0
  2 13  1  0
 13 14  2  0
 13 15  1  0
M  END
>  <rName>  (1230) 
D-Nle_hexyl

>  <PQ_SYMBOL>  (1230) 
D-Nle_hexyl

>  <FULL_NAME>  (1230) 
(R)-2-aminododecanoic acid

>  <IUPAC_CONDENSED>  (1230) 
D-Nle(hexyl)

>  <IUPAC>  (1230) 
(2R)-2-aminododecanoic acid

>  <TYPE>  (1230) 
Backbone

>  <CLASS>  (1230) 
alpha

>  <ANALOG>  (1230) 
X

>  <MOL_WT>  (1230) 
215.337

>  <LOGP>  (1230) 
2.929100000000001

>  <TPSA>  (1230) 
63.32000000000001

>  <POPULARITY>  (1230) 
10.4

>  <PROTECTED>  (1230) 
TRUE

>  <SMILES>  (1230) 
N[C@H](CCCCCCCCCC)C(=O)O

>  <INCHIKEY>  (1230) 
QUBNFZFTFXTLKH-LLVKDONJSA-N

$$$$
D-Nle_octyl
     RDKit          2D

 17 16  0  0  0  0  0  0  0  0999 V2000
    5.6454   -1.8810    0.0000 N   0  0  0  0  0  0  0  0  0  0  0  0
    5.6528   -0.3810    0.0000 C   0  0  0  0  0  0  0  0  0  0  0  0
    4.3575    0.3754    0.0000 C   0  0  0  0  0  0  0  0  0  0  0  0
    3.0548   -0.3681    0.0000 C   0  0  0  0  0  0  0  0  0  0  0  0
    1.7595    0.3883    0.0000 C   0  0  0  0  0  0  0  0  0  0  0  0
    0.4567   -0.3552    0.0000 C   0  0  0  0  0  0  0  0  0  0  0  0
   -0.8386    0.4012    0.0000 C   0  0  0  0  0  0  0  0  0  0  0  0
   -2.1413   -0.3423    0.0000 C   0  0  0  0  0  0  0  0  0  0  0  0
   -3.4366    0.4141    0.0000 C   0  0  0  0  0  0  0  0  0  0  0  0
   -4.7394   -0.3294    0.0000 C   0  0  0  0  0  0  0  0  0  0  0  0
   -6.0347    0.4270    0.0000 C   0  0  0  0  0  0  0  0  0  0  0  0
   -7.3374   -0.3165    0.0000 C   0  0  0  0  0  0  0  0  0  0  0  0
   -8.6327    0.4399    0.0000 C   0  0  0  0  0  0  0  0  0  0  0  0
   -9.9355   -0.3036    0.0000 C   0  0  0  0  0  0  0  0  0  0  0  0
    6.9556    0.3625    0.0000 C   0  0  0  0  0  0  0  0  0  0  0  0
    6.9630    1.8625    0.0000 O   0  0  0  0  0  0  0  0  0  0  0  0
    8.2509   -0.3939    0.0000 O   0  0  0  0  0  0  0  0  0  0  0  0
  2  1  1  6
  2  3  1  0
  3  4  1  0
  4  5  1  0
  5  6  1  0
  6  7  1  0
  7  8  1  0
  8  9  1  0
  9 10  1  0
 10 11  1  0
 11 12  1  0
 12 13  1  0
 13 14  1  0
  2 15  1  0
 15 16  2  0
 15 17  1  0
M  END
>  <rName>  (1231) 
D-Nle_octyl

>  <PQ_SYMBOL>  (1231) 
D-Nle_octyl

>  <FULL_NAME>  (1231) 
(R)-2-aminotetradecanoic acid

>  <IUPAC_CONDENSED>  (1231) 
D-Nle(octyl)

>  <IUPAC>  (1231) 
(2R)-2-aminotetradecanoic acid

>  <TYPE>  (1231) 
Backbone

>  <CLASS>  (1231) 
alpha

>  <ANALOG>  (1231) 
X

>  <MOL_WT>  (1231) 
243.39099999999996

>  <LOGP>  (1231) 
3.7093000000000025

>  <TPSA>  (1231) 
63.32000000000001

>  <POPULARITY>  (1231) 
9.0

>  <PROTECTED>  (1231) 
TRUE

>  <SMILES>  (1231) 
N[C@H](CCCCCCCCCCCC)C(=O)O

>  <INCHIKEY>  (1231) 
BVXKPGXJOLWHFI-CYBMUJFWSA-N

$$$$
D-Nle_pentyl
     RDKit          2D

 14 13  0  0  0  0  0  0  0  0999 V2000
    3.8076    1.8684    0.0000 N   0  0  0  0  0  0  0  0  0  0  0  0
    3.8050    0.3684    0.0000 C   0  0  0  0  0  0  0  0  0  0  0  0
    2.5046   -0.3794    0.0000 C   0  0  0  0  0  0  0  0  0  0  0  0
    1.2069    0.3729    0.0000 C   0  0  0  0  0  0  0  0  0  0  0  0
   -0.0934   -0.3748    0.0000 C   0  0  0  0  0  0  0  0  0  0  0  0
   -1.3912    0.3774    0.0000 C   0  0  0  0  0  0  0  0  0  0  0  0
   -2.6915   -0.3703    0.0000 C   0  0  0  0  0  0  0  0  0  0  0  0
   -3.9892    0.3819    0.0000 C   0  0  0  0  0  0  0  0  0  0  0  0
   -5.2896   -0.3658    0.0000 C   0  0  0  0  0  0  0  0  0  0  0  0
   -6.5873    0.3865    0.0000 C   0  0  0  0  0  0  0  0  0  0  0  0
   -7.8877   -0.3613    0.0000 C   0  0  0  0  0  0  0  0  0  0  0  0
    5.1027   -0.3839    0.0000 C   0  0  0  0  0  0  0  0  0  0  0  0
    5.1001   -1.8839    0.0000 O   0  0  0  0  0  0  0  0  0  0  0  0
    6.4030    0.3638    0.0000 O   0  0  0  0  0  0  0  0  0  0  0  0
  2  1  1  1
  2  3  1  0
  3  4  1  0
  4  5  1  0
  5  6  1  0
  6  7  1  0
  7  8  1  0
  8  9  1  0
  9 10  1  0
 10 11  1  0
  2 12  1  0
 12 13  2  0
 12 14  1  0
M  END
>  <rName>  (1232) 
D-Nle_pentyl

>  <PQ_SYMBOL>  (1232) 
D-Nle_pentyl

>  <FULL_NAME>  (1232) 
(R)-2-aminoundecanoic acid

>  <IUPAC_CONDENSED>  (1232) 
D-Nle(pentyl)

>  <IUPAC>  (1232) 
(2R)-2-aminoundecanoic acid

>  <TYPE>  (1232) 
Backbone

>  <CLASS>  (1232) 
alpha

>  <ANALOG>  (1232) 
X

>  <MOL_WT>  (1232) 
201.31

>  <LOGP>  (1232) 
2.5390000000000006

>  <TPSA>  (1232) 
63.32000000000001

>  <POPULARITY>  (1232) 
10.7

>  <PROTECTED>  (1232) 
TRUE

>  <SMILES>  (1232) 
N[C@H](CCCCCCCCC)C(=O)O

>  <INCHIKEY>  (1232) 
HASUJDLTAYUWCO-SNVBAGLBSA-N

$$$$
D-Nle_prop2ynyl
     RDKit          2D

 12 11  0  0  0  0  0  0  0  0999 V2000
   -2.4844   -1.9079    0.0000 N   0  0  0  0  0  0  0  0  0  0  0  0
   -2.5775   -0.4108    0.0000 C   0  0  0  0  0  0  0  0  0  0  0  0
   -1.3276    0.4184    0.0000 C   0  0  0  0  0  0  0  0  0  0  0  0
    0.0155   -0.2495    0.0000 C   0  0  0  0  0  0  0  0  0  0  0  0
    1.2655    0.5797    0.0000 C   0  0  0  0  0  0  0  0  0  0  0  0
    2.6086   -0.0882    0.0000 C   0  0  0  0  0  0  0  0  0  0  0  0
    3.8585    0.7410    0.0000 C   0  0  0  0  0  0  0  0  0  0  0  0
    5.2016    0.0731    0.0000 C   0  0  0  0  0  0  0  0  0  0  0  0
    6.5447   -0.5948    0.0000 C   0  0  0  0  0  0  0  0  0  0  0  0
   -3.9206    0.2571    0.0000 C   0  0  0  0  0  0  0  0  0  0  0  0
   -4.0138    1.7542    0.0000 O   0  0  0  0  0  0  0  0  0  0  0  0
   -5.1706   -0.5722    0.0000 O   0  0  0  0  0  0  0  0  0  0  0  0
  2  1  1  1
  2  3  1  0
  3  4  1  0
  4  5  1  0
  5  6  1  0
  6  7  1  0
  7  8  1  0
  8  9  3  0
  2 10  1  0
 10 11  2  0
 10 12  1  0
M  END
>  <rName>  (1233) 
D-Nle_prop2ynyl

>  <PQ_SYMBOL>  (1233) 
D-Nle_prop2ynyl

>  <FULL_NAME>  (1233) 
(2R)-2-aminonon-8-ynoic acid

>  <IUPAC_CONDENSED>  (1233) 
D-Nle(prop-2-ynyl)

>  <IUPAC>  (1233) 
(2R)-2-aminonon-8-ynoic acid

>  <TYPE>  (1233) 
Backbone

>  <CLASS>  (1233) 
alpha

>  <ANALOG>  (1233) 
X

>  <MOL_WT>  (1233) 
169.224

>  <LOGP>  (1233) 
0.9819999999999998

>  <TPSA>  (1233) 
63.32000000000001

>  <POPULARITY>  (1233) 
2.2

>  <PROTECTED>  (1233) 
TRUE

>  <SMILES>  (1233) 
N[C@H](CCCCCC#C)C(=O)O

>  <INCHIKEY>  (1233) 
KKQVZTIXWUMMAP-MRVPVSSYSA-N

$$$$
D-Nle_vinyl
     RDKit          2D

 11 10  0  0  0  0  0  0  0  0999 V2000
    1.9630   -1.8884    0.0000 N   0  0  0  0  0  0  0  0  0  0  0  0
    1.9989   -0.3888    0.0000 C   0  0  0  0  0  0  0  0  0  0  0  0
    0.7181    0.3920    0.0000 C   0  0  0  0  0  0  0  0  0  0  0  0
   -0.5985   -0.3267    0.0000 C   0  0  0  0  0  0  0  0  0  0  0  0
   -1.8792    0.4541    0.0000 C   0  0  0  0  0  0  0  0  0  0  0  0
   -3.1958   -0.2646    0.0000 C   0  0  0  0  0  0  0  0  0  0  0  0
   -4.4765    0.5162    0.0000 C   0  0  0  0  0  0  0  0  0  0  0  0
   -5.7931   -0.2025    0.0000 C   0  0  0  0  0  0  0  0  0  0  0  0
    3.3155    0.3299    0.0000 C   0  0  0  0  0  0  0  0  0  0  0  0
    3.3513    1.8295    0.0000 O   0  0  0  0  0  0  0  0  0  0  0  0
    4.5962   -0.4509    0.0000 O   0  0  0  0  0  0  0  0  0  0  0  0
  2  1  1  6
  2  3  1  0
  3  4  1  0
  4  5  1  0
  5  6  1  0
  6  7  1  0
  7  8  2  0
  2  9  1  0
  9 10  2  0
  9 11  1  0
M  END
>  <rName>  (1234) 
D-Nle_vinyl

>  <PQ_SYMBOL>  (1234) 
D-Nle_vinyl

>  <FULL_NAME>  (1234) 
(2R)-2-aminooct-7-enoic acid

>  <IUPAC_CONDENSED>  (1234) 
D-Nle(vinyl)

>  <IUPAC>  (1234) 
(2R)-2-aminooct-7-enoic acid

>  <TYPE>  (1234) 
Backbone

>  <CLASS>  (1234) 
alpha

>  <ANALOG>  (1234) 
Leu

>  <MOL_WT>  (1234) 
157.213

>  <LOGP>  (1234) 
1.1446999999999998

>  <TPSA>  (1234) 
63.32000000000001

>  <POPULARITY>  (1234) 
15.6

>  <PROTECTED>  (1234) 
TRUE

>  <SMILES>  (1234) 
N[C@H](CCCCC=C)C(=O)O

>  <INCHIKEY>  (1234) 
VXVRWMRIUKRFMP-SSDOTTSWSA-N

$$$$
D-Nva
     RDKit          2D

  8  7  0  0  0  0  0  0  0  0999 V2000
   -0.2517   -1.8862    0.0000 N   0  0  0  0  0  0  0  0  0  0  0  0
   -0.3100   -0.3873    0.0000 C   0  0  0  0  0  0  0  0  0  0  0  0
    0.9590    0.4126    0.0000 C   0  0  0  0  0  0  0  0  0  0  0  0
    2.2862   -0.2864    0.0000 C   0  0  0  0  0  0  0  0  0  0  0  0
    3.5551    0.5134    0.0000 C   0  0  0  0  0  0  0  0  0  0  0  0
   -1.6371    0.3117    0.0000 C   0  0  0  0  0  0  0  0  0  0  0  0
   -1.6954    1.8105    0.0000 O   0  0  0  0  0  0  0  0  0  0  0  0
   -2.9061   -0.4882    0.0000 O   0  0  0  0  0  0  0  0  0  0  0  0
  2  1  1  1
  2  3  1  0
  3  4  1  0
  4  5  1  0
  2  6  1  0
  6  7  2  0
  6  8  1  0
M  END
>  <rName>  (1235) 
D-Nva

>  <PQ_SYMBOL>  (1235) 
D-Nva

>  <FULL_NAME>  (1235) 
D-Norvaline

>  <IUPAC_CONDENSED>  (1235) 
D-Nva

>  <IUPAC>  (1235) 
(2R)-2-aminopentanoic acid

>  <TYPE>  (1235) 
Backbone

>  <CLASS>  (1235) 
alpha

>  <ANALOG>  (1235) 
Val

>  <MOL_WT>  (1235) 
117.14799999999998

>  <LOGP>  (1235) 
0.19839999999999985

>  <TPSA>  (1235) 
63.32000000000001

>  <POPULARITY>  (1235) 
25.1

>  <PROTECTED>  (1235) 
TRUE

>  <SMILES>  (1235) 
N[C@H](CCC)C(=O)O

>  <INCHIKEY>  (1235) 
SNDPXSYFESPGGJ-SCSAIBSYSA-N

$$$$
D-Nva-OMe
     RDKit          2D

  9  8  0  0  0  0  0  0  0  0999 V2000
    0.2555   -1.9050    0.0000 N   0  0  0  0  0  0  0  0  0  0  0  0
    0.1683   -0.4076    0.0000 C   0  0  0  0  0  0  0  0  0  0  0  0
    1.4216    0.4167    0.0000 C   0  0  0  0  0  0  0  0  0  0  0  0
    2.7620   -0.2565    0.0000 C   0  0  0  0  0  0  0  0  0  0  0  0
    4.0152    0.5678    0.0000 C   0  0  0  0  0  0  0  0  0  0  0  0
   -1.1721    0.2656    0.0000 C   0  0  0  0  0  0  0  0  0  0  0  0
   -1.2593    1.7631    0.0000 O   0  0  0  0  0  0  0  0  0  0  0  0
   -2.4254   -0.5586    0.0000 O   0  0  0  0  0  0  0  0  0  0  0  0
   -3.7658    0.1146    0.0000 C   0  0  0  0  0  0  0  0  0  0  0  0
  2  1  1  1
  2  3  1  0
  3  4  1  0
  4  5  1  0
  2  6  1  0
  6  7  2  0
  6  8  1  0
  8  9  1  0
M  END
>  <rName>  (1236) 
D-Nva-OMe

>  <PQ_SYMBOL>  (1236) 
D-Nva-OMe

>  <FULL_NAME>  (1236) 
D-norvaline methyl ester

>  <IUPAC_CONDENSED>  (1236) 
D-Nva-OMe

>  <IUPAC>  (1236) 
methyl (2R)-2-aminopentanoate

>  <TYPE>  (1236) 
C-term cap

>  <CLASS>  (1236) 
c_cap

>  <ANALOG>  (1236) 
X

>  <MOL_WT>  (1236) 
131.17499999999998

>  <LOGP>  (1236) 
0.2867999999999997

>  <TPSA>  (1236) 
52.32000000000001

>  <POPULARITY>  (1236) 
13.0

>  <PROTECTED>  (1236) 
TRUE

>  <SMILES>  (1236) 
N[C@H](CCC)C(=O)OC

>  <INCHIKEY>  (1236) 
VXGRMCZTYDXKQW-RXMQYKEDSA-N

$$$$
D-NvaPh-NHMe
     RDKit          2D

 15 15  0  0  0  0  0  0  0  0999 V2000
   -2.2651    1.8109    0.0000 N   0  0  0  0  0  0  0  0  0  0  0  0
   -2.4905    0.3279    0.0000 C   0  0  0  0  0  0  0  0  0  0  0  0
   -3.8875   -0.2184    0.0000 C   0  0  0  0  0  0  0  0  0  0  0  0
   -4.1128   -1.7013    0.0000 O   0  0  0  0  0  0  0  0  0  0  0  0
   -5.0591    0.7183    0.0000 N   0  0  0  0  0  0  0  0  0  0  0  0
   -6.4560    0.1720    0.0000 C   0  0  0  0  0  0  0  0  0  0  0  0
   -1.3189   -0.6087    0.0000 C   0  0  0  0  0  0  0  0  0  0  0  0
    0.0781   -0.0624    0.0000 C   0  0  0  0  0  0  0  0  0  0  0  0
    1.2497   -0.9991    0.0000 C   0  0  0  0  0  0  0  0  0  0  0  0
    2.6467   -0.4528    0.0000 C   0  0  0  0  0  0  0  0  0  0  0  0
    2.8721    1.0301    0.0000 C   0  0  0  0  0  0  0  0  0  0  0  0
    4.2691    1.5764    0.0000 C   0  0  0  0  0  0  0  0  0  0  0  0
    5.4407    0.6398    0.0000 C   0  0  0  0  0  0  0  0  0  0  0  0
    5.2153   -0.8432    0.0000 C   0  0  0  0  0  0  0  0  0  0  0  0
    3.8183   -1.3895    0.0000 C   0  0  0  0  0  0  0  0  0  0  0  0
  2  1  1  6
  2  3  1  0
  3  4  2  0
  3  5  1  0
  5  6  1  0
  2  7  1  0
  7  8  1  0
  8  9  1  0
  9 10  1  0
 10 11  2  0
 11 12  1  0
 12 13  2  0
 13 14  1  0
 14 15  2  0
 15 10  1  0
M  END
>  <rName>  (1237) 
D-NvaPh-NHMe

>  <PQ_SYMBOL>  (1237) 
D-NvaPh-NHMe

>  <FULL_NAME>  (1237) 
(2~{R})-2-azanyl-~{N}-methyl-5-phenyl-pentanamide

>  <IUPAC_CONDENSED>  (1237) 
D-Nva(Ph)-NHMe

>  <IUPAC>  (1237) 
(2R)-2-amino-N-methyl-5-phenylpentanamide

>  <TYPE>  (1237) 
C-term cap

>  <CLASS>  (1237) 
c_cap

>  <ANALOG>  (1237) 
X

>  <MOL_WT>  (1237) 
206.28900000000002

>  <LOGP>  (1237) 
1.0825999999999991

>  <TPSA>  (1237) 
55.120000000000005

>  <POPULARITY>  (1237) 
10.2

>  <PROTECTED>  (1237) 
FALSE

>  <SMILES>  (1237) 
N[C@@H](C(=O)NC)CCCc1ccccc1

>  <INCHIKEY>  (1237) 
LLYRTUKTZDQAQG-LLVKDONJSA-N

$$$$
D-Nva_3Et
     RDKit          2D

 10  9  0  0  0  0  0  0  0  0999 V2000
    0.9030    1.9137    0.0000 N   0  0  0  0  0  0  0  0  0  0  0  0
    0.1012    0.6460    0.0000 C   0  0  0  0  0  0  0  0  0  0  0  0
    0.7981   -0.6823    0.0000 C   0  0  0  0  0  0  0  0  0  0  0  0
    2.2969   -0.7428    0.0000 C   0  0  0  0  0  0  0  0  0  0  0  0
    3.0987    0.5249    0.0000 C   0  0  0  0  0  0  0  0  0  0  0  0
   -0.0037   -1.9500    0.0000 C   0  0  0  0  0  0  0  0  0  0  0  0
   -1.5025   -1.8894    0.0000 C   0  0  0  0  0  0  0  0  0  0  0  0
   -1.3976    0.7065    0.0000 C   0  0  0  0  0  0  0  0  0  0  0  0
   -2.1994   -0.5612    0.0000 O   0  0  0  0  0  0  0  0  0  0  0  0
   -2.0946    2.0348    0.0000 O   0  0  0  0  0  0  0  0  0  0  0  0
  2  1  1  6
  2  3  1  0
  3  4  1  0
  4  5  1  0
  3  6  1  0
  6  7  1  0
  2  8  1  0
  8  9  2  0
  8 10  1  0
M  END
>  <rName>  (1238) 
D-Nva_3Et

>  <PQ_SYMBOL>  (1238) 
D-Nva_3Et

>  <FULL_NAME>  (1238) 
3-Ethyl-D-Norvaline

>  <IUPAC_CONDENSED>  (1238) 
D-Nva(3-Et)

>  <IUPAC>  (1238) 
(2R)-2-amino-3-ethylpentanoic acid

>  <TYPE>  (1238) 
Backbone

>  <CLASS>  (1238) 
alpha

>  <ANALOG>  (1238) 
Leu

>  <MOL_WT>  (1238) 
145.202

>  <LOGP>  (1238) 
0.8344999999999998

>  <TPSA>  (1238) 
63.32000000000001

>  <POPULARITY>  (1238) 
12.3

>  <PROTECTED>  (1238) 
TRUE

>  <SMILES>  (1238) 
N[C@H](C(CC)CC)C(=O)O

>  <INCHIKEY>  (1238) 
IXLUUORVBOXZGB-ZCFIWIBFSA-N

$$$$
D-Nva_45dehydro_5Ph
     RDKit          2D

 14 14  0  0  0  0  0  0  0  0999 V2000
   -2.7125    1.8435    0.0000 N   0  0  0  0  0  0  0  0  0  0  0  0
   -2.9490    0.3623    0.0000 C   0  0  0  0  0  0  0  0  0  0  0  0
   -1.7844   -0.5831    0.0000 C   0  0  0  0  0  0  0  0  0  0  0  0
   -0.3834   -0.0473    0.0000 C   0  0  0  0  0  0  0  0  0  0  0  0
    0.7812   -0.9927    0.0000 C   0  0  0  0  0  0  0  0  0  0  0  0
    2.1822   -0.4569    0.0000 C   0  0  0  0  0  0  0  0  0  0  0  0
    2.4187    1.0244    0.0000 C   0  0  0  0  0  0  0  0  0  0  0  0
    3.8197    1.5602    0.0000 C   0  0  0  0  0  0  0  0  0  0  0  0
    4.9842    0.6148    0.0000 C   0  0  0  0  0  0  0  0  0  0  0  0
    4.7478   -0.8664    0.0000 C   0  0  0  0  0  0  0  0  0  0  0  0
    3.3467   -1.4023    0.0000 C   0  0  0  0  0  0  0  0  0  0  0  0
   -4.3500   -0.1735    0.0000 C   0  0  0  0  0  0  0  0  0  0  0  0
   -4.5865   -1.6548    0.0000 O   0  0  0  0  0  0  0  0  0  0  0  0
   -5.5146    0.7719    0.0000 O   0  0  0  0  0  0  0  0  0  0  0  0
  2  1  1  6
  2  3  1  0
  3  4  1  0
  4  5  2  3
  5  6  1  0
  6  7  2  0
  7  8  1  0
  8  9  2  0
  9 10  1  0
 10 11  2  0
  2 12  1  0
 12 13  2  0
 12 14  1  0
 11  6  1  0
M  END
>  <rName>  (1239) 
D-Nva_45dehydro_5Ph

>  <PQ_SYMBOL>  (1239) 
D-Nva_45dehydro_5Ph

>  <FULL_NAME>  (1239) 
3-Styryl-D-Alanine

>  <IUPAC_CONDENSED>  (1239) 
D-Nva(4,5-dehydro,5-Ph)

>  <IUPAC>  (1239) 
(2R)-2-amino-5-phenylpent-4-enoic acid

>  <TYPE>  (1239) 
Backbone

>  <CLASS>  (1239) 
alpha

>  <ANALOG>  (1239) 
X

>  <MOL_WT>  (1239) 
191.23

>  <LOGP>  (1239) 
1.5018

>  <TPSA>  (1239) 
63.32000000000001

>  <POPULARITY>  (1239) 
5.9

>  <PROTECTED>  (1239) 
TRUE

>  <SMILES>  (1239) 
N[C@H](CC=Cc1(ccccc1))C(=O)O

>  <INCHIKEY>  (1239) 
MCGSKGBMVBECNS-SNVBAGLBSA-N

$$$$
D-Nva_45dehydro_E_5Ph
     RDKit          2D

 14 14  0  0  0  0  0  0  0  0999 V2000
   -2.7125    1.8435    0.0000 N   0  0  0  0  0  0  0  0  0  0  0  0
   -2.9490    0.3623    0.0000 C   0  0  0  0  0  0  0  0  0  0  0  0
   -1.7844   -0.5831    0.0000 C   0  0  0  0  0  0  0  0  0  0  0  0
   -0.3834   -0.0473    0.0000 C   0  0  0  0  0  0  0  0  0  0  0  0
    0.7812   -0.9927    0.0000 C   0  0  0  0  0  0  0  0  0  0  0  0
    2.1822   -0.4569    0.0000 C   0  0  0  0  0  0  0  0  0  0  0  0
    2.4187    1.0244    0.0000 C   0  0  0  0  0  0  0  0  0  0  0  0
    3.8197    1.5602    0.0000 C   0  0  0  0  0  0  0  0  0  0  0  0
    4.9842    0.6148    0.0000 C   0  0  0  0  0  0  0  0  0  0  0  0
    4.7478   -0.8664    0.0000 C   0  0  0  0  0  0  0  0  0  0  0  0
    3.3467   -1.4023    0.0000 C   0  0  0  0  0  0  0  0  0  0  0  0
   -4.3500   -0.1735    0.0000 C   0  0  0  0  0  0  0  0  0  0  0  0
   -4.5865   -1.6548    0.0000 O   0  0  0  0  0  0  0  0  0  0  0  0
   -5.5146    0.7719    0.0000 O   0  0  0  0  0  0  0  0  0  0  0  0
  2  1  1  6
  2  3  1  0
  3  4  1  0
  4  5  2  0
  5  6  1  0
  6  7  2  0
  7  8  1  0
  8  9  2  0
  9 10  1  0
 10 11  2  0
  2 12  1  0
 12 13  2  0
 12 14  1  0
 11  6  1  0
M  END
>  <rName>  (1240) 
D-Nva_45dehydro_E_5Ph

>  <PQ_SYMBOL>  (1240) 
D-Nva_45dehydro_E_5Ph

>  <FULL_NAME>  (1240) 
Fmoc-3-styryl-D-alanine

>  <IUPAC_CONDENSED>  (1240) 
D-Nva(4,5-dehydro,E,5-Ph)

>  <IUPAC>  (1240) 
(2R,4E)-2-amino-5-phenylpent-4-enoic acid

>  <TYPE>  (1240) 
Backbone

>  <CLASS>  (1240) 
alpha

>  <ANALOG>  (1240) 
X

>  <MOL_WT>  (1240) 
191.23

>  <LOGP>  (1240) 
1.5018

>  <TPSA>  (1240) 
63.32000000000001

>  <POPULARITY>  (1240) 
6.1

>  <PROTECTED>  (1240) 
TRUE

>  <SMILES>  (1240) 
N[C@H](C/C=C/c1ccccc1)C(=O)O

>  <INCHIKEY>  (1240) 
MCGSKGBMVBECNS-LJJSCBMDSA-N

$$$$
D-Nva_52F
     RDKit          2D

 10  9  0  0  0  0  0  0  0  0999 V2000
    1.2717   -1.9622    0.0000 N   0  0  0  0  0  0  0  0  0  0  0  0
    1.1946   -0.4642    0.0000 C   0  0  0  0  0  0  0  0  0  0  0  0
   -0.1413    0.2180    0.0000 C   0  0  0  0  0  0  0  0  0  0  0  0
   -1.4001   -0.5978    0.0000 C   0  0  0  0  0  0  0  0  0  0  0  0
   -2.7359    0.0845    0.0000 C   0  0  0  0  0  0  0  0  0  0  0  0
   -3.9947   -0.7313    0.0000 F   0  0  0  0  0  0  0  0  0  0  0  0
   -2.8131    1.5825    0.0000 F   0  0  0  0  0  0  0  0  0  0  0  0
    2.4533    0.3516    0.0000 C   0  0  0  0  0  0  0  0  0  0  0  0
    2.3762    1.8496    0.0000 O   0  0  0  0  0  0  0  0  0  0  0  0
    3.7892   -0.3306    0.0000 O   0  0  0  0  0  0  0  0  0  0  0  0
  2  1  1  6
  2  3  1  0
  3  4  1  0
  4  5  1  0
  5  6  1  0
  5  7  1  0
  2  8  1  0
  8  9  2  0
  8 10  1  0
M  END
>  <rName>  (1241) 
D-Nva_52F

>  <PQ_SYMBOL>  (1241) 
D-Nva_52F

>  <FULL_NAME>  (1241) 
(2R)-2-amino-5,5-difluoropentanoic acid

>  <IUPAC_CONDENSED>  (1241) 
D-Nva(5-2F)

>  <IUPAC>  (1241) 
(2R)-2-amino-5,5-difluoropentanoic acid

>  <TYPE>  (1241) 
Backbone

>  <CLASS>  (1241) 
alpha

>  <ANALOG>  (1241) 
X

>  <MOL_WT>  (1241) 
153.12800000000001

>  <LOGP>  (1241) 
0.44359999999999994

>  <TPSA>  (1241) 
63.32000000000001

>  <POPULARITY>  (1241) 
7.0

>  <PROTECTED>  (1241) 
TRUE

>  <SMILES>  (1241) 
N[C@H](CCC(F)F)C(=O)O

>  <INCHIKEY>  (1241) 
QMLIDBCIUPMCQZ-GSVOUGTGSA-N

$$$$
D-Nva_CF3
     RDKit          2D

 12 11  0  0  0  0  0  0  0  0999 V2000
   -1.9172    1.8446    0.0000 N   0  0  0  0  0  0  0  0  0  0  0  0
   -2.0356    0.3492    0.0000 C   0  0  0  0  0  0  0  0  0  0  0  0
   -0.7998   -0.5009    0.0000 C   0  0  0  0  0  0  0  0  0  0  0  0
    0.5544    0.1442    0.0000 C   0  0  0  0  0  0  0  0  0  0  0  0
    1.7902   -0.7060    0.0000 C   0  0  0  0  0  0  0  0  0  0  0  0
    3.1443   -0.0608    0.0000 C   0  0  0  0  0  0  0  0  0  0  0  0
    4.4985    0.5843    0.0000 F   0  0  0  0  0  0  0  0  0  0  0  0
    3.7895   -1.4150    0.0000 F   0  0  0  0  0  0  0  0  0  0  0  0
    2.4992    1.2933    0.0000 F   0  0  0  0  0  0  0  0  0  0  0  0
   -3.3898   -0.2959    0.0000 C   0  0  0  0  0  0  0  0  0  0  0  0
   -3.5082   -1.7912    0.0000 O   0  0  0  0  0  0  0  0  0  0  0  0
   -4.6256    0.5543    0.0000 O   0  0  0  0  0  0  0  0  0  0  0  0
  2  1  1  6
  2  3  1  0
  3  4  1  0
  4  5  1  0
  5  6  1  0
  6  7  1  0
  6  8  1  0
  6  9  1  0
  2 10  1  0
 10 11  2  0
 10 12  1  0
M  END
>  <rName>  (1242) 
D-Nva_CF3

>  <PQ_SYMBOL>  (1242) 
D-Nva_CF3

>  <FULL_NAME>  (1242) 
(R)-2-Amino-6,6,6-trifluorohexanoic acid

>  <IUPAC_CONDENSED>  (1242) 
D-Nva(CF3)

>  <IUPAC>  (1242) 
(2R)-2-amino-6,6,6-trifluorohexanoic acid

>  <TYPE>  (1242) 
Backbone

>  <CLASS>  (1242) 
alpha

>  <ANALOG>  (1242) 
X

>  <MOL_WT>  (1242) 
185.145

>  <LOGP>  (1242) 
1.1309

>  <TPSA>  (1242) 
63.32000000000001

>  <POPULARITY>  (1242) 
6.8

>  <PROTECTED>  (1242) 
TRUE

>  <SMILES>  (1242) 
N[C@H](CCCC(F)(F)F)C(=O)O

>  <INCHIKEY>  (1242) 
RUEWGWBXZIDRJY-SCSAIBSYSA-N

$$$$
D-Nva_N3
     RDKit          2D

 11 10  0  0  0  0  0  0  0  0999 V2000
    2.1124   -1.8649    0.0000 N   0  0  0  0  0  0  0  0  0  0  0  0
    2.0306   -0.3672    0.0000 C   0  0  0  0  0  0  0  0  0  0  0  0
    0.6927    0.3109    0.0000 C   0  0  0  0  0  0  0  0  0  0  0  0
   -0.5636   -0.5087    0.0000 C   0  0  0  0  0  0  0  0  0  0  0  0
   -1.9016    0.1694    0.0000 C   0  0  0  0  0  0  0  0  0  0  0  0
   -3.1578   -0.6503    0.0000 N   0  0  0  0  0  0  0  0  0  0  0  0
   -4.4958    0.0278    0.0000 N   0  0  0  0  0  0  0  0  0  0  0  0
   -5.8338    0.7059    0.0000 N   0  0  0  0  0  0  0  0  0  0  0  0
    3.2869    0.4525    0.0000 C   0  0  0  0  0  0  0  0  0  0  0  0
    3.2051    1.9503    0.0000 O   0  0  0  0  0  0  0  0  0  0  0  0
    4.6248   -0.2256    0.0000 O   0  0  0  0  0  0  0  0  0  0  0  0
  2  1  1  6
  2  3  1  0
  3  4  1  0
  4  5  1  0
  5  6  1  0
  6  7  2  0
  7  8  2  0
  2  9  1  0
  9 10  2  0
  9 11  1  0
M  CHG  2   7   1   8  -1
M  END
>  <rName>  (1243) 
D-Nva_N3

>  <PQ_SYMBOL>  (1243) 
D-Nva_N3

>  <FULL_NAME>  (1243) 
(2R)-2-amino-5-azidopentanoic acid

>  <IUPAC_CONDENSED>  (1243) 
D-Nva(N3)

>  <IUPAC>  (1243) 
(2R)-2-amino-5-azidopentanoic acid

>  <TYPE>  (1243) 
Backbone

>  <CLASS>  (1243) 
alpha

>  <ANALOG>  (1243) 
Lys

>  <MOL_WT>  (1243) 
158.16100000000003

>  <LOGP>  (1243) 
0.4887999999999996

>  <TPSA>  (1243) 
112.08

>  <POPULARITY>  (1243) 
3.5

>  <PROTECTED>  (1243) 
TRUE

>  <SMILES>  (1243) 
N[C@H](CCCN=[N+]=[N-])C(=O)O

>  <INCHIKEY>  (1243) 
AUARUCAREKTRCL-SCSAIBSYSA-N

$$$$
D-Nva_OH
     RDKit          2D

  9  8  0  0  0  0  0  0  0  0999 V2000
   -0.7616    1.8791    0.0000 N   0  0  0  0  0  0  0  0  0  0  0  0
   -0.8459    0.3815    0.0000 C   0  0  0  0  0  0  0  0  0  0  0  0
    0.4089   -0.4403    0.0000 C   0  0  0  0  0  0  0  0  0  0  0  0
    1.7480    0.2354    0.0000 C   0  0  0  0  0  0  0  0  0  0  0  0
    3.0029   -0.5864    0.0000 C   0  0  0  0  0  0  0  0  0  0  0  0
    4.3420    0.0894    0.0000 O   0  0  0  0  0  0  0  0  0  0  0  0
   -2.1851   -0.2943    0.0000 C   0  0  0  0  0  0  0  0  0  0  0  0
   -2.2694   -1.7919    0.0000 O   0  0  0  0  0  0  0  0  0  0  0  0
   -3.4399    0.5275    0.0000 O   0  0  0  0  0  0  0  0  0  0  0  0
  2  1  1  6
  2  3  1  0
  3  4  1  0
  4  5  1  0
  5  6  1  0
  2  7  1  0
  7  8  2  0
  7  9  1  0
M  END
>  <rName>  (1244) 
D-Nva_OH

>  <PQ_SYMBOL>  (1244) 
D-Nva_OH

>  <FULL_NAME>  (1244) 
D-Pentahomoserine

>  <IUPAC_CONDENSED>  (1244) 
D-Nva(OH)

>  <IUPAC>  (1244) 
(2R)-2-amino-5-hydroxypentanoic acid

>  <TYPE>  (1244) 
Backbone

>  <CLASS>  (1244) 
alpha

>  <ANALOG>  (1244) 
X

>  <MOL_WT>  (1244) 
133.147

>  <LOGP>  (1244) 
-0.8292000000000004

>  <TPSA>  (1244) 
83.55

>  <POPULARITY>  (1244) 
13.7

>  <PROTECTED>  (1244) 
TRUE

>  <SMILES>  (1244) 
N[C@H](CCCO)C(=O)O

>  <INCHIKEY>  (1244) 
CZWARROQQFCFJB-SCSAIBSYSA-N

$$$$
D-Nva_OMe
     RDKit          2D

 10  9  0  0  0  0  0  0  0  0999 V2000
   -1.4166   -1.8843    0.0000 N   0  0  0  0  0  0  0  0  0  0  0  0
   -1.4265   -0.3844    0.0000 C   0  0  0  0  0  0  0  0  0  0  0  0
   -0.1324    0.3741    0.0000 C   0  0  0  0  0  0  0  0  0  0  0  0
    1.1716   -0.3673    0.0000 C   0  0  0  0  0  0  0  0  0  0  0  0
    2.4657    0.3912    0.0000 C   0  0  0  0  0  0  0  0  0  0  0  0
    3.7696   -0.3503    0.0000 O   0  0  0  0  0  0  0  0  0  0  0  0
    5.0637    0.4082    0.0000 C   0  0  0  0  0  0  0  0  0  0  0  0
   -2.7304    0.3571    0.0000 C   0  0  0  0  0  0  0  0  0  0  0  0
   -2.7402    1.8571    0.0000 O   0  0  0  0  0  0  0  0  0  0  0  0
   -4.0245   -0.4014    0.0000 O   0  0  0  0  0  0  0  0  0  0  0  0
  2  1  1  1
  2  3  1  0
  3  4  1  0
  4  5  1  0
  5  6  1  0
  6  7  1  0
  2  8  1  0
  8  9  2  0
  8 10  1  0
M  END
>  <rName>  (1245) 
D-Nva_OMe

>  <PQ_SYMBOL>  (1245) 
D-Nva_OMe

>  <FULL_NAME>  (1245) 
(2R)-2-amino-5-methoxypentanoic acid

>  <IUPAC_CONDENSED>  (1245) 
D-Nva(OMe)

>  <IUPAC>  (1245) 
(2R)-2-amino-5-methoxypentanoic acid

>  <TYPE>  (1245) 
Backbone

>  <CLASS>  (1245) 
alpha

>  <ANALOG>  (1245) 
X

>  <MOL_WT>  (1245) 
147.174

>  <LOGP>  (1245) 
-0.1751000000000001

>  <TPSA>  (1245) 
72.55

>  <POPULARITY>  (1245) 
2.2

>  <PROTECTED>  (1245) 
TRUE

>  <SMILES>  (1245) 
N[C@H](CCCOC)C(=O)O

>  <INCHIKEY>  (1245) 
HBSSLDFHKZLODB-RXMQYKEDSA-N

$$$$
D-Nva_Ph
     RDKit          2D

 14 14  0  0  0  0  0  0  0  0999 V2000
   -2.7125    1.8435    0.0000 N   0  0  0  0  0  0  0  0  0  0  0  0
   -2.9490    0.3623    0.0000 C   0  0  0  0  0  0  0  0  0  0  0  0
   -1.7844   -0.5831    0.0000 C   0  0  0  0  0  0  0  0  0  0  0  0
   -0.3834   -0.0473    0.0000 C   0  0  0  0  0  0  0  0  0  0  0  0
    0.7812   -0.9927    0.0000 C   0  0  0  0  0  0  0  0  0  0  0  0
    2.1822   -0.4569    0.0000 C   0  0  0  0  0  0  0  0  0  0  0  0
    2.4187    1.0244    0.0000 C   0  0  0  0  0  0  0  0  0  0  0  0
    3.8197    1.5602    0.0000 C   0  0  0  0  0  0  0  0  0  0  0  0
    4.9842    0.6148    0.0000 C   0  0  0  0  0  0  0  0  0  0  0  0
    4.7478   -0.8664    0.0000 C   0  0  0  0  0  0  0  0  0  0  0  0
    3.3467   -1.4023    0.0000 C   0  0  0  0  0  0  0  0  0  0  0  0
   -4.3500   -0.1735    0.0000 C   0  0  0  0  0  0  0  0  0  0  0  0
   -4.5865   -1.6548    0.0000 O   0  0  0  0  0  0  0  0  0  0  0  0
   -5.5146    0.7719    0.0000 O   0  0  0  0  0  0  0  0  0  0  0  0
  2  1  1  6
  2  3  1  0
  3  4  1  0
  4  5  1  0
  5  6  1  0
  6  7  2  0
  7  8  1  0
  8  9  2  0
  9 10  1  0
 10 11  2  0
  2 12  1  0
 12 13  2  0
 12 14  1  0
 11  6  1  0
M  END
>  <rName>  (1246) 
D-Nva_Ph

>  <PQ_SYMBOL>  (1246) 
D-Nva_Ph

>  <FULL_NAME>  (1246) 
(R)-2-Amino-5-phenylpentanoic acid

>  <IUPAC_CONDENSED>  (1246) 
D-Nva(Ph)

>  <IUPAC>  (1246) 
(2R)-2-amino-5-phenylpentanoic acid

>  <TYPE>  (1246) 
Backbone

>  <CLASS>  (1246) 
alpha

>  <ANALOG>  (1246) 
X

>  <MOL_WT>  (1246) 
193.24599999999998

>  <LOGP>  (1246) 
1.4212

>  <TPSA>  (1246) 
63.32000000000001

>  <POPULARITY>  (1246) 
13.8

>  <PROTECTED>  (1246) 
TRUE

>  <SMILES>  (1246) 
N[C@H](CCCc1(ccccc1))C(=O)O

>  <INCHIKEY>  (1246) 
XOQZTHUXZWQXOK-SNVBAGLBSA-N

$$$$
D-Nva_Ph_24diCl
     RDKit          2D

 16 16  0  0  0  0  0  0  0  0999 V2000
   -3.3119    1.9417    0.0000 N   0  0  0  0  0  0  0  0  0  0  0  0
   -3.5439    0.4598    0.0000 C   0  0  0  0  0  0  0  0  0  0  0  0
   -2.3764   -0.4821    0.0000 C   0  0  0  0  0  0  0  0  0  0  0  0
   -0.9771    0.0580    0.0000 C   0  0  0  0  0  0  0  0  0  0  0  0
    0.1904   -0.8838    0.0000 C   0  0  0  0  0  0  0  0  0  0  0  0
    1.5898   -0.3437    0.0000 C   0  0  0  0  0  0  0  0  0  0  0  0
    1.8217    1.1382    0.0000 C   0  0  0  0  0  0  0  0  0  0  0  0
    3.2211    1.6783    0.0000 C   0  0  0  0  0  0  0  0  0  0  0  0
    4.3885    0.7365    0.0000 C   0  0  0  0  0  0  0  0  0  0  0  0
    5.7879    1.2766    0.0000 Cl  0  0  0  0  0  0  0  0  0  0  0  0
    4.1566   -0.7455    0.0000 C   0  0  0  0  0  0  0  0  0  0  0  0
    2.7572   -1.2856    0.0000 C   0  0  0  0  0  0  0  0  0  0  0  0
    2.5253   -2.7675    0.0000 Cl  0  0  0  0  0  0  0  0  0  0  0  0
   -4.9433   -0.0803    0.0000 C   0  0  0  0  0  0  0  0  0  0  0  0
   -5.1752   -1.5623    0.0000 O   0  0  0  0  0  0  0  0  0  0  0  0
   -6.1107    0.8615    0.0000 O   0  0  0  0  0  0  0  0  0  0  0  0
  2  1  1  6
  2  3  1  0
  3  4  1  0
  4  5  1  0
  5  6  1  0
  6  7  1  0
  7  8  2  0
  8  9  1  0
  9 10  1  0
  9 11  2  0
 11 12  1  0
 12 13  1  0
  2 14  1  0
 14 15  2  0
 14 16  1  0
 12  6  2  0
M  END
>  <rName>  (1247) 
D-Nva_Ph_24diCl

>  <PQ_SYMBOL>  (1247) 
D-Nva_Ph_24diCl

>  <FULL_NAME>  (1247) 
D-Nva(Ph(2,4-diCl))

>  <IUPAC_CONDENSED>  (1247) 
D-Nva(Ph(2,4-diCl))

>  <IUPAC>  (1247) 
(2R)-2-amino-5-(2,4-dichlorophenyl)pentanoic acid

>  <TYPE>  (1247) 
Backbone

>  <CLASS>  (1247) 
alpha

>  <ANALOG>  (1247) 
X

>  <MOL_WT>  (1247) 
262.13599999999997

>  <LOGP>  (1247) 
2.7280000000000006

>  <TPSA>  (1247) 
63.32000000000001

>  <POPULARITY>  (1247) 
2.2

>  <PROTECTED>  (1247) 
TRUE

>  <SMILES>  (1247) 
N[C@H](CCCc1(ccc(Cl)cc1Cl))C(=O)O

>  <INCHIKEY>  (1247) 
DVMDWHDVNBOROZ-SNVBAGLBSA-N

$$$$
D-Nva_ethynyl
     RDKit          2D

 10  9  0  0  0  0  0  0  0  0999 V2000
   -1.2340   -1.8694    0.0000 N   0  0  0  0  0  0  0  0  0  0  0  0
   -1.3962   -0.3782    0.0000 C   0  0  0  0  0  0  0  0  0  0  0  0
   -0.1859    0.5079    0.0000 C   0  0  0  0  0  0  0  0  0  0  0  0
    1.1866   -0.0973    0.0000 C   0  0  0  0  0  0  0  0  0  0  0  0
    2.3969    0.7888    0.0000 C   0  0  0  0  0  0  0  0  0  0  0  0
    3.7695    0.1837    0.0000 C   0  0  0  0  0  0  0  0  0  0  0  0
    5.1420   -0.4214    0.0000 C   0  0  0  0  0  0  0  0  0  0  0  0
   -2.7688    0.2269    0.0000 C   0  0  0  0  0  0  0  0  0  0  0  0
   -2.9310    1.7181    0.0000 O   0  0  0  0  0  0  0  0  0  0  0  0
   -3.9791   -0.6591    0.0000 O   0  0  0  0  0  0  0  0  0  0  0  0
  2  1  1  1
  2  3  1  0
  3  4  1  0
  4  5  1  0
  5  6  1  0
  6  7  3  0
  2  8  1  0
  8  9  2  0
  8 10  1  0
M  END
>  <rName>  (1248) 
D-Nva_ethynyl

>  <PQ_SYMBOL>  (1248) 
D-Nva_ethynyl

>  <FULL_NAME>  (1248) 
(R)-2-aminohept-6-ynoic acid

>  <IUPAC_CONDENSED>  (1248) 
D-Nva(ethynyl)

>  <IUPAC>  (1248) 
(2R)-2-aminohept-6-ynoic acid

>  <TYPE>  (1248) 
Backbone

>  <CLASS>  (1248) 
alpha

>  <ANALOG>  (1248) 
Leu

>  <MOL_WT>  (1248) 
141.17

>  <LOGP>  (1248) 
0.20179999999999992

>  <TPSA>  (1248) 
63.32000000000001

>  <POPULARITY>  (1248) 
5.3

>  <PROTECTED>  (1248) 
TRUE

>  <SMILES>  (1248) 
N[C@H](CCCC#C)C(=O)O

>  <INCHIKEY>  (1248) 
IJQLLGJUHGAQIC-ZCFIWIBFSA-N

$$$$
D-Nva_pyrid3yl
     RDKit          2D

 14 14  0  0  0  0  0  0  0  0999 V2000
   -2.7125    1.8435    0.0000 N   0  0  0  0  0  0  0  0  0  0  0  0
   -2.9490    0.3623    0.0000 C   0  0  0  0  0  0  0  0  0  0  0  0
   -1.7844   -0.5831    0.0000 C   0  0  0  0  0  0  0  0  0  0  0  0
   -0.3834   -0.0473    0.0000 C   0  0  0  0  0  0  0  0  0  0  0  0
    0.7812   -0.9927    0.0000 C   0  0  0  0  0  0  0  0  0  0  0  0
    2.1822   -0.4569    0.0000 C   0  0  0  0  0  0  0  0  0  0  0  0
    2.4187    1.0244    0.0000 C   0  0  0  0  0  0  0  0  0  0  0  0
    3.8197    1.5602    0.0000 C   0  0  0  0  0  0  0  0  0  0  0  0
    4.9842    0.6148    0.0000 C   0  0  0  0  0  0  0  0  0  0  0  0
    4.7478   -0.8664    0.0000 N   0  0  0  0  0  0  0  0  0  0  0  0
    3.3467   -1.4023    0.0000 C   0  0  0  0  0  0  0  0  0  0  0  0
   -4.3500   -0.1735    0.0000 C   0  0  0  0  0  0  0  0  0  0  0  0
   -4.5865   -1.6548    0.0000 O   0  0  0  0  0  0  0  0  0  0  0  0
   -5.5146    0.7719    0.0000 O   0  0  0  0  0  0  0  0  0  0  0  0
  2  1  1  6
  2  3  1  0
  3  4  1  0
  4  5  1  0
  5  6  1  0
  6  7  2  0
  7  8  1  0
  8  9  2  0
  9 10  1  0
 10 11  2  0
  2 12  1  0
 12 13  2  0
 12 14  1  0
 11  6  1  0
M  END
>  <rName>  (1249) 
D-Nva_pyrid3yl

>  <PQ_SYMBOL>  (1249) 
D-Nva_pyrid3yl

>  <FULL_NAME>  (1249) 
(R)-2-amino-5-(pyridin-3-yl)pentanoic acid

>  <IUPAC_CONDENSED>  (1249) 
D-Nva(pyrid-3-yl)

>  <IUPAC>  (1249) 
(2R)-2-amino-5-(pyridin-3-yl)pentanoic acid

>  <TYPE>  (1249) 
Backbone

>  <CLASS>  (1249) 
alpha

>  <ANALOG>  (1249) 
X

>  <MOL_WT>  (1249) 
194.23399999999998

>  <LOGP>  (1249) 
0.8162

>  <TPSA>  (1249) 
76.21

>  <POPULARITY>  (1249) 
4.9

>  <PROTECTED>  (1249) 
TRUE

>  <SMILES>  (1249) 
N[C@H](CCCc1(cccnc1))C(=O)O

>  <INCHIKEY>  (1249) 
SLPIROZVMARVRX-SECBINFHSA-N

$$$$
D-Nva_vinyl
     RDKit          2D

 10  9  0  0  0  0  0  0  0  0999 V2000
   -1.4166   -1.8843    0.0000 N   0  0  0  0  0  0  0  0  0  0  0  0
   -1.4265   -0.3844    0.0000 C   0  0  0  0  0  0  0  0  0  0  0  0
   -0.1324    0.3741    0.0000 C   0  0  0  0  0  0  0  0  0  0  0  0
    1.1716   -0.3673    0.0000 C   0  0  0  0  0  0  0  0  0  0  0  0
    2.4657    0.3912    0.0000 C   0  0  0  0  0  0  0  0  0  0  0  0
    3.7696   -0.3503    0.0000 C   0  0  0  0  0  0  0  0  0  0  0  0
    5.0637    0.4082    0.0000 C   0  0  0  0  0  0  0  0  0  0  0  0
   -2.7304    0.3571    0.0000 C   0  0  0  0  0  0  0  0  0  0  0  0
   -2.7402    1.8571    0.0000 O   0  0  0  0  0  0  0  0  0  0  0  0
   -4.0245   -0.4014    0.0000 O   0  0  0  0  0  0  0  0  0  0  0  0
  2  1  1  1
  2  3  1  0
  3  4  1  0
  4  5  1  0
  5  6  1  0
  6  7  2  0
  2  8  1  0
  8  9  2  0
  8 10  1  0
M  END
>  <rName>  (1250) 
D-Nva_vinyl

>  <PQ_SYMBOL>  (1250) 
D-Nva_vinyl

>  <FULL_NAME>  (1250) 
(2R)-2-amino-6-Heptenoic acid

>  <IUPAC_CONDENSED>  (1250) 
D-Nva(vinyl)

>  <IUPAC>  (1250) 
(2R)-2-aminohept-6-enoic acid

>  <TYPE>  (1250) 
Backbone

>  <CLASS>  (1250) 
alpha

>  <ANALOG>  (1250) 
Leu

>  <MOL_WT>  (1250) 
143.186

>  <LOGP>  (1250) 
0.7545999999999999

>  <TPSA>  (1250) 
63.32000000000001

>  <POPULARITY>  (1250) 
12.9

>  <PROTECTED>  (1250) 
TRUE

>  <SMILES>  (1250) 
N[C@H](CCCC=C)C(=O)O

>  <INCHIKEY>  (1250) 
OOOVDVSHGOKTNT-ZCFIWIBFSA-N

$$$$
D-Oic_3axi_7axi
     RDKit          2D

 12 13  0  0  0  0  0  0  0  0999 V2000
   -0.5689    1.2135    0.0000 N   0  0  0  0  0  0  0  0  0  0  0  0
   -1.4506   -0.0000    0.0000 C   0  0  0  0  0  0  0  0  0  0  0  0
   -0.5689   -1.2135    0.0000 C   0  0  0  0  0  0  0  0  0  0  0  0
    0.8577   -0.7500    0.0000 C   0  0  0  0  0  0  0  0  0  0  0  0
    2.1567   -1.5000    0.0000 C   0  0  0  0  0  0  0  0  0  0  0  0
    3.4557   -0.7500    0.0000 C   0  0  0  0  0  0  0  0  0  0  0  0
    3.4557    0.7500    0.0000 C   0  0  0  0  0  0  0  0  0  0  0  0
    2.1567    1.5000    0.0000 C   0  0  0  0  0  0  0  0  0  0  0  0
    0.8577    0.7500    0.0000 C   0  0  0  0  0  0  0  0  0  0  0  0
   -2.9506   -0.0000    0.0000 C   0  0  0  0  0  0  0  0  0  0  0  0
   -3.7006   -1.2990    0.0000 O   0  0  0  0  0  0  0  0  0  0  0  0
   -3.7006    1.2990    0.0000 O   0  0  0  0  0  0  0  0  0  0  0  0
  1  2  1  0
  2  3  1  0
  3  4  1  0
  4  5  1  0
  5  6  1  0
  6  7  1  0
  7  8  1  0
  8  9  1  0
  2 10  1  6
 10 11  2  0
 10 12  1  0
  9  1  1  0
  9  4  1  0
M  END
>  <rName>  (1251) 
D-Oic_3axi_7axi

>  <PQ_SYMBOL>  (1251) 
D-Oic_3axi_7axi

>  <FULL_NAME>  (1251) 
(2R)-octahydro-1H-indole-2-carboxylic acid

>  <IUPAC_CONDENSED>  (1251) 
D-Oic(3axi,7axi)

>  <IUPAC>  (1251) 
(8R)-7-azabicyclo[4.3.0]nonane-8-carboxylic acid

>  <TYPE>  (1251) 
Backbone

>  <CLASS>  (1251) 
alpha

>  <ANALOG>  (1251) 
Pro

>  <MOL_WT>  (1251) 
169.22400000000002

>  <LOGP>  (1251) 
0.9917

>  <TPSA>  (1251) 
49.33

>  <POPULARITY>  (1251) 
8.2

>  <PROTECTED>  (1251) 
TRUE

>  <SMILES>  (1251) 
N1[C@H](CC2(CCCCC12))C(=O)O

>  <INCHIKEY>  (1251) 
CQYBNXGHMBNGCG-KAVNDROISA-N

$$$$
D-Orn
     RDKit          2D

  9  8  0  0  0  0  0  0  0  0999 V2000
   -0.7616    1.8791    0.0000 N   0  0  0  0  0  0  0  0  0  0  0  0
   -0.8459    0.3815    0.0000 C   0  0  0  0  0  0  0  0  0  0  0  0
    0.4089   -0.4403    0.0000 C   0  0  0  0  0  0  0  0  0  0  0  0
    1.7480    0.2354    0.0000 C   0  0  0  0  0  0  0  0  0  0  0  0
    3.0029   -0.5864    0.0000 C   0  0  0  0  0  0  0  0  0  0  0  0
    4.3420    0.0894    0.0000 N   0  0  0  0  0  0  0  0  0  0  0  0
   -2.1851   -0.2943    0.0000 C   0  0  0  0  0  0  0  0  0  0  0  0
   -2.2694   -1.7919    0.0000 O   0  0  0  0  0  0  0  0  0  0  0  0
   -3.4399    0.5275    0.0000 O   0  0  0  0  0  0  0  0  0  0  0  0
  2  1  1  6
  2  3  1  0
  3  4  1  0
  4  5  1  0
  5  6  1  0
  2  7  1  0
  7  8  2  0
  7  9  1  0
M  END
>  <rName>  (1252) 
D-Orn

>  <PQ_SYMBOL>  (1252) 
D-Orn

>  <FULL_NAME>  (1252) 
D-Ornithine

>  <IUPAC_CONDENSED>  (1252) 
D-Orn

>  <IUPAC>  (1252) 
(2R)-2,5-diaminopentanoic acid

>  <TYPE>  (1252) 
Backbone

>  <CLASS>  (1252) 
alpha

>  <ANALOG>  (1252) 
Lys

>  <MOL_WT>  (1252) 
132.163

>  <LOGP>  (1252) 
-0.8628

>  <TPSA>  (1252) 
89.34

>  <POPULARITY>  (1252) 
39.1

>  <PROTECTED>  (1252) 
TRUE

>  <SMILES>  (1252) 
N[C@H](CCCN)C(=O)O

>  <INCHIKEY>  (1252) 
AHLPHDHHMVZTML-SCSAIBSYSA-N

$$$$
D-Orn_acetyl
     RDKit          2D

 12 11  0  0  0  0  0  0  0  0999 V2000
   -2.4617    1.9005    0.0000 N   0  0  0  0  0  0  0  0  0  0  0  0
   -2.4001    0.4018    0.0000 C   0  0  0  0  0  0  0  0  0  0  0  0
   -1.0713   -0.2943    0.0000 C   0  0  0  0  0  0  0  0  0  0  0  0
    0.1958    0.5085    0.0000 C   0  0  0  0  0  0  0  0  0  0  0  0
    1.5245   -0.1875    0.0000 C   0  0  0  0  0  0  0  0  0  0  0  0
    2.7917    0.6152    0.0000 N   0  0  0  0  0  0  0  0  0  0  0  0
    4.1204   -0.0808    0.0000 C   0  0  0  0  0  0  0  0  0  0  0  0
    4.1820   -1.5796    0.0000 O   0  0  0  0  0  0  0  0  0  0  0  0
    5.3876    0.7219    0.0000 C   0  0  0  0  0  0  0  0  0  0  0  0
   -3.6672   -0.4010    0.0000 C   0  0  0  0  0  0  0  0  0  0  0  0
   -3.6056   -1.8997    0.0000 O   0  0  0  0  0  0  0  0  0  0  0  0
   -4.9960    0.2950    0.0000 O   0  0  0  0  0  0  0  0  0  0  0  0
  2  1  1  6
  2  3  1  0
  3  4  1  0
  4  5  1  0
  5  6  1  0
  6  7  1  0
  7  8  2  0
  7  9  1  0
  2 10  1  0
 10 11  2  0
 10 12  1  0
M  END
>  <rName>  (1253) 
D-Orn_acetyl

>  <PQ_SYMBOL>  (1253) 
D-Orn_acetyl

>  <FULL_NAME>  (1253) 
(2R)-5-acetamido-2-aminopentanoic acid

>  <IUPAC_CONDENSED>  (1253) 
D-Orn(acetyl)

>  <IUPAC>  (1253) 
(2R)-5-acetamido-2-aminopentanoic acid

>  <TYPE>  (1253) 
Backbone

>  <CLASS>  (1253) 
alpha

>  <ANALOG>  (1253) 
Lys

>  <MOL_WT>  (1253) 
174.2

>  <LOGP>  (1253) 
-0.6854000000000002

>  <TPSA>  (1253) 
92.42

>  <POPULARITY>  (1253) 
2.2

>  <PROTECTED>  (1253) 
TRUE

>  <SMILES>  (1253) 
N[C@H](CCCNC(=O)C)C(=O)O

>  <INCHIKEY>  (1253) 
SRXKAYJJGAAOBP-ZCFIWIBFSA-N

$$$$
D-Pen
     RDKit          2D

  9  8  0  0  0  0  0  0  0  0999 V2000
   -0.1862    2.0800    0.0000 N   0  0  0  0  0  0  0  0  0  0  0  0
   -0.1560    0.5803    0.0000 C   0  0  0  0  0  0  0  0  0  0  0  0
    1.1578   -0.1434    0.0000 C   0  0  0  0  0  0  0  0  0  0  0  0
    1.8815    1.1705    0.0000 C   0  0  0  0  0  0  0  0  0  0  0  0
    0.4341   -1.4573    0.0000 C   0  0  0  0  0  0  0  0  0  0  0  0
    2.4717   -0.8671    0.0000 S   0  0  0  0  0  0  0  0  0  0  0  0
   -1.4397   -0.1957    0.0000 C   0  0  0  0  0  0  0  0  0  0  0  0
   -1.4095   -1.6954    0.0000 O   0  0  0  0  0  0  0  0  0  0  0  0
   -2.7536    0.5280    0.0000 O   0  0  0  0  0  0  0  0  0  0  0  0
  2  1  1  6
  2  3  1  0
  3  4  1  0
  3  5  1  0
  3  6  1  0
  2  7  1  0
  7  8  2  0
  7  9  1  0
M  END
>  <rName>  (1254) 
D-Pen

>  <PQ_SYMBOL>  (1254) 
D-Pen

>  <FULL_NAME>  (1254) 
D-Penicillamine

>  <IUPAC_CONDENSED>  (1254) 
D-Pen

>  <IUPAC>  (1254) 
(2S)-2-amino-3-methyl-3-sulfanylbutanoic acid

>  <TYPE>  (1254) 
Backbone

>  <CLASS>  (1254) 
alpha

>  <ANALOG>  (1254) 
Val

>  <MOL_WT>  (1254) 
149.215

>  <LOGP>  (1254) 
0.1066999999999998

>  <TPSA>  (1254) 
63.32000000000001

>  <POPULARITY>  (1254) 
33.9

>  <PROTECTED>  (1254) 
TRUE

>  <SMILES>  (1254) 
N[C@H](C(C)(C)S)C(=O)O

>  <INCHIKEY>  (1254) 
VVNCNSJFMMFHPL-VKHMYHEASA-N

$$$$
D-Pen_Bn
     RDKit          2D

 16 16  0  0  0  0  0  0  0  0999 V2000
   -3.9488    1.7104    0.0000 N   0  0  0  0  0  0  0  0  0  0  0  0
   -3.0681    0.4962    0.0000 C   0  0  0  0  0  0  0  0  0  0  0  0
   -1.5761    0.6519    0.0000 C   0  0  0  0  0  0  0  0  0  0  0  0
   -1.7318    2.1438    0.0000 C   0  0  0  0  0  0  0  0  0  0  0  0
   -1.4205   -0.8400    0.0000 C   0  0  0  0  0  0  0  0  0  0  0  0
   -0.0842    0.8075    0.0000 S   0  0  0  0  0  0  0  0  0  0  0  0
    0.7965   -0.4067    0.0000 C   0  0  0  0  0  0  0  0  0  0  0  0
    2.2884   -0.2510    0.0000 C   0  0  0  0  0  0  0  0  0  0  0  0
    2.8996    1.1188    0.0000 C   0  0  0  0  0  0  0  0  0  0  0  0
    4.3915    1.2744    0.0000 C   0  0  0  0  0  0  0  0  0  0  0  0
    5.2722    0.0602    0.0000 C   0  0  0  0  0  0  0  0  0  0  0  0
    4.6610   -1.3096    0.0000 C   0  0  0  0  0  0  0  0  0  0  0  0
    3.1691   -1.4653    0.0000 C   0  0  0  0  0  0  0  0  0  0  0  0
   -3.6792   -0.8736    0.0000 C   0  0  0  0  0  0  0  0  0  0  0  0
   -2.7985   -2.0878    0.0000 O   0  0  0  0  0  0  0  0  0  0  0  0
   -5.1711   -1.0293    0.0000 O   0  0  0  0  0  0  0  0  0  0  0  0
  2  1  1  6
  2  3  1  0
  3  4  1  0
  3  5  1  0
  3  6  1  0
  6  7  1  0
  7  8  1  0
  8  9  2  0
  9 10  1  0
 10 11  2  0
 11 12  1  0
 12 13  2  0
  2 14  1  0
 14 15  2  0
 14 16  1  0
 13  8  1  0
M  END
>  <rName>  (1255) 
D-Pen_Bn

>  <PQ_SYMBOL>  (1255) 
D-Pen_Bn

>  <FULL_NAME>  (1255) 
(S)-2-amino-3-(benzylthio)-3-methylbutanoic acid

>  <IUPAC_CONDENSED>  (1255) 
D-Pen(Bn)

>  <IUPAC>  (1255) 
(2S)-2-amino-3-(benzylsulfanyl)-3-methylbutanoic acid

>  <TYPE>  (1255) 
Backbone

>  <CLASS>  (1255) 
alpha

>  <ANALOG>  (1255) 
Val

>  <MOL_WT>  (1255) 
239.34000000000003

>  <LOGP>  (1255) 
2.1103

>  <TPSA>  (1255) 
63.32000000000001

>  <POPULARITY>  (1255) 
4.8

>  <PROTECTED>  (1255) 
TRUE

>  <SMILES>  (1255) 
N[C@H](C(C)(C)SCc1(ccccc1))C(=O)O

>  <INCHIKEY>  (1255) 
YPZAXRYHYTVHPA-JTQLQIEISA-N

$$$$
D-Phe-OEt
     RDKit          2D

 14 14  0  0  0  0  0  0  0  0999 V2000
   -0.4946    1.4988    0.0000 N   0  0  0  0  0  0  0  0  0  0  0  0
   -0.7497    0.0207    0.0000 C   0  0  0  0  0  0  0  0  0  0  0  0
   -2.1574   -0.4975    0.0000 C   0  0  0  0  0  0  0  0  0  0  0  0
   -2.4125   -1.9756    0.0000 O   0  0  0  0  0  0  0  0  0  0  0  0
   -3.3099    0.4625    0.0000 O   0  0  0  0  0  0  0  0  0  0  0  0
   -4.7176   -0.0557    0.0000 C   0  0  0  0  0  0  0  0  0  0  0  0
   -5.8702    0.9043    0.0000 C   0  0  0  0  0  0  0  0  0  0  0  0
    0.4029   -0.9393    0.0000 C   0  0  0  0  0  0  0  0  0  0  0  0
    1.8105   -0.4212    0.0000 C   0  0  0  0  0  0  0  0  0  0  0  0
    2.0656    1.0570    0.0000 C   0  0  0  0  0  0  0  0  0  0  0  0
    3.4733    1.5751    0.0000 C   0  0  0  0  0  0  0  0  0  0  0  0
    4.6258    0.6151    0.0000 C   0  0  0  0  0  0  0  0  0  0  0  0
    4.3707   -0.8630    0.0000 C   0  0  0  0  0  0  0  0  0  0  0  0
    2.9631   -1.3812    0.0000 C   0  0  0  0  0  0  0  0  0  0  0  0
  2  1  1  6
  2  3  1  0
  3  4  2  0
  3  5  1  0
  5  6  1  0
  6  7  1  0
  2  8  1  0
  8  9  1  0
  9 10  2  0
 10 11  1  0
 11 12  2  0
 12 13  1  0
 13 14  2  0
 14  9  1  0
M  END
>  <rName>  (1256) 
D-Phe-OEt

>  <PQ_SYMBOL>  (1256) 
D-Phe-OEt

>  <FULL_NAME>  (1256) 
ethyl (2R)-2-amino-3-phenylpropanoate

>  <IUPAC_CONDENSED>  (1256) 
D-Phe-OEt

>  <IUPAC>  (1256) 
ethyl (2R)-2-amino-3-phenylpropanoate

>  <TYPE>  (1256) 
C-term cap

>  <CLASS>  (1256) 
c_cap

>  <ANALOG>  (1256) 
X

>  <MOL_WT>  (1256) 
193.24600000000004

>  <LOGP>  (1256) 
1.1194999999999997

>  <TPSA>  (1256) 
52.32000000000001

>  <POPULARITY>  (1256) 
9.1

>  <PROTECTED>  (1256) 
TRUE

>  <SMILES>  (1256) 
N[C@@H](C(=O)OCC)Cc1ccccc1

>  <INCHIKEY>  (1256) 
CJGXMNONHNZEQQ-SNVBAGLBSA-N

$$$$
D-Phe-OMe
     RDKit          2D

 13 13  0  0  0  0  0  0  0  0999 V2000
   -0.8522    1.6213    0.0000 N   0  0  0  0  0  0  0  0  0  0  0  0
   -1.1939    0.1607    0.0000 C   0  0  0  0  0  0  0  0  0  0  0  0
   -2.6296   -0.2737    0.0000 C   0  0  0  0  0  0  0  0  0  0  0  0
   -2.9712   -1.7343    0.0000 O   0  0  0  0  0  0  0  0  0  0  0  0
   -3.7237    0.7525    0.0000 O   0  0  0  0  0  0  0  0  0  0  0  0
   -5.1594    0.3180    0.0000 C   0  0  0  0  0  0  0  0  0  0  0  0
   -0.0998   -0.8654    0.0000 C   0  0  0  0  0  0  0  0  0  0  0  0
    1.3359   -0.4310    0.0000 C   0  0  0  0  0  0  0  0  0  0  0  0
    1.6775    1.0296    0.0000 C   0  0  0  0  0  0  0  0  0  0  0  0
    3.1133    1.4640    0.0000 C   0  0  0  0  0  0  0  0  0  0  0  0
    4.2073    0.4379    0.0000 C   0  0  0  0  0  0  0  0  0  0  0  0
    3.8657   -1.0227    0.0000 C   0  0  0  0  0  0  0  0  0  0  0  0
    2.4300   -1.4571    0.0000 C   0  0  0  0  0  0  0  0  0  0  0  0
  2  1  1  6
  2  3  1  0
  3  4  2  0
  3  5  1  0
  5  6  1  0
  2  7  1  0
  7  8  1  0
  8  9  2  0
  9 10  1  0
 10 11  2  0
 11 12  1  0
 12 13  2  0
 13  8  1  0
M  END
>  <rName>  (1257) 
D-Phe-OMe

>  <PQ_SYMBOL>  (1257) 
D-Phe-OMe

>  <FULL_NAME>  (1257) 
D-Phenylalanine methyl ester

>  <IUPAC_CONDENSED>  (1257) 
D-Phe-OMe

>  <IUPAC>  (1257) 
methyl (2R)-2-amino-3-phenylpropanoate

>  <TYPE>  (1257) 
C-term cap

>  <CLASS>  (1257) 
c_cap

>  <ANALOG>  (1257) 
X

>  <MOL_WT>  (1257) 
179.21900000000002

>  <LOGP>  (1257) 
0.7293999999999992

>  <TPSA>  (1257) 
52.32000000000001

>  <POPULARITY>  (1257) 
9.5

>  <PROTECTED>  (1257) 
TRUE

>  <SMILES>  (1257) 
N[C@@H](C(=O)OC)Cc1ccccc1

>  <INCHIKEY>  (1257) 
VSDUZFOSJDMAFZ-SECBINFHSA-N

$$$$
D-Phe_23_45tetraF
     RDKit          2D

 16 16  0  0  0  0  0  0  0  0999 V2000
   -2.1392    1.7697    0.0000 N   0  0  0  0  0  0  0  0  0  0  0  0
   -2.5181    0.3184    0.0000 C   0  0  0  0  0  0  0  0  0  0  0  0
   -1.4507   -0.7355    0.0000 C   0  0  0  0  0  0  0  0  0  0  0  0
   -0.0043   -0.3380    0.0000 C   0  0  0  0  0  0  0  0  0  0  0  0
    0.3746    1.1134    0.0000 C   0  0  0  0  0  0  0  0  0  0  0  0
    1.8210    1.5108    0.0000 C   0  0  0  0  0  0  0  0  0  0  0  0
    2.1999    2.9622    0.0000 F   0  0  0  0  0  0  0  0  0  0  0  0
    2.8884    0.4570    0.0000 C   0  0  0  0  0  0  0  0  0  0  0  0
    4.3348    0.8545    0.0000 F   0  0  0  0  0  0  0  0  0  0  0  0
    2.5095   -0.9944    0.0000 C   0  0  0  0  0  0  0  0  0  0  0  0
    3.5769   -2.0482    0.0000 F   0  0  0  0  0  0  0  0  0  0  0  0
    1.0631   -1.3918    0.0000 C   0  0  0  0  0  0  0  0  0  0  0  0
    0.6841   -2.8432    0.0000 F   0  0  0  0  0  0  0  0  0  0  0  0
   -3.9645   -0.0791    0.0000 C   0  0  0  0  0  0  0  0  0  0  0  0
   -4.3435   -1.5305    0.0000 O   0  0  0  0  0  0  0  0  0  0  0  0
   -5.0319    0.9747    0.0000 O   0  0  0  0  0  0  0  0  0  0  0  0
  2  1  1  6
  2  3  1  0
  3  4  1  0
  4  5  1  0
  5  6  2  0
  6  7  1  0
  6  8  1  0
  8  9  1  0
  8 10  2  0
 10 11  1  0
 10 12  1  0
 12 13  1  0
  2 14  1  0
 14 15  2  0
 14 16  1  0
 12  4  2  0
M  END
>  <rName>  (1258) 
D-Phe_23_45tetraF

>  <PQ_SYMBOL>  (1258) 
D-Phe_23_45tetraF

>  <FULL_NAME>  (1258) 
2,3,4,5-Tetrafluoro-D-Phenylalanine

>  <IUPAC_CONDENSED>  (1258) 
D-Phe(2,3,4,5-tetraF)

>  <IUPAC>  (1258) 
(2R)-2-amino-3-(2,3,4,5-tetrafluorophenyl)propanoic acid

>  <TYPE>  (1258) 
Backbone

>  <CLASS>  (1258) 
alpha

>  <ANALOG>  (1258) 
Phe

>  <MOL_WT>  (1258) 
237.15199999999996

>  <LOGP>  (1258) 
1.1974000000000002

>  <TPSA>  (1258) 
63.32000000000001

>  <POPULARITY>  (1258) 
4.0

>  <PROTECTED>  (1258) 
TRUE

>  <SMILES>  (1258) 
N[C@H](Cc1(cc(F)c(F)c(F)c1F))C(=O)O

>  <INCHIKEY>  (1258) 
XPEAYFZWBKHVDF-RXMQYKEDSA-N

$$$$
D-Phe_23_56tetraF
     RDKit          2D

 16 16  0  0  0  0  0  0  0  0999 V2000
   -1.9360    1.5591    0.0000 N   0  0  0  0  0  0  0  0  0  0  0  0
   -2.2149    0.0852    0.0000 C   0  0  0  0  0  0  0  0  0  0  0  0
   -1.0780   -0.8933    0.0000 C   0  0  0  0  0  0  0  0  0  0  0  0
    0.3379   -0.3979    0.0000 C   0  0  0  0  0  0  0  0  0  0  0  0
    0.6168    1.0760    0.0000 C   0  0  0  0  0  0  0  0  0  0  0  0
   -0.5202    2.0544    0.0000 F   0  0  0  0  0  0  0  0  0  0  0  0
    2.0326    1.5713    0.0000 C   0  0  0  0  0  0  0  0  0  0  0  0
    2.3115    3.0452    0.0000 F   0  0  0  0  0  0  0  0  0  0  0  0
    3.1695    0.5929    0.0000 C   0  0  0  0  0  0  0  0  0  0  0  0
    2.8906   -0.8810    0.0000 C   0  0  0  0  0  0  0  0  0  0  0  0
    4.0275   -1.8595    0.0000 F   0  0  0  0  0  0  0  0  0  0  0  0
    1.4748   -1.3764    0.0000 C   0  0  0  0  0  0  0  0  0  0  0  0
    1.1959   -2.8502    0.0000 F   0  0  0  0  0  0  0  0  0  0  0  0
   -3.6308   -0.4102    0.0000 C   0  0  0  0  0  0  0  0  0  0  0  0
   -3.9097   -1.8840    0.0000 O   0  0  0  0  0  0  0  0  0  0  0  0
   -4.7677    0.5683    0.0000 O   0  0  0  0  0  0  0  0  0  0  0  0
  2  1  1  6
  2  3  1  0
  3  4  1  0
  4  5  2  0
  5  6  1  0
  5  7  1  0
  7  8  1  0
  7  9  2  0
  9 10  1  0
 10 11  1  0
 10 12  2  0
 12 13  1  0
  2 14  1  0
 14 15  2  0
 14 16  1  0
 12  4  1  0
M  END
>  <rName>  (1259) 
D-Phe_23_56tetraF

>  <PQ_SYMBOL>  (1259) 
D-Phe_23_56tetraF

>  <FULL_NAME>  (1259) 
N[C@H](Cc1c(F)c(F)cc(F)c1F)C(=O)O

>  <IUPAC_CONDENSED>  (1259) 
D-Phe(2,3,5,6-tetraF)

>  <IUPAC>  (1259) 
(2R)-2-amino-3-(2,3,5,6-tetrafluorophenyl)propanoic acid

>  <TYPE>  (1259) 
Backbone

>  <CLASS>  (1259) 
alpha

>  <ANALOG>  (1259) 
Phe

>  <MOL_WT>  (1259) 
237.152

>  <LOGP>  (1259) 
1.1974000000000002

>  <TPSA>  (1259) 
63.32000000000001

>  <POPULARITY>  (1259) 
4.0

>  <PROTECTED>  (1259) 
TRUE

>  <SMILES>  (1259) 
N[C@H](Cc1(c(F)c(F)cc(F)c1F))C(=O)O

>  <INCHIKEY>  (1259) 
JFDDIQNKNLUINS-ZCFIWIBFSA-N

$$$$
D-Phe_23diCl
     RDKit          2D

 14 14  0  0  0  0  0  0  0  0999 V2000
   -1.9599    1.7683    0.0000 N   0  0  0  0  0  0  0  0  0  0  0  0
   -2.1168    0.2766    0.0000 C   0  0  0  0  0  0  0  0  0  0  0  0
   -0.9034   -0.6052    0.0000 C   0  0  0  0  0  0  0  0  0  0  0  0
    0.4670    0.0047    0.0000 C   0  0  0  0  0  0  0  0  0  0  0  0
    0.6239    1.4965    0.0000 C   0  0  0  0  0  0  0  0  0  0  0  0
    1.9943    2.1065    0.0000 C   0  0  0  0  0  0  0  0  0  0  0  0
    3.2078    1.2247    0.0000 C   0  0  0  0  0  0  0  0  0  0  0  0
    3.0508   -0.2671    0.0000 C   0  0  0  0  0  0  0  0  0  0  0  0
    4.2643   -1.1489    0.0000 Cl  0  0  0  0  0  0  0  0  0  0  0  0
    1.6804   -0.8771    0.0000 C   0  0  0  0  0  0  0  0  0  0  0  0
    1.5235   -2.3688    0.0000 Cl  0  0  0  0  0  0  0  0  0  0  0  0
   -3.4872   -0.3334    0.0000 C   0  0  0  0  0  0  0  0  0  0  0  0
   -3.6441   -1.8252    0.0000 O   0  0  0  0  0  0  0  0  0  0  0  0
   -4.7006    0.5484    0.0000 O   0  0  0  0  0  0  0  0  0  0  0  0
  2  1  1  6
  2  3  1  0
  3  4  1  0
  4  5  2  0
  5  6  1  0
  6  7  2  0
  7  8  1  0
  8  9  1  0
  8 10  2  0
 10 11  1  0
  2 12  1  0
 12 13  2  0
 12 14  1  0
 10  4  1  0
M  END
>  <rName>  (1260) 
D-Phe_23diCl

>  <PQ_SYMBOL>  (1260) 
D-Phe_23diCl

>  <FULL_NAME>  (1260) 
2,3-Dichloro-D-Phenylalanine

>  <IUPAC_CONDENSED>  (1260) 
D-Phe(2,3-diCl)

>  <IUPAC>  (1260) 
(2R)-2-amino-3-(2,3-dichlorophenyl)propanoic acid

>  <TYPE>  (1260) 
Backbone

>  <CLASS>  (1260) 
alpha

>  <ANALOG>  (1260) 
Phe

>  <MOL_WT>  (1260) 
234.08199999999997

>  <LOGP>  (1260) 
1.9478000000000002

>  <TPSA>  (1260) 
63.32000000000001

>  <POPULARITY>  (1260) 
5.8

>  <PROTECTED>  (1260) 
TRUE

>  <SMILES>  (1260) 
N[C@H](Cc1(cccc(Cl)c1Cl))C(=O)O

>  <INCHIKEY>  (1260) 
NVDAAIHKUHFKOL-SSDOTTSWSA-N

$$$$
D-Phe_23diF
     RDKit          2D

 14 14  0  0  0  0  0  0  0  0999 V2000
   -1.9599    1.7683    0.0000 N   0  0  0  0  0  0  0  0  0  0  0  0
   -2.1168    0.2766    0.0000 C   0  0  0  0  0  0  0  0  0  0  0  0
   -0.9034   -0.6052    0.0000 C   0  0  0  0  0  0  0  0  0  0  0  0
    0.4670    0.0047    0.0000 C   0  0  0  0  0  0  0  0  0  0  0  0
    0.6239    1.4965    0.0000 C   0  0  0  0  0  0  0  0  0  0  0  0
    1.9943    2.1065    0.0000 C   0  0  0  0  0  0  0  0  0  0  0  0
    3.2078    1.2247    0.0000 C   0  0  0  0  0  0  0  0  0  0  0  0
    3.0508   -0.2671    0.0000 C   0  0  0  0  0  0  0  0  0  0  0  0
    4.2643   -1.1489    0.0000 F   0  0  0  0  0  0  0  0  0  0  0  0
    1.6804   -0.8771    0.0000 C   0  0  0  0  0  0  0  0  0  0  0  0
    1.5235   -2.3688    0.0000 F   0  0  0  0  0  0  0  0  0  0  0  0
   -3.4872   -0.3334    0.0000 C   0  0  0  0  0  0  0  0  0  0  0  0
   -3.6441   -1.8252    0.0000 O   0  0  0  0  0  0  0  0  0  0  0  0
   -4.7006    0.5484    0.0000 O   0  0  0  0  0  0  0  0  0  0  0  0
  2  1  1  6
  2  3  1  0
  3  4  1  0
  4  5  2  0
  5  6  1  0
  6  7  2  0
  7  8  1  0
  8  9  1  0
  8 10  2  0
 10 11  1  0
  2 12  1  0
 12 13  2  0
 12 14  1  0
 10  4  1  0
M  END
>  <rName>  (1261) 
D-Phe_23diF

>  <PQ_SYMBOL>  (1261) 
D-Phe_23diF

>  <FULL_NAME>  (1261) 
2,3-Difluoro-D-Phenylalanine

>  <IUPAC_CONDENSED>  (1261) 
D-Phe(2,3-diF)

>  <IUPAC>  (1261) 
(2R)-2-amino-3-(2,3-difluorophenyl)propanoic acid

>  <TYPE>  (1261) 
Backbone

>  <CLASS>  (1261) 
alpha

>  <ANALOG>  (1261) 
Phe

>  <MOL_WT>  (1261) 
201.17199999999997

>  <LOGP>  (1261) 
0.9192

>  <TPSA>  (1261) 
63.32000000000001

>  <POPULARITY>  (1261) 
6.5

>  <PROTECTED>  (1261) 
TRUE

>  <SMILES>  (1261) 
N[C@H](Cc1(cccc(F)c1F))C(=O)O

>  <INCHIKEY>  (1261) 
KSUXKFDPNKLPHX-SSDOTTSWSA-N

$$$$
D-Phe_23diMe
     RDKit          2D

 14 14  0  0  0  0  0  0  0  0999 V2000
   -1.9599    1.7683    0.0000 N   0  0  0  0  0  0  0  0  0  0  0  0
   -2.1168    0.2766    0.0000 C   0  0  0  0  0  0  0  0  0  0  0  0
   -0.9034   -0.6052    0.0000 C   0  0  0  0  0  0  0  0  0  0  0  0
    0.4670    0.0047    0.0000 C   0  0  0  0  0  0  0  0  0  0  0  0
    0.6239    1.4965    0.0000 C   0  0  0  0  0  0  0  0  0  0  0  0
    1.9943    2.1065    0.0000 C   0  0  0  0  0  0  0  0  0  0  0  0
    3.2078    1.2247    0.0000 C   0  0  0  0  0  0  0  0  0  0  0  0
    3.0508   -0.2671    0.0000 C   0  0  0  0  0  0  0  0  0  0  0  0
    4.2643   -1.1489    0.0000 C   0  0  0  0  0  0  0  0  0  0  0  0
    1.6804   -0.8771    0.0000 C   0  0  0  0  0  0  0  0  0  0  0  0
    1.5235   -2.3688    0.0000 C   0  0  0  0  0  0  0  0  0  0  0  0
   -3.4872   -0.3334    0.0000 C   0  0  0  0  0  0  0  0  0  0  0  0
   -3.6441   -1.8252    0.0000 O   0  0  0  0  0  0  0  0  0  0  0  0
   -4.7006    0.5484    0.0000 O   0  0  0  0  0  0  0  0  0  0  0  0
  2  1  1  6
  2  3  1  0
  3  4  1  0
  4  5  2  0
  5  6  1  0
  6  7  2  0
  7  8  1  0
  8  9  1  0
  8 10  2  0
 10 11  1  0
  2 12  1  0
 12 13  2  0
 12 14  1  0
 10  4  1  0
M  END
>  <rName>  (1262) 
D-Phe_23diMe

>  <PQ_SYMBOL>  (1262) 
D-Phe_23diMe

>  <FULL_NAME>  (1262) 
(R)-2-amino-3-(2,3-dimethylphenyl)propanoic acid

>  <IUPAC_CONDENSED>  (1262) 
D-Phe(2,3-diMe)

>  <IUPAC>  (1262) 
(2R)-2-amino-3-(2,3-dimethylphenyl)propanoic acid

>  <TYPE>  (1262) 
Backbone

>  <CLASS>  (1262) 
alpha

>  <ANALOG>  (1262) 
Phe

>  <MOL_WT>  (1262) 
193.24599999999995

>  <LOGP>  (1262) 
1.25784

>  <TPSA>  (1262) 
63.32000000000001

>  <POPULARITY>  (1262) 
5.9

>  <PROTECTED>  (1262) 
TRUE

>  <SMILES>  (1262) 
N[C@H](Cc1(cccc(C)c1C))C(=O)O

>  <INCHIKEY>  (1262) 
YOOQLMVNYYJZEI-SNVBAGLBSA-N

$$$$
D-Phe_23diOMe
     RDKit          2D

 16 16  0  0  0  0  0  0  0  0999 V2000
   -2.4570    1.8470    0.0000 N   0  0  0  0  0  0  0  0  0  0  0  0
   -2.4398    0.3471    0.0000 C   0  0  0  0  0  0  0  0  0  0  0  0
   -1.1323   -0.3880    0.0000 C   0  0  0  0  0  0  0  0  0  0  0  0
    0.1581    0.3768    0.0000 C   0  0  0  0  0  0  0  0  0  0  0  0
    0.1409    1.8767    0.0000 C   0  0  0  0  0  0  0  0  0  0  0  0
    1.4313    2.6416    0.0000 C   0  0  0  0  0  0  0  0  0  0  0  0
    2.7388    1.9065    0.0000 C   0  0  0  0  0  0  0  0  0  0  0  0
    2.7560    0.4066    0.0000 C   0  0  0  0  0  0  0  0  0  0  0  0
    4.0635   -0.3285    0.0000 O   0  0  0  0  0  0  0  0  0  0  0  0
    4.0807   -1.8284    0.0000 C   0  0  0  0  0  0  0  0  0  0  0  0
    1.4656   -0.3582    0.0000 C   0  0  0  0  0  0  0  0  0  0  0  0
    1.4828   -1.8581    0.0000 O   0  0  0  0  0  0  0  0  0  0  0  0
    0.1924   -2.6230    0.0000 C   0  0  0  0  0  0  0  0  0  0  0  0
   -3.7302   -0.4177    0.0000 C   0  0  0  0  0  0  0  0  0  0  0  0
   -3.7130   -1.9176    0.0000 O   0  0  0  0  0  0  0  0  0  0  0  0
   -5.0377    0.3173    0.0000 O   0  0  0  0  0  0  0  0  0  0  0  0
  2  1  1  6
  2  3  1  0
  3  4  1  0
  4  5  1  0
  5  6  2  0
  6  7  1  0
  7  8  2  0
  8  9  1  0
  9 10  1  0
  8 11  1  0
 11 12  1  0
 12 13  1  0
  2 14  1  0
 14 15  2  0
 14 16  1  0
 11  4  2  0
M  END
>  <rName>  (1263) 
D-Phe_23diOMe

>  <PQ_SYMBOL>  (1263) 
D-Phe_23diOMe

>  <FULL_NAME>  (1263) 
2,3-Dimethoxy-D-phenylalanine

>  <IUPAC_CONDENSED>  (1263) 
D-Phe(2,3-diOMe)

>  <IUPAC>  (1263) 
(2R)-2-amino-3-(2,3-dimethoxyphenyl)propanoic acid

>  <TYPE>  (1263) 
Backbone

>  <CLASS>  (1263) 
alpha

>  <ANALOG>  (1263) 
Tyr

>  <MOL_WT>  (1263) 
225.24399999999994

>  <LOGP>  (1263) 
0.6581999999999999

>  <TPSA>  (1263) 
81.78

>  <POPULARITY>  (1263) 
2.2

>  <PROTECTED>  (1263) 
TRUE

>  <SMILES>  (1263) 
N[C@H](Cc1(cccc(OC)c1OC))C(=O)O

>  <INCHIKEY>  (1263) 
JVBIWFOSWSUQAY-MRVPVSSYSA-N

$$$$
D-Phe_24_5triF
     RDKit          2D

 15 15  0  0  0  0  0  0  0  0999 V2000
   -1.7432    1.8004    0.0000 N   0  0  0  0  0  0  0  0  0  0  0  0
   -2.2534    0.3899    0.0000 C   0  0  0  0  0  0  0  0  0  0  0  0
   -1.2870   -0.7573    0.0000 C   0  0  0  0  0  0  0  0  0  0  0  0
    0.1897   -0.4940    0.0000 C   0  0  0  0  0  0  0  0  0  0  0  0
    0.7000    0.9165    0.0000 C   0  0  0  0  0  0  0  0  0  0  0  0
    2.1767    1.1799    0.0000 C   0  0  0  0  0  0  0  0  0  0  0  0
    2.6869    2.5904    0.0000 F   0  0  0  0  0  0  0  0  0  0  0  0
    3.1431    0.0327    0.0000 C   0  0  0  0  0  0  0  0  0  0  0  0
    4.6198    0.2961    0.0000 F   0  0  0  0  0  0  0  0  0  0  0  0
    2.6328   -1.3778    0.0000 C   0  0  0  0  0  0  0  0  0  0  0  0
    1.1561   -1.6412    0.0000 C   0  0  0  0  0  0  0  0  0  0  0  0
    0.6458   -3.0517    0.0000 F   0  0  0  0  0  0  0  0  0  0  0  0
   -3.7301    0.1265    0.0000 C   0  0  0  0  0  0  0  0  0  0  0  0
   -4.2404   -1.2840    0.0000 O   0  0  0  0  0  0  0  0  0  0  0  0
   -4.6966    1.2737    0.0000 O   0  0  0  0  0  0  0  0  0  0  0  0
  2  1  1  6
  2  3  1  0
  3  4  1  0
  4  5  1  0
  5  6  2  0
  6  7  1  0
  6  8  1  0
  8  9  1  0
  8 10  2  0
 10 11  1  0
 11 12  1  0
  2 13  1  0
 13 14  2  0
 13 15  1  0
 11  4  2  0
M  END
>  <rName>  (1264) 
D-Phe_24_5triF

>  <PQ_SYMBOL>  (1264) 
D-Phe_24_5triF

>  <FULL_NAME>  (1264) 
2,4,5-Trifluoro-D-Phenylalanine

>  <IUPAC_CONDENSED>  (1264) 
D-Phe(2,4,5-triF)

>  <IUPAC>  (1264) 
(2R)-2-amino-3-(2,4,5-trifluorophenyl)propanoic acid

>  <TYPE>  (1264) 
Backbone

>  <CLASS>  (1264) 
alpha

>  <ANALOG>  (1264) 
Phe

>  <MOL_WT>  (1264) 
219.16199999999998

>  <LOGP>  (1264) 
1.0583000000000002

>  <TPSA>  (1264) 
63.32000000000001

>  <POPULARITY>  (1264) 
6.4

>  <PROTECTED>  (1264) 
TRUE

>  <SMILES>  (1264) 
N[C@H](Cc1(cc(F)c(F)cc1F))C(=O)O

>  <INCHIKEY>  (1264) 
SWJFYJHCOWRRLR-MRVPVSSYSA-N

$$$$
D-Phe_24diCl
     RDKit          2D

 14 14  0  0  0  0  0  0  0  0999 V2000
   -1.7174    1.8436    0.0000 N   0  0  0  0  0  0  0  0  0  0  0  0
   -2.1036    0.3942    0.0000 C   0  0  0  0  0  0  0  0  0  0  0  0
   -1.0414   -0.6650    0.0000 C   0  0  0  0  0  0  0  0  0  0  0  0
    0.4069   -0.2747    0.0000 C   0  0  0  0  0  0  0  0  0  0  0  0
    0.7931    1.1747    0.0000 C   0  0  0  0  0  0  0  0  0  0  0  0
    2.2415    1.5649    0.0000 C   0  0  0  0  0  0  0  0  0  0  0  0
    3.3036    0.5057    0.0000 C   0  0  0  0  0  0  0  0  0  0  0  0
    4.7520    0.8960    0.0000 Cl  0  0  0  0  0  0  0  0  0  0  0  0
    2.9174   -0.9437    0.0000 C   0  0  0  0  0  0  0  0  0  0  0  0
    1.4691   -1.3339    0.0000 C   0  0  0  0  0  0  0  0  0  0  0  0
    1.0829   -2.7834    0.0000 Cl  0  0  0  0  0  0  0  0  0  0  0  0
   -3.5519    0.0039    0.0000 C   0  0  0  0  0  0  0  0  0  0  0  0
   -3.9381   -1.4455    0.0000 O   0  0  0  0  0  0  0  0  0  0  0  0
   -4.6140    1.0631    0.0000 O   0  0  0  0  0  0  0  0  0  0  0  0
  2  1  1  6
  2  3  1  0
  3  4  1  0
  4  5  1  0
  5  6  2  0
  6  7  1  0
  7  8  1  0
  7  9  2  0
  9 10  1  0
 10 11  1  0
  2 12  1  0
 12 13  2  0
 12 14  1  0
 10  4  2  0
M  END
>  <rName>  (1265) 
D-Phe_24diCl

>  <PQ_SYMBOL>  (1265) 
D-Phe_24diCl

>  <FULL_NAME>  (1265) 
2,4-dichloro-D-phenylalanine

>  <IUPAC_CONDENSED>  (1265) 
D-Phe(2,4-diCl)

>  <IUPAC>  (1265) 
(2R)-2-amino-3-(2,4-dichlorophenyl)propanoic acid

>  <TYPE>  (1265) 
Backbone

>  <CLASS>  (1265) 
alpha

>  <ANALOG>  (1265) 
Phe

>  <MOL_WT>  (1265) 
234.082

>  <LOGP>  (1265) 
1.9478000000000002

>  <TPSA>  (1265) 
63.32000000000001

>  <POPULARITY>  (1265) 
11.0

>  <PROTECTED>  (1265) 
TRUE

>  <SMILES>  (1265) 
N[C@H](Cc1(ccc(Cl)cc1Cl))C(=O)O

>  <INCHIKEY>  (1265) 
GWHQTNKPTXDNRM-MRVPVSSYSA-N

$$$$
D-Phe_24diF
     RDKit          2D

 14 14  0  0  0  0  0  0  0  0999 V2000
   -1.7174    1.8436    0.0000 N   0  0  0  0  0  0  0  0  0  0  0  0
   -2.1036    0.3942    0.0000 C   0  0  0  0  0  0  0  0  0  0  0  0
   -1.0414   -0.6650    0.0000 C   0  0  0  0  0  0  0  0  0  0  0  0
    0.4069   -0.2747    0.0000 C   0  0  0  0  0  0  0  0  0  0  0  0
    0.7931    1.1747    0.0000 C   0  0  0  0  0  0  0  0  0  0  0  0
    2.2415    1.5649    0.0000 C   0  0  0  0  0  0  0  0  0  0  0  0
    3.3036    0.5057    0.0000 C   0  0  0  0  0  0  0  0  0  0  0  0
    4.7520    0.8960    0.0000 F   0  0  0  0  0  0  0  0  0  0  0  0
    2.9174   -0.9437    0.0000 C   0  0  0  0  0  0  0  0  0  0  0  0
    1.4691   -1.3339    0.0000 C   0  0  0  0  0  0  0  0  0  0  0  0
    1.0829   -2.7834    0.0000 F   0  0  0  0  0  0  0  0  0  0  0  0
   -3.5519    0.0039    0.0000 C   0  0  0  0  0  0  0  0  0  0  0  0
   -3.9381   -1.4455    0.0000 O   0  0  0  0  0  0  0  0  0  0  0  0
   -4.6140    1.0631    0.0000 O   0  0  0  0  0  0  0  0  0  0  0  0
  2  1  1  6
  2  3  1  0
  3  4  1  0
  4  5  1  0
  5  6  2  0
  6  7  1  0
  7  8  1  0
  7  9  2  0
  9 10  1  0
 10 11  1  0
  2 12  1  0
 12 13  2  0
 12 14  1  0
 10  4  2  0
M  END
>  <rName>  (1266) 
D-Phe_24diF

>  <PQ_SYMBOL>  (1266) 
D-Phe_24diF

>  <FULL_NAME>  (1266) 
2,4-Difluoro-D-Phenylalanine

>  <IUPAC_CONDENSED>  (1266) 
D-Phe(2,4-diF)

>  <IUPAC>  (1266) 
(2R)-2-amino-3-(2,4-difluorophenyl)propanoic acid

>  <TYPE>  (1266) 
Backbone

>  <CLASS>  (1266) 
alpha

>  <ANALOG>  (1266) 
Phe

>  <MOL_WT>  (1266) 
201.17199999999997

>  <LOGP>  (1266) 
0.9192

>  <TPSA>  (1266) 
63.32000000000001

>  <POPULARITY>  (1266) 
6.9

>  <PROTECTED>  (1266) 
TRUE

>  <SMILES>  (1266) 
N[C@H](Cc1(ccc(F)cc1F))C(=O)O

>  <INCHIKEY>  (1266) 
UEFLPVKMPDEMFW-MRVPVSSYSA-N

$$$$
D-Phe_24diMe
     RDKit          2D

 14 14  0  0  0  0  0  0  0  0999 V2000
   -1.7174    1.8436    0.0000 N   0  0  0  0  0  0  0  0  0  0  0  0
   -2.1036    0.3942    0.0000 C   0  0  0  0  0  0  0  0  0  0  0  0
   -1.0414   -0.6650    0.0000 C   0  0  0  0  0  0  0  0  0  0  0  0
    0.4069   -0.2747    0.0000 C   0  0  0  0  0  0  0  0  0  0  0  0
    0.7931    1.1747    0.0000 C   0  0  0  0  0  0  0  0  0  0  0  0
    2.2415    1.5649    0.0000 C   0  0  0  0  0  0  0  0  0  0  0  0
    3.3036    0.5057    0.0000 C   0  0  0  0  0  0  0  0  0  0  0  0
    4.7520    0.8960    0.0000 C   0  0  0  0  0  0  0  0  0  0  0  0
    2.9174   -0.9437    0.0000 C   0  0  0  0  0  0  0  0  0  0  0  0
    1.4691   -1.3339    0.0000 C   0  0  0  0  0  0  0  0  0  0  0  0
    1.0829   -2.7834    0.0000 C   0  0  0  0  0  0  0  0  0  0  0  0
   -3.5519    0.0039    0.0000 C   0  0  0  0  0  0  0  0  0  0  0  0
   -3.9381   -1.4455    0.0000 O   0  0  0  0  0  0  0  0  0  0  0  0
   -4.6140    1.0631    0.0000 O   0  0  0  0  0  0  0  0  0  0  0  0
  2  1  1  6
  2  3  1  0
  3  4  1  0
  4  5  1  0
  5  6  2  0
  6  7  1  0
  7  8  1  0
  7  9  2  0
  9 10  1  0
 10 11  1  0
  2 12  1  0
 12 13  2  0
 12 14  1  0
 10  4  2  0
M  END
>  <rName>  (1267) 
D-Phe_24diMe

>  <PQ_SYMBOL>  (1267) 
D-Phe_24diMe

>  <FULL_NAME>  (1267) 
2,4-dimethyl-D-phenylalanine

>  <IUPAC_CONDENSED>  (1267) 
D-Phe(2,4-diMe)

>  <IUPAC>  (1267) 
(2R)-2-amino-3-(2,4-dimethylphenyl)propanoic acid

>  <TYPE>  (1267) 
Backbone

>  <CLASS>  (1267) 
alpha

>  <ANALOG>  (1267) 
Phe

>  <MOL_WT>  (1267) 
193.24599999999995

>  <LOGP>  (1267) 
1.25784

>  <TPSA>  (1267) 
63.32000000000001

>  <POPULARITY>  (1267) 
11.9

>  <PROTECTED>  (1267) 
TRUE

>  <SMILES>  (1267) 
N[C@H](Cc1(ccc(C)cc1C))C(=O)O

>  <INCHIKEY>  (1267) 
ZEWXVRJSLTXWON-SNVBAGLBSA-N

$$$$
D-Phe_24diNO2
     RDKit          2D

 18 18  0  0  0  0  0  0  0  0999 V2000
   -2.2817    2.2658    0.0000 N   0  0  0  0  0  0  0  0  0  0  0  0
   -2.7617    0.8447    0.0000 C   0  0  0  0  0  0  0  0  0  0  0  0
   -1.7709   -0.2815    0.0000 C   0  0  0  0  0  0  0  0  0  0  0  0
   -0.3002    0.0134    0.0000 C   0  0  0  0  0  0  0  0  0  0  0  0
    0.1798    1.4346    0.0000 C   0  0  0  0  0  0  0  0  0  0  0  0
    1.6505    1.7295    0.0000 C   0  0  0  0  0  0  0  0  0  0  0  0
    2.6413    0.6033    0.0000 C   0  0  0  0  0  0  0  0  0  0  0  0
    2.1613   -0.8179    0.0000 C   0  0  0  0  0  0  0  0  0  0  0  0
    0.6906   -1.1128    0.0000 C   0  0  0  0  0  0  0  0  0  0  0  0
    0.2107   -2.5339    0.0000 N   0  0  0  0  0  0  0  0  0  0  0  0
   -1.2601   -2.8289    0.0000 O   0  0  0  0  0  0  0  0  0  0  0  0
    1.2014   -3.6602    0.0000 O   0  0  0  0  0  0  0  0  0  0  0  0
    4.1120    0.8982    0.0000 N   0  0  0  0  0  0  0  0  0  0  0  0
    4.5919    2.3193    0.0000 O   0  0  0  0  0  0  0  0  0  0  0  0
    5.1028   -0.2280    0.0000 O   0  0  0  0  0  0  0  0  0  0  0  0
   -4.2324    0.5498    0.0000 C   0  0  0  0  0  0  0  0  0  0  0  0
   -4.7123   -0.8714    0.0000 O   0  0  0  0  0  0  0  0  0  0  0  0
   -5.2232    1.6760    0.0000 O   0  0  0  0  0  0  0  0  0  0  0  0
  2  1  1  6
  2  3  1  0
  3  4  1  0
  4  5  1  0
  5  6  2  0
  6  7  1  0
  7  8  2  0
  8  9  1  0
  9 10  1  0
 10 11  2  0
 10 12  1  0
  7 13  1  0
 13 14  2  0
 13 15  1  0
  2 16  1  0
 16 17  2  0
 16 18  1  0
  9  4  2  0
M  CHG  4  10   1  12  -1  13   1  15  -1
M  END
>  <rName>  (1268) 
D-Phe_24diNO2

>  <PQ_SYMBOL>  (1268) 
D-Phe_24diNO2

>  <FULL_NAME>  (1268) 
(R)-2-amino-3-(2,4-dinitrophenyl)propanoic acid

>  <IUPAC_CONDENSED>  (1268) 
D-Phe(2,4-diNO2)

>  <IUPAC>  (1268) 
(2R)-2-amino-3-(2,4-dinitrophenyl)propanoic acid

>  <TYPE>  (1268) 
Backbone

>  <CLASS>  (1268) 
alpha

>  <ANALOG>  (1268) 
Phe

>  <MOL_WT>  (1268) 
255.18599999999995

>  <LOGP>  (1268) 
0.45739999999999975

>  <TPSA>  (1268) 
149.6

>  <POPULARITY>  (1268) 
5.1

>  <PROTECTED>  (1268) 
TRUE

>  <SMILES>  (1268) 
N[C@H](Cc1(ccc(cc1[N+](=O)[O-])[N+](=O)[O-]))C(=O)O

>  <INCHIKEY>  (1268) 
LLVUHQYJZJUDAM-SSDOTTSWSA-N

$$$$
D-Phe_25diCl
     RDKit          2D

 14 14  0  0  0  0  0  0  0  0999 V2000
   -1.4552    1.7882    0.0000 N   0  0  0  0  0  0  0  0  0  0  0  0
   -1.9325    0.3661    0.0000 C   0  0  0  0  0  0  0  0  0  0  0  0
   -0.9397   -0.7583    0.0000 C   0  0  0  0  0  0  0  0  0  0  0  0
    0.5305   -0.4606    0.0000 C   0  0  0  0  0  0  0  0  0  0  0  0
    1.0078    0.9614    0.0000 C   0  0  0  0  0  0  0  0  0  0  0  0
    2.4780    1.2591    0.0000 C   0  0  0  0  0  0  0  0  0  0  0  0
    2.9553    2.6811    0.0000 Cl  0  0  0  0  0  0  0  0  0  0  0  0
    3.4709    0.1347    0.0000 C   0  0  0  0  0  0  0  0  0  0  0  0
    2.9935   -1.2874    0.0000 C   0  0  0  0  0  0  0  0  0  0  0  0
    1.5234   -1.5850    0.0000 C   0  0  0  0  0  0  0  0  0  0  0  0
    1.0461   -3.0070    0.0000 Cl  0  0  0  0  0  0  0  0  0  0  0  0
   -3.4027    0.0685    0.0000 C   0  0  0  0  0  0  0  0  0  0  0  0
   -3.8800   -1.3536    0.0000 O   0  0  0  0  0  0  0  0  0  0  0  0
   -4.3955    1.1929    0.0000 O   0  0  0  0  0  0  0  0  0  0  0  0
  2  1  1  6
  2  3  1  0
  3  4  1  0
  4  5  1  0
  5  6  2  0
  6  7  1  0
  6  8  1  0
  8  9  2  0
  9 10  1  0
 10 11  1  0
  2 12  1  0
 12 13  2  0
 12 14  1  0
 10  4  2  0
M  END
>  <rName>  (1269) 
D-Phe_25diCl

>  <PQ_SYMBOL>  (1269) 
D-Phe_25diCl

>  <FULL_NAME>  (1269) 
2,5-Dichloro-D-Phenylalanine

>  <IUPAC_CONDENSED>  (1269) 
D-Phe(2,5-diCl)

>  <IUPAC>  (1269) 
(2R)-2-amino-3-(2,5-dichlorophenyl)propanoic acid

>  <TYPE>  (1269) 
Backbone

>  <CLASS>  (1269) 
alpha

>  <ANALOG>  (1269) 
Phe

>  <MOL_WT>  (1269) 
234.082

>  <LOGP>  (1269) 
1.9478

>  <TPSA>  (1269) 
63.32000000000001

>  <POPULARITY>  (1269) 
5.8

>  <PROTECTED>  (1269) 
TRUE

>  <SMILES>  (1269) 
N[C@H](Cc1(cc(Cl)ccc1Cl))C(=O)O

>  <INCHIKEY>  (1269) 
SDKIMTATYJGPBJ-MRVPVSSYSA-N

$$$$
D-Phe_25diF
     RDKit          2D

 14 14  0  0  0  0  0  0  0  0999 V2000
   -1.4552    1.7882    0.0000 N   0  0  0  0  0  0  0  0  0  0  0  0
   -1.9325    0.3661    0.0000 C   0  0  0  0  0  0  0  0  0  0  0  0
   -0.9397   -0.7583    0.0000 C   0  0  0  0  0  0  0  0  0  0  0  0
    0.5305   -0.4606    0.0000 C   0  0  0  0  0  0  0  0  0  0  0  0
    1.0078    0.9614    0.0000 C   0  0  0  0  0  0  0  0  0  0  0  0
    2.4780    1.2591    0.0000 C   0  0  0  0  0  0  0  0  0  0  0  0
    2.9553    2.6811    0.0000 F   0  0  0  0  0  0  0  0  0  0  0  0
    3.4709    0.1347    0.0000 C   0  0  0  0  0  0  0  0  0  0  0  0
    2.9935   -1.2874    0.0000 C   0  0  0  0  0  0  0  0  0  0  0  0
    1.5234   -1.5850    0.0000 C   0  0  0  0  0  0  0  0  0  0  0  0
    1.0461   -3.0070    0.0000 F   0  0  0  0  0  0  0  0  0  0  0  0
   -3.4027    0.0685    0.0000 C   0  0  0  0  0  0  0  0  0  0  0  0
   -3.8800   -1.3536    0.0000 O   0  0  0  0  0  0  0  0  0  0  0  0
   -4.3955    1.1929    0.0000 O   0  0  0  0  0  0  0  0  0  0  0  0
  2  1  1  6
  2  3  1  0
  3  4  1  0
  4  5  1  0
  5  6  2  0
  6  7  1  0
  6  8  1  0
  8  9  2  0
  9 10  1  0
 10 11  1  0
  2 12  1  0
 12 13  2  0
 12 14  1  0
 10  4  2  0
M  END
>  <rName>  (1270) 
D-Phe_25diF

>  <PQ_SYMBOL>  (1270) 
D-Phe_25diF

>  <FULL_NAME>  (1270) 
2,5-Difluoro-D-Phenylalanine

>  <IUPAC_CONDENSED>  (1270) 
D-Phe(2,5-diF)

>  <IUPAC>  (1270) 
(2R)-2-amino-3-(2,5-difluorophenyl)propanoic acid

>  <TYPE>  (1270) 
Backbone

>  <CLASS>  (1270) 
alpha

>  <ANALOG>  (1270) 
Phe

>  <MOL_WT>  (1270) 
201.17199999999997

>  <LOGP>  (1270) 
0.9192

>  <TPSA>  (1270) 
63.32000000000001

>  <POPULARITY>  (1270) 
5.9

>  <PROTECTED>  (1270) 
TRUE

>  <SMILES>  (1270) 
N[C@H](Cc1(cc(F)ccc1F))C(=O)O

>  <INCHIKEY>  (1270) 
YHYQITHAFYELNW-MRVPVSSYSA-N

$$$$
D-Phe_26diCl
     RDKit          2D

 14 14  0  0  0  0  0  0  0  0999 V2000
   -1.4856    1.6416    0.0000 N   0  0  0  0  0  0  0  0  0  0  0  0
   -1.7624    0.1673    0.0000 C   0  0  0  0  0  0  0  0  0  0  0  0
   -0.6240   -0.8095    0.0000 C   0  0  0  0  0  0  0  0  0  0  0  0
    0.7911   -0.3120    0.0000 C   0  0  0  0  0  0  0  0  0  0  0  0
    1.0678    1.1622    0.0000 C   0  0  0  0  0  0  0  0  0  0  0  0
   -0.0705    2.1390    0.0000 Cl  0  0  0  0  0  0  0  0  0  0  0  0
    2.4830    1.6597    0.0000 C   0  0  0  0  0  0  0  0  0  0  0  0
    3.6213    0.6829    0.0000 C   0  0  0  0  0  0  0  0  0  0  0  0
    3.3446   -0.7913    0.0000 C   0  0  0  0  0  0  0  0  0  0  0  0
    1.9295   -1.2888    0.0000 C   0  0  0  0  0  0  0  0  0  0  0  0
    1.6527   -2.7631    0.0000 Cl  0  0  0  0  0  0  0  0  0  0  0  0
   -3.1775   -0.3302    0.0000 C   0  0  0  0  0  0  0  0  0  0  0  0
   -3.4542   -1.8044    0.0000 O   0  0  0  0  0  0  0  0  0  0  0  0
   -4.3158    0.6466    0.0000 O   0  0  0  0  0  0  0  0  0  0  0  0
  2  1  1  6
  2  3  1  0
  3  4  1  0
  4  5  2  0
  5  6  1  0
  5  7  1  0
  7  8  2  0
  8  9  1  0
  9 10  2  0
 10 11  1  0
  2 12  1  0
 12 13  2  0
 12 14  1  0
 10  4  1  0
M  END
>  <rName>  (1271) 
D-Phe_26diCl

>  <PQ_SYMBOL>  (1271) 
D-Phe_26diCl

>  <FULL_NAME>  (1271) 
(R)-2-Amino-3-(2,6-dichlorophenyl)propanoic acid

>  <IUPAC_CONDENSED>  (1271) 
D-Phe(2,6-diCl)

>  <IUPAC>  (1271) 
(2R)-2-amino-3-(2,6-dichlorophenyl)propanoic acid

>  <TYPE>  (1271) 
Backbone

>  <CLASS>  (1271) 
alpha

>  <ANALOG>  (1271) 
Phe

>  <MOL_WT>  (1271) 
234.082

>  <LOGP>  (1271) 
1.9478

>  <TPSA>  (1271) 
63.32000000000001

>  <POPULARITY>  (1271) 
2.2

>  <PROTECTED>  (1271) 
TRUE

>  <SMILES>  (1271) 
N[C@H](Cc1(c(Cl)cccc1Cl))C(=O)O

>  <INCHIKEY>  (1271) 
LWFYNRYRKMEIIJ-MRVPVSSYSA-N

$$$$
D-Phe_26diF
     RDKit          2D

 14 14  0  0  0  0  0  0  0  0999 V2000
   -1.4856    1.6416    0.0000 N   0  0  0  0  0  0  0  0  0  0  0  0
   -1.7624    0.1673    0.0000 C   0  0  0  0  0  0  0  0  0  0  0  0
   -0.6240   -0.8095    0.0000 C   0  0  0  0  0  0  0  0  0  0  0  0
    0.7911   -0.3120    0.0000 C   0  0  0  0  0  0  0  0  0  0  0  0
    1.0678    1.1622    0.0000 C   0  0  0  0  0  0  0  0  0  0  0  0
   -0.0705    2.1390    0.0000 F   0  0  0  0  0  0  0  0  0  0  0  0
    2.4830    1.6597    0.0000 C   0  0  0  0  0  0  0  0  0  0  0  0
    3.6213    0.6829    0.0000 C   0  0  0  0  0  0  0  0  0  0  0  0
    3.3446   -0.7913    0.0000 C   0  0  0  0  0  0  0  0  0  0  0  0
    1.9295   -1.2888    0.0000 C   0  0  0  0  0  0  0  0  0  0  0  0
    1.6527   -2.7631    0.0000 F   0  0  0  0  0  0  0  0  0  0  0  0
   -3.1775   -0.3302    0.0000 C   0  0  0  0  0  0  0  0  0  0  0  0
   -3.4542   -1.8044    0.0000 O   0  0  0  0  0  0  0  0  0  0  0  0
   -4.3158    0.6466    0.0000 O   0  0  0  0  0  0  0  0  0  0  0  0
  2  1  1  6
  2  3  1  0
  3  4  1  0
  4  5  2  0
  5  6  1  0
  5  7  1  0
  7  8  2  0
  8  9  1  0
  9 10  2  0
 10 11  1  0
  2 12  1  0
 12 13  2  0
 12 14  1  0
 10  4  1  0
M  END
>  <rName>  (1272) 
D-Phe_26diF

>  <PQ_SYMBOL>  (1272) 
D-Phe_26diF

>  <FULL_NAME>  (1272) 
2,6-Difluoro-D-Phenylalanine

>  <IUPAC_CONDENSED>  (1272) 
D-Phe(2,6-diF)

>  <IUPAC>  (1272) 
(2R)-2-amino-3-(2,6-difluorophenyl)propanoic acid

>  <TYPE>  (1272) 
Backbone

>  <CLASS>  (1272) 
alpha

>  <ANALOG>  (1272) 
Phe

>  <MOL_WT>  (1272) 
201.17199999999997

>  <LOGP>  (1272) 
0.9192

>  <TPSA>  (1272) 
63.32000000000001

>  <POPULARITY>  (1272) 
6.2

>  <PROTECTED>  (1272) 
TRUE

>  <SMILES>  (1272) 
N[C@H](Cc1(c(F)cccc1F))C(=O)O

>  <INCHIKEY>  (1272) 
RFOVYDPRGDZBLJ-MRVPVSSYSA-N

$$$$
D-Phe_2Br
     RDKit          2D

 13 13  0  0  0  0  0  0  0  0999 V2000
   -1.4864    1.8099    0.0000 N   0  0  0  0  0  0  0  0  0  0  0  0
   -1.7669    0.3364    0.0000 C   0  0  0  0  0  0  0  0  0  0  0  0
   -0.6311   -0.6433    0.0000 C   0  0  0  0  0  0  0  0  0  0  0  0
    0.7853   -0.1495    0.0000 C   0  0  0  0  0  0  0  0  0  0  0  0
    1.0658    1.3241    0.0000 C   0  0  0  0  0  0  0  0  0  0  0  0
    2.4822    1.8179    0.0000 C   0  0  0  0  0  0  0  0  0  0  0  0
    3.6181    0.8382    0.0000 C   0  0  0  0  0  0  0  0  0  0  0  0
    3.3376   -0.6353    0.0000 C   0  0  0  0  0  0  0  0  0  0  0  0
    1.9212   -1.1292    0.0000 C   0  0  0  0  0  0  0  0  0  0  0  0
    1.6407   -2.6027    0.0000 Br  0  0  0  0  0  0  0  0  0  0  0  0
   -3.1833   -0.1575    0.0000 C   0  0  0  0  0  0  0  0  0  0  0  0
   -3.4638   -1.6310    0.0000 O   0  0  0  0  0  0  0  0  0  0  0  0
   -4.3192    0.8222    0.0000 O   0  0  0  0  0  0  0  0  0  0  0  0
  2  1  1  6
  2  3  1  0
  3  4  1  0
  4  5  2  0
  5  6  1  0
  6  7  2  0
  7  8  1  0
  8  9  2  0
  9 10  1  0
  2 11  1  0
 11 12  2  0
 11 13  1  0
  9  4  1  0
M  END
>  <rName>  (1273) 
D-Phe_2Br

>  <PQ_SYMBOL>  (1273) 
D-Phe_2Br

>  <FULL_NAME>  (1273) 
(R)-2-amino-3-(2-bromophenyl)propanoic acid

>  <IUPAC_CONDENSED>  (1273) 
D-Phe(2-Br)

>  <IUPAC>  (1273) 
(2R)-2-amino-3-(2-bromophenyl)propanoic acid

>  <TYPE>  (1273) 
Backbone

>  <CLASS>  (1273) 
alpha

>  <ANALOG>  (1273) 
Phe

>  <MOL_WT>  (1273) 
244.08799999999997

>  <LOGP>  (1273) 
1.4035000000000002

>  <TPSA>  (1273) 
63.32000000000001

>  <POPULARITY>  (1273) 
6.9

>  <PROTECTED>  (1273) 
TRUE

>  <SMILES>  (1273) 
N[C@H](Cc1(ccccc1Br))C(=O)O

>  <INCHIKEY>  (1273) 
JFVLNTLXEZDFHW-MRVPVSSYSA-N

$$$$
D-Phe_2Br_5Cl
     RDKit          2D

 14 14  0  0  0  0  0  0  0  0999 V2000
   -1.4552    1.7882    0.0000 N   0  0  0  0  0  0  0  0  0  0  0  0
   -1.9325    0.3661    0.0000 C   0  0  0  0  0  0  0  0  0  0  0  0
   -0.9397   -0.7583    0.0000 C   0  0  0  0  0  0  0  0  0  0  0  0
    0.5305   -0.4606    0.0000 C   0  0  0  0  0  0  0  0  0  0  0  0
    1.0078    0.9614    0.0000 C   0  0  0  0  0  0  0  0  0  0  0  0
    2.4780    1.2591    0.0000 C   0  0  0  0  0  0  0  0  0  0  0  0
    2.9553    2.6811    0.0000 Cl  0  0  0  0  0  0  0  0  0  0  0  0
    3.4709    0.1347    0.0000 C   0  0  0  0  0  0  0  0  0  0  0  0
    2.9935   -1.2874    0.0000 C   0  0  0  0  0  0  0  0  0  0  0  0
    1.5234   -1.5850    0.0000 C   0  0  0  0  0  0  0  0  0  0  0  0
    1.0461   -3.0070    0.0000 Br  0  0  0  0  0  0  0  0  0  0  0  0
   -3.4027    0.0685    0.0000 C   0  0  0  0  0  0  0  0  0  0  0  0
   -3.8800   -1.3536    0.0000 O   0  0  0  0  0  0  0  0  0  0  0  0
   -4.3955    1.1929    0.0000 O   0  0  0  0  0  0  0  0  0  0  0  0
  2  1  1  6
  2  3  1  0
  3  4  1  0
  4  5  1  0
  5  6  2  0
  6  7  1  0
  6  8  1  0
  8  9  2  0
  9 10  1  0
 10 11  1  0
  2 12  1  0
 12 13  2  0
 12 14  1  0
 10  4  2  0
M  END
>  <rName>  (1274) 
D-Phe_2Br_5Cl

>  <PQ_SYMBOL>  (1274) 
D-Phe_2Br_5Cl

>  <FULL_NAME>  (1274) 
2-Bromo-5-chloro-D-phenylalanine

>  <IUPAC_CONDENSED>  (1274) 
D-Phe(2-Br,5-Cl)

>  <IUPAC>  (1274) 
(2R)-2-amino-3-(2-bromo-5-chlorophenyl)propanoic acid

>  <TYPE>  (1274) 
Backbone

>  <CLASS>  (1274) 
alpha

>  <ANALOG>  (1274) 
Phe

>  <MOL_WT>  (1274) 
278.533

>  <LOGP>  (1274) 
2.0568999999999997

>  <TPSA>  (1274) 
63.32000000000001

>  <POPULARITY>  (1274) 
2.2

>  <PROTECTED>  (1274) 
TRUE

>  <SMILES>  (1274) 
N[C@H](Cc1(cc(Cl)ccc1Br))C(=O)O

>  <INCHIKEY>  (1274) 
RYHYLIBAKNJBHR-MRVPVSSYSA-N

$$$$
D-Phe_2CF3
     RDKit          2D

 16 16  0  0  0  0  0  0  0  0999 V2000
   -2.2776    1.9185    0.0000 N   0  0  0  0  0  0  0  0  0  0  0  0
   -2.2125    0.4199    0.0000 C   0  0  0  0  0  0  0  0  0  0  0  0
   -0.8821   -0.2730    0.0000 C   0  0  0  0  0  0  0  0  0  0  0  0
    0.3832    0.5328    0.0000 C   0  0  0  0  0  0  0  0  0  0  0  0
    0.3180    2.0314    0.0000 C   0  0  0  0  0  0  0  0  0  0  0  0
    1.5832    2.8371    0.0000 C   0  0  0  0  0  0  0  0  0  0  0  0
    2.9136    2.1443    0.0000 C   0  0  0  0  0  0  0  0  0  0  0  0
    2.9788    0.6457    0.0000 C   0  0  0  0  0  0  0  0  0  0  0  0
    1.7136   -0.1601    0.0000 C   0  0  0  0  0  0  0  0  0  0  0  0
    1.7787   -1.6586    0.0000 C   0  0  0  0  0  0  0  0  0  0  0  0
    1.8439   -3.1572    0.0000 F   0  0  0  0  0  0  0  0  0  0  0  0
    3.2773   -1.5935    0.0000 F   0  0  0  0  0  0  0  0  0  0  0  0
    0.2802   -1.7238    0.0000 F   0  0  0  0  0  0  0  0  0  0  0  0
   -3.4777   -0.3859    0.0000 C   0  0  0  0  0  0  0  0  0  0  0  0
   -3.4125   -1.8845    0.0000 O   0  0  0  0  0  0  0  0  0  0  0  0
   -4.8081    0.3070    0.0000 O   0  0  0  0  0  0  0  0  0  0  0  0
  2  1  1  6
  2  3  1  0
  3  4  1  0
  4  5  2  0
  5  6  1  0
  6  7  2  0
  7  8  1  0
  8  9  2  0
  9 10  1  0
 10 11  1  0
 10 12  1  0
 10 13  1  0
  2 14  1  0
 14 15  2  0
 14 16  1  0
  9  4  1  0
M  END
>  <rName>  (1275) 
D-Phe_2CF3

>  <PQ_SYMBOL>  (1275) 
D-Phe_2CF3

>  <FULL_NAME>  (1275) 
2-(trifluoromethyl)-D-phenylalanine

>  <IUPAC_CONDENSED>  (1275) 
D-Phe(2-CF3)

>  <IUPAC>  (1275) 
(2R)-2-amino-3-(2-(trifluoromethyl)phenyl)propanoic acid

>  <TYPE>  (1275) 
Backbone

>  <CLASS>  (1275) 
alpha

>  <ANALOG>  (1275) 
Phe

>  <MOL_WT>  (1275) 
233.18899999999994

>  <LOGP>  (1275) 
1.6598000000000002

>  <TPSA>  (1275) 
63.32000000000001

>  <POPULARITY>  (1275) 
12.7

>  <PROTECTED>  (1275) 
TRUE

>  <SMILES>  (1275) 
N[C@H](Cc1(ccccc1C(F)(F)F))C(=O)O

>  <INCHIKEY>  (1275) 
IOABLDGLYOGEHY-MRVPVSSYSA-N

$$$$
D-Phe_2CN
     RDKit          2D

 14 14  0  0  0  0  0  0  0  0999 V2000
   -1.7887    1.9295    0.0000 N   0  0  0  0  0  0  0  0  0  0  0  0
   -1.9182    0.4351    0.0000 C   0  0  0  0  0  0  0  0  0  0  0  0
   -0.6887   -0.4243    0.0000 C   0  0  0  0  0  0  0  0  0  0  0  0
    0.6702    0.2108    0.0000 C   0  0  0  0  0  0  0  0  0  0  0  0
    0.7997    1.7052    0.0000 C   0  0  0  0  0  0  0  0  0  0  0  0
    2.1586    2.3403    0.0000 C   0  0  0  0  0  0  0  0  0  0  0  0
    3.3881    1.4809    0.0000 C   0  0  0  0  0  0  0  0  0  0  0  0
    3.2586   -0.0135    0.0000 C   0  0  0  0  0  0  0  0  0  0  0  0
    1.8997   -0.6485    0.0000 C   0  0  0  0  0  0  0  0  0  0  0  0
    1.7702   -2.1429    0.0000 C   0  0  0  0  0  0  0  0  0  0  0  0
    1.6407   -3.6373    0.0000 N   0  0  0  0  0  0  0  0  0  0  0  0
   -3.2771   -0.2000    0.0000 C   0  0  0  0  0  0  0  0  0  0  0  0
   -3.4066   -1.6944    0.0000 O   0  0  0  0  0  0  0  0  0  0  0  0
   -4.5065    0.6593    0.0000 O   0  0  0  0  0  0  0  0  0  0  0  0
  2  1  1  6
  2  3  1  0
  3  4  1  0
  4  5  2  0
  5  6  1  0
  6  7  2  0
  7  8  1  0
  8  9  2  0
  9 10  1  0
 10 11  3  0
  2 12  1  0
 12 13  2  0
 12 14  1  0
  9  4  1  0
M  END
>  <rName>  (1276) 
D-Phe_2CN

>  <PQ_SYMBOL>  (1276) 
D-Phe_2CN

>  <FULL_NAME>  (1276) 
2-Cyano-D-Phenylalanine

>  <IUPAC_CONDENSED>  (1276) 
D-Phe(2-CN)

>  <IUPAC>  (1276) 
(2R)-2-amino-3-(2-(nitrilomethyl)phenyl)propanoic acid

>  <TYPE>  (1276) 
Backbone

>  <CLASS>  (1276) 
alpha

>  <ANALOG>  (1276) 
Phe

>  <MOL_WT>  (1276) 
190.20199999999997

>  <LOGP>  (1276) 
0.5126799999999998

>  <TPSA>  (1276) 
87.11

>  <POPULARITY>  (1276) 
8.2

>  <PROTECTED>  (1276) 
TRUE

>  <SMILES>  (1276) 
N[C@H](Cc1(ccccc1C#N))C(=O)O

>  <INCHIKEY>  (1276) 
OCDHPLVCNWBKJN-SECBINFHSA-N

$$$$
D-Phe_2CONH2
     RDKit          2D

 15 15  0  0  0  0  0  0  0  0999 V2000
   -2.0511    1.9295    0.0000 N   0  0  0  0  0  0  0  0  0  0  0  0
   -2.0725    0.4296    0.0000 C   0  0  0  0  0  0  0  0  0  0  0  0
   -0.7843   -0.3388    0.0000 C   0  0  0  0  0  0  0  0  0  0  0  0
    0.5253    0.3925    0.0000 C   0  0  0  0  0  0  0  0  0  0  0  0
    0.5467    1.8924    0.0000 C   0  0  0  0  0  0  0  0  0  0  0  0
    1.8563    2.6238    0.0000 C   0  0  0  0  0  0  0  0  0  0  0  0
    3.1445    1.8553    0.0000 C   0  0  0  0  0  0  0  0  0  0  0  0
    3.1231    0.3555    0.0000 C   0  0  0  0  0  0  0  0  0  0  0  0
    1.8135   -0.3759    0.0000 C   0  0  0  0  0  0  0  0  0  0  0  0
    1.7921   -1.8758    0.0000 C   0  0  0  0  0  0  0  0  0  0  0  0
    0.4825   -2.6072    0.0000 O   0  0  0  0  0  0  0  0  0  0  0  0
    3.0803   -2.6442    0.0000 N   0  0  0  0  0  0  0  0  0  0  0  0
   -3.3821   -0.3018    0.0000 C   0  0  0  0  0  0  0  0  0  0  0  0
   -3.4036   -1.8016    0.0000 O   0  0  0  0  0  0  0  0  0  0  0  0
   -4.6704    0.4667    0.0000 O   0  0  0  0  0  0  0  0  0  0  0  0
  2  1  1  6
  2  3  1  0
  3  4  1  0
  4  5  2  0
  5  6  1  0
  6  7  2  0
  7  8  1  0
  8  9  2  0
  9 10  1  0
 10 11  2  0
 10 12  1  0
  2 13  1  0
 13 14  2  0
 13 15  1  0
  9  4  1  0
M  END
>  <rName>  (1277) 
D-Phe_2CONH2

>  <PQ_SYMBOL>  (1277) 
D-Phe_2CONH2

>  <FULL_NAME>  (1277) 
(R)-2-amino-3-(2-carbamoylphenyl)propanoic acid

>  <IUPAC_CONDENSED>  (1277) 
D-Phe(2-CONH2)

>  <IUPAC>  (1277) 
(2R)-2-amino-3-(2-carbamoylphenyl)propanoic acid

>  <TYPE>  (1277) 
Backbone

>  <CLASS>  (1277) 
alpha

>  <ANALOG>  (1277) 
Phe

>  <MOL_WT>  (1277) 
208.21699999999996

>  <LOGP>  (1277) 
-0.2601000000000003

>  <TPSA>  (1277) 
106.41000000000001

>  <POPULARITY>  (1277) 
5.0

>  <PROTECTED>  (1277) 
TRUE

>  <SMILES>  (1277) 
N[C@H](Cc1(ccccc1C(=O)N))C(=O)O

>  <INCHIKEY>  (1277) 
QDQWGGPXZQIUPR-MRVPVSSYSA-N

$$$$
D-Phe_2Cl
     RDKit          2D

 13 13  0  0  0  0  0  0  0  0999 V2000
   -1.4864    1.8099    0.0000 N   0  0  0  0  0  0  0  0  0  0  0  0
   -1.7669    0.3364    0.0000 C   0  0  0  0  0  0  0  0  0  0  0  0
   -0.6311   -0.6433    0.0000 C   0  0  0  0  0  0  0  0  0  0  0  0
    0.7853   -0.1495    0.0000 C   0  0  0  0  0  0  0  0  0  0  0  0
    1.0658    1.3241    0.0000 C   0  0  0  0  0  0  0  0  0  0  0  0
    2.4822    1.8179    0.0000 C   0  0  0  0  0  0  0  0  0  0  0  0
    3.6181    0.8382    0.0000 C   0  0  0  0  0  0  0  0  0  0  0  0
    3.3376   -0.6353    0.0000 C   0  0  0  0  0  0  0  0  0  0  0  0
    1.9212   -1.1292    0.0000 C   0  0  0  0  0  0  0  0  0  0  0  0
    1.6407   -2.6027    0.0000 Cl  0  0  0  0  0  0  0  0  0  0  0  0
   -3.1833   -0.1575    0.0000 C   0  0  0  0  0  0  0  0  0  0  0  0
   -3.4638   -1.6310    0.0000 O   0  0  0  0  0  0  0  0  0  0  0  0
   -4.3192    0.8222    0.0000 O   0  0  0  0  0  0  0  0  0  0  0  0
  2  1  1  6
  2  3  1  0
  3  4  1  0
  4  5  2  0
  5  6  1  0
  6  7  2  0
  7  8  1  0
  8  9  2  0
  9 10  1  0
  2 11  1  0
 11 12  2  0
 11 13  1  0
  9  4  1  0
M  END
>  <rName>  (1278) 
D-Phe_2Cl

>  <PQ_SYMBOL>  (1278) 
D-Phe_2Cl

>  <FULL_NAME>  (1278) 
2-chloro-D-phenylalanine

>  <IUPAC_CONDENSED>  (1278) 
D-Phe(2-Cl)

>  <IUPAC>  (1278) 
(2R)-2-amino-3-(2-chlorophenyl)propanoic acid

>  <TYPE>  (1278) 
Backbone

>  <CLASS>  (1278) 
alpha

>  <ANALOG>  (1278) 
Phe

>  <MOL_WT>  (1278) 
199.63699999999994

>  <LOGP>  (1278) 
1.2944000000000002

>  <TPSA>  (1278) 
63.32000000000001

>  <POPULARITY>  (1278) 
18.0

>  <PROTECTED>  (1278) 
TRUE

>  <SMILES>  (1278) 
N[C@H](Cc1(ccccc1Cl))C(=O)O

>  <INCHIKEY>  (1278) 
CVZZNRXMDCOHBG-MRVPVSSYSA-N

$$$$
D-Phe_2Cl_4F
     RDKit          2D

 14 14  0  0  0  0  0  0  0  0999 V2000
   -1.7174    1.8436    0.0000 N   0  0  0  0  0  0  0  0  0  0  0  0
   -2.1036    0.3942    0.0000 C   0  0  0  0  0  0  0  0  0  0  0  0
   -1.0414   -0.6650    0.0000 C   0  0  0  0  0  0  0  0  0  0  0  0
    0.4069   -0.2747    0.0000 C   0  0  0  0  0  0  0  0  0  0  0  0
    0.7931    1.1747    0.0000 C   0  0  0  0  0  0  0  0  0  0  0  0
    2.2415    1.5649    0.0000 C   0  0  0  0  0  0  0  0  0  0  0  0
    3.3036    0.5057    0.0000 C   0  0  0  0  0  0  0  0  0  0  0  0
    4.7520    0.8960    0.0000 F   0  0  0  0  0  0  0  0  0  0  0  0
    2.9174   -0.9437    0.0000 C   0  0  0  0  0  0  0  0  0  0  0  0
    1.4691   -1.3339    0.0000 C   0  0  0  0  0  0  0  0  0  0  0  0
    1.0829   -2.7834    0.0000 Cl  0  0  0  0  0  0  0  0  0  0  0  0
   -3.5519    0.0039    0.0000 C   0  0  0  0  0  0  0  0  0  0  0  0
   -3.9381   -1.4455    0.0000 O   0  0  0  0  0  0  0  0  0  0  0  0
   -4.6140    1.0631    0.0000 O   0  0  0  0  0  0  0  0  0  0  0  0
  2  1  1  6
  2  3  1  0
  3  4  1  0
  4  5  1  0
  5  6  2  0
  6  7  1  0
  7  8  1  0
  7  9  2  0
  9 10  1  0
 10 11  1  0
  2 12  1  0
 12 13  2  0
 12 14  1  0
 10  4  2  0
M  END
>  <rName>  (1279) 
D-Phe_2Cl_4F

>  <PQ_SYMBOL>  (1279) 
D-Phe_2Cl_4F

>  <FULL_NAME>  (1279) 
2-Chloro-4-Fluoro-D-Phenylalanine

>  <IUPAC_CONDENSED>  (1279) 
D-Phe(2-Cl,4-F)

>  <IUPAC>  (1279) 
(2R)-2-amino-3-(2-chloro-4-fluorophenyl)propanoic acid

>  <TYPE>  (1279) 
Backbone

>  <CLASS>  (1279) 
alpha

>  <ANALOG>  (1279) 
Phe

>  <MOL_WT>  (1279) 
217.62699999999998

>  <LOGP>  (1279) 
1.4335000000000002

>  <TPSA>  (1279) 
63.32000000000001

>  <POPULARITY>  (1279) 
5.2

>  <PROTECTED>  (1279) 
TRUE

>  <SMILES>  (1279) 
N[C@H](Cc1(ccc(F)cc1Cl))C(=O)O

>  <INCHIKEY>  (1279) 
BCUFAMXOPAUSIP-MRVPVSSYSA-N

$$$$
D-Phe_2Cl_5Br
     RDKit          2D

 14 14  0  0  0  0  0  0  0  0999 V2000
   -1.4552    1.7882    0.0000 N   0  0  0  0  0  0  0  0  0  0  0  0
   -1.9325    0.3661    0.0000 C   0  0  0  0  0  0  0  0  0  0  0  0
   -0.9397   -0.7583    0.0000 C   0  0  0  0  0  0  0  0  0  0  0  0
    0.5305   -0.4606    0.0000 C   0  0  0  0  0  0  0  0  0  0  0  0
    1.0078    0.9614    0.0000 C   0  0  0  0  0  0  0  0  0  0  0  0
    2.4780    1.2591    0.0000 C   0  0  0  0  0  0  0  0  0  0  0  0
    2.9553    2.6811    0.0000 Br  0  0  0  0  0  0  0  0  0  0  0  0
    3.4709    0.1347    0.0000 C   0  0  0  0  0  0  0  0  0  0  0  0
    2.9935   -1.2874    0.0000 C   0  0  0  0  0  0  0  0  0  0  0  0
    1.5234   -1.5850    0.0000 C   0  0  0  0  0  0  0  0  0  0  0  0
    1.0461   -3.0070    0.0000 Cl  0  0  0  0  0  0  0  0  0  0  0  0
   -3.4027    0.0685    0.0000 C   0  0  0  0  0  0  0  0  0  0  0  0
   -3.8800   -1.3536    0.0000 O   0  0  0  0  0  0  0  0  0  0  0  0
   -4.3955    1.1929    0.0000 O   0  0  0  0  0  0  0  0  0  0  0  0
  2  1  1  6
  2  3  1  0
  3  4  1  0
  4  5  1  0
  5  6  2  0
  6  7  1  0
  6  8  1  0
  8  9  2  0
  9 10  1  0
 10 11  1  0
  2 12  1  0
 12 13  2  0
 12 14  1  0
 10  4  2  0
M  END
>  <rName>  (1280) 
D-Phe_2Cl_5Br

>  <PQ_SYMBOL>  (1280) 
D-Phe_2Cl_5Br

>  <FULL_NAME>  (1280) 
(R)-2-amino-3-(5-bromo-2-chlorophenyl)propanoic acid

>  <IUPAC_CONDENSED>  (1280) 
D-Phe(2-Cl,5-Br)

>  <IUPAC>  (1280) 
(2R)-2-amino-3-(5-bromo-2-chlorophenyl)propanoic acid

>  <TYPE>  (1280) 
Backbone

>  <CLASS>  (1280) 
alpha

>  <ANALOG>  (1280) 
Phe

>  <MOL_WT>  (1280) 
278.533

>  <LOGP>  (1280) 
2.0569

>  <TPSA>  (1280) 
63.32000000000001

>  <POPULARITY>  (1280) 
4.2

>  <PROTECTED>  (1280) 
TRUE

>  <SMILES>  (1280) 
N[C@H](Cc1(cc(Br)ccc1Cl))C(=O)O

>  <INCHIKEY>  (1280) 
WHUPPRGZWKRSEB-MRVPVSSYSA-N

$$$$
D-Phe_2F
     RDKit          2D

 13 13  0  0  0  0  0  0  0  0999 V2000
   -1.4864    1.8099    0.0000 N   0  0  0  0  0  0  0  0  0  0  0  0
   -1.7669    0.3364    0.0000 C   0  0  0  0  0  0  0  0  0  0  0  0
   -0.6311   -0.6433    0.0000 C   0  0  0  0  0  0  0  0  0  0  0  0
    0.7853   -0.1495    0.0000 C   0  0  0  0  0  0  0  0  0  0  0  0
    1.0658    1.3241    0.0000 C   0  0  0  0  0  0  0  0  0  0  0  0
    2.4822    1.8179    0.0000 C   0  0  0  0  0  0  0  0  0  0  0  0
    3.6181    0.8382    0.0000 C   0  0  0  0  0  0  0  0  0  0  0  0
    3.3376   -0.6353    0.0000 C   0  0  0  0  0  0  0  0  0  0  0  0
    1.9212   -1.1292    0.0000 C   0  0  0  0  0  0  0  0  0  0  0  0
    1.6407   -2.6027    0.0000 F   0  0  0  0  0  0  0  0  0  0  0  0
   -3.1833   -0.1575    0.0000 C   0  0  0  0  0  0  0  0  0  0  0  0
   -3.4638   -1.6310    0.0000 O   0  0  0  0  0  0  0  0  0  0  0  0
   -4.3192    0.8222    0.0000 O   0  0  0  0  0  0  0  0  0  0  0  0
  2  1  1  6
  2  3  1  0
  3  4  1  0
  4  5  2  0
  5  6  1  0
  6  7  2  0
  7  8  1  0
  8  9  2  0
  9 10  1  0
  2 11  1  0
 11 12  2  0
 11 13  1  0
  9  4  1  0
M  END
>  <rName>  (1281) 
D-Phe_2F

>  <PQ_SYMBOL>  (1281) 
D-Phe_2F

>  <FULL_NAME>  (1281) 
2-fluoro-D-phenylalanine

>  <IUPAC_CONDENSED>  (1281) 
D-Phe(2-F)

>  <IUPAC>  (1281) 
(2R)-2-amino-3-(2-fluorophenyl)propanoic acid

>  <TYPE>  (1281) 
Backbone

>  <CLASS>  (1281) 
alpha

>  <ANALOG>  (1281) 
Phe

>  <MOL_WT>  (1281) 
183.18199999999996

>  <LOGP>  (1281) 
0.7801000000000002

>  <TPSA>  (1281) 
63.32000000000001

>  <POPULARITY>  (1281) 
18.6

>  <PROTECTED>  (1281) 
TRUE

>  <SMILES>  (1281) 
N[C@H](Cc1(ccccc1F))C(=O)O

>  <INCHIKEY>  (1281) 
NYCRCTMDYITATC-MRVPVSSYSA-N

$$$$
D-Phe_2F_3Br
     RDKit          2D

 14 14  0  0  0  0  0  0  0  0999 V2000
   -1.9599    1.7683    0.0000 N   0  0  0  0  0  0  0  0  0  0  0  0
   -2.1168    0.2766    0.0000 C   0  0  0  0  0  0  0  0  0  0  0  0
   -0.9034   -0.6052    0.0000 C   0  0  0  0  0  0  0  0  0  0  0  0
    0.4670    0.0047    0.0000 C   0  0  0  0  0  0  0  0  0  0  0  0
    0.6239    1.4965    0.0000 C   0  0  0  0  0  0  0  0  0  0  0  0
    1.9943    2.1065    0.0000 C   0  0  0  0  0  0  0  0  0  0  0  0
    3.2078    1.2247    0.0000 C   0  0  0  0  0  0  0  0  0  0  0  0
    3.0508   -0.2671    0.0000 C   0  0  0  0  0  0  0  0  0  0  0  0
    4.2643   -1.1489    0.0000 Br  0  0  0  0  0  0  0  0  0  0  0  0
    1.6804   -0.8771    0.0000 C   0  0  0  0  0  0  0  0  0  0  0  0
    1.5235   -2.3688    0.0000 F   0  0  0  0  0  0  0  0  0  0  0  0
   -3.4872   -0.3334    0.0000 C   0  0  0  0  0  0  0  0  0  0  0  0
   -3.6441   -1.8252    0.0000 O   0  0  0  0  0  0  0  0  0  0  0  0
   -4.7006    0.5484    0.0000 O   0  0  0  0  0  0  0  0  0  0  0  0
  2  1  1  6
  2  3  1  0
  3  4  1  0
  4  5  2  0
  5  6  1  0
  6  7  2  0
  7  8  1  0
  8  9  1  0
  8 10  2  0
 10 11  1  0
  2 12  1  0
 12 13  2  0
 12 14  1  0
 10  4  1  0
M  END
>  <rName>  (1282) 
D-Phe_2F_3Br

>  <PQ_SYMBOL>  (1282) 
D-Phe_2F_3Br

>  <FULL_NAME>  (1282) 
3-Bromo-2-fluoro-D-phenylalanine

>  <IUPAC_CONDENSED>  (1282) 
D-Phe(2-F,3-Br)

>  <IUPAC>  (1282) 
(2R)-2-amino-3-(3-bromo-2-fluorophenyl)propanoic acid

>  <TYPE>  (1282) 
Backbone

>  <CLASS>  (1282) 
alpha

>  <ANALOG>  (1282) 
Phe

>  <MOL_WT>  (1282) 
262.0779999999999

>  <LOGP>  (1282) 
1.5426000000000002

>  <TPSA>  (1282) 
63.32000000000001

>  <POPULARITY>  (1282) 
2.2

>  <PROTECTED>  (1282) 
TRUE

>  <SMILES>  (1282) 
N[C@H](Cc1(cccc(Br)c1F))C(=O)O

>  <INCHIKEY>  (1282) 
NCVNNIXBBJHQSW-SSDOTTSWSA-N

$$$$
D-Phe_2F_3Cl
     RDKit          2D

 14 14  0  0  0  0  0  0  0  0999 V2000
   -1.9599    1.7683    0.0000 N   0  0  0  0  0  0  0  0  0  0  0  0
   -2.1168    0.2766    0.0000 C   0  0  0  0  0  0  0  0  0  0  0  0
   -0.9034   -0.6052    0.0000 C   0  0  0  0  0  0  0  0  0  0  0  0
    0.4670    0.0047    0.0000 C   0  0  0  0  0  0  0  0  0  0  0  0
    0.6239    1.4965    0.0000 C   0  0  0  0  0  0  0  0  0  0  0  0
    1.9943    2.1065    0.0000 C   0  0  0  0  0  0  0  0  0  0  0  0
    3.2078    1.2247    0.0000 C   0  0  0  0  0  0  0  0  0  0  0  0
    3.0508   -0.2671    0.0000 C   0  0  0  0  0  0  0  0  0  0  0  0
    4.2643   -1.1489    0.0000 Cl  0  0  0  0  0  0  0  0  0  0  0  0
    1.6804   -0.8771    0.0000 C   0  0  0  0  0  0  0  0  0  0  0  0
    1.5235   -2.3688    0.0000 F   0  0  0  0  0  0  0  0  0  0  0  0
   -3.4872   -0.3334    0.0000 C   0  0  0  0  0  0  0  0  0  0  0  0
   -3.6441   -1.8252    0.0000 O   0  0  0  0  0  0  0  0  0  0  0  0
   -4.7006    0.5484    0.0000 O   0  0  0  0  0  0  0  0  0  0  0  0
  2  1  1  6
  2  3  1  0
  3  4  1  0
  4  5  2  0
  5  6  1  0
  6  7  2  0
  7  8  1  0
  8  9  1  0
  8 10  2  0
 10 11  1  0
  2 12  1  0
 12 13  2  0
 12 14  1  0
 10  4  1  0
M  END
>  <rName>  (1283) 
D-Phe_2F_3Cl

>  <PQ_SYMBOL>  (1283) 
D-Phe_2F_3Cl

>  <FULL_NAME>  (1283) 
(R)-2-Amino-3-(3-chloro-2-fluorophenyl)propanoic acid

>  <IUPAC_CONDENSED>  (1283) 
D-Phe(2-F,3-Cl)

>  <IUPAC>  (1283) 
(2R)-2-amino-3-(3-chloro-2-fluorophenyl)propanoic acid

>  <TYPE>  (1283) 
Backbone

>  <CLASS>  (1283) 
alpha

>  <ANALOG>  (1283) 
Phe

>  <MOL_WT>  (1283) 
217.62699999999995

>  <LOGP>  (1283) 
1.4335000000000002

>  <TPSA>  (1283) 
63.32000000000001

>  <POPULARITY>  (1283) 
10.4

>  <PROTECTED>  (1283) 
TRUE

>  <SMILES>  (1283) 
N[C@H](Cc1(cccc(Cl)c1F))C(=O)O

>  <INCHIKEY>  (1283) 
LSZBXQYJHCORIE-SSDOTTSWSA-N

$$$$
D-Phe_2F_3Me
     RDKit          2D

 14 14  0  0  0  0  0  0  0  0999 V2000
   -1.9599    1.7683    0.0000 N   0  0  0  0  0  0  0  0  0  0  0  0
   -2.1168    0.2766    0.0000 C   0  0  0  0  0  0  0  0  0  0  0  0
   -0.9034   -0.6052    0.0000 C   0  0  0  0  0  0  0  0  0  0  0  0
    0.4670    0.0047    0.0000 C   0  0  0  0  0  0  0  0  0  0  0  0
    0.6239    1.4965    0.0000 C   0  0  0  0  0  0  0  0  0  0  0  0
    1.9943    2.1065    0.0000 C   0  0  0  0  0  0  0  0  0  0  0  0
    3.2078    1.2247    0.0000 C   0  0  0  0  0  0  0  0  0  0  0  0
    3.0508   -0.2671    0.0000 C   0  0  0  0  0  0  0  0  0  0  0  0
    4.2643   -1.1489    0.0000 C   0  0  0  0  0  0  0  0  0  0  0  0
    1.6804   -0.8771    0.0000 C   0  0  0  0  0  0  0  0  0  0  0  0
    1.5235   -2.3688    0.0000 F   0  0  0  0  0  0  0  0  0  0  0  0
   -3.4872   -0.3334    0.0000 C   0  0  0  0  0  0  0  0  0  0  0  0
   -3.6441   -1.8252    0.0000 O   0  0  0  0  0  0  0  0  0  0  0  0
   -4.7006    0.5484    0.0000 O   0  0  0  0  0  0  0  0  0  0  0  0
  2  1  1  6
  2  3  1  0
  3  4  1  0
  4  5  2  0
  5  6  1  0
  6  7  2  0
  7  8  1  0
  8  9  1  0
  8 10  2  0
 10 11  1  0
  2 12  1  0
 12 13  2  0
 12 14  1  0
 10  4  1  0
M  END
>  <rName>  (1284) 
D-Phe_2F_3Me

>  <PQ_SYMBOL>  (1284) 
D-Phe_2F_3Me

>  <FULL_NAME>  (1284) 
2-Fluoro-3-methyl-D-phenylalanine

>  <IUPAC_CONDENSED>  (1284) 
D-Phe(2-F,3-Me)

>  <IUPAC>  (1284) 
(2R)-2-amino-3-(2-fluoro-3-methylphenyl)propanoic acid

>  <TYPE>  (1284) 
Backbone

>  <CLASS>  (1284) 
alpha

>  <ANALOG>  (1284) 
Phe

>  <MOL_WT>  (1284) 
197.20899999999995

>  <LOGP>  (1284) 
1.0885200000000002

>  <TPSA>  (1284) 
63.32000000000001

>  <POPULARITY>  (1284) 
2.2

>  <PROTECTED>  (1284) 
TRUE

>  <SMILES>  (1284) 
N[C@H](Cc1(cccc(C)c1F))C(=O)O

>  <INCHIKEY>  (1284) 
JNSVFBLXKMOJKT-MRVPVSSYSA-N

$$$$
D-Phe_2F_4Br
     RDKit          2D

 14 14  0  0  0  0  0  0  0  0999 V2000
   -1.7174    1.8436    0.0000 N   0  0  0  0  0  0  0  0  0  0  0  0
   -2.1036    0.3942    0.0000 C   0  0  0  0  0  0  0  0  0  0  0  0
   -1.0414   -0.6650    0.0000 C   0  0  0  0  0  0  0  0  0  0  0  0
    0.4069   -0.2747    0.0000 C   0  0  0  0  0  0  0  0  0  0  0  0
    0.7931    1.1747    0.0000 C   0  0  0  0  0  0  0  0  0  0  0  0
    2.2415    1.5649    0.0000 C   0  0  0  0  0  0  0  0  0  0  0  0
    3.3036    0.5057    0.0000 C   0  0  0  0  0  0  0  0  0  0  0  0
    4.7520    0.8960    0.0000 Br  0  0  0  0  0  0  0  0  0  0  0  0
    2.9174   -0.9437    0.0000 C   0  0  0  0  0  0  0  0  0  0  0  0
    1.4691   -1.3339    0.0000 C   0  0  0  0  0  0  0  0  0  0  0  0
    1.0829   -2.7834    0.0000 F   0  0  0  0  0  0  0  0  0  0  0  0
   -3.5519    0.0039    0.0000 C   0  0  0  0  0  0  0  0  0  0  0  0
   -3.9381   -1.4455    0.0000 O   0  0  0  0  0  0  0  0  0  0  0  0
   -4.6140    1.0631    0.0000 O   0  0  0  0  0  0  0  0  0  0  0  0
  2  1  1  6
  2  3  1  0
  3  4  1  0
  4  5  1  0
  5  6  2  0
  6  7  1  0
  7  8  1  0
  7  9  2  0
  9 10  1  0
 10 11  1  0
  2 12  1  0
 12 13  2  0
 12 14  1  0
 10  4  2  0
M  END
>  <rName>  (1285) 
D-Phe_2F_4Br

>  <PQ_SYMBOL>  (1285) 
D-Phe_2F_4Br

>  <FULL_NAME>  (1285) 
(2R)-2-amino-3-(4-bromo-2-fluorophenyl)propanoic acid

>  <IUPAC_CONDENSED>  (1285) 
D-Phe(2-F,4-Br)

>  <IUPAC>  (1285) 
(2R)-2-amino-3-(4-bromo-2-fluorophenyl)propanoic acid

>  <TYPE>  (1285) 
Backbone

>  <CLASS>  (1285) 
alpha

>  <ANALOG>  (1285) 
Phe

>  <MOL_WT>  (1285) 
262.0779999999999

>  <LOGP>  (1285) 
1.5426000000000002

>  <TPSA>  (1285) 
63.32000000000001

>  <POPULARITY>  (1285) 
3.0

>  <PROTECTED>  (1285) 
TRUE

>  <SMILES>  (1285) 
N[C@H](Cc1(ccc(Br)cc1F))C(=O)O

>  <INCHIKEY>  (1285) 
MQJFVIRBPSXVRP-MRVPVSSYSA-N

$$$$
D-Phe_2F_4CF3
     RDKit          2D

 17 17  0  0  0  0  0  0  0  0999 V2000
   -2.4937    1.8764    0.0000 N   0  0  0  0  0  0  0  0  0  0  0  0
   -2.9991    0.4641    0.0000 C   0  0  0  0  0  0  0  0  0  0  0  0
   -2.0288   -0.6797    0.0000 C   0  0  0  0  0  0  0  0  0  0  0  0
   -0.5530   -0.4113    0.0000 C   0  0  0  0  0  0  0  0  0  0  0  0
   -0.0476    1.0010    0.0000 C   0  0  0  0  0  0  0  0  0  0  0  0
    1.4282    1.2695    0.0000 C   0  0  0  0  0  0  0  0  0  0  0  0
    2.3986    0.1256    0.0000 C   0  0  0  0  0  0  0  0  0  0  0  0
    1.8932   -1.2867    0.0000 C   0  0  0  0  0  0  0  0  0  0  0  0
    0.4174   -1.5551    0.0000 C   0  0  0  0  0  0  0  0  0  0  0  0
   -0.0880   -2.9674    0.0000 F   0  0  0  0  0  0  0  0  0  0  0  0
    3.8744    0.3941    0.0000 C   0  0  0  0  0  0  0  0  0  0  0  0
    5.3502    0.6625    0.0000 F   0  0  0  0  0  0  0  0  0  0  0  0
    4.1428   -1.0817    0.0000 F   0  0  0  0  0  0  0  0  0  0  0  0
    3.6059    1.8699    0.0000 F   0  0  0  0  0  0  0  0  0  0  0  0
   -4.4749    0.1957    0.0000 C   0  0  0  0  0  0  0  0  0  0  0  0
   -4.9803   -1.2166    0.0000 O   0  0  0  0  0  0  0  0  0  0  0  0
   -5.4453    1.3395    0.0000 O   0  0  0  0  0  0  0  0  0  0  0  0
  2  1  1  6
  2  3  1  0
  3  4  1  0
  4  5  1  0
  5  6  2  0
  6  7  1  0
  7  8  2  0
  8  9  1  0
  9 10  1  0
  7 11  1  0
 11 12  1  0
 11 13  1  0
 11 14  1  0
  2 15  1  0
 15 16  2  0
 15 17  1  0
  9  4  2  0
M  END
>  <rName>  (1286) 
D-Phe_2F_4CF3

>  <PQ_SYMBOL>  (1286) 
D-Phe_2F_4CF3

>  <FULL_NAME>  (1286) 
2-Fluoro-4-trifluoromethyl-D-phenylalanine

>  <IUPAC_CONDENSED>  (1286) 
D-Phe(2-F,4-CF3)

>  <IUPAC>  (1286) 
(2R)-2-amino-3-[2-fluoro-4-(trifluoromethyl)phenyl]propanoic acid

>  <TYPE>  (1286) 
Backbone

>  <CLASS>  (1286) 
alpha

>  <ANALOG>  (1286) 
Phe

>  <MOL_WT>  (1286) 
251.17899999999992

>  <LOGP>  (1286) 
1.7989000000000002

>  <TPSA>  (1286) 
63.32000000000001

>  <POPULARITY>  (1286) 
2.2

>  <PROTECTED>  (1286) 
TRUE

>  <SMILES>  (1286) 
N[C@H](Cc1(ccc(cc1F)C(F)(F)F))C(=O)O

>  <INCHIKEY>  (1286) 
OMTZLRBOGCVOEM-MRVPVSSYSA-N

$$$$
D-Phe_2F_4Cl
     RDKit          2D

 14 14  0  0  0  0  0  0  0  0999 V2000
   -1.7174    1.8436    0.0000 N   0  0  0  0  0  0  0  0  0  0  0  0
   -2.1036    0.3942    0.0000 C   0  0  0  0  0  0  0  0  0  0  0  0
   -1.0414   -0.6650    0.0000 C   0  0  0  0  0  0  0  0  0  0  0  0
    0.4069   -0.2747    0.0000 C   0  0  0  0  0  0  0  0  0  0  0  0
    0.7931    1.1747    0.0000 C   0  0  0  0  0  0  0  0  0  0  0  0
    2.2415    1.5649    0.0000 C   0  0  0  0  0  0  0  0  0  0  0  0
    3.3036    0.5057    0.0000 C   0  0  0  0  0  0  0  0  0  0  0  0
    4.7520    0.8960    0.0000 Cl  0  0  0  0  0  0  0  0  0  0  0  0
    2.9174   -0.9437    0.0000 C   0  0  0  0  0  0  0  0  0  0  0  0
    1.4691   -1.3339    0.0000 C   0  0  0  0  0  0  0  0  0  0  0  0
    1.0829   -2.7834    0.0000 F   0  0  0  0  0  0  0  0  0  0  0  0
   -3.5519    0.0039    0.0000 C   0  0  0  0  0  0  0  0  0  0  0  0
   -3.9381   -1.4455    0.0000 O   0  0  0  0  0  0  0  0  0  0  0  0
   -4.6140    1.0631    0.0000 O   0  0  0  0  0  0  0  0  0  0  0  0
  2  1  1  6
  2  3  1  0
  3  4  1  0
  4  5  1  0
  5  6  2  0
  6  7  1  0
  7  8  1  0
  7  9  2  0
  9 10  1  0
 10 11  1  0
  2 12  1  0
 12 13  2  0
 12 14  1  0
 10  4  2  0
M  END
>  <rName>  (1287) 
D-Phe_2F_4Cl

>  <PQ_SYMBOL>  (1287) 
D-Phe_2F_4Cl

>  <FULL_NAME>  (1287) 
2-Fluoro-4-Chloro-D-Phenylalanine

>  <IUPAC_CONDENSED>  (1287) 
D-Phe(2-F,4-Cl)

>  <IUPAC>  (1287) 
(2R)-2-amino-3-(4-chloro-2-fluorophenyl)propanoic acid

>  <TYPE>  (1287) 
Backbone

>  <CLASS>  (1287) 
alpha

>  <ANALOG>  (1287) 
Phe

>  <MOL_WT>  (1287) 
217.62699999999998

>  <LOGP>  (1287) 
1.4335000000000002

>  <TPSA>  (1287) 
63.32000000000001

>  <POPULARITY>  (1287) 
4.3

>  <PROTECTED>  (1287) 
TRUE

>  <SMILES>  (1287) 
N[C@H](Cc1(ccc(Cl)cc1F))C(=O)O

>  <INCHIKEY>  (1287) 
ZPMGQOHZMMWUAT-MRVPVSSYSA-N

$$$$
D-Phe_2F_4Me
     RDKit          2D

 14 14  0  0  0  0  0  0  0  0999 V2000
   -1.7174    1.8436    0.0000 N   0  0  0  0  0  0  0  0  0  0  0  0
   -2.1036    0.3942    0.0000 C   0  0  0  0  0  0  0  0  0  0  0  0
   -1.0414   -0.6650    0.0000 C   0  0  0  0  0  0  0  0  0  0  0  0
    0.4069   -0.2747    0.0000 C   0  0  0  0  0  0  0  0  0  0  0  0
    0.7931    1.1747    0.0000 C   0  0  0  0  0  0  0  0  0  0  0  0
    2.2415    1.5649    0.0000 C   0  0  0  0  0  0  0  0  0  0  0  0
    3.3036    0.5057    0.0000 C   0  0  0  0  0  0  0  0  0  0  0  0
    4.7520    0.8960    0.0000 C   0  0  0  0  0  0  0  0  0  0  0  0
    2.9174   -0.9437    0.0000 C   0  0  0  0  0  0  0  0  0  0  0  0
    1.4691   -1.3339    0.0000 C   0  0  0  0  0  0  0  0  0  0  0  0
    1.0829   -2.7834    0.0000 F   0  0  0  0  0  0  0  0  0  0  0  0
   -3.5519    0.0039    0.0000 C   0  0  0  0  0  0  0  0  0  0  0  0
   -3.9381   -1.4455    0.0000 O   0  0  0  0  0  0  0  0  0  0  0  0
   -4.6140    1.0631    0.0000 O   0  0  0  0  0  0  0  0  0  0  0  0
  2  1  1  6
  2  3  1  0
  3  4  1  0
  4  5  1  0
  5  6  2  0
  6  7  1  0
  7  8  1  0
  7  9  2  0
  9 10  1  0
 10 11  1  0
  2 12  1  0
 12 13  2  0
 12 14  1  0
 10  4  2  0
M  END
>  <rName>  (1288) 
D-Phe_2F_4Me

>  <PQ_SYMBOL>  (1288) 
D-Phe_2F_4Me

>  <FULL_NAME>  (1288) 
2-Fluoro-4-methyl-D-phenylalanine

>  <IUPAC_CONDENSED>  (1288) 
D-Phe(2-F,4-Me)

>  <IUPAC>  (1288) 
(2R)-2-amino-3-(2-fluoro-4-methylphenyl)propanoic acid

>  <TYPE>  (1288) 
Backbone

>  <CLASS>  (1288) 
alpha

>  <ANALOG>  (1288) 
Phe

>  <MOL_WT>  (1288) 
197.20899999999995

>  <LOGP>  (1288) 
1.0885200000000002

>  <TPSA>  (1288) 
63.32000000000001

>  <POPULARITY>  (1288) 
2.2

>  <PROTECTED>  (1288) 
TRUE

>  <SMILES>  (1288) 
N[C@H](Cc1(ccc(C)cc1F))C(=O)O

>  <INCHIKEY>  (1288) 
ZWMXOQFVRKESMD-SECBINFHSA-N

$$$$
D-Phe_2F_5Br
     RDKit          2D

 14 14  0  0  0  0  0  0  0  0999 V2000
   -1.4552    1.7882    0.0000 N   0  0  0  0  0  0  0  0  0  0  0  0
   -1.9325    0.3661    0.0000 C   0  0  0  0  0  0  0  0  0  0  0  0
   -0.9397   -0.7583    0.0000 C   0  0  0  0  0  0  0  0  0  0  0  0
    0.5305   -0.4606    0.0000 C   0  0  0  0  0  0  0  0  0  0  0  0
    1.0078    0.9614    0.0000 C   0  0  0  0  0  0  0  0  0  0  0  0
    2.4780    1.2591    0.0000 C   0  0  0  0  0  0  0  0  0  0  0  0
    2.9553    2.6811    0.0000 Br  0  0  0  0  0  0  0  0  0  0  0  0
    3.4709    0.1347    0.0000 C   0  0  0  0  0  0  0  0  0  0  0  0
    2.9935   -1.2874    0.0000 C   0  0  0  0  0  0  0  0  0  0  0  0
    1.5234   -1.5850    0.0000 C   0  0  0  0  0  0  0  0  0  0  0  0
    1.0461   -3.0070    0.0000 F   0  0  0  0  0  0  0  0  0  0  0  0
   -3.4027    0.0685    0.0000 C   0  0  0  0  0  0  0  0  0  0  0  0
   -3.8800   -1.3536    0.0000 O   0  0  0  0  0  0  0  0  0  0  0  0
   -4.3955    1.1929    0.0000 O   0  0  0  0  0  0  0  0  0  0  0  0
  2  1  1  6
  2  3  1  0
  3  4  1  0
  4  5  1  0
  5  6  2  0
  6  7  1  0
  6  8  1  0
  8  9  2  0
  9 10  1  0
 10 11  1  0
  2 12  1  0
 12 13  2  0
 12 14  1  0
 10  4  2  0
M  END
>  <rName>  (1289) 
D-Phe_2F_5Br

>  <PQ_SYMBOL>  (1289) 
D-Phe_2F_5Br

>  <FULL_NAME>  (1289) 
(R)-2-amino-3-(5-bromo-2-fluorophenyl)propanoic acid

>  <IUPAC_CONDENSED>  (1289) 
D-Phe(2-F,5-Br)

>  <IUPAC>  (1289) 
(2R)-2-amino-3-(5-bromo-2-fluorophenyl)propanoic acid

>  <TYPE>  (1289) 
Backbone

>  <CLASS>  (1289) 
alpha

>  <ANALOG>  (1289) 
Phe

>  <MOL_WT>  (1289) 
262.078

>  <LOGP>  (1289) 
1.5426000000000002

>  <TPSA>  (1289) 
63.32000000000001

>  <POPULARITY>  (1289) 
4.7

>  <PROTECTED>  (1289) 
TRUE

>  <SMILES>  (1289) 
N[C@H](Cc1(cc(Br)ccc1F))C(=O)O

>  <INCHIKEY>  (1289) 
BYTRLZMUWHKJRH-MRVPVSSYSA-N

$$$$
D-Phe_2F_5Me
     RDKit          2D

 14 14  0  0  0  0  0  0  0  0999 V2000
   -1.4552    1.7882    0.0000 N   0  0  0  0  0  0  0  0  0  0  0  0
   -1.9325    0.3661    0.0000 C   0  0  0  0  0  0  0  0  0  0  0  0
   -0.9397   -0.7583    0.0000 C   0  0  0  0  0  0  0  0  0  0  0  0
    0.5305   -0.4606    0.0000 C   0  0  0  0  0  0  0  0  0  0  0  0
    1.0078    0.9614    0.0000 C   0  0  0  0  0  0  0  0  0  0  0  0
    2.4780    1.2591    0.0000 C   0  0  0  0  0  0  0  0  0  0  0  0
    2.9553    2.6811    0.0000 C   0  0  0  0  0  0  0  0  0  0  0  0
    3.4709    0.1347    0.0000 C   0  0  0  0  0  0  0  0  0  0  0  0
    2.9935   -1.2874    0.0000 C   0  0  0  0  0  0  0  0  0  0  0  0
    1.5234   -1.5850    0.0000 C   0  0  0  0  0  0  0  0  0  0  0  0
    1.0461   -3.0070    0.0000 F   0  0  0  0  0  0  0  0  0  0  0  0
   -3.4027    0.0685    0.0000 C   0  0  0  0  0  0  0  0  0  0  0  0
   -3.8800   -1.3536    0.0000 O   0  0  0  0  0  0  0  0  0  0  0  0
   -4.3955    1.1929    0.0000 O   0  0  0  0  0  0  0  0  0  0  0  0
  2  1  1  6
  2  3  1  0
  3  4  1  0
  4  5  1  0
  5  6  2  0
  6  7  1  0
  6  8  1  0
  8  9  2  0
  9 10  1  0
 10 11  1  0
  2 12  1  0
 12 13  2  0
 12 14  1  0
 10  4  2  0
M  END
>  <rName>  (1290) 
D-Phe_2F_5Me

>  <PQ_SYMBOL>  (1290) 
D-Phe_2F_5Me

>  <FULL_NAME>  (1290) 
2-Fluoro-5-methyl-D-phenylalanine

>  <IUPAC_CONDENSED>  (1290) 
D-Phe(2-F,5-Me)

>  <IUPAC>  (1290) 
(2R)-2-amino-3-(2-fluoro-5-methylphenyl)propanoic acid

>  <TYPE>  (1290) 
Backbone

>  <CLASS>  (1290) 
alpha

>  <ANALOG>  (1290) 
Phe

>  <MOL_WT>  (1290) 
197.20899999999995

>  <LOGP>  (1290) 
1.0885200000000002

>  <TPSA>  (1290) 
63.32000000000001

>  <POPULARITY>  (1290) 
2.2

>  <PROTECTED>  (1290) 
TRUE

>  <SMILES>  (1290) 
N[C@H](Cc1(cc(C)ccc1F))C(=O)O

>  <INCHIKEY>  (1290) 
MRFDPLGHSYYFHU-SECBINFHSA-N

$$$$
D-Phe_2F_5OH
     RDKit          2D

 14 14  0  0  0  0  0  0  0  0999 V2000
   -1.4552    1.7882    0.0000 N   0  0  0  0  0  0  0  0  0  0  0  0
   -1.9325    0.3661    0.0000 C   0  0  0  0  0  0  0  0  0  0  0  0
   -0.9397   -0.7583    0.0000 C   0  0  0  0  0  0  0  0  0  0  0  0
    0.5305   -0.4606    0.0000 C   0  0  0  0  0  0  0  0  0  0  0  0
    1.0078    0.9614    0.0000 C   0  0  0  0  0  0  0  0  0  0  0  0
    2.4780    1.2591    0.0000 C   0  0  0  0  0  0  0  0  0  0  0  0
    2.9553    2.6811    0.0000 O   0  0  0  0  0  0  0  0  0  0  0  0
    3.4709    0.1347    0.0000 C   0  0  0  0  0  0  0  0  0  0  0  0
    2.9935   -1.2874    0.0000 C   0  0  0  0  0  0  0  0  0  0  0  0
    1.5234   -1.5850    0.0000 C   0  0  0  0  0  0  0  0  0  0  0  0
    1.0461   -3.0070    0.0000 F   0  0  0  0  0  0  0  0  0  0  0  0
   -3.4027    0.0685    0.0000 C   0  0  0  0  0  0  0  0  0  0  0  0
   -3.8800   -1.3536    0.0000 O   0  0  0  0  0  0  0  0  0  0  0  0
   -4.3955    1.1929    0.0000 O   0  0  0  0  0  0  0  0  0  0  0  0
  2  1  1  6
  2  3  1  0
  3  4  1  0
  4  5  1  0
  5  6  2  0
  6  7  1  0
  6  8  1  0
  8  9  2  0
  9 10  1  0
 10 11  1  0
  2 12  1  0
 12 13  2  0
 12 14  1  0
 10  4  2  0
M  END
>  <rName>  (1291) 
D-Phe_2F_5OH

>  <PQ_SYMBOL>  (1291) 
D-Phe_2F_5OH

>  <FULL_NAME>  (1291) 
(2R)-2-amino-3-(2-fluoro-5-hydroxyphenyl)propanoic acid

>  <IUPAC_CONDENSED>  (1291) 
D-Phe(2-F,5-OH)

>  <IUPAC>  (1291) 
(2R)-2-amino-3-(2-fluoro-5-hydroxyphenyl)propanoic acid

>  <TYPE>  (1291) 
Backbone

>  <CLASS>  (1291) 
alpha

>  <ANALOG>  (1291) 
Tyr

>  <MOL_WT>  (1291) 
199.18099999999995

>  <LOGP>  (1291) 
0.48570000000000013

>  <TPSA>  (1291) 
83.55

>  <POPULARITY>  (1291) 
2.2

>  <PROTECTED>  (1291) 
TRUE

>  <SMILES>  (1291) 
N[C@H](Cc1(cc(O)ccc1F))C(=O)O

>  <INCHIKEY>  (1291) 
YTYMWTLCTJSNDC-MRVPVSSYSA-N

$$$$
D-Phe_2F_5OMe
     RDKit          2D

 15 15  0  0  0  0  0  0  0  0999 V2000
   -1.4698    1.8520    0.0000 N   0  0  0  0  0  0  0  0  0  0  0  0
   -2.1710    0.5260    0.0000 C   0  0  0  0  0  0  0  0  0  0  0  0
   -1.3733   -0.7443    0.0000 C   0  0  0  0  0  0  0  0  0  0  0  0
    0.1257   -0.6886    0.0000 C   0  0  0  0  0  0  0  0  0  0  0  0
    0.8269    0.6374    0.0000 C   0  0  0  0  0  0  0  0  0  0  0  0
    2.3259    0.6931    0.0000 C   0  0  0  0  0  0  0  0  0  0  0  0
    3.0271    2.0191    0.0000 O   0  0  0  0  0  0  0  0  0  0  0  0
    4.5261    2.0748    0.0000 C   0  0  0  0  0  0  0  0  0  0  0  0
    3.1236   -0.5772    0.0000 C   0  0  0  0  0  0  0  0  0  0  0  0
    2.4223   -1.9032    0.0000 C   0  0  0  0  0  0  0  0  0  0  0  0
    0.9234   -1.9589    0.0000 C   0  0  0  0  0  0  0  0  0  0  0  0
    0.2221   -3.2849    0.0000 F   0  0  0  0  0  0  0  0  0  0  0  0
   -3.6700    0.4703    0.0000 C   0  0  0  0  0  0  0  0  0  0  0  0
   -4.3712   -0.8557    0.0000 O   0  0  0  0  0  0  0  0  0  0  0  0
   -4.4677    1.7405    0.0000 O   0  0  0  0  0  0  0  0  0  0  0  0
  2  1  1  6
  2  3  1  0
  3  4  1  0
  4  5  1  0
  5  6  2  0
  6  7  1  0
  7  8  1  0
  6  9  1  0
  9 10  2  0
 10 11  1  0
 11 12  1  0
  2 13  1  0
 13 14  2  0
 13 15  1  0
 11  4  2  0
M  END
>  <rName>  (1292) 
D-Phe_2F_5OMe

>  <PQ_SYMBOL>  (1292) 
D-Phe_2F_5OMe

>  <FULL_NAME>  (1292) 
(2R)-2-amino-3-(2-fluoro-5-methoxy-phenyl)propanoic acid

>  <IUPAC_CONDENSED>  (1292) 
D-Phe(2-F,5-OMe)

>  <IUPAC>  (1292) 
(2R)-2-amino-3-(2-fluoro-5-methoxyphenyl)propanoic acid

>  <TYPE>  (1292) 
Backbone

>  <CLASS>  (1292) 
alpha

>  <ANALOG>  (1292) 
Tyr

>  <MOL_WT>  (1292) 
213.20799999999997

>  <LOGP>  (1292) 
0.7887000000000002

>  <TPSA>  (1292) 
72.55

>  <POPULARITY>  (1292) 
2.2

>  <PROTECTED>  (1292) 
TRUE

>  <SMILES>  (1292) 
N[C@H](Cc1(cc(OC)ccc1F))C(=O)O

>  <INCHIKEY>  (1292) 
NSVKCUZIZFGPFX-SECBINFHSA-N

$$$$
D-Phe_2I
     RDKit          2D

 13 13  0  0  0  0  0  0  0  0999 V2000
   -1.4864    1.8099    0.0000 N   0  0  0  0  0  0  0  0  0  0  0  0
   -1.7669    0.3364    0.0000 C   0  0  0  0  0  0  0  0  0  0  0  0
   -0.6311   -0.6433    0.0000 C   0  0  0  0  0  0  0  0  0  0  0  0
    0.7853   -0.1495    0.0000 C   0  0  0  0  0  0  0  0  0  0  0  0
    1.0658    1.3241    0.0000 C   0  0  0  0  0  0  0  0  0  0  0  0
    2.4822    1.8179    0.0000 C   0  0  0  0  0  0  0  0  0  0  0  0
    3.6181    0.8382    0.0000 C   0  0  0  0  0  0  0  0  0  0  0  0
    3.3376   -0.6353    0.0000 C   0  0  0  0  0  0  0  0  0  0  0  0
    1.9212   -1.1292    0.0000 C   0  0  0  0  0  0  0  0  0  0  0  0
    1.6407   -2.6027    0.0000 I   0  0  0  0  0  0  0  0  0  0  0  0
   -3.1833   -0.1575    0.0000 C   0  0  0  0  0  0  0  0  0  0  0  0
   -3.4638   -1.6310    0.0000 O   0  0  0  0  0  0  0  0  0  0  0  0
   -4.3192    0.8222    0.0000 O   0  0  0  0  0  0  0  0  0  0  0  0
  2  1  1  6
  2  3  1  0
  3  4  1  0
  4  5  2  0
  5  6  1  0
  6  7  2  0
  7  8  1  0
  8  9  2  0
  9 10  1  0
  2 11  1  0
 11 12  2  0
 11 13  1  0
  9  4  1  0
M  END
>  <rName>  (1293) 
D-Phe_2I

>  <PQ_SYMBOL>  (1293) 
D-Phe_2I

>  <FULL_NAME>  (1293) 
(R)-2-amino-3-(2-iodophenyl)propanoic acid

>  <IUPAC_CONDENSED>  (1293) 
D-Phe(2-I)

>  <IUPAC>  (1293) 
(2R)-2-amino-3-(2-iodophenyl)propanoic acid

>  <TYPE>  (1293) 
Backbone

>  <CLASS>  (1293) 
alpha

>  <ANALOG>  (1293) 
Phe

>  <MOL_WT>  (1293) 
291.088

>  <LOGP>  (1293) 
1.2456000000000003

>  <TPSA>  (1293) 
63.32000000000001

>  <POPULARITY>  (1293) 
4.6

>  <PROTECTED>  (1293) 
TRUE

>  <SMILES>  (1293) 
N[C@H](Cc1(ccccc1I))C(=O)O

>  <INCHIKEY>  (1293) 
BKXVGLPBXYBDDM-MRVPVSSYSA-N

$$$$
D-Phe_2Me
     RDKit          2D

 13 13  0  0  0  0  0  0  0  0999 V2000
   -1.4864    1.8099    0.0000 N   0  0  0  0  0  0  0  0  0  0  0  0
   -1.7669    0.3364    0.0000 C   0  0  0  0  0  0  0  0  0  0  0  0
   -0.6311   -0.6433    0.0000 C   0  0  0  0  0  0  0  0  0  0  0  0
    0.7853   -0.1495    0.0000 C   0  0  0  0  0  0  0  0  0  0  0  0
    1.0658    1.3241    0.0000 C   0  0  0  0  0  0  0  0  0  0  0  0
    2.4822    1.8179    0.0000 C   0  0  0  0  0  0  0  0  0  0  0  0
    3.6181    0.8382    0.0000 C   0  0  0  0  0  0  0  0  0  0  0  0
    3.3376   -0.6353    0.0000 C   0  0  0  0  0  0  0  0  0  0  0  0
    1.9212   -1.1292    0.0000 C   0  0  0  0  0  0  0  0  0  0  0  0
    1.6407   -2.6027    0.0000 C   0  0  0  0  0  0  0  0  0  0  0  0
   -3.1833   -0.1575    0.0000 C   0  0  0  0  0  0  0  0  0  0  0  0
   -3.4638   -1.6310    0.0000 O   0  0  0  0  0  0  0  0  0  0  0  0
   -4.3192    0.8222    0.0000 O   0  0  0  0  0  0  0  0  0  0  0  0
  2  1  1  6
  2  3  1  0
  3  4  1  0
  4  5  2  0
  5  6  1  0
  6  7  2  0
  7  8  1  0
  8  9  2  0
  9 10  1  0
  2 11  1  0
 11 12  2  0
 11 13  1  0
  9  4  1  0
M  END
>  <rName>  (1294) 
D-Phe_2Me

>  <PQ_SYMBOL>  (1294) 
D-Phe_2Me

>  <FULL_NAME>  (1294) 
2-Methyl-D-Phenylalanine

>  <IUPAC_CONDENSED>  (1294) 
D-Phe(2-Me)

>  <IUPAC>  (1294) 
(2R)-2-amino-3-(2-methylphenyl)propanoic acid

>  <TYPE>  (1294) 
Backbone

>  <CLASS>  (1294) 
alpha

>  <ANALOG>  (1294) 
Phe

>  <MOL_WT>  (1294) 
179.21899999999997

>  <LOGP>  (1294) 
0.9494199999999999

>  <TPSA>  (1294) 
63.32000000000001

>  <POPULARITY>  (1294) 
16.7

>  <PROTECTED>  (1294) 
TRUE

>  <SMILES>  (1294) 
N[C@H](Cc1(ccccc1C))C(=O)O

>  <INCHIKEY>  (1294) 
NHBKDLSKDKUGSB-SECBINFHSA-N

$$$$
D-Phe_2MeNH2
     RDKit          2D

 14 14  0  0  0  0  0  0  0  0999 V2000
   -1.9781    1.7869    0.0000 N   0  0  0  0  0  0  0  0  0  0  0  0
   -2.0323    0.2879    0.0000 C   0  0  0  0  0  0  0  0  0  0  0  0
   -0.7612   -0.5086    0.0000 C   0  0  0  0  0  0  0  0  0  0  0  0
    0.5641    0.1940    0.0000 C   0  0  0  0  0  0  0  0  0  0  0  0
    0.6183    1.6931    0.0000 C   0  0  0  0  0  0  0  0  0  0  0  0
    1.9435    2.3957    0.0000 C   0  0  0  0  0  0  0  0  0  0  0  0
    3.2146    1.5993    0.0000 C   0  0  0  0  0  0  0  0  0  0  0  0
    3.1605    0.1002    0.0000 C   0  0  0  0  0  0  0  0  0  0  0  0
    1.8352   -0.6024    0.0000 C   0  0  0  0  0  0  0  0  0  0  0  0
    1.7811   -2.1014    0.0000 C   0  0  0  0  0  0  0  0  0  0  0  0
    3.0522   -2.8978    0.0000 N   0  0  0  0  0  0  0  0  0  0  0  0
   -3.3575   -0.4148    0.0000 C   0  0  0  0  0  0  0  0  0  0  0  0
   -3.4117   -1.9138    0.0000 O   0  0  0  0  0  0  0  0  0  0  0  0
   -4.6287    0.3817    0.0000 O   0  0  0  0  0  0  0  0  0  0  0  0
  2  1  1  6
  2  3  1  0
  3  4  1  0
  4  5  2  0
  5  6  1  0
  6  7  2  0
  7  8  1  0
  8  9  2  0
  9 10  1  0
 10 11  1  0
  2 12  1  0
 12 13  2  0
 12 14  1  0
  9  4  1  0
M  END
>  <rName>  (1295) 
D-Phe_2MeNH2

>  <PQ_SYMBOL>  (1295) 
D-Phe_2MeNH2

>  <FULL_NAME>  (1295) 
(R)-2-amino-3-(2-(aminomethyl)phenyl)propanoic acid

>  <IUPAC_CONDENSED>  (1295) 
D-Phe(2-MeNH2)

>  <IUPAC>  (1295) 
(2R)-2-amino-3-(2-(aminomethyl)phenyl)propanoic acid

>  <TYPE>  (1295) 
Backbone

>  <CLASS>  (1295) 
alpha

>  <ANALOG>  (1295) 
Phe

>  <MOL_WT>  (1295) 
194.23399999999995

>  <LOGP>  (1295) 
0.09970000000000018

>  <TPSA>  (1295) 
89.34

>  <POPULARITY>  (1295) 
7.0

>  <PROTECTED>  (1295) 
TRUE

>  <SMILES>  (1295) 
N[C@H](Cc1(ccccc1CN))C(=O)O

>  <INCHIKEY>  (1295) 
RDAKEAJYLGZEEA-SECBINFHSA-N

$$$$
D-Phe_2Me_3F
     RDKit          2D

 14 14  0  0  0  0  0  0  0  0999 V2000
   -1.9599    1.7683    0.0000 N   0  0  0  0  0  0  0  0  0  0  0  0
   -2.1168    0.2766    0.0000 C   0  0  0  0  0  0  0  0  0  0  0  0
   -0.9034   -0.6052    0.0000 C   0  0  0  0  0  0  0  0  0  0  0  0
    0.4670    0.0047    0.0000 C   0  0  0  0  0  0  0  0  0  0  0  0
    0.6239    1.4965    0.0000 C   0  0  0  0  0  0  0  0  0  0  0  0
    1.9943    2.1065    0.0000 C   0  0  0  0  0  0  0  0  0  0  0  0
    3.2078    1.2247    0.0000 C   0  0  0  0  0  0  0  0  0  0  0  0
    3.0508   -0.2671    0.0000 C   0  0  0  0  0  0  0  0  0  0  0  0
    4.2643   -1.1489    0.0000 F   0  0  0  0  0  0  0  0  0  0  0  0
    1.6804   -0.8771    0.0000 C   0  0  0  0  0  0  0  0  0  0  0  0
    1.5235   -2.3688    0.0000 C   0  0  0  0  0  0  0  0  0  0  0  0
   -3.4872   -0.3334    0.0000 C   0  0  0  0  0  0  0  0  0  0  0  0
   -3.6441   -1.8252    0.0000 O   0  0  0  0  0  0  0  0  0  0  0  0
   -4.7006    0.5484    0.0000 O   0  0  0  0  0  0  0  0  0  0  0  0
  2  1  1  6
  2  3  1  0
  3  4  1  0
  4  5  2  0
  5  6  1  0
  6  7  2  0
  7  8  1  0
  8  9  1  0
  8 10  2  0
 10 11  1  0
  2 12  1  0
 12 13  2  0
 12 14  1  0
 10  4  1  0
M  END
>  <rName>  (1296) 
D-Phe_2Me_3F

>  <PQ_SYMBOL>  (1296) 
D-Phe_2Me_3F

>  <FULL_NAME>  (1296) 
3-Fluoro-2-methyl-D-phenylalanine

>  <IUPAC_CONDENSED>  (1296) 
D-Phe(2-Me,3-F)

>  <IUPAC>  (1296) 
(2R)-2-amino-3-(3-fluoro-2-methylphenyl)propanoic acid

>  <TYPE>  (1296) 
Backbone

>  <CLASS>  (1296) 
alpha

>  <ANALOG>  (1296) 
Phe

>  <MOL_WT>  (1296) 
197.20899999999997

>  <LOGP>  (1296) 
1.0885200000000002

>  <TPSA>  (1296) 
63.32000000000001

>  <POPULARITY>  (1296) 
2.2

>  <PROTECTED>  (1296) 
TRUE

>  <SMILES>  (1296) 
N[C@H](Cc1(cccc(F)c1C))C(=O)O

>  <INCHIKEY>  (1296) 
GTXNGJQJNNNKGD-SECBINFHSA-N

$$$$
D-Phe_2Me_4F
     RDKit          2D

 14 14  0  0  0  0  0  0  0  0999 V2000
   -1.7174    1.8436    0.0000 N   0  0  0  0  0  0  0  0  0  0  0  0
   -2.1036    0.3942    0.0000 C   0  0  0  0  0  0  0  0  0  0  0  0
   -1.0414   -0.6650    0.0000 C   0  0  0  0  0  0  0  0  0  0  0  0
    0.4069   -0.2747    0.0000 C   0  0  0  0  0  0  0  0  0  0  0  0
    0.7931    1.1747    0.0000 C   0  0  0  0  0  0  0  0  0  0  0  0
    2.2415    1.5649    0.0000 C   0  0  0  0  0  0  0  0  0  0  0  0
    3.3036    0.5057    0.0000 C   0  0  0  0  0  0  0  0  0  0  0  0
    4.7520    0.8960    0.0000 F   0  0  0  0  0  0  0  0  0  0  0  0
    2.9174   -0.9437    0.0000 C   0  0  0  0  0  0  0  0  0  0  0  0
    1.4691   -1.3339    0.0000 C   0  0  0  0  0  0  0  0  0  0  0  0
    1.0829   -2.7834    0.0000 C   0  0  0  0  0  0  0  0  0  0  0  0
   -3.5519    0.0039    0.0000 C   0  0  0  0  0  0  0  0  0  0  0  0
   -3.9381   -1.4455    0.0000 O   0  0  0  0  0  0  0  0  0  0  0  0
   -4.6140    1.0631    0.0000 O   0  0  0  0  0  0  0  0  0  0  0  0
  2  1  1  6
  2  3  1  0
  3  4  1  0
  4  5  1  0
  5  6  2  0
  6  7  1  0
  7  8  1  0
  7  9  2  0
  9 10  1  0
 10 11  1  0
  2 12  1  0
 12 13  2  0
 12 14  1  0
 10  4  2  0
M  END
>  <rName>  (1297) 
D-Phe_2Me_4F

>  <PQ_SYMBOL>  (1297) 
D-Phe_2Me_4F

>  <FULL_NAME>  (1297) 
(R)-2-Amino-3-(4-fluoro-2-methylphenyl)propanoic acid

>  <IUPAC_CONDENSED>  (1297) 
D-Phe(2-Me,4-F)

>  <IUPAC>  (1297) 
(2R)-2-amino-3-(4-fluoro-2-methylphenyl)propanoic acid

>  <TYPE>  (1297) 
Backbone

>  <CLASS>  (1297) 
alpha

>  <ANALOG>  (1297) 
Phe

>  <MOL_WT>  (1297) 
197.20899999999997

>  <LOGP>  (1297) 
1.0885200000000002

>  <TPSA>  (1297) 
63.32000000000001

>  <POPULARITY>  (1297) 
2.2

>  <PROTECTED>  (1297) 
TRUE

>  <SMILES>  (1297) 
N[C@H](Cc1(ccc(F)cc1C))C(=O)O

>  <INCHIKEY>  (1297) 
WDSUDTPFZZINJC-SECBINFHSA-N

$$$$
D-Phe_2Me_5Cl
     RDKit          2D

 14 14  0  0  0  0  0  0  0  0999 V2000
   -1.4552    1.7882    0.0000 N   0  0  0  0  0  0  0  0  0  0  0  0
   -1.9325    0.3661    0.0000 C   0  0  0  0  0  0  0  0  0  0  0  0
   -0.9397   -0.7583    0.0000 C   0  0  0  0  0  0  0  0  0  0  0  0
    0.5305   -0.4606    0.0000 C   0  0  0  0  0  0  0  0  0  0  0  0
    1.0078    0.9614    0.0000 C   0  0  0  0  0  0  0  0  0  0  0  0
    2.4780    1.2591    0.0000 C   0  0  0  0  0  0  0  0  0  0  0  0
    2.9553    2.6811    0.0000 Cl  0  0  0  0  0  0  0  0  0  0  0  0
    3.4709    0.1347    0.0000 C   0  0  0  0  0  0  0  0  0  0  0  0
    2.9935   -1.2874    0.0000 C   0  0  0  0  0  0  0  0  0  0  0  0
    1.5234   -1.5850    0.0000 C   0  0  0  0  0  0  0  0  0  0  0  0
    1.0461   -3.0070    0.0000 C   0  0  0  0  0  0  0  0  0  0  0  0
   -3.4027    0.0685    0.0000 C   0  0  0  0  0  0  0  0  0  0  0  0
   -3.8800   -1.3536    0.0000 O   0  0  0  0  0  0  0  0  0  0  0  0
   -4.3955    1.1929    0.0000 O   0  0  0  0  0  0  0  0  0  0  0  0
  2  1  1  6
  2  3  1  0
  3  4  1  0
  4  5  1  0
  5  6  2  0
  6  7  1  0
  6  8  1  0
  8  9  2  0
  9 10  1  0
 10 11  1  0
  2 12  1  0
 12 13  2  0
 12 14  1  0
 10  4  2  0
M  END
>  <rName>  (1298) 
D-Phe_2Me_5Cl

>  <PQ_SYMBOL>  (1298) 
D-Phe_2Me_5Cl

>  <FULL_NAME>  (1298) 
5-Chloro-2-methyl-D-phenylalanine

>  <IUPAC_CONDENSED>  (1298) 
D-Phe(2-Me,5-Cl)

>  <IUPAC>  (1298) 
(2R)-2-amino-3-(5-chloro-2-methylphenyl)propanoic acid

>  <TYPE>  (1298) 
Backbone

>  <CLASS>  (1298) 
alpha

>  <ANALOG>  (1298) 
Phe

>  <MOL_WT>  (1298) 
213.664

>  <LOGP>  (1298) 
1.6028200000000001

>  <TPSA>  (1298) 
63.32000000000001

>  <POPULARITY>  (1298) 
2.2

>  <PROTECTED>  (1298) 
TRUE

>  <SMILES>  (1298) 
N[C@H](Cc1(cc(Cl)ccc1C))C(=O)O

>  <INCHIKEY>  (1298) 
XOJPGEIIQISZFF-SECBINFHSA-N

$$$$
D-Phe_2NO2
     RDKit          2D

 15 15  0  0  0  0  0  0  0  0999 V2000
   -2.0511    1.9295    0.0000 N   0  0  0  0  0  0  0  0  0  0  0  0
   -2.0725    0.4296    0.0000 C   0  0  0  0  0  0  0  0  0  0  0  0
   -0.7843   -0.3388    0.0000 C   0  0  0  0  0  0  0  0  0  0  0  0
    0.5253    0.3925    0.0000 C   0  0  0  0  0  0  0  0  0  0  0  0
    0.5467    1.8924    0.0000 C   0  0  0  0  0  0  0  0  0  0  0  0
    1.8563    2.6238    0.0000 C   0  0  0  0  0  0  0  0  0  0  0  0
    3.1445    1.8553    0.0000 C   0  0  0  0  0  0  0  0  0  0  0  0
    3.1231    0.3555    0.0000 C   0  0  0  0  0  0  0  0  0  0  0  0
    1.8135   -0.3759    0.0000 C   0  0  0  0  0  0  0  0  0  0  0  0
    1.7921   -1.8758    0.0000 N   0  0  0  0  0  0  0  0  0  0  0  0
    0.4825   -2.6072    0.0000 O   0  0  0  0  0  0  0  0  0  0  0  0
    3.0803   -2.6442    0.0000 O   0  0  0  0  0  0  0  0  0  0  0  0
   -3.3821   -0.3018    0.0000 C   0  0  0  0  0  0  0  0  0  0  0  0
   -3.4036   -1.8016    0.0000 O   0  0  0  0  0  0  0  0  0  0  0  0
   -4.6704    0.4667    0.0000 O   0  0  0  0  0  0  0  0  0  0  0  0
  2  1  1  6
  2  3  1  0
  3  4  1  0
  4  5  2  0
  5  6  1  0
  6  7  2  0
  7  8  1  0
  8  9  2  0
  9 10  1  0
 10 11  2  0
 10 12  1  0
  2 13  1  0
 13 14  2  0
 13 15  1  0
  9  4  1  0
M  CHG  2  10   1  12  -1
M  END
>  <rName>  (1299) 
D-Phe_2NO2

>  <PQ_SYMBOL>  (1299) 
D-Phe_2NO2

>  <FULL_NAME>  (1299) 
2-Nitro-D-Phenylalanine

>  <IUPAC_CONDENSED>  (1299) 
D-Phe(2-NO2)

>  <IUPAC>  (1299) 
(2R)-2-amino-3-(2-nitrophenyl)propanoic acid

>  <TYPE>  (1299) 
Backbone

>  <CLASS>  (1299) 
alpha

>  <ANALOG>  (1299) 
Phe

>  <MOL_WT>  (1299) 
210.18899999999994

>  <LOGP>  (1299) 
0.5492000000000001

>  <TPSA>  (1299) 
106.46

>  <POPULARITY>  (1299) 
8.4

>  <PROTECTED>  (1299) 
TRUE

>  <SMILES>  (1299) 
N[C@H](Cc1(ccccc1[N+](=O)[O-]))C(=O)O

>  <INCHIKEY>  (1299) 
SDZGVFSSLGTJAJ-SSDOTTSWSA-N

$$$$
D-Phe_2OCF3
     RDKit          2D

 17 17  0  0  0  0  0  0  0  0999 V2000
   -3.2166    1.3671    0.0000 N   0  0  0  0  0  0  0  0  0  0  0  0
   -2.7769   -0.0670    0.0000 C   0  0  0  0  0  0  0  0  0  0  0  0
   -1.3150   -0.4032    0.0000 C   0  0  0  0  0  0  0  0  0  0  0  0
   -0.2929    0.6946    0.0000 C   0  0  0  0  0  0  0  0  0  0  0  0
   -0.7327    2.1287    0.0000 C   0  0  0  0  0  0  0  0  0  0  0  0
    0.2894    3.2266    0.0000 C   0  0  0  0  0  0  0  0  0  0  0  0
    1.7513    2.8904    0.0000 C   0  0  0  0  0  0  0  0  0  0  0  0
    2.1910    1.4563    0.0000 C   0  0  0  0  0  0  0  0  0  0  0  0
    1.1689    0.3584    0.0000 C   0  0  0  0  0  0  0  0  0  0  0  0
    1.6086   -1.0757    0.0000 O   0  0  0  0  0  0  0  0  0  0  0  0
    3.0705   -1.4119    0.0000 C   0  0  0  0  0  0  0  0  0  0  0  0
    4.5323   -1.7481    0.0000 F   0  0  0  0  0  0  0  0  0  0  0  0
    2.7342   -2.8737    0.0000 F   0  0  0  0  0  0  0  0  0  0  0  0
    3.4067    0.0499    0.0000 F   0  0  0  0  0  0  0  0  0  0  0  0
   -3.7990   -1.1649    0.0000 C   0  0  0  0  0  0  0  0  0  0  0  0
   -3.3592   -2.5990    0.0000 O   0  0  0  0  0  0  0  0  0  0  0  0
   -5.2608   -0.8286    0.0000 O   0  0  0  0  0  0  0  0  0  0  0  0
  2  1  1  6
  2  3  1  0
  3  4  1  0
  4  5  2  0
  5  6  1  0
  6  7  2  0
  7  8  1  0
  8  9  2  0
  9 10  1  0
 10 11  1  0
 11 12  1  0
 11 13  1  0
 11 14  1  0
  2 15  1  0
 15 16  2  0
 15 17  1  0
  9  4  1  0
M  END
>  <rName>  (1300) 
D-Phe_2OCF3

>  <PQ_SYMBOL>  (1300) 
D-Phe_2OCF3

>  <FULL_NAME>  (1300) 
(2R)-2-Amino-3-[2-(trifluoromethoxy)phenyl]propanoic acid

>  <IUPAC_CONDENSED>  (1300) 
D-Phe(2-OCF3)

>  <IUPAC>  (1300) 
(2R)-2-amino-3-[2-(trifluoromethoxy)phenyl]propanoic acid

>  <TYPE>  (1300) 
Backbone

>  <CLASS>  (1300) 
alpha

>  <ANALOG>  (1300) 
Tyr

>  <MOL_WT>  (1300) 
249.18799999999993

>  <LOGP>  (1300) 
1.5396000000000003

>  <TPSA>  (1300) 
72.55

>  <POPULARITY>  (1300) 
2.2

>  <PROTECTED>  (1300) 
TRUE

>  <SMILES>  (1300) 
N[C@H](Cc1(ccccc1OC(F)(F)F))C(=O)O

>  <INCHIKEY>  (1300) 
ILPKLBNKYRAICX-SSDOTTSWSA-N

$$$$
D-Phe_2OH
     RDKit          2D

 13 13  0  0  0  0  0  0  0  0999 V2000
   -1.4864    1.8099    0.0000 N   0  0  0  0  0  0  0  0  0  0  0  0
   -1.7669    0.3364    0.0000 C   0  0  0  0  0  0  0  0  0  0  0  0
   -0.6311   -0.6433    0.0000 C   0  0  0  0  0  0  0  0  0  0  0  0
    0.7853   -0.1495    0.0000 C   0  0  0  0  0  0  0  0  0  0  0  0
    1.0658    1.3241    0.0000 C   0  0  0  0  0  0  0  0  0  0  0  0
    2.4822    1.8179    0.0000 C   0  0  0  0  0  0  0  0  0  0  0  0
    3.6181    0.8382    0.0000 C   0  0  0  0  0  0  0  0  0  0  0  0
    3.3376   -0.6353    0.0000 C   0  0  0  0  0  0  0  0  0  0  0  0
    1.9212   -1.1292    0.0000 C   0  0  0  0  0  0  0  0  0  0  0  0
    1.6407   -2.6027    0.0000 O   0  0  0  0  0  0  0  0  0  0  0  0
   -3.1833   -0.1575    0.0000 C   0  0  0  0  0  0  0  0  0  0  0  0
   -3.4638   -1.6310    0.0000 O   0  0  0  0  0  0  0  0  0  0  0  0
   -4.3192    0.8222    0.0000 O   0  0  0  0  0  0  0  0  0  0  0  0
  2  1  1  6
  2  3  1  0
  3  4  1  0
  4  5  2  0
  5  6  1  0
  6  7  2  0
  7  8  1  0
  8  9  2  0
  9 10  1  0
  2 11  1  0
 11 12  2  0
 11 13  1  0
  9  4  1  0
M  END
>  <rName>  (1301) 
D-Phe_2OH

>  <PQ_SYMBOL>  (1301) 
D-Phe_2OH

>  <FULL_NAME>  (1301) 
2-Hydroxy-D-Phenylalanine

>  <IUPAC_CONDENSED>  (1301) 
D-Phe(2-OH)

>  <IUPAC>  (1301) 
(2R)-2-amino-3-(2-hydroxyphenyl)propanoic acid

>  <TYPE>  (1301) 
Backbone

>  <CLASS>  (1301) 
alpha

>  <ANALOG>  (1301) 
Tyr

>  <MOL_WT>  (1301) 
181.19099999999997

>  <LOGP>  (1301) 
0.3466

>  <TPSA>  (1301) 
83.55

>  <POPULARITY>  (1301) 
9.2

>  <PROTECTED>  (1301) 
TRUE

>  <SMILES>  (1301) 
N[C@H](Cc1(ccccc1O))C(=O)O

>  <INCHIKEY>  (1301) 
WRFPVMFCRNYQNR-SSDOTTSWSA-N

$$$$
D-Phe_2OMe
     RDKit          2D

 14 14  0  0  0  0  0  0  0  0999 V2000
   -1.9781    1.7869    0.0000 N   0  0  0  0  0  0  0  0  0  0  0  0
   -2.0323    0.2879    0.0000 C   0  0  0  0  0  0  0  0  0  0  0  0
   -0.7612   -0.5086    0.0000 C   0  0  0  0  0  0  0  0  0  0  0  0
    0.5641    0.1940    0.0000 C   0  0  0  0  0  0  0  0  0  0  0  0
    0.6183    1.6931    0.0000 C   0  0  0  0  0  0  0  0  0  0  0  0
    1.9435    2.3957    0.0000 C   0  0  0  0  0  0  0  0  0  0  0  0
    3.2146    1.5993    0.0000 C   0  0  0  0  0  0  0  0  0  0  0  0
    3.1605    0.1002    0.0000 C   0  0  0  0  0  0  0  0  0  0  0  0
    1.8352   -0.6024    0.0000 C   0  0  0  0  0  0  0  0  0  0  0  0
    1.7811   -2.1014    0.0000 O   0  0  0  0  0  0  0  0  0  0  0  0
    3.0522   -2.8978    0.0000 C   0  0  0  0  0  0  0  0  0  0  0  0
   -3.3575   -0.4148    0.0000 C   0  0  0  0  0  0  0  0  0  0  0  0
   -3.4117   -1.9138    0.0000 O   0  0  0  0  0  0  0  0  0  0  0  0
   -4.6287    0.3817    0.0000 O   0  0  0  0  0  0  0  0  0  0  0  0
  2  1  1  6
  2  3  1  0
  3  4  1  0
  4  5  2  0
  5  6  1  0
  6  7  2  0
  7  8  1  0
  8  9  2  0
  9 10  1  0
 10 11  1  0
  2 12  1  0
 12 13  2  0
 12 14  1  0
  9  4  1  0
M  END
>  <rName>  (1302) 
D-Phe_2OMe

>  <PQ_SYMBOL>  (1302) 
D-Phe_2OMe

>  <FULL_NAME>  (1302) 
(R)-2-amino-3-(2-methoxyphenyl)propanoic acid

>  <IUPAC_CONDENSED>  (1302) 
D-Phe(2-OMe)

>  <IUPAC>  (1302) 
(2R)-2-amino-3-(2-methoxyphenyl)propanoic acid

>  <TYPE>  (1302) 
Backbone

>  <CLASS>  (1302) 
alpha

>  <ANALOG>  (1302) 
Tyr

>  <MOL_WT>  (1302) 
195.21799999999996

>  <LOGP>  (1302) 
0.6496

>  <TPSA>  (1302) 
72.55

>  <POPULARITY>  (1302) 
7.7

>  <PROTECTED>  (1302) 
TRUE

>  <SMILES>  (1302) 
N[C@H](Cc1(ccccc1OC))C(=O)O

>  <INCHIKEY>  (1302) 
SEUPQWHWULSGJC-MRVPVSSYSA-N

$$$$
D-Phe_34_5triF
     RDKit          2D

 15 15  0  0  0  0  0  0  0  0999 V2000
   -2.0609    1.6226    0.0000 N   0  0  0  0  0  0  0  0  0  0  0  0
   -2.4694    0.1793    0.0000 C   0  0  0  0  0  0  0  0  0  0  0  0
   -1.4237   -0.8961    0.0000 C   0  0  0  0  0  0  0  0  0  0  0  0
    0.0305   -0.5283    0.0000 C   0  0  0  0  0  0  0  0  0  0  0  0
    0.4390    0.9150    0.0000 C   0  0  0  0  0  0  0  0  0  0  0  0
    1.8932    1.2829    0.0000 C   0  0  0  0  0  0  0  0  0  0  0  0
    2.3017    2.7262    0.0000 F   0  0  0  0  0  0  0  0  0  0  0  0
    2.9389    0.2075    0.0000 C   0  0  0  0  0  0  0  0  0  0  0  0
    4.3931    0.5753    0.0000 F   0  0  0  0  0  0  0  0  0  0  0  0
    2.5304   -1.2358    0.0000 C   0  0  0  0  0  0  0  0  0  0  0  0
    3.5760   -2.3113    0.0000 F   0  0  0  0  0  0  0  0  0  0  0  0
    1.0762   -1.6037    0.0000 C   0  0  0  0  0  0  0  0  0  0  0  0
   -3.9236   -0.1886    0.0000 C   0  0  0  0  0  0  0  0  0  0  0  0
   -4.3321   -1.6319    0.0000 O   0  0  0  0  0  0  0  0  0  0  0  0
   -4.9693    0.8868    0.0000 O   0  0  0  0  0  0  0  0  0  0  0  0
  2  1  1  6
  2  3  1  0
  3  4  1  0
  4  5  2  0
  5  6  1  0
  6  7  1  0
  6  8  2  0
  8  9  1  0
  8 10  1  0
 10 11  1  0
 10 12  2  0
  2 13  1  0
 13 14  2  0
 13 15  1  0
 12  4  1  0
M  END
>  <rName>  (1303) 
D-Phe_34_5triF

>  <PQ_SYMBOL>  (1303) 
D-Phe_34_5triF

>  <FULL_NAME>  (1303) 
3,4,5-trifluoro-D-phenylalanine

>  <IUPAC_CONDENSED>  (1303) 
D-Phe(3,4,5-triF)

>  <IUPAC>  (1303) 
(2R)-2-amino-3-(3,4,5-trifluorophenyl)propanoic acid

>  <TYPE>  (1303) 
Backbone

>  <CLASS>  (1303) 
alpha

>  <ANALOG>  (1303) 
Phe

>  <MOL_WT>  (1303) 
219.16199999999998

>  <LOGP>  (1303) 
1.0583000000000002

>  <TPSA>  (1303) 
63.32000000000001

>  <POPULARITY>  (1303) 
11.7

>  <PROTECTED>  (1303) 
TRUE

>  <SMILES>  (1303) 
N[C@H](Cc1(cc(F)c(F)c(F)c1))C(=O)O

>  <INCHIKEY>  (1303) 
SFKCVRLOYOHGFK-SSDOTTSWSA-N

$$$$
D-Phe_34diCl
     RDKit          2D

 14 14  0  0  0  0  0  0  0  0999 V2000
   -2.0094    1.6916    0.0000 N   0  0  0  0  0  0  0  0  0  0  0  0
   -2.3243    0.2250    0.0000 C   0  0  0  0  0  0  0  0  0  0  0  0
   -1.2116   -0.7809    0.0000 C   0  0  0  0  0  0  0  0  0  0  0  0
    0.2159   -0.3203    0.0000 C   0  0  0  0  0  0  0  0  0  0  0  0
    0.5308    1.1463    0.0000 C   0  0  0  0  0  0  0  0  0  0  0  0
    1.9583    1.6069    0.0000 C   0  0  0  0  0  0  0  0  0  0  0  0
    3.0710    0.6009    0.0000 C   0  0  0  0  0  0  0  0  0  0  0  0
    4.4985    1.0615    0.0000 Cl  0  0  0  0  0  0  0  0  0  0  0  0
    2.7561   -0.8657    0.0000 C   0  0  0  0  0  0  0  0  0  0  0  0
    3.8688   -1.8716    0.0000 Cl  0  0  0  0  0  0  0  0  0  0  0  0
    1.3286   -1.3263    0.0000 C   0  0  0  0  0  0  0  0  0  0  0  0
   -3.7518   -0.2356    0.0000 C   0  0  0  0  0  0  0  0  0  0  0  0
   -4.0666   -1.7022    0.0000 O   0  0  0  0  0  0  0  0  0  0  0  0
   -4.8644    0.7704    0.0000 O   0  0  0  0  0  0  0  0  0  0  0  0
  2  1  1  6
  2  3  1  0
  3  4  1  0
  4  5  1  0
  5  6  2  0
  6  7  1  0
  7  8  1  0
  7  9  2  0
  9 10  1  0
  9 11  1  0
  2 12  1  0
 12 13  2  0
 12 14  1  0
 11  4  2  0
M  END
>  <rName>  (1304) 
D-Phe_34diCl

>  <PQ_SYMBOL>  (1304) 
D-Phe_34diCl

>  <FULL_NAME>  (1304) 
3,4-Dichloro-D-Phenylalanine

>  <IUPAC_CONDENSED>  (1304) 
D-Phe(3,4-diCl)

>  <IUPAC>  (1304) 
(2R)-2-amino-3-(3,4-dichlorophenyl)propanoic acid

>  <TYPE>  (1304) 
Backbone

>  <CLASS>  (1304) 
alpha

>  <ANALOG>  (1304) 
Phe

>  <MOL_WT>  (1304) 
234.082

>  <LOGP>  (1304) 
1.9478

>  <TPSA>  (1304) 
63.32000000000001

>  <POPULARITY>  (1304) 
12.3

>  <PROTECTED>  (1304) 
TRUE

>  <SMILES>  (1304) 
N[C@H](Cc1(ccc(Cl)c(Cl)c1))C(=O)O

>  <INCHIKEY>  (1304) 
NRCSJHVDTAAISV-MRVPVSSYSA-N

$$$$
D-Phe_34diF
     RDKit          2D

 14 14  0  0  0  0  0  0  0  0999 V2000
   -2.0094    1.6916    0.0000 N   0  0  0  0  0  0  0  0  0  0  0  0
   -2.3243    0.2250    0.0000 C   0  0  0  0  0  0  0  0  0  0  0  0
   -1.2116   -0.7809    0.0000 C   0  0  0  0  0  0  0  0  0  0  0  0
    0.2159   -0.3203    0.0000 C   0  0  0  0  0  0  0  0  0  0  0  0
    0.5308    1.1463    0.0000 C   0  0  0  0  0  0  0  0  0  0  0  0
    1.9583    1.6069    0.0000 C   0  0  0  0  0  0  0  0  0  0  0  0
    3.0710    0.6009    0.0000 C   0  0  0  0  0  0  0  0  0  0  0  0
    4.4985    1.0615    0.0000 F   0  0  0  0  0  0  0  0  0  0  0  0
    2.7561   -0.8657    0.0000 C   0  0  0  0  0  0  0  0  0  0  0  0
    3.8688   -1.8716    0.0000 F   0  0  0  0  0  0  0  0  0  0  0  0
    1.3286   -1.3263    0.0000 C   0  0  0  0  0  0  0  0  0  0  0  0
   -3.7518   -0.2356    0.0000 C   0  0  0  0  0  0  0  0  0  0  0  0
   -4.0666   -1.7022    0.0000 O   0  0  0  0  0  0  0  0  0  0  0  0
   -4.8644    0.7704    0.0000 O   0  0  0  0  0  0  0  0  0  0  0  0
  2  1  1  6
  2  3  1  0
  3  4  1  0
  4  5  1  0
  5  6  2  0
  6  7  1  0
  7  8  1  0
  7  9  2  0
  9 10  1  0
  9 11  1  0
  2 12  1  0
 12 13  2  0
 12 14  1  0
 11  4  2  0
M  END
>  <rName>  (1305) 
D-Phe_34diF

>  <PQ_SYMBOL>  (1305) 
D-Phe_34diF

>  <FULL_NAME>  (1305) 
3,4-Difluoro-D-Phenylalanine

>  <IUPAC_CONDENSED>  (1305) 
D-Phe(3,4-diF)

>  <IUPAC>  (1305) 
(2R)-2-amino-3-(3,4-difluorophenyl)propanoic acid

>  <TYPE>  (1305) 
Backbone

>  <CLASS>  (1305) 
alpha

>  <ANALOG>  (1305) 
Phe

>  <MOL_WT>  (1305) 
201.17199999999997

>  <LOGP>  (1305) 
0.9192

>  <TPSA>  (1305) 
63.32000000000001

>  <POPULARITY>  (1305) 
12.2

>  <PROTECTED>  (1305) 
TRUE

>  <SMILES>  (1305) 
N[C@H](Cc1(ccc(F)c(F)c1))C(=O)O

>  <INCHIKEY>  (1305) 
PRAWYXDDKCVZTL-MRVPVSSYSA-N

$$$$
D-Phe_34diMe
     RDKit          2D

 14 14  0  0  0  0  0  0  0  0999 V2000
   -2.0094    1.6916    0.0000 N   0  0  0  0  0  0  0  0  0  0  0  0
   -2.3243    0.2250    0.0000 C   0  0  0  0  0  0  0  0  0  0  0  0
   -1.2116   -0.7809    0.0000 C   0  0  0  0  0  0  0  0  0  0  0  0
    0.2159   -0.3203    0.0000 C   0  0  0  0  0  0  0  0  0  0  0  0
    0.5308    1.1463    0.0000 C   0  0  0  0  0  0  0  0  0  0  0  0
    1.9583    1.6069    0.0000 C   0  0  0  0  0  0  0  0  0  0  0  0
    3.0710    0.6009    0.0000 C   0  0  0  0  0  0  0  0  0  0  0  0
    4.4985    1.0615    0.0000 C   0  0  0  0  0  0  0  0  0  0  0  0
    2.7561   -0.8657    0.0000 C   0  0  0  0  0  0  0  0  0  0  0  0
    3.8688   -1.8716    0.0000 C   0  0  0  0  0  0  0  0  0  0  0  0
    1.3286   -1.3263    0.0000 C   0  0  0  0  0  0  0  0  0  0  0  0
   -3.7518   -0.2356    0.0000 C   0  0  0  0  0  0  0  0  0  0  0  0
   -4.0666   -1.7022    0.0000 O   0  0  0  0  0  0  0  0  0  0  0  0
   -4.8644    0.7704    0.0000 O   0  0  0  0  0  0  0  0  0  0  0  0
  2  1  1  6
  2  3  1  0
  3  4  1  0
  4  5  1  0
  5  6  2  0
  6  7  1  0
  7  8  1  0
  7  9  2  0
  9 10  1  0
  9 11  1  0
  2 12  1  0
 12 13  2  0
 12 14  1  0
 11  4  2  0
M  END
>  <rName>  (1306) 
D-Phe_34diMe

>  <PQ_SYMBOL>  (1306) 
D-Phe_34diMe

>  <FULL_NAME>  (1306) 
3,4-Dimethyl-D-Phenylalanine

>  <IUPAC_CONDENSED>  (1306) 
D-Phe(3,4-diMe)

>  <IUPAC>  (1306) 
(2R)-2-amino-3-(3,4-dimethylphenyl)propanoic acid

>  <TYPE>  (1306) 
Backbone

>  <CLASS>  (1306) 
alpha

>  <ANALOG>  (1306) 
Phe

>  <MOL_WT>  (1306) 
193.24599999999998

>  <LOGP>  (1306) 
1.25784

>  <TPSA>  (1306) 
63.32000000000001

>  <POPULARITY>  (1306) 
7.4

>  <PROTECTED>  (1306) 
TRUE

>  <SMILES>  (1306) 
N[C@H](Cc1(ccc(C)c(C)c1))C(=O)O

>  <INCHIKEY>  (1306) 
PHTDECHKNDJYMG-SNVBAGLBSA-N

$$$$
D-Phe_34diOMe
     RDKit          2D

 16 16  0  0  0  0  0  0  0  0999 V2000
   -2.7122    1.7058    0.0000 N   0  0  0  0  0  0  0  0  0  0  0  0
   -2.9205    0.2203    0.0000 C   0  0  0  0  0  0  0  0  0  0  0  0
   -1.7383   -0.7029    0.0000 C   0  0  0  0  0  0  0  0  0  0  0  0
   -0.3477   -0.1406    0.0000 C   0  0  0  0  0  0  0  0  0  0  0  0
   -0.1393    1.3449    0.0000 C   0  0  0  0  0  0  0  0  0  0  0  0
    1.2513    1.9072    0.0000 C   0  0  0  0  0  0  0  0  0  0  0  0
    2.4336    0.9840    0.0000 C   0  0  0  0  0  0  0  0  0  0  0  0
    3.8242    1.5463    0.0000 O   0  0  0  0  0  0  0  0  0  0  0  0
    5.0065    0.6231    0.0000 C   0  0  0  0  0  0  0  0  0  0  0  0
    2.2252   -0.5015    0.0000 C   0  0  0  0  0  0  0  0  0  0  0  0
    3.4075   -1.4246    0.0000 O   0  0  0  0  0  0  0  0  0  0  0  0
    3.1991   -2.9101    0.0000 C   0  0  0  0  0  0  0  0  0  0  0  0
    0.8346   -1.0637    0.0000 C   0  0  0  0  0  0  0  0  0  0  0  0
   -4.3112   -0.3420    0.0000 C   0  0  0  0  0  0  0  0  0  0  0  0
   -4.5195   -1.8274    0.0000 O   0  0  0  0  0  0  0  0  0  0  0  0
   -5.4934    0.5812    0.0000 O   0  0  0  0  0  0  0  0  0  0  0  0
  2  1  1  6
  2  3  1  0
  3  4  1  0
  4  5  1  0
  5  6  2  0
  6  7  1  0
  7  8  1  0
  8  9  1  0
  7 10  2  0
 10 11  1  0
 11 12  1  0
 10 13  1  0
  2 14  1  0
 14 15  2  0
 14 16  1  0
 13  4  2  0
M  END
>  <rName>  (1307) 
D-Phe_34diOMe

>  <PQ_SYMBOL>  (1307) 
D-Phe_34diOMe

>  <FULL_NAME>  (1307) 
(2R)-2-amino-3-(3,4-dimethoxyphenyl)propanoic acid

>  <IUPAC_CONDENSED>  (1307) 
D-Phe(3,4-diOMe)

>  <IUPAC>  (1307) 
(2R)-2-amino-3-(3,4-dimethoxyphenyl)propanoic acid

>  <TYPE>  (1307) 
Backbone

>  <CLASS>  (1307) 
alpha

>  <ANALOG>  (1307) 
Tyr

>  <MOL_WT>  (1307) 
225.24399999999997

>  <LOGP>  (1307) 
0.6581999999999999

>  <TPSA>  (1307) 
81.78

>  <POPULARITY>  (1307) 
11.4

>  <PROTECTED>  (1307) 
TRUE

>  <SMILES>  (1307) 
N[C@H](Cc1(ccc(OC)c(OC)c1))C(=O)O

>  <INCHIKEY>  (1307) 
VWTFNYVAFGYEKI-MRVPVSSYSA-N

$$$$
D-Phe_35diCl
     RDKit          2D

 14 14  0  0  0  0  0  0  0  0999 V2000
   -1.8014    1.6047    0.0000 N   0  0  0  0  0  0  0  0  0  0  0  0
   -2.1617    0.1486    0.0000 C   0  0  0  0  0  0  0  0  0  0  0  0
   -1.0809   -0.8915    0.0000 C   0  0  0  0  0  0  0  0  0  0  0  0
    0.3603   -0.4755    0.0000 C   0  0  0  0  0  0  0  0  0  0  0  0
    0.7206    0.9806    0.0000 C   0  0  0  0  0  0  0  0  0  0  0  0
    2.1617    1.3967    0.0000 C   0  0  0  0  0  0  0  0  0  0  0  0
    2.5220    2.8527    0.0000 Cl  0  0  0  0  0  0  0  0  0  0  0  0
    3.2426    0.3566    0.0000 C   0  0  0  0  0  0  0  0  0  0  0  0
    2.8823   -1.0995    0.0000 C   0  0  0  0  0  0  0  0  0  0  0  0
    3.9632   -2.1396    0.0000 Cl  0  0  0  0  0  0  0  0  0  0  0  0
    1.4412   -1.5155    0.0000 C   0  0  0  0  0  0  0  0  0  0  0  0
   -3.6029   -0.2674    0.0000 C   0  0  0  0  0  0  0  0  0  0  0  0
   -3.9632   -1.7235    0.0000 O   0  0  0  0  0  0  0  0  0  0  0  0
   -4.6837    0.7726    0.0000 O   0  0  0  0  0  0  0  0  0  0  0  0
  2  1  1  6
  2  3  1  0
  3  4  1  0
  4  5  2  0
  5  6  1  0
  6  7  1  0
  6  8  2  0
  8  9  1  0
  9 10  1  0
  9 11  2  0
  2 12  1  0
 12 13  2  0
 12 14  1  0
 11  4  1  0
M  END
>  <rName>  (1308) 
D-Phe_35diCl

>  <PQ_SYMBOL>  (1308) 
D-Phe_35diCl

>  <FULL_NAME>  (1308) 
3,5-Dichloro-D-Phenylalanine

>  <IUPAC_CONDENSED>  (1308) 
D-Phe(3,5-diCl)

>  <IUPAC>  (1308) 
(2R)-2-amino-3-(3,5-dichlorophenyl)propanoic acid

>  <TYPE>  (1308) 
Backbone

>  <CLASS>  (1308) 
alpha

>  <ANALOG>  (1308) 
Phe

>  <MOL_WT>  (1308) 
234.082

>  <LOGP>  (1308) 
1.9478

>  <TPSA>  (1308) 
63.32000000000001

>  <POPULARITY>  (1308) 
5.0

>  <PROTECTED>  (1308) 
TRUE

>  <SMILES>  (1308) 
N[C@H](Cc1(cc(Cl)cc(Cl)c1))C(=O)O

>  <INCHIKEY>  (1308) 
UAODYKLBUMXKDC-MRVPVSSYSA-N

$$$$
D-Phe_35diF
     RDKit          2D

 14 14  0  0  0  0  0  0  0  0999 V2000
   -1.8014    1.6047    0.0000 N   0  0  0  0  0  0  0  0  0  0  0  0
   -2.1617    0.1486    0.0000 C   0  0  0  0  0  0  0  0  0  0  0  0
   -1.0809   -0.8915    0.0000 C   0  0  0  0  0  0  0  0  0  0  0  0
    0.3603   -0.4755    0.0000 C   0  0  0  0  0  0  0  0  0  0  0  0
    0.7206    0.9806    0.0000 C   0  0  0  0  0  0  0  0  0  0  0  0
    2.1617    1.3967    0.0000 C   0  0  0  0  0  0  0  0  0  0  0  0
    2.5220    2.8527    0.0000 F   0  0  0  0  0  0  0  0  0  0  0  0
    3.2426    0.3566    0.0000 C   0  0  0  0  0  0  0  0  0  0  0  0
    2.8823   -1.0995    0.0000 C   0  0  0  0  0  0  0  0  0  0  0  0
    3.9632   -2.1396    0.0000 F   0  0  0  0  0  0  0  0  0  0  0  0
    1.4412   -1.5155    0.0000 C   0  0  0  0  0  0  0  0  0  0  0  0
   -3.6029   -0.2674    0.0000 C   0  0  0  0  0  0  0  0  0  0  0  0
   -3.9632   -1.7235    0.0000 O   0  0  0  0  0  0  0  0  0  0  0  0
   -4.6837    0.7726    0.0000 O   0  0  0  0  0  0  0  0  0  0  0  0
  2  1  1  6
  2  3  1  0
  3  4  1  0
  4  5  2  0
  5  6  1  0
  6  7  1  0
  6  8  2  0
  8  9  1  0
  9 10  1  0
  9 11  2  0
  2 12  1  0
 12 13  2  0
 12 14  1  0
 11  4  1  0
M  END
>  <rName>  (1309) 
D-Phe_35diF

>  <PQ_SYMBOL>  (1309) 
D-Phe_35diF

>  <FULL_NAME>  (1309) 
3,5-Difluoro-D-Phenylalanine

>  <IUPAC_CONDENSED>  (1309) 
D-Phe(3,5-diF)

>  <IUPAC>  (1309) 
(2R)-2-amino-3-(3,5-difluorophenyl)propanoic acid

>  <TYPE>  (1309) 
Backbone

>  <CLASS>  (1309) 
alpha

>  <ANALOG>  (1309) 
Phe

>  <MOL_WT>  (1309) 
201.17199999999997

>  <LOGP>  (1309) 
0.9192

>  <TPSA>  (1309) 
63.32000000000001

>  <POPULARITY>  (1309) 
7.3

>  <PROTECTED>  (1309) 
TRUE

>  <SMILES>  (1309) 
N[C@H](Cc1(cc(F)cc(F)c1))C(=O)O

>  <INCHIKEY>  (1309) 
QFGMPXZFCIHYIR-MRVPVSSYSA-N

$$$$
D-Phe_35diOMe
     RDKit          2D

 16 16  0  0  0  0  0  0  0  0999 V2000
   -2.2713    1.6293    0.0000 N   0  0  0  0  0  0  0  0  0  0  0  0
   -2.6343    0.1739    0.0000 C   0  0  0  0  0  0  0  0  0  0  0  0
   -1.5554   -0.8682    0.0000 C   0  0  0  0  0  0  0  0  0  0  0  0
   -0.1134   -0.4548    0.0000 C   0  0  0  0  0  0  0  0  0  0  0  0
    0.2496    1.0006    0.0000 C   0  0  0  0  0  0  0  0  0  0  0  0
    1.6915    1.4139    0.0000 C   0  0  0  0  0  0  0  0  0  0  0  0
    2.0545    2.8694    0.0000 O   0  0  0  0  0  0  0  0  0  0  0  0
    3.4964    3.2827    0.0000 C   0  0  0  0  0  0  0  0  0  0  0  0
    2.7704    0.3719    0.0000 C   0  0  0  0  0  0  0  0  0  0  0  0
    2.4074   -1.0836    0.0000 C   0  0  0  0  0  0  0  0  0  0  0  0
    3.4863   -2.1256    0.0000 O   0  0  0  0  0  0  0  0  0  0  0  0
    3.1233   -3.5810    0.0000 C   0  0  0  0  0  0  0  0  0  0  0  0
    0.9655   -1.4969    0.0000 C   0  0  0  0  0  0  0  0  0  0  0  0
   -4.0762   -0.2394    0.0000 C   0  0  0  0  0  0  0  0  0  0  0  0
   -4.4392   -1.6948    0.0000 O   0  0  0  0  0  0  0  0  0  0  0  0
   -5.1551    0.8027    0.0000 O   0  0  0  0  0  0  0  0  0  0  0  0
  2  1  1  6
  2  3  1  0
  3  4  1  0
  4  5  2  0
  5  6  1  0
  6  7  1  0
  7  8  1  0
  6  9  2  0
  9 10  1  0
 10 11  1  0
 11 12  1  0
 10 13  2  0
  2 14  1  0
 14 15  2  0
 14 16  1  0
 13  4  1  0
M  END
>  <rName>  (1310) 
D-Phe_35diOMe

>  <PQ_SYMBOL>  (1310) 
D-Phe_35diOMe

>  <FULL_NAME>  (1310) 
3,5-Dimethoxy-D-phenylalanine

>  <IUPAC_CONDENSED>  (1310) 
D-Phe(3,5-diOMe)

>  <IUPAC>  (1310) 
(2R)-2-amino-3-(3,5-dimethoxyphenyl)propanoic acid

>  <TYPE>  (1310) 
Backbone

>  <CLASS>  (1310) 
alpha

>  <ANALOG>  (1310) 
Tyr

>  <MOL_WT>  (1310) 
225.24399999999997

>  <LOGP>  (1310) 
0.6581999999999999

>  <TPSA>  (1310) 
81.78

>  <POPULARITY>  (1310) 
2.2

>  <PROTECTED>  (1310) 
TRUE

>  <SMILES>  (1310) 
N[C@H](Cc1(cc(OC)cc(OC)c1))C(=O)O

>  <INCHIKEY>  (1310) 
RGJFWLUOTAIYGQ-SNVBAGLBSA-N

$$$$
D-Phe_3Br
     RDKit          2D

 13 13  0  0  0  0  0  0  0  0999 V2000
   -1.7680    1.6690    0.0000 N   0  0  0  0  0  0  0  0  0  0  0  0
   -1.9932    0.1860    0.0000 C   0  0  0  0  0  0  0  0  0  0  0  0
   -0.8215   -0.7506    0.0000 C   0  0  0  0  0  0  0  0  0  0  0  0
    0.5754   -0.2041    0.0000 C   0  0  0  0  0  0  0  0  0  0  0  0
    0.8006    1.2789    0.0000 C   0  0  0  0  0  0  0  0  0  0  0  0
    2.1976    1.8254    0.0000 C   0  0  0  0  0  0  0  0  0  0  0  0
    3.3693    0.8888    0.0000 C   0  0  0  0  0  0  0  0  0  0  0  0
    3.1441   -0.5942    0.0000 C   0  0  0  0  0  0  0  0  0  0  0  0
    4.3158   -1.5307    0.0000 Br  0  0  0  0  0  0  0  0  0  0  0  0
    1.7472   -1.1406    0.0000 C   0  0  0  0  0  0  0  0  0  0  0  0
   -3.3901   -0.3605    0.0000 C   0  0  0  0  0  0  0  0  0  0  0  0
   -3.6153   -1.8435    0.0000 O   0  0  0  0  0  0  0  0  0  0  0  0
   -4.5618    0.5760    0.0000 O   0  0  0  0  0  0  0  0  0  0  0  0
  2  1  1  6
  2  3  1  0
  3  4  1  0
  4  5  2  0
  5  6  1  0
  6  7  2  0
  7  8  1  0
  8  9  1  0
  8 10  2  0
  2 11  1  0
 11 12  2  0
 11 13  1  0
 10  4  1  0
M  END
>  <rName>  (1311) 
D-Phe_3Br

>  <PQ_SYMBOL>  (1311) 
D-Phe_3Br

>  <FULL_NAME>  (1311) 
(2R)-2-azanyl-3-(3-bromophenyl)propanoic acid

>  <IUPAC_CONDENSED>  (1311) 
D-Phe(3-Br)

>  <IUPAC>  (1311) 
(2R)-2-amino-3-(3-bromophenyl)propanoic acid

>  <TYPE>  (1311) 
Backbone

>  <CLASS>  (1311) 
alpha

>  <ANALOG>  (1311) 
Phe

>  <MOL_WT>  (1311) 
244.08799999999997

>  <LOGP>  (1311) 
1.4035000000000002

>  <TPSA>  (1311) 
63.32000000000001

>  <POPULARITY>  (1311) 
11.9

>  <PROTECTED>  (1311) 
TRUE

>  <SMILES>  (1311) 
N[C@H](Cc1(cccc(Br)c1))C(=O)O

>  <INCHIKEY>  (1311) 
GDMOHOYNMWWBAU-MRVPVSSYSA-N

$$$$
D-Phe_3Br_4F
     RDKit          2D

 14 14  0  0  0  0  0  0  0  0999 V2000
   -2.0094    1.6916    0.0000 N   0  0  0  0  0  0  0  0  0  0  0  0
   -2.3243    0.2250    0.0000 C   0  0  0  0  0  0  0  0  0  0  0  0
   -1.2116   -0.7809    0.0000 C   0  0  0  0  0  0  0  0  0  0  0  0
    0.2159   -0.3203    0.0000 C   0  0  0  0  0  0  0  0  0  0  0  0
    0.5308    1.1463    0.0000 C   0  0  0  0  0  0  0  0  0  0  0  0
    1.9583    1.6069    0.0000 C   0  0  0  0  0  0  0  0  0  0  0  0
    3.0710    0.6009    0.0000 C   0  0  0  0  0  0  0  0  0  0  0  0
    4.4985    1.0615    0.0000 F   0  0  0  0  0  0  0  0  0  0  0  0
    2.7561   -0.8657    0.0000 C   0  0  0  0  0  0  0  0  0  0  0  0
    3.8688   -1.8716    0.0000 Br  0  0  0  0  0  0  0  0  0  0  0  0
    1.3286   -1.3263    0.0000 C   0  0  0  0  0  0  0  0  0  0  0  0
   -3.7518   -0.2356    0.0000 C   0  0  0  0  0  0  0  0  0  0  0  0
   -4.0666   -1.7022    0.0000 O   0  0  0  0  0  0  0  0  0  0  0  0
   -4.8644    0.7704    0.0000 O   0  0  0  0  0  0  0  0  0  0  0  0
  2  1  1  6
  2  3  1  0
  3  4  1  0
  4  5  1  0
  5  6  2  0
  6  7  1  0
  7  8  1  0
  7  9  2  0
  9 10  1  0
  9 11  1  0
  2 12  1  0
 12 13  2  0
 12 14  1  0
 11  4  2  0
M  END
>  <rName>  (1312) 
D-Phe_3Br_4F

>  <PQ_SYMBOL>  (1312) 
D-Phe_3Br_4F

>  <FULL_NAME>  (1312) 
(R)-2-amino-3-(3-bromo-4-fluorophenyl)propanoic acid

>  <IUPAC_CONDENSED>  (1312) 
D-Phe(3-Br,4-F)

>  <IUPAC>  (1312) 
(2R)-2-amino-3-(3-bromo-4-fluorophenyl)propanoic acid

>  <TYPE>  (1312) 
Backbone

>  <CLASS>  (1312) 
alpha

>  <ANALOG>  (1312) 
Phe

>  <MOL_WT>  (1312) 
262.078

>  <LOGP>  (1312) 
1.5426000000000002

>  <TPSA>  (1312) 
63.32000000000001

>  <POPULARITY>  (1312) 
4.4

>  <PROTECTED>  (1312) 
TRUE

>  <SMILES>  (1312) 
N[C@H](Cc1(ccc(F)c(Br)c1))C(=O)O

>  <INCHIKEY>  (1312) 
FZVFOEFLGCXXCP-MRVPVSSYSA-N

$$$$
D-Phe_3CF3
     RDKit          2D

 16 16  0  0  0  0  0  0  0  0999 V2000
   -2.9171    1.6042    0.0000 N   0  0  0  0  0  0  0  0  0  0  0  0
   -2.9225    0.1042    0.0000 C   0  0  0  0  0  0  0  0  0  0  0  0
   -1.6261   -0.6504    0.0000 C   0  0  0  0  0  0  0  0  0  0  0  0
   -0.3244    0.0949    0.0000 C   0  0  0  0  0  0  0  0  0  0  0  0
   -0.3190    1.5949    0.0000 C   0  0  0  0  0  0  0  0  0  0  0  0
    0.9827    2.3402    0.0000 C   0  0  0  0  0  0  0  0  0  0  0  0
    2.2790    1.5856    0.0000 C   0  0  0  0  0  0  0  0  0  0  0  0
    2.2736    0.0856    0.0000 C   0  0  0  0  0  0  0  0  0  0  0  0
    0.9719   -0.6597    0.0000 C   0  0  0  0  0  0  0  0  0  0  0  0
    3.5700   -0.6691    0.0000 C   0  0  0  0  0  0  0  0  0  0  0  0
    4.8663   -1.4237    0.0000 F   0  0  0  0  0  0  0  0  0  0  0  0
    2.8153   -1.9654    0.0000 F   0  0  0  0  0  0  0  0  0  0  0  0
    4.3246    0.6273    0.0000 F   0  0  0  0  0  0  0  0  0  0  0  0
   -4.2242   -0.6411    0.0000 C   0  0  0  0  0  0  0  0  0  0  0  0
   -4.2296   -2.1411    0.0000 O   0  0  0  0  0  0  0  0  0  0  0  0
   -5.5205    0.1136    0.0000 O   0  0  0  0  0  0  0  0  0  0  0  0
  2  1  1  6
  2  3  1  0
  3  4  1  0
  4  5  1  0
  5  6  2  0
  6  7  1  0
  7  8  2  0
  8  9  1  0
  8 10  1  0
 10 11  1  0
 10 12  1  0
 10 13  1  0
  2 14  1  0
 14 15  2  0
 14 16  1  0
  9  4  2  0
M  END
>  <rName>  (1313) 
D-Phe_3CF3

>  <PQ_SYMBOL>  (1313) 
D-Phe_3CF3

>  <FULL_NAME>  (1313) 
3-Trifluoromethyl-D-Phenylalanine

>  <IUPAC_CONDENSED>  (1313) 
D-Phe(3-CF3)

>  <IUPAC>  (1313) 
(2R)-2-amino-3-(3-(trifluoromethyl)phenyl)propanoic acid

>  <TYPE>  (1313) 
Backbone

>  <CLASS>  (1313) 
alpha

>  <ANALOG>  (1313) 
Phe

>  <MOL_WT>  (1313) 
233.18899999999994

>  <LOGP>  (1313) 
1.6598000000000002

>  <TPSA>  (1313) 
63.32000000000001

>  <POPULARITY>  (1313) 
12.6

>  <PROTECTED>  (1313) 
TRUE

>  <SMILES>  (1313) 
N[C@H](Cc1(cccc(c1)C(F)(F)F))C(=O)O

>  <INCHIKEY>  (1313) 
BURBNIPKSRJAIQ-MRVPVSSYSA-N

$$$$
D-Phe_3CN
     RDKit          2D

 14 14  0  0  0  0  0  0  0  0999 V2000
   -2.3578    1.5845    0.0000 N   0  0  0  0  0  0  0  0  0  0  0  0
   -2.4110    0.0855    0.0000 C   0  0  0  0  0  0  0  0  0  0  0  0
   -1.1393   -0.7101    0.0000 C   0  0  0  0  0  0  0  0  0  0  0  0
    0.1855   -0.0066    0.0000 C   0  0  0  0  0  0  0  0  0  0  0  0
    0.2386    1.4925    0.0000 C   0  0  0  0  0  0  0  0  0  0  0  0
    1.5634    2.1960    0.0000 C   0  0  0  0  0  0  0  0  0  0  0  0
    2.8351    1.4004    0.0000 C   0  0  0  0  0  0  0  0  0  0  0  0
    2.7819   -0.0986    0.0000 C   0  0  0  0  0  0  0  0  0  0  0  0
    4.0535   -0.8942    0.0000 C   0  0  0  0  0  0  0  0  0  0  0  0
    5.3252   -1.6898    0.0000 N   0  0  0  0  0  0  0  0  0  0  0  0
    1.4571   -0.8021    0.0000 C   0  0  0  0  0  0  0  0  0  0  0  0
   -3.7358   -0.6180    0.0000 C   0  0  0  0  0  0  0  0  0  0  0  0
   -3.7889   -2.1171    0.0000 O   0  0  0  0  0  0  0  0  0  0  0  0
   -5.0074    0.1776    0.0000 O   0  0  0  0  0  0  0  0  0  0  0  0
  2  1  1  6
  2  3  1  0
  3  4  1  0
  4  5  2  0
  5  6  1  0
  6  7  2  0
  7  8  1  0
  8  9  1  0
  9 10  3  0
  8 11  2  0
  2 12  1  0
 12 13  2  0
 12 14  1  0
 11  4  1  0
M  END
>  <rName>  (1314) 
D-Phe_3CN

>  <PQ_SYMBOL>  (1314) 
D-Phe_3CN

>  <FULL_NAME>  (1314) 
3-Cyano-D-Phenylalanine

>  <IUPAC_CONDENSED>  (1314) 
D-Phe(3-CN)

>  <IUPAC>  (1314) 
(2R)-2-amino-3-(3-(nitrilomethyl)phenyl)propanoic acid

>  <TYPE>  (1314) 
Backbone

>  <CLASS>  (1314) 
alpha

>  <ANALOG>  (1314) 
Phe

>  <MOL_WT>  (1314) 
190.20199999999997

>  <LOGP>  (1314) 
0.5126800000000002

>  <TPSA>  (1314) 
87.11

>  <POPULARITY>  (1314) 
8.4

>  <PROTECTED>  (1314) 
TRUE

>  <SMILES>  (1314) 
N[C@H](Cc1(cccc(C#N)c1))C(=O)O

>  <INCHIKEY>  (1314) 
ZHUOMTMPTNZOJE-SECBINFHSA-N

$$$$
D-Phe_3CONH2
     RDKit          2D

 15 15  0  0  0  0  0  0  0  0999 V2000
   -2.6461    1.6149    0.0000 N   0  0  0  0  0  0  0  0  0  0  0  0
   -2.6827    0.1154    0.0000 C   0  0  0  0  0  0  0  0  0  0  0  0
   -1.4023   -0.6660    0.0000 C   0  0  0  0  0  0  0  0  0  0  0  0
   -0.0854    0.0521    0.0000 C   0  0  0  0  0  0  0  0  0  0  0  0
   -0.0488    1.5516    0.0000 C   0  0  0  0  0  0  0  0  0  0  0  0
    1.2681    2.2698    0.0000 C   0  0  0  0  0  0  0  0  0  0  0  0
    2.5485    1.4884    0.0000 C   0  0  0  0  0  0  0  0  0  0  0  0
    2.5119   -0.0112    0.0000 C   0  0  0  0  0  0  0  0  0  0  0  0
    1.1950   -0.7293    0.0000 C   0  0  0  0  0  0  0  0  0  0  0  0
    3.7923   -0.7926    0.0000 C   0  0  0  0  0  0  0  0  0  0  0  0
    5.1093   -0.0745    0.0000 O   0  0  0  0  0  0  0  0  0  0  0  0
    3.7558   -2.2922    0.0000 N   0  0  0  0  0  0  0  0  0  0  0  0
   -3.9996   -0.6028    0.0000 C   0  0  0  0  0  0  0  0  0  0  0  0
   -4.0361   -2.1023    0.0000 O   0  0  0  0  0  0  0  0  0  0  0  0
   -5.2800    0.1787    0.0000 O   0  0  0  0  0  0  0  0  0  0  0  0
  2  1  1  6
  2  3  1  0
  3  4  1  0
  4  5  1  0
  5  6  2  0
  6  7  1  0
  7  8  2  0
  8  9  1  0
  8 10  1  0
 10 11  2  0
 10 12  1  0
  2 13  1  0
 13 14  2  0
 13 15  1  0
  9  4  2  0
M  END
>  <rName>  (1315) 
D-Phe_3CONH2

>  <PQ_SYMBOL>  (1315) 
D-Phe_3CONH2

>  <FULL_NAME>  (1315) 
(R)-2-amino-3-(3-carbamoylphenyl)propanoic acid

>  <IUPAC_CONDENSED>  (1315) 
D-Phe(3-CONH2)

>  <IUPAC>  (1315) 
(2R)-2-amino-3-(3-carbamoylphenyl)propanoic acid

>  <TYPE>  (1315) 
Backbone

>  <CLASS>  (1315) 
alpha

>  <ANALOG>  (1315) 
Phe

>  <MOL_WT>  (1315) 
208.21699999999996

>  <LOGP>  (1315) 
-0.2601000000000003

>  <TPSA>  (1315) 
106.41000000000001

>  <POPULARITY>  (1315) 
5.3

>  <PROTECTED>  (1315) 
TRUE

>  <SMILES>  (1315) 
N[C@H](Cc1(cccc(c1)C(=O)N))C(=O)O

>  <INCHIKEY>  (1315) 
NUHHYFSZGZXEGU-MRVPVSSYSA-N

$$$$
D-Phe_3Cl
     RDKit          2D

 13 13  0  0  0  0  0  0  0  0999 V2000
   -1.7680    1.6690    0.0000 N   0  0  0  0  0  0  0  0  0  0  0  0
   -1.9932    0.1860    0.0000 C   0  0  0  0  0  0  0  0  0  0  0  0
   -0.8215   -0.7506    0.0000 C   0  0  0  0  0  0  0  0  0  0  0  0
    0.5754   -0.2041    0.0000 C   0  0  0  0  0  0  0  0  0  0  0  0
    0.8006    1.2789    0.0000 C   0  0  0  0  0  0  0  0  0  0  0  0
    2.1976    1.8254    0.0000 C   0  0  0  0  0  0  0  0  0  0  0  0
    3.3693    0.8888    0.0000 C   0  0  0  0  0  0  0  0  0  0  0  0
    3.1441   -0.5942    0.0000 C   0  0  0  0  0  0  0  0  0  0  0  0
    4.3158   -1.5307    0.0000 Cl  0  0  0  0  0  0  0  0  0  0  0  0
    1.7472   -1.1406    0.0000 C   0  0  0  0  0  0  0  0  0  0  0  0
   -3.3901   -0.3605    0.0000 C   0  0  0  0  0  0  0  0  0  0  0  0
   -3.6153   -1.8435    0.0000 O   0  0  0  0  0  0  0  0  0  0  0  0
   -4.5618    0.5760    0.0000 O   0  0  0  0  0  0  0  0  0  0  0  0
  2  1  1  6
  2  3  1  0
  3  4  1  0
  4  5  2  0
  5  6  1  0
  6  7  2  0
  7  8  1  0
  8  9  1  0
  8 10  2  0
  2 11  1  0
 11 12  2  0
 11 13  1  0
 10  4  1  0
M  END
>  <rName>  (1316) 
D-Phe_3Cl

>  <PQ_SYMBOL>  (1316) 
D-Phe_3Cl

>  <FULL_NAME>  (1316) 
3-Chloro-D-Phenylalanine

>  <IUPAC_CONDENSED>  (1316) 
D-Phe(3-Cl)

>  <IUPAC>  (1316) 
(2R)-2-amino-3-(3-chlorophenyl)propanoic acid

>  <TYPE>  (1316) 
Backbone

>  <CLASS>  (1316) 
alpha

>  <ANALOG>  (1316) 
Phe

>  <MOL_WT>  (1316) 
199.63699999999997

>  <LOGP>  (1316) 
1.2944000000000002

>  <TPSA>  (1316) 
63.32000000000001

>  <POPULARITY>  (1316) 
22.6

>  <PROTECTED>  (1316) 
TRUE

>  <SMILES>  (1316) 
N[C@H](Cc1(cccc(Cl)c1))C(=O)O

>  <INCHIKEY>  (1316) 
JJDJLFDGCUYZMN-MRVPVSSYSA-N

$$$$
D-Phe_3Cl_4Br
     RDKit          2D

 14 14  0  0  0  0  0  0  0  0999 V2000
   -2.0094    1.6916    0.0000 N   0  0  0  0  0  0  0  0  0  0  0  0
   -2.3243    0.2250    0.0000 C   0  0  0  0  0  0  0  0  0  0  0  0
   -1.2116   -0.7809    0.0000 C   0  0  0  0  0  0  0  0  0  0  0  0
    0.2159   -0.3203    0.0000 C   0  0  0  0  0  0  0  0  0  0  0  0
    0.5308    1.1463    0.0000 C   0  0  0  0  0  0  0  0  0  0  0  0
    1.9583    1.6069    0.0000 C   0  0  0  0  0  0  0  0  0  0  0  0
    3.0710    0.6009    0.0000 C   0  0  0  0  0  0  0  0  0  0  0  0
    4.4985    1.0615    0.0000 Br  0  0  0  0  0  0  0  0  0  0  0  0
    2.7561   -0.8657    0.0000 C   0  0  0  0  0  0  0  0  0  0  0  0
    3.8688   -1.8716    0.0000 Cl  0  0  0  0  0  0  0  0  0  0  0  0
    1.3286   -1.3263    0.0000 C   0  0  0  0  0  0  0  0  0  0  0  0
   -3.7518   -0.2356    0.0000 C   0  0  0  0  0  0  0  0  0  0  0  0
   -4.0666   -1.7022    0.0000 O   0  0  0  0  0  0  0  0  0  0  0  0
   -4.8644    0.7704    0.0000 O   0  0  0  0  0  0  0  0  0  0  0  0
  2  1  1  6
  2  3  1  0
  3  4  1  0
  4  5  1  0
  5  6  2  0
  6  7  1  0
  7  8  1  0
  7  9  2  0
  9 10  1  0
  9 11  1  0
  2 12  1  0
 12 13  2  0
 12 14  1  0
 11  4  2  0
M  END
>  <rName>  (1317) 
D-Phe_3Cl_4Br

>  <PQ_SYMBOL>  (1317) 
D-Phe_3Cl_4Br

>  <FULL_NAME>  (1317) 
4-Bromo-3-chloro-D-phenylalanine

>  <IUPAC_CONDENSED>  (1317) 
D-Phe(3-Cl,4-Br)

>  <IUPAC>  (1317) 
(2R)-2-amino-3-(4-bromo-3-chlorophenyl)propanoic acid

>  <TYPE>  (1317) 
Backbone

>  <CLASS>  (1317) 
alpha

>  <ANALOG>  (1317) 
Phe

>  <MOL_WT>  (1317) 
278.53299999999996

>  <LOGP>  (1317) 
2.0568999999999997

>  <TPSA>  (1317) 
63.32000000000001

>  <POPULARITY>  (1317) 
2.2

>  <PROTECTED>  (1317) 
TRUE

>  <SMILES>  (1317) 
N[C@H](Cc1(ccc(Br)c(Cl)c1))C(=O)O

>  <INCHIKEY>  (1317) 
UVYYZJNXPYEHML-MRVPVSSYSA-N

$$$$
D-Phe_3Cl_4Me
     RDKit          2D

 14 14  0  0  0  0  0  0  0  0999 V2000
   -2.0094    1.6916    0.0000 N   0  0  0  0  0  0  0  0  0  0  0  0
   -2.3243    0.2250    0.0000 C   0  0  0  0  0  0  0  0  0  0  0  0
   -1.2116   -0.7809    0.0000 C   0  0  0  0  0  0  0  0  0  0  0  0
    0.2159   -0.3203    0.0000 C   0  0  0  0  0  0  0  0  0  0  0  0
    0.5308    1.1463    0.0000 C   0  0  0  0  0  0  0  0  0  0  0  0
    1.9583    1.6069    0.0000 C   0  0  0  0  0  0  0  0  0  0  0  0
    3.0710    0.6009    0.0000 C   0  0  0  0  0  0  0  0  0  0  0  0
    4.4985    1.0615    0.0000 C   0  0  0  0  0  0  0  0  0  0  0  0
    2.7561   -0.8657    0.0000 C   0  0  0  0  0  0  0  0  0  0  0  0
    3.8688   -1.8716    0.0000 Cl  0  0  0  0  0  0  0  0  0  0  0  0
    1.3286   -1.3263    0.0000 C   0  0  0  0  0  0  0  0  0  0  0  0
   -3.7518   -0.2356    0.0000 C   0  0  0  0  0  0  0  0  0  0  0  0
   -4.0666   -1.7022    0.0000 O   0  0  0  0  0  0  0  0  0  0  0  0
   -4.8644    0.7704    0.0000 O   0  0  0  0  0  0  0  0  0  0  0  0
  2  1  1  6
  2  3  1  0
  3  4  1  0
  4  5  1  0
  5  6  2  0
  6  7  1  0
  7  8  1  0
  7  9  2  0
  9 10  1  0
  9 11  1  0
  2 12  1  0
 12 13  2  0
 12 14  1  0
 11  4  2  0
M  END
>  <rName>  (1318) 
D-Phe_3Cl_4Me

>  <PQ_SYMBOL>  (1318) 
D-Phe_3Cl_4Me

>  <FULL_NAME>  (1318) 
3-Chloro-4-Methyl-D-Phenylalanine

>  <IUPAC_CONDENSED>  (1318) 
D-Phe(3-Cl,4-Me)

>  <IUPAC>  (1318) 
(2R)-2-amino-3-(3-chloro-4-methylphenyl)propanoic acid

>  <TYPE>  (1318) 
Backbone

>  <CLASS>  (1318) 
alpha

>  <ANALOG>  (1318) 
Phe

>  <MOL_WT>  (1318) 
213.664

>  <LOGP>  (1318) 
1.6028200000000001

>  <TPSA>  (1318) 
63.32000000000001

>  <POPULARITY>  (1318) 
4.5

>  <PROTECTED>  (1318) 
TRUE

>  <SMILES>  (1318) 
N[C@H](Cc1(ccc(C)c(Cl)c1))C(=O)O

>  <INCHIKEY>  (1318) 
AMMKDLMOXARMLH-SECBINFHSA-N

$$$$
D-Phe_3Cl_4OMe
     RDKit          2D

 15 15  0  0  0  0  0  0  0  0999 V2000
   -2.3798    1.6931    0.0000 N   0  0  0  0  0  0  0  0  0  0  0  0
   -2.6978    0.2272    0.0000 C   0  0  0  0  0  0  0  0  0  0  0  0
   -1.5874   -0.7812    0.0000 C   0  0  0  0  0  0  0  0  0  0  0  0
   -0.1588   -0.3237    0.0000 C   0  0  0  0  0  0  0  0  0  0  0  0
    0.1592    1.1422    0.0000 C   0  0  0  0  0  0  0  0  0  0  0  0
    1.5877    1.5997    0.0000 C   0  0  0  0  0  0  0  0  0  0  0  0
    2.6982    0.5914    0.0000 C   0  0  0  0  0  0  0  0  0  0  0  0
    4.1267    1.0489    0.0000 O   0  0  0  0  0  0  0  0  0  0  0  0
    5.2372    0.0405    0.0000 C   0  0  0  0  0  0  0  0  0  0  0  0
    2.3802   -0.8745    0.0000 C   0  0  0  0  0  0  0  0  0  0  0  0
    3.4906   -1.8829    0.0000 Cl  0  0  0  0  0  0  0  0  0  0  0  0
    0.9516   -1.3321    0.0000 C   0  0  0  0  0  0  0  0  0  0  0  0
   -4.1264   -0.2303    0.0000 C   0  0  0  0  0  0  0  0  0  0  0  0
   -4.4444   -1.6962    0.0000 O   0  0  0  0  0  0  0  0  0  0  0  0
   -5.2369    0.7780    0.0000 O   0  0  0  0  0  0  0  0  0  0  0  0
  2  1  1  6
  2  3  1  0
  3  4  1  0
  4  5  1  0
  5  6  2  0
  6  7  1  0
  7  8  1  0
  8  9  1  0
  7 10  2  0
 10 11  1  0
 10 12  1  0
  2 13  1  0
 13 14  2  0
 13 15  1  0
 12  4  2  0
M  END
>  <rName>  (1319) 
D-Phe_3Cl_4OMe

>  <PQ_SYMBOL>  (1319) 
D-Phe_3Cl_4OMe

>  <FULL_NAME>  (1319) 
(R)-2-amino-3-(3-chloro-4-methoxyphenyl)propanoic acid

>  <IUPAC_CONDENSED>  (1319) 
D-Phe(3-Cl,4-OMe)

>  <IUPAC>  (1319) 
(2R)-2-amino-3-(3-chloro-4-methoxyphenyl)propanoic acid

>  <TYPE>  (1319) 
Backbone

>  <CLASS>  (1319) 
alpha

>  <ANALOG>  (1319) 
Tyr

>  <MOL_WT>  (1319) 
229.66299999999998

>  <LOGP>  (1319) 
1.303

>  <TPSA>  (1319) 
72.55

>  <POPULARITY>  (1319) 
7.7

>  <PROTECTED>  (1319) 
TRUE

>  <SMILES>  (1319) 
N[C@H](Cc1(ccc(OC)c(Cl)c1))C(=O)O

>  <INCHIKEY>  (1319) 
FVFCTFGTAWTEIF-MRVPVSSYSA-N

$$$$
D-Phe_3Et
     RDKit          2D

 14 14  0  0  0  0  0  0  0  0999 V2000
   -2.2742    1.6194    0.0000 N   0  0  0  0  0  0  0  0  0  0  0  0
   -2.3172    0.1200    0.0000 C   0  0  0  0  0  0  0  0  0  0  0  0
   -1.0402   -0.6669    0.0000 C   0  0  0  0  0  0  0  0  0  0  0  0
    0.2798    0.0456    0.0000 C   0  0  0  0  0  0  0  0  0  0  0  0
    0.3228    1.5450    0.0000 C   0  0  0  0  0  0  0  0  0  0  0  0
    1.6428    2.2574    0.0000 C   0  0  0  0  0  0  0  0  0  0  0  0
    2.9198    1.4705    0.0000 C   0  0  0  0  0  0  0  0  0  0  0  0
    2.8768   -0.0289    0.0000 C   0  0  0  0  0  0  0  0  0  0  0  0
    1.5568   -0.7414    0.0000 C   0  0  0  0  0  0  0  0  0  0  0  0
    4.1538   -0.8158    0.0000 C   0  0  0  0  0  0  0  0  0  0  0  0
    4.1108   -2.3152    0.0000 C   0  0  0  0  0  0  0  0  0  0  0  0
   -3.6372   -0.5924    0.0000 C   0  0  0  0  0  0  0  0  0  0  0  0
   -3.6802   -2.0918    0.0000 O   0  0  0  0  0  0  0  0  0  0  0  0
   -4.9142    0.1945    0.0000 O   0  0  0  0  0  0  0  0  0  0  0  0
  2  1  1  6
  2  3  1  0
  3  4  1  0
  4  5  2  0
  5  6  1  0
  6  7  2  0
  7  8  1  0
  8  9  2  0
  8 10  1  0
 10 11  1  0
  2 12  1  0
 12 13  2  0
 12 14  1  0
  9  4  1  0
M  END
>  <rName>  (1320) 
D-Phe_3Et

>  <PQ_SYMBOL>  (1320) 
D-Phe_3Et

>  <FULL_NAME>  (1320) 
3-Ethyl-D-Phenylalanine

>  <IUPAC_CONDENSED>  (1320) 
D-Phe(3-Et)

>  <IUPAC>  (1320) 
(2R)-2-amino-3-(3-ethylphenyl)propanoic acid

>  <TYPE>  (1320) 
Backbone

>  <CLASS>  (1320) 
alpha

>  <ANALOG>  (1320) 
Phe

>  <MOL_WT>  (1320) 
193.24599999999995

>  <LOGP>  (1320) 
1.2034000000000002

>  <TPSA>  (1320) 
63.32000000000001

>  <POPULARITY>  (1320) 
7.4

>  <PROTECTED>  (1320) 
TRUE

>  <SMILES>  (1320) 
N[C@H](Cc1(cccc(c1)CC))C(=O)O

>  <INCHIKEY>  (1320) 
VBHQPSVGLVGLLD-SNVBAGLBSA-N

$$$$
D-Phe_3F
     RDKit          2D

 13 13  0  0  0  0  0  0  0  0999 V2000
   -1.7680    1.6690    0.0000 N   0  0  0  0  0  0  0  0  0  0  0  0
   -1.9932    0.1860    0.0000 C   0  0  0  0  0  0  0  0  0  0  0  0
   -0.8215   -0.7506    0.0000 C   0  0  0  0  0  0  0  0  0  0  0  0
    0.5754   -0.2041    0.0000 C   0  0  0  0  0  0  0  0  0  0  0  0
    0.8006    1.2789    0.0000 C   0  0  0  0  0  0  0  0  0  0  0  0
    2.1976    1.8254    0.0000 C   0  0  0  0  0  0  0  0  0  0  0  0
    3.3693    0.8888    0.0000 C   0  0  0  0  0  0  0  0  0  0  0  0
    3.1441   -0.5942    0.0000 C   0  0  0  0  0  0  0  0  0  0  0  0
    4.3158   -1.5307    0.0000 F   0  0  0  0  0  0  0  0  0  0  0  0
    1.7472   -1.1406    0.0000 C   0  0  0  0  0  0  0  0  0  0  0  0
   -3.3901   -0.3605    0.0000 C   0  0  0  0  0  0  0  0  0  0  0  0
   -3.6153   -1.8435    0.0000 O   0  0  0  0  0  0  0  0  0  0  0  0
   -4.5618    0.5760    0.0000 O   0  0  0  0  0  0  0  0  0  0  0  0
  2  1  1  6
  2  3  1  0
  3  4  1  0
  4  5  2  0
  5  6  1  0
  6  7  2  0
  7  8  1  0
  8  9  1  0
  8 10  2  0
  2 11  1  0
 11 12  2  0
 11 13  1  0
 10  4  1  0
M  END
>  <rName>  (1321) 
D-Phe_3F

>  <PQ_SYMBOL>  (1321) 
D-Phe_3F

>  <FULL_NAME>  (1321) 
3-fluoro-D-phenylalanine

>  <IUPAC_CONDENSED>  (1321) 
D-Phe(3-F)

>  <IUPAC>  (1321) 
(2R)-2-amino-3-(3-fluorophenyl)propanoic acid

>  <TYPE>  (1321) 
Backbone

>  <CLASS>  (1321) 
alpha

>  <ANALOG>  (1321) 
Phe

>  <MOL_WT>  (1321) 
183.182

>  <LOGP>  (1321) 
0.7801000000000002

>  <TPSA>  (1321) 
63.32000000000001

>  <POPULARITY>  (1321) 
13.5

>  <PROTECTED>  (1321) 
TRUE

>  <SMILES>  (1321) 
N[C@H](Cc1(cccc(F)c1))C(=O)O

>  <INCHIKEY>  (1321) 
VWHRYODZTDMVSS-MRVPVSSYSA-N

$$$$
D-Phe_3F_4Br
     RDKit          2D

 14 14  0  0  0  0  0  0  0  0999 V2000
   -2.0094    1.6916    0.0000 N   0  0  0  0  0  0  0  0  0  0  0  0
   -2.3243    0.2250    0.0000 C   0  0  0  0  0  0  0  0  0  0  0  0
   -1.2116   -0.7809    0.0000 C   0  0  0  0  0  0  0  0  0  0  0  0
    0.2159   -0.3203    0.0000 C   0  0  0  0  0  0  0  0  0  0  0  0
    0.5308    1.1463    0.0000 C   0  0  0  0  0  0  0  0  0  0  0  0
    1.9583    1.6069    0.0000 C   0  0  0  0  0  0  0  0  0  0  0  0
    3.0710    0.6009    0.0000 C   0  0  0  0  0  0  0  0  0  0  0  0
    4.4985    1.0615    0.0000 Br  0  0  0  0  0  0  0  0  0  0  0  0
    2.7561   -0.8657    0.0000 C   0  0  0  0  0  0  0  0  0  0  0  0
    3.8688   -1.8716    0.0000 F   0  0  0  0  0  0  0  0  0  0  0  0
    1.3286   -1.3263    0.0000 C   0  0  0  0  0  0  0  0  0  0  0  0
   -3.7518   -0.2356    0.0000 C   0  0  0  0  0  0  0  0  0  0  0  0
   -4.0666   -1.7022    0.0000 O   0  0  0  0  0  0  0  0  0  0  0  0
   -4.8644    0.7704    0.0000 O   0  0  0  0  0  0  0  0  0  0  0  0
  2  1  1  6
  2  3  1  0
  3  4  1  0
  4  5  1  0
  5  6  2  0
  6  7  1  0
  7  8  1  0
  7  9  2  0
  9 10  1  0
  9 11  1  0
  2 12  1  0
 12 13  2  0
 12 14  1  0
 11  4  2  0
M  END
>  <rName>  (1322) 
D-Phe_3F_4Br

>  <PQ_SYMBOL>  (1322) 
D-Phe_3F_4Br

>  <FULL_NAME>  (1322) 
4-Bromo-3-fluoro-D-phenylalanine

>  <IUPAC_CONDENSED>  (1322) 
D-Phe(3-F,4-Br)

>  <IUPAC>  (1322) 
(2R)-2-amino-3-(4-bromo-3-fluorophenyl)propanoic acid

>  <TYPE>  (1322) 
Backbone

>  <CLASS>  (1322) 
alpha

>  <ANALOG>  (1322) 
Phe

>  <MOL_WT>  (1322) 
262.0779999999999

>  <LOGP>  (1322) 
1.5426000000000002

>  <TPSA>  (1322) 
63.32000000000001

>  <POPULARITY>  (1322) 
2.2

>  <PROTECTED>  (1322) 
TRUE

>  <SMILES>  (1322) 
N[C@H](Cc1(ccc(Br)c(F)c1))C(=O)O

>  <INCHIKEY>  (1322) 
KNQZVZHVJCIMTL-MRVPVSSYSA-N

$$$$
D-Phe_3F_4Cl
     RDKit          2D

 14 14  0  0  0  0  0  0  0  0999 V2000
   -2.0094    1.6916    0.0000 N   0  0  0  0  0  0  0  0  0  0  0  0
   -2.3243    0.2250    0.0000 C   0  0  0  0  0  0  0  0  0  0  0  0
   -1.2116   -0.7809    0.0000 C   0  0  0  0  0  0  0  0  0  0  0  0
    0.2159   -0.3203    0.0000 C   0  0  0  0  0  0  0  0  0  0  0  0
    0.5308    1.1463    0.0000 C   0  0  0  0  0  0  0  0  0  0  0  0
    1.9583    1.6069    0.0000 C   0  0  0  0  0  0  0  0  0  0  0  0
    3.0710    0.6009    0.0000 C   0  0  0  0  0  0  0  0  0  0  0  0
    4.4985    1.0615    0.0000 Cl  0  0  0  0  0  0  0  0  0  0  0  0
    2.7561   -0.8657    0.0000 C   0  0  0  0  0  0  0  0  0  0  0  0
    3.8688   -1.8716    0.0000 F   0  0  0  0  0  0  0  0  0  0  0  0
    1.3286   -1.3263    0.0000 C   0  0  0  0  0  0  0  0  0  0  0  0
   -3.7518   -0.2356    0.0000 C   0  0  0  0  0  0  0  0  0  0  0  0
   -4.0666   -1.7022    0.0000 O   0  0  0  0  0  0  0  0  0  0  0  0
   -4.8644    0.7704    0.0000 O   0  0  0  0  0  0  0  0  0  0  0  0
  2  1  1  6
  2  3  1  0
  3  4  1  0
  4  5  1  0
  5  6  2  0
  6  7  1  0
  7  8  1  0
  7  9  2  0
  9 10  1  0
  9 11  1  0
  2 12  1  0
 12 13  2  0
 12 14  1  0
 11  4  2  0
M  END
>  <rName>  (1323) 
D-Phe_3F_4Cl

>  <PQ_SYMBOL>  (1323) 
D-Phe_3F_4Cl

>  <FULL_NAME>  (1323) 
(2R)-2-amino-3-(4-chloro-3-fluorophenyl)propanoic acid

>  <IUPAC_CONDENSED>  (1323) 
D-Phe(3-F,4-Cl)

>  <IUPAC>  (1323) 
(2R)-2-amino-3-(4-chloro-3-fluorophenyl)propanoic acid

>  <TYPE>  (1323) 
Backbone

>  <CLASS>  (1323) 
alpha

>  <ANALOG>  (1323) 
Phe

>  <MOL_WT>  (1323) 
217.62699999999998

>  <LOGP>  (1323) 
1.4335000000000002

>  <TPSA>  (1323) 
63.32000000000001

>  <POPULARITY>  (1323) 
2.2

>  <PROTECTED>  (1323) 
TRUE

>  <SMILES>  (1323) 
N[C@H](Cc1(ccc(Cl)c(F)c1))C(=O)O

>  <INCHIKEY>  (1323) 
GARTVDUTCAAMSC-MRVPVSSYSA-N

$$$$
D-Phe_3F_4Me
     RDKit          2D

 14 14  0  0  0  0  0  0  0  0999 V2000
   -2.0094    1.6916    0.0000 N   0  0  0  0  0  0  0  0  0  0  0  0
   -2.3243    0.2250    0.0000 C   0  0  0  0  0  0  0  0  0  0  0  0
   -1.2116   -0.7809    0.0000 C   0  0  0  0  0  0  0  0  0  0  0  0
    0.2159   -0.3203    0.0000 C   0  0  0  0  0  0  0  0  0  0  0  0
    0.5308    1.1463    0.0000 C   0  0  0  0  0  0  0  0  0  0  0  0
    1.9583    1.6069    0.0000 C   0  0  0  0  0  0  0  0  0  0  0  0
    3.0710    0.6009    0.0000 C   0  0  0  0  0  0  0  0  0  0  0  0
    4.4985    1.0615    0.0000 C   0  0  0  0  0  0  0  0  0  0  0  0
    2.7561   -0.8657    0.0000 C   0  0  0  0  0  0  0  0  0  0  0  0
    3.8688   -1.8716    0.0000 F   0  0  0  0  0  0  0  0  0  0  0  0
    1.3286   -1.3263    0.0000 C   0  0  0  0  0  0  0  0  0  0  0  0
   -3.7518   -0.2356    0.0000 C   0  0  0  0  0  0  0  0  0  0  0  0
   -4.0666   -1.7022    0.0000 O   0  0  0  0  0  0  0  0  0  0  0  0
   -4.8644    0.7704    0.0000 O   0  0  0  0  0  0  0  0  0  0  0  0
  2  1  1  6
  2  3  1  0
  3  4  1  0
  4  5  1  0
  5  6  2  0
  6  7  1  0
  7  8  1  0
  7  9  2  0
  9 10  1  0
  9 11  1  0
  2 12  1  0
 12 13  2  0
 12 14  1  0
 11  4  2  0
M  END
>  <rName>  (1324) 
D-Phe_3F_4Me

>  <PQ_SYMBOL>  (1324) 
D-Phe_3F_4Me

>  <FULL_NAME>  (1324) 
3-Fluoro-4-Methyl-D-Phenylalanine

>  <IUPAC_CONDENSED>  (1324) 
D-Phe(3-F,4-Me)

>  <IUPAC>  (1324) 
(2R)-2-amino-3-(3-fluoro-4-methylphenyl)propanoic acid

>  <TYPE>  (1324) 
Backbone

>  <CLASS>  (1324) 
alpha

>  <ANALOG>  (1324) 
Phe

>  <MOL_WT>  (1324) 
197.20899999999997

>  <LOGP>  (1324) 
1.0885200000000002

>  <TPSA>  (1324) 
63.32000000000001

>  <POPULARITY>  (1324) 
5.2

>  <PROTECTED>  (1324) 
TRUE

>  <SMILES>  (1324) 
N[C@H](Cc1(ccc(C)c(F)c1))C(=O)O

>  <INCHIKEY>  (1324) 
MUTNDIMQYVVGMX-SECBINFHSA-N

$$$$
D-Phe_3F_4OMe
     RDKit          2D

 15 15  0  0  0  0  0  0  0  0999 V2000
   -2.3798    1.6931    0.0000 N   0  0  0  0  0  0  0  0  0  0  0  0
   -2.6978    0.2272    0.0000 C   0  0  0  0  0  0  0  0  0  0  0  0
   -1.5874   -0.7812    0.0000 C   0  0  0  0  0  0  0  0  0  0  0  0
   -0.1588   -0.3237    0.0000 C   0  0  0  0  0  0  0  0  0  0  0  0
    0.1592    1.1422    0.0000 C   0  0  0  0  0  0  0  0  0  0  0  0
    1.5877    1.5997    0.0000 C   0  0  0  0  0  0  0  0  0  0  0  0
    2.6982    0.5914    0.0000 C   0  0  0  0  0  0  0  0  0  0  0  0
    4.1267    1.0489    0.0000 O   0  0  0  0  0  0  0  0  0  0  0  0
    5.2372    0.0405    0.0000 C   0  0  0  0  0  0  0  0  0  0  0  0
    2.3802   -0.8745    0.0000 C   0  0  0  0  0  0  0  0  0  0  0  0
    3.4906   -1.8829    0.0000 F   0  0  0  0  0  0  0  0  0  0  0  0
    0.9516   -1.3321    0.0000 C   0  0  0  0  0  0  0  0  0  0  0  0
   -4.1264   -0.2303    0.0000 C   0  0  0  0  0  0  0  0  0  0  0  0
   -4.4444   -1.6962    0.0000 O   0  0  0  0  0  0  0  0  0  0  0  0
   -5.2369    0.7780    0.0000 O   0  0  0  0  0  0  0  0  0  0  0  0
  2  1  1  6
  2  3  1  0
  3  4  1  0
  4  5  1  0
  5  6  2  0
  6  7  1  0
  7  8  1  0
  8  9  1  0
  7 10  2  0
 10 11  1  0
 10 12  1  0
  2 13  1  0
 13 14  2  0
 13 15  1  0
 12  4  2  0
M  END
>  <rName>  (1325) 
D-Phe_3F_4OMe

>  <PQ_SYMBOL>  (1325) 
D-Phe_3F_4OMe

>  <FULL_NAME>  (1325) 
(R)-2-amino-3-(3-fluoro-4-methoxyphenyl)propanoic acid

>  <IUPAC_CONDENSED>  (1325) 
D-Phe(3-F,4-OMe)

>  <IUPAC>  (1325) 
(2R)-2-amino-3-(3-fluoro-4-methoxyphenyl)propanoic acid

>  <TYPE>  (1325) 
Backbone

>  <CLASS>  (1325) 
alpha

>  <ANALOG>  (1325) 
Tyr

>  <MOL_WT>  (1325) 
213.20799999999997

>  <LOGP>  (1325) 
0.7887000000000002

>  <TPSA>  (1325) 
72.55

>  <POPULARITY>  (1325) 
5.0

>  <PROTECTED>  (1325) 
TRUE

>  <SMILES>  (1325) 
N[C@H](Cc1(ccc(OC)c(F)c1))C(=O)O

>  <INCHIKEY>  (1325) 
ZESXBIYTDJAZSP-MRVPVSSYSA-N

$$$$
D-Phe_3F_5Br
     RDKit          2D

 14 14  0  0  0  0  0  0  0  0999 V2000
   -1.8014    1.6047    0.0000 N   0  0  0  0  0  0  0  0  0  0  0  0
   -2.1617    0.1486    0.0000 C   0  0  0  0  0  0  0  0  0  0  0  0
   -1.0809   -0.8915    0.0000 C   0  0  0  0  0  0  0  0  0  0  0  0
    0.3603   -0.4755    0.0000 C   0  0  0  0  0  0  0  0  0  0  0  0
    0.7206    0.9806    0.0000 C   0  0  0  0  0  0  0  0  0  0  0  0
    2.1617    1.3967    0.0000 C   0  0  0  0  0  0  0  0  0  0  0  0
    2.5220    2.8527    0.0000 F   0  0  0  0  0  0  0  0  0  0  0  0
    3.2426    0.3566    0.0000 C   0  0  0  0  0  0  0  0  0  0  0  0
    2.8823   -1.0995    0.0000 C   0  0  0  0  0  0  0  0  0  0  0  0
    3.9632   -2.1396    0.0000 Br  0  0  0  0  0  0  0  0  0  0  0  0
    1.4412   -1.5155    0.0000 C   0  0  0  0  0  0  0  0  0  0  0  0
   -3.6029   -0.2674    0.0000 C   0  0  0  0  0  0  0  0  0  0  0  0
   -3.9632   -1.7235    0.0000 O   0  0  0  0  0  0  0  0  0  0  0  0
   -4.6837    0.7726    0.0000 O   0  0  0  0  0  0  0  0  0  0  0  0
  2  1  1  6
  2  3  1  0
  3  4  1  0
  4  5  2  0
  5  6  1  0
  6  7  1  0
  6  8  2  0
  8  9  1  0
  9 10  1  0
  9 11  2  0
  2 12  1  0
 12 13  2  0
 12 14  1  0
 11  4  1  0
M  END
>  <rName>  (1326) 
D-Phe_3F_5Br

>  <PQ_SYMBOL>  (1326) 
D-Phe_3F_5Br

>  <FULL_NAME>  (1326) 
3-Bromo-5-fluoro-D-phenylalanine

>  <IUPAC_CONDENSED>  (1326) 
D-Phe(3-F,5-Br)

>  <IUPAC>  (1326) 
(2R)-2-amino-3-(3-bromo-5-fluorophenyl)propanoic acid

>  <TYPE>  (1326) 
Backbone

>  <CLASS>  (1326) 
alpha

>  <ANALOG>  (1326) 
Phe

>  <MOL_WT>  (1326) 
262.078

>  <LOGP>  (1326) 
1.5426000000000002

>  <TPSA>  (1326) 
63.32000000000001

>  <POPULARITY>  (1326) 
2.2

>  <PROTECTED>  (1326) 
TRUE

>  <SMILES>  (1326) 
N[C@H](Cc1(cc(F)cc(Br)c1))C(=O)O

>  <INCHIKEY>  (1326) 
FUHSSCCQGTWFBQ-MRVPVSSYSA-N

$$$$
D-Phe_3I
     RDKit          2D

 13 13  0  0  0  0  0  0  0  0999 V2000
   -1.7680    1.6690    0.0000 N   0  0  0  0  0  0  0  0  0  0  0  0
   -1.9932    0.1860    0.0000 C   0  0  0  0  0  0  0  0  0  0  0  0
   -0.8215   -0.7506    0.0000 C   0  0  0  0  0  0  0  0  0  0  0  0
    0.5754   -0.2041    0.0000 C   0  0  0  0  0  0  0  0  0  0  0  0
    0.8006    1.2789    0.0000 C   0  0  0  0  0  0  0  0  0  0  0  0
    2.1976    1.8254    0.0000 C   0  0  0  0  0  0  0  0  0  0  0  0
    3.3693    0.8888    0.0000 C   0  0  0  0  0  0  0  0  0  0  0  0
    3.1441   -0.5942    0.0000 C   0  0  0  0  0  0  0  0  0  0  0  0
    4.3158   -1.5307    0.0000 I   0  0  0  0  0  0  0  0  0  0  0  0
    1.7472   -1.1406    0.0000 C   0  0  0  0  0  0  0  0  0  0  0  0
   -3.3901   -0.3605    0.0000 C   0  0  0  0  0  0  0  0  0  0  0  0
   -3.6153   -1.8435    0.0000 O   0  0  0  0  0  0  0  0  0  0  0  0
   -4.5618    0.5760    0.0000 O   0  0  0  0  0  0  0  0  0  0  0  0
  2  1  1  6
  2  3  1  0
  3  4  1  0
  4  5  2  0
  5  6  1  0
  6  7  2  0
  7  8  1  0
  8  9  1  0
  8 10  2  0
  2 11  1  0
 11 12  2  0
 11 13  1  0
 10  4  1  0
M  END
>  <rName>  (1327) 
D-Phe_3I

>  <PQ_SYMBOL>  (1327) 
D-Phe_3I

>  <FULL_NAME>  (1327) 
(R)-2-amino-3-(3-iodophenyl)propanoic acid

>  <IUPAC_CONDENSED>  (1327) 
D-Phe(3-I)

>  <IUPAC>  (1327) 
(2R)-2-amino-3-(3-iodophenyl)propanoic acid

>  <TYPE>  (1327) 
Backbone

>  <CLASS>  (1327) 
alpha

>  <ANALOG>  (1327) 
Phe

>  <MOL_WT>  (1327) 
291.088

>  <LOGP>  (1327) 
1.2456000000000003

>  <TPSA>  (1327) 
63.32000000000001

>  <POPULARITY>  (1327) 
8.7

>  <PROTECTED>  (1327) 
TRUE

>  <SMILES>  (1327) 
N[C@H](Cc1(cccc(I)c1))C(=O)O

>  <INCHIKEY>  (1327) 
BABTYIKKTLTNRX-MRVPVSSYSA-N

$$$$
D-Phe_3Me
     RDKit          2D

 13 13  0  0  0  0  0  0  0  0999 V2000
   -1.7680    1.6690    0.0000 N   0  0  0  0  0  0  0  0  0  0  0  0
   -1.9932    0.1860    0.0000 C   0  0  0  0  0  0  0  0  0  0  0  0
   -0.8215   -0.7506    0.0000 C   0  0  0  0  0  0  0  0  0  0  0  0
    0.5754   -0.2041    0.0000 C   0  0  0  0  0  0  0  0  0  0  0  0
    0.8006    1.2789    0.0000 C   0  0  0  0  0  0  0  0  0  0  0  0
    2.1976    1.8254    0.0000 C   0  0  0  0  0  0  0  0  0  0  0  0
    3.3693    0.8888    0.0000 C   0  0  0  0  0  0  0  0  0  0  0  0
    3.1441   -0.5942    0.0000 C   0  0  0  0  0  0  0  0  0  0  0  0
    4.3158   -1.5307    0.0000 C   0  0  0  0  0  0  0  0  0  0  0  0
    1.7472   -1.1406    0.0000 C   0  0  0  0  0  0  0  0  0  0  0  0
   -3.3901   -0.3605    0.0000 C   0  0  0  0  0  0  0  0  0  0  0  0
   -3.6153   -1.8435    0.0000 O   0  0  0  0  0  0  0  0  0  0  0  0
   -4.5618    0.5760    0.0000 O   0  0  0  0  0  0  0  0  0  0  0  0
  2  1  1  6
  2  3  1  0
  3  4  1  0
  4  5  2  0
  5  6  1  0
  6  7  2  0
  7  8  1  0
  8  9  1  0
  8 10  2  0
  2 11  1  0
 11 12  2  0
 11 13  1  0
 10  4  1  0
M  END
>  <rName>  (1328) 
D-Phe_3Me

>  <PQ_SYMBOL>  (1328) 
D-Phe_3Me

>  <FULL_NAME>  (1328) 
3-Methyl-D-Phenylalanine

>  <IUPAC_CONDENSED>  (1328) 
D-Phe(3-Me)

>  <IUPAC>  (1328) 
(2R)-2-amino-3-(3-methylphenyl)propanoic acid

>  <TYPE>  (1328) 
Backbone

>  <CLASS>  (1328) 
alpha

>  <ANALOG>  (1328) 
Phe

>  <MOL_WT>  (1328) 
179.21899999999997

>  <LOGP>  (1328) 
0.9494199999999999

>  <TPSA>  (1328) 
63.32000000000001

>  <POPULARITY>  (1328) 
11.5

>  <PROTECTED>  (1328) 
TRUE

>  <SMILES>  (1328) 
N[C@H](Cc1(cccc(C)c1))C(=O)O

>  <INCHIKEY>  (1328) 
JZRBSTONIYRNRI-SECBINFHSA-N

$$$$
D-Phe_3MeNH2
     RDKit          2D

 14 14  0  0  0  0  0  0  0  0999 V2000
   -2.2742    1.6194    0.0000 N   0  0  0  0  0  0  0  0  0  0  0  0
   -2.3172    0.1200    0.0000 C   0  0  0  0  0  0  0  0  0  0  0  0
   -1.0402   -0.6669    0.0000 C   0  0  0  0  0  0  0  0  0  0  0  0
    0.2798    0.0456    0.0000 C   0  0  0  0  0  0  0  0  0  0  0  0
    0.3228    1.5450    0.0000 C   0  0  0  0  0  0  0  0  0  0  0  0
    1.6428    2.2574    0.0000 C   0  0  0  0  0  0  0  0  0  0  0  0
    2.9198    1.4705    0.0000 C   0  0  0  0  0  0  0  0  0  0  0  0
    2.8768   -0.0289    0.0000 C   0  0  0  0  0  0  0  0  0  0  0  0
    1.5568   -0.7414    0.0000 C   0  0  0  0  0  0  0  0  0  0  0  0
    4.1538   -0.8158    0.0000 C   0  0  0  0  0  0  0  0  0  0  0  0
    4.1108   -2.3152    0.0000 N   0  0  0  0  0  0  0  0  0  0  0  0
   -3.6372   -0.5924    0.0000 C   0  0  0  0  0  0  0  0  0  0  0  0
   -3.6802   -2.0918    0.0000 O   0  0  0  0  0  0  0  0  0  0  0  0
   -4.9142    0.1945    0.0000 O   0  0  0  0  0  0  0  0  0  0  0  0
  2  1  1  6
  2  3  1  0
  3  4  1  0
  4  5  2  0
  5  6  1  0
  6  7  2  0
  7  8  1  0
  8  9  2  0
  8 10  1  0
 10 11  1  0
  2 12  1  0
 12 13  2  0
 12 14  1  0
  9  4  1  0
M  END
>  <rName>  (1329) 
D-Phe_3MeNH2

>  <PQ_SYMBOL>  (1329) 
D-Phe_3MeNH2

>  <FULL_NAME>  (1329) 
3-Aminomethyl-D-Phenylalanine

>  <IUPAC_CONDENSED>  (1329) 
D-Phe(3-MeNH2)

>  <IUPAC>  (1329) 
(2R)-2-amino-3-(3-(aminomethyl)phenyl)propanoic acid

>  <TYPE>  (1329) 
Backbone

>  <CLASS>  (1329) 
alpha

>  <ANALOG>  (1329) 
Phe

>  <MOL_WT>  (1329) 
194.23399999999995

>  <LOGP>  (1329) 
0.09970000000000018

>  <TPSA>  (1329) 
89.34

>  <POPULARITY>  (1329) 
7.9

>  <PROTECTED>  (1329) 
TRUE

>  <SMILES>  (1329) 
N[C@H](Cc1(cccc(c1)CN))C(=O)O

>  <INCHIKEY>  (1329) 
YBVDQQQEPCEKPR-SECBINFHSA-N

$$$$
D-Phe_3Me_4Br
     RDKit          2D

 14 14  0  0  0  0  0  0  0  0999 V2000
   -2.0094    1.6916    0.0000 N   0  0  0  0  0  0  0  0  0  0  0  0
   -2.3243    0.2250    0.0000 C   0  0  0  0  0  0  0  0  0  0  0  0
   -1.2116   -0.7809    0.0000 C   0  0  0  0  0  0  0  0  0  0  0  0
    0.2159   -0.3203    0.0000 C   0  0  0  0  0  0  0  0  0  0  0  0
    0.5308    1.1463    0.0000 C   0  0  0  0  0  0  0  0  0  0  0  0
    1.9583    1.6069    0.0000 C   0  0  0  0  0  0  0  0  0  0  0  0
    3.0710    0.6009    0.0000 C   0  0  0  0  0  0  0  0  0  0  0  0
    4.4985    1.0615    0.0000 Br  0  0  0  0  0  0  0  0  0  0  0  0
    2.7561   -0.8657    0.0000 C   0  0  0  0  0  0  0  0  0  0  0  0
    3.8688   -1.8716    0.0000 C   0  0  0  0  0  0  0  0  0  0  0  0
    1.3286   -1.3263    0.0000 C   0  0  0  0  0  0  0  0  0  0  0  0
   -3.7518   -0.2356    0.0000 C   0  0  0  0  0  0  0  0  0  0  0  0
   -4.0666   -1.7022    0.0000 O   0  0  0  0  0  0  0  0  0  0  0  0
   -4.8644    0.7704    0.0000 O   0  0  0  0  0  0  0  0  0  0  0  0
  2  1  1  6
  2  3  1  0
  3  4  1  0
  4  5  1  0
  5  6  2  0
  6  7  1  0
  7  8  1  0
  7  9  2  0
  9 10  1  0
  9 11  1  0
  2 12  1  0
 12 13  2  0
 12 14  1  0
 11  4  2  0
M  END
>  <rName>  (1330) 
D-Phe_3Me_4Br

>  <PQ_SYMBOL>  (1330) 
D-Phe_3Me_4Br

>  <FULL_NAME>  (1330) 
4-Bromo-3-methyl-D-phenylalanine

>  <IUPAC_CONDENSED>  (1330) 
D-Phe(3-Me,4-Br)

>  <IUPAC>  (1330) 
(2R)-2-amino-3-(4-bromo-3-methylphenyl)propanoic acid

>  <TYPE>  (1330) 
Backbone

>  <CLASS>  (1330) 
alpha

>  <ANALOG>  (1330) 
Phe

>  <MOL_WT>  (1330) 
258.11499999999995

>  <LOGP>  (1330) 
1.71192

>  <TPSA>  (1330) 
63.32000000000001

>  <POPULARITY>  (1330) 
2.2

>  <PROTECTED>  (1330) 
TRUE

>  <SMILES>  (1330) 
N[C@H](Cc1(ccc(Br)c(C)c1))C(=O)O

>  <INCHIKEY>  (1330) 
HBRQTRZUFXTRBO-SECBINFHSA-N

$$$$
D-Phe_3Me_4F
     RDKit          2D

 14 14  0  0  0  0  0  0  0  0999 V2000
   -2.0094    1.6916    0.0000 N   0  0  0  0  0  0  0  0  0  0  0  0
   -2.3243    0.2250    0.0000 C   0  0  0  0  0  0  0  0  0  0  0  0
   -1.2116   -0.7809    0.0000 C   0  0  0  0  0  0  0  0  0  0  0  0
    0.2159   -0.3203    0.0000 C   0  0  0  0  0  0  0  0  0  0  0  0
    0.5308    1.1463    0.0000 C   0  0  0  0  0  0  0  0  0  0  0  0
    1.9583    1.6069    0.0000 C   0  0  0  0  0  0  0  0  0  0  0  0
    3.0710    0.6009    0.0000 C   0  0  0  0  0  0  0  0  0  0  0  0
    4.4985    1.0615    0.0000 F   0  0  0  0  0  0  0  0  0  0  0  0
    2.7561   -0.8657    0.0000 C   0  0  0  0  0  0  0  0  0  0  0  0
    3.8688   -1.8716    0.0000 C   0  0  0  0  0  0  0  0  0  0  0  0
    1.3286   -1.3263    0.0000 C   0  0  0  0  0  0  0  0  0  0  0  0
   -3.7518   -0.2356    0.0000 C   0  0  0  0  0  0  0  0  0  0  0  0
   -4.0666   -1.7022    0.0000 O   0  0  0  0  0  0  0  0  0  0  0  0
   -4.8644    0.7704    0.0000 O   0  0  0  0  0  0  0  0  0  0  0  0
  2  1  1  6
  2  3  1  0
  3  4  1  0
  4  5  1  0
  5  6  2  0
  6  7  1  0
  7  8  1  0
  7  9  2  0
  9 10  1  0
  9 11  1  0
  2 12  1  0
 12 13  2  0
 12 14  1  0
 11  4  2  0
M  END
>  <rName>  (1331) 
D-Phe_3Me_4F

>  <PQ_SYMBOL>  (1331) 
D-Phe_3Me_4F

>  <FULL_NAME>  (1331) 
4-Fluoro-3-methyl-d-phenylalanine

>  <IUPAC_CONDENSED>  (1331) 
D-Phe(3-Me,4-F)

>  <IUPAC>  (1331) 
(2R)-2-amino-3-(4-fluoro-3-methylphenyl)propanoic acid

>  <TYPE>  (1331) 
Backbone

>  <CLASS>  (1331) 
alpha

>  <ANALOG>  (1331) 
Phe

>  <MOL_WT>  (1331) 
197.20899999999997

>  <LOGP>  (1331) 
1.08852

>  <TPSA>  (1331) 
63.32000000000001

>  <POPULARITY>  (1331) 
2.2

>  <PROTECTED>  (1331) 
TRUE

>  <SMILES>  (1331) 
N[C@H](Cc1(ccc(F)c(C)c1))C(=O)O

>  <INCHIKEY>  (1331) 
HOWVSUISKZHSBP-SECBINFHSA-N

$$$$
D-Phe_3Me_4OMe
     RDKit          2D

 15 15  0  0  0  0  0  0  0  0999 V2000
   -2.1784    1.7334    0.0000 N   0  0  0  0  0  0  0  0  0  0  0  0
   -2.6284    0.3024    0.0000 C   0  0  0  0  0  0  0  0  0  0  0  0
   -1.6142   -0.8027    0.0000 C   0  0  0  0  0  0  0  0  0  0  0  0
   -0.1500   -0.4770    0.0000 C   0  0  0  0  0  0  0  0  0  0  0  0
    0.3000    0.9539    0.0000 C   0  0  0  0  0  0  0  0  0  0  0  0
    1.7642    1.2797    0.0000 C   0  0  0  0  0  0  0  0  0  0  0  0
    2.7784    0.1745    0.0000 C   0  0  0  0  0  0  0  0  0  0  0  0
    4.2426    0.5003    0.0000 O   0  0  0  0  0  0  0  0  0  0  0  0
    4.6926    1.9312    0.0000 C   0  0  0  0  0  0  0  0  0  0  0  0
    2.3284   -1.2564    0.0000 C   0  0  0  0  0  0  0  0  0  0  0  0
    3.3426   -2.3615    0.0000 C   0  0  0  0  0  0  0  0  0  0  0  0
    0.8642   -1.5821    0.0000 C   0  0  0  0  0  0  0  0  0  0  0  0
   -4.0926   -0.0233    0.0000 C   0  0  0  0  0  0  0  0  0  0  0  0
   -4.5426   -1.4542    0.0000 O   0  0  0  0  0  0  0  0  0  0  0  0
   -5.1068    1.0819    0.0000 O   0  0  0  0  0  0  0  0  0  0  0  0
  2  1  1  6
  2  3  1  0
  3  4  1  0
  4  5  1  0
  5  6  2  0
  6  7  1  0
  7  8  1  0
  8  9  1  0
  7 10  2  0
 10 11  1  0
 10 12  1  0
  2 13  1  0
 13 14  2  0
 13 15  1  0
 12  4  2  0
M  END
>  <rName>  (1332) 
D-Phe_3Me_4OMe

>  <PQ_SYMBOL>  (1332) 
D-Phe_3Me_4OMe

>  <FULL_NAME>  (1332) 
(R)-2-amino-3-(4-methoxy-3-methylphenyl)propanoic acid

>  <IUPAC_CONDENSED>  (1332) 
D-Phe(3-Me,4-OMe)

>  <IUPAC>  (1332) 
(2R)-2-amino-3-(4-methoxy-3-methylphenyl)propanoic acid

>  <TYPE>  (1332) 
Backbone

>  <CLASS>  (1332) 
alpha

>  <ANALOG>  (1332) 
Tyr

>  <MOL_WT>  (1332) 
209.24499999999998

>  <LOGP>  (1332) 
0.9580199999999999

>  <TPSA>  (1332) 
72.55

>  <POPULARITY>  (1332) 
6.0

>  <PROTECTED>  (1332) 
TRUE

>  <SMILES>  (1332) 
N[C@H](Cc1(ccc(OC)c(C)c1))C(=O)O

>  <INCHIKEY>  (1332) 
DXGNDDYTXLSPCE-SECBINFHSA-N

$$$$
D-Phe_3NO2
     RDKit          2D

 15 15  0  0  0  0  0  0  0  0999 V2000
   -2.6461    1.6149    0.0000 N   0  0  0  0  0  0  0  0  0  0  0  0
   -2.6827    0.1154    0.0000 C   0  0  0  0  0  0  0  0  0  0  0  0
   -1.4023   -0.6660    0.0000 C   0  0  0  0  0  0  0  0  0  0  0  0
   -0.0854    0.0521    0.0000 C   0  0  0  0  0  0  0  0  0  0  0  0
   -0.0488    1.5516    0.0000 C   0  0  0  0  0  0  0  0  0  0  0  0
    1.2681    2.2698    0.0000 C   0  0  0  0  0  0  0  0  0  0  0  0
    2.5485    1.4884    0.0000 C   0  0  0  0  0  0  0  0  0  0  0  0
    2.5119   -0.0112    0.0000 C   0  0  0  0  0  0  0  0  0  0  0  0
    1.1950   -0.7293    0.0000 C   0  0  0  0  0  0  0  0  0  0  0  0
    3.7923   -0.7926    0.0000 N   0  0  0  0  0  0  0  0  0  0  0  0
    5.1093   -0.0745    0.0000 O   0  0  0  0  0  0  0  0  0  0  0  0
    3.7558   -2.2922    0.0000 O   0  0  0  0  0  0  0  0  0  0  0  0
   -3.9996   -0.6028    0.0000 C   0  0  0  0  0  0  0  0  0  0  0  0
   -4.0361   -2.1023    0.0000 O   0  0  0  0  0  0  0  0  0  0  0  0
   -5.2800    0.1787    0.0000 O   0  0  0  0  0  0  0  0  0  0  0  0
  2  1  1  6
  2  3  1  0
  3  4  1  0
  4  5  1  0
  5  6  2  0
  6  7  1  0
  7  8  2  0
  8  9  1  0
  8 10  1  0
 10 11  2  0
 10 12  1  0
  2 13  1  0
 13 14  2  0
 13 15  1  0
  9  4  2  0
M  CHG  2  10   1  12  -1
M  END
>  <rName>  (1333) 
D-Phe_3NO2

>  <PQ_SYMBOL>  (1333) 
D-Phe_3NO2

>  <FULL_NAME>  (1333) 
3-Nitro-D-Phenylalanine

>  <IUPAC_CONDENSED>  (1333) 
D-Phe(3-NO2)

>  <IUPAC>  (1333) 
(2R)-2-amino-3-(3-nitrophenyl)propanoic acid

>  <TYPE>  (1333) 
Backbone

>  <CLASS>  (1333) 
alpha

>  <ANALOG>  (1333) 
Phe

>  <MOL_WT>  (1333) 
210.18899999999994

>  <LOGP>  (1333) 
0.5492000000000001

>  <TPSA>  (1333) 
106.46

>  <POPULARITY>  (1333) 
9.7

>  <PROTECTED>  (1333) 
TRUE

>  <SMILES>  (1333) 
N[C@H](Cc1(cccc(c1)[N+](=O)[O-]))C(=O)O

>  <INCHIKEY>  (1333) 
YTHDRUZHNYKZGF-MRVPVSSYSA-N

$$$$
D-Phe_3OCF3
     RDKit          2D

 17 17  0  0  0  0  0  0  0  0999 V2000
   -3.3907    1.4014    0.0000 N   0  0  0  0  0  0  0  0  0  0  0  0
   -3.1013   -0.0704    0.0000 C   0  0  0  0  0  0  0  0  0  0  0  0
   -1.6819   -0.5556    0.0000 C   0  0  0  0  0  0  0  0  0  0  0  0
   -0.5520    0.4310    0.0000 C   0  0  0  0  0  0  0  0  0  0  0  0
   -0.8415    1.9028    0.0000 C   0  0  0  0  0  0  0  0  0  0  0  0
    0.2884    2.8894    0.0000 C   0  0  0  0  0  0  0  0  0  0  0  0
    1.7077    2.4042    0.0000 C   0  0  0  0  0  0  0  0  0  0  0  0
    1.9972    0.9324    0.0000 C   0  0  0  0  0  0  0  0  0  0  0  0
    3.4166    0.4472    0.0000 O   0  0  0  0  0  0  0  0  0  0  0  0
    3.7060   -1.0246    0.0000 C   0  0  0  0  0  0  0  0  0  0  0  0
    3.9955   -2.4964    0.0000 F   0  0  0  0  0  0  0  0  0  0  0  0
    5.1778   -0.7352    0.0000 F   0  0  0  0  0  0  0  0  0  0  0  0
    2.2342   -1.3141    0.0000 F   0  0  0  0  0  0  0  0  0  0  0  0
    0.8673   -0.0542    0.0000 C   0  0  0  0  0  0  0  0  0  0  0  0
   -4.2312   -1.0570    0.0000 C   0  0  0  0  0  0  0  0  0  0  0  0
   -3.9417   -2.5288    0.0000 O   0  0  0  0  0  0  0  0  0  0  0  0
   -5.6505   -0.5718    0.0000 O   0  0  0  0  0  0  0  0  0  0  0  0
  2  1  1  6
  2  3  1  0
  3  4  1  0
  4  5  1  0
  5  6  2  0
  6  7  1  0
  7  8  2  0
  8  9  1  0
  9 10  1  0
 10 11  1  0
 10 12  1  0
 10 13  1  0
  8 14  1  0
  2 15  1  0
 15 16  2  0
 15 17  1  0
 14  4  2  0
M  END
>  <rName>  (1334) 
D-Phe_3OCF3

>  <PQ_SYMBOL>  (1334) 
D-Phe_3OCF3

>  <FULL_NAME>  (1334) 
(R)-2-amino-3-(3-(trifluoromethoxy)phenyl)propanoic acid

>  <IUPAC_CONDENSED>  (1334) 
D-Phe(3-OCF3)

>  <IUPAC>  (1334) 
(2R)-2-amino-3-(3-((trifluoromethyl)oxy)phenyl)propanoic acid

>  <TYPE>  (1334) 
Backbone

>  <CLASS>  (1334) 
alpha

>  <ANALOG>  (1334) 
Tyr

>  <MOL_WT>  (1334) 
249.18799999999993

>  <LOGP>  (1334) 
1.5396

>  <TPSA>  (1334) 
72.55

>  <POPULARITY>  (1334) 
4.4

>  <PROTECTED>  (1334) 
TRUE

>  <SMILES>  (1334) 
N[C@H](Cc1(cccc(OC(F)(F)F)c1))C(=O)O

>  <INCHIKEY>  (1334) 
NIONQVYUGGCUHI-MRVPVSSYSA-N

$$$$
D-Phe_3OEt
     RDKit          2D

 15 15  0  0  0  0  0  0  0  0999 V2000
   -2.8551    1.4556    0.0000 N   0  0  0  0  0  0  0  0  0  0  0  0
   -2.6961   -0.0360    0.0000 C   0  0  0  0  0  0  0  0  0  0  0  0
   -1.3248   -0.6441    0.0000 C   0  0  0  0  0  0  0  0  0  0  0  0
   -0.1126    0.2394    0.0000 C   0  0  0  0  0  0  0  0  0  0  0  0
   -0.2716    1.7310    0.0000 C   0  0  0  0  0  0  0  0  0  0  0  0
    0.9406    2.6144    0.0000 C   0  0  0  0  0  0  0  0  0  0  0  0
    2.3118    2.0064    0.0000 C   0  0  0  0  0  0  0  0  0  0  0  0
    2.4708    0.5148    0.0000 C   0  0  0  0  0  0  0  0  0  0  0  0
    3.8420   -0.0933    0.0000 O   0  0  0  0  0  0  0  0  0  0  0  0
    4.0010   -1.5848    0.0000 C   0  0  0  0  0  0  0  0  0  0  0  0
    5.3723   -2.1929    0.0000 C   0  0  0  0  0  0  0  0  0  0  0  0
    1.2586   -0.3687    0.0000 C   0  0  0  0  0  0  0  0  0  0  0  0
   -3.9083   -0.9195    0.0000 C   0  0  0  0  0  0  0  0  0  0  0  0
   -3.7493   -2.4110    0.0000 O   0  0  0  0  0  0  0  0  0  0  0  0
   -5.2795   -0.3114    0.0000 O   0  0  0  0  0  0  0  0  0  0  0  0
  2  1  1  6
  2  3  1  0
  3  4  1  0
  4  5  1  0
  5  6  2  0
  6  7  1  0
  7  8  2  0
  8  9  1  0
  9 10  1  0
 10 11  1  0
  8 12  1  0
  2 13  1  0
 13 14  2  0
 13 15  1  0
 12  4  2  0
M  END
>  <rName>  (1335) 
D-Phe_3OEt

>  <PQ_SYMBOL>  (1335) 
D-Phe_3OEt

>  <FULL_NAME>  (1335) 
3-Ethoxy-D-phenylalanine

>  <IUPAC_CONDENSED>  (1335) 
D-Phe(3-OEt)

>  <IUPAC>  (1335) 
(2R)-2-amino-3-(3-ethoxyphenyl)propanoic acid

>  <TYPE>  (1335) 
Backbone

>  <CLASS>  (1335) 
alpha

>  <ANALOG>  (1335) 
Tyr

>  <MOL_WT>  (1335) 
209.24499999999995

>  <LOGP>  (1335) 
1.0396999999999998

>  <TPSA>  (1335) 
72.55

>  <POPULARITY>  (1335) 
2.2

>  <PROTECTED>  (1335) 
TRUE

>  <SMILES>  (1335) 
N[C@H](Cc1(cccc(OCC)c1))C(=O)O

>  <INCHIKEY>  (1335) 
SEYVYCRBBASCRX-SNVBAGLBSA-N

$$$$
D-Phe_3OH
     RDKit          2D

 13 13  0  0  0  0  0  0  0  0999 V2000
   -1.7680    1.6690    0.0000 N   0  0  0  0  0  0  0  0  0  0  0  0
   -1.9932    0.1860    0.0000 C   0  0  0  0  0  0  0  0  0  0  0  0
   -0.8215   -0.7506    0.0000 C   0  0  0  0  0  0  0  0  0  0  0  0
    0.5754   -0.2041    0.0000 C   0  0  0  0  0  0  0  0  0  0  0  0
    0.8006    1.2789    0.0000 C   0  0  0  0  0  0  0  0  0  0  0  0
    2.1976    1.8254    0.0000 C   0  0  0  0  0  0  0  0  0  0  0  0
    3.3693    0.8888    0.0000 C   0  0  0  0  0  0  0  0  0  0  0  0
    3.1441   -0.5942    0.0000 C   0  0  0  0  0  0  0  0  0  0  0  0
    4.3158   -1.5307    0.0000 O   0  0  0  0  0  0  0  0  0  0  0  0
    1.7472   -1.1406    0.0000 C   0  0  0  0  0  0  0  0  0  0  0  0
   -3.3901   -0.3605    0.0000 C   0  0  0  0  0  0  0  0  0  0  0  0
   -3.6153   -1.8435    0.0000 O   0  0  0  0  0  0  0  0  0  0  0  0
   -4.5618    0.5760    0.0000 O   0  0  0  0  0  0  0  0  0  0  0  0
  2  1  1  6
  2  3  1  0
  3  4  1  0
  4  5  2  0
  5  6  1  0
  6  7  2  0
  7  8  1  0
  8  9  1  0
  8 10  2  0
  2 11  1  0
 11 12  2  0
 11 13  1  0
 10  4  1  0
M  END
>  <rName>  (1336) 
D-Phe_3OH

>  <PQ_SYMBOL>  (1336) 
D-Phe_3OH

>  <FULL_NAME>  (1336) 
3-Hydroxy-D-Phenylalanine

>  <IUPAC_CONDENSED>  (1336) 
D-Phe(3-OH)

>  <IUPAC>  (1336) 
(2R)-2-amino-3-(3-hydroxyphenyl)propanoic acid

>  <TYPE>  (1336) 
Backbone

>  <CLASS>  (1336) 
alpha

>  <ANALOG>  (1336) 
Tyr

>  <MOL_WT>  (1336) 
181.19099999999997

>  <LOGP>  (1336) 
0.3466

>  <TPSA>  (1336) 
83.55

>  <POPULARITY>  (1336) 
10.8

>  <PROTECTED>  (1336) 
TRUE

>  <SMILES>  (1336) 
N[C@H](Cc1(cccc(O)c1))C(=O)O

>  <INCHIKEY>  (1336) 
JZKXXXDKRQWDET-MRVPVSSYSA-N

$$$$
D-Phe_3OMe
     RDKit          2D

 14 14  0  0  0  0  0  0  0  0999 V2000
   -2.2742    1.6194    0.0000 N   0  0  0  0  0  0  0  0  0  0  0  0
   -2.3172    0.1200    0.0000 C   0  0  0  0  0  0  0  0  0  0  0  0
   -1.0402   -0.6669    0.0000 C   0  0  0  0  0  0  0  0  0  0  0  0
    0.2798    0.0456    0.0000 C   0  0  0  0  0  0  0  0  0  0  0  0
    0.3228    1.5450    0.0000 C   0  0  0  0  0  0  0  0  0  0  0  0
    1.6428    2.2574    0.0000 C   0  0  0  0  0  0  0  0  0  0  0  0
    2.9198    1.4705    0.0000 C   0  0  0  0  0  0  0  0  0  0  0  0
    2.8768   -0.0289    0.0000 C   0  0  0  0  0  0  0  0  0  0  0  0
    4.1538   -0.8158    0.0000 O   0  0  0  0  0  0  0  0  0  0  0  0
    4.1108   -2.3152    0.0000 C   0  0  0  0  0  0  0  0  0  0  0  0
    1.5568   -0.7414    0.0000 C   0  0  0  0  0  0  0  0  0  0  0  0
   -3.6372   -0.5924    0.0000 C   0  0  0  0  0  0  0  0  0  0  0  0
   -3.6802   -2.0918    0.0000 O   0  0  0  0  0  0  0  0  0  0  0  0
   -4.9142    0.1945    0.0000 O   0  0  0  0  0  0  0  0  0  0  0  0
  2  1  1  6
  2  3  1  0
  3  4  1  0
  4  5  1  0
  5  6  2  0
  6  7  1  0
  7  8  2  0
  8  9  1  0
  9 10  1  0
  8 11  1  0
  2 12  1  0
 12 13  2  0
 12 14  1  0
 11  4  2  0
M  END
>  <rName>  (1337) 
D-Phe_3OMe

>  <PQ_SYMBOL>  (1337) 
D-Phe_3OMe

>  <FULL_NAME>  (1337) 
3-Methoxy-D-Phenylalanine

>  <IUPAC_CONDENSED>  (1337) 
D-Phe(3-OMe)

>  <IUPAC>  (1337) 
(2R)-2-amino-3-(3-methoxyphenyl)propanoic acid

>  <TYPE>  (1337) 
Backbone

>  <CLASS>  (1337) 
alpha

>  <ANALOG>  (1337) 
Tyr

>  <MOL_WT>  (1337) 
195.21799999999996

>  <LOGP>  (1337) 
0.6496

>  <TPSA>  (1337) 
72.55

>  <POPULARITY>  (1337) 
9.9

>  <PROTECTED>  (1337) 
TRUE

>  <SMILES>  (1337) 
N[C@H](Cc1(cccc(OC)c1))C(=O)O

>  <INCHIKEY>  (1337) 
XTXGLOBWOMUGQB-SECBINFHSA-N

$$$$
D-Phe_3OMe_4Br
     RDKit          2D

 15 15  0  0  0  0  0  0  0  0999 V2000
   -2.4309    1.6735    0.0000 N   0  0  0  0  0  0  0  0  0  0  0  0
   -2.5936    0.1823    0.0000 C   0  0  0  0  0  0  0  0  0  0  0  0
   -1.3836   -0.7041    0.0000 C   0  0  0  0  0  0  0  0  0  0  0  0
   -0.0108   -0.0994    0.0000 C   0  0  0  0  0  0  0  0  0  0  0  0
    0.1518    1.3917    0.0000 C   0  0  0  0  0  0  0  0  0  0  0  0
    1.5245    1.9964    0.0000 C   0  0  0  0  0  0  0  0  0  0  0  0
    2.7346    1.1100    0.0000 C   0  0  0  0  0  0  0  0  0  0  0  0
    4.1073    1.7147    0.0000 Br  0  0  0  0  0  0  0  0  0  0  0  0
    2.5719   -0.3812    0.0000 C   0  0  0  0  0  0  0  0  0  0  0  0
    3.7820   -1.2676    0.0000 O   0  0  0  0  0  0  0  0  0  0  0  0
    3.6193   -2.7588    0.0000 C   0  0  0  0  0  0  0  0  0  0  0  0
    1.1992   -0.9859    0.0000 C   0  0  0  0  0  0  0  0  0  0  0  0
   -3.9663   -0.4224    0.0000 C   0  0  0  0  0  0  0  0  0  0  0  0
   -4.1290   -1.9135    0.0000 O   0  0  0  0  0  0  0  0  0  0  0  0
   -5.1764    0.4641    0.0000 O   0  0  0  0  0  0  0  0  0  0  0  0
  2  1  1  6
  2  3  1  0
  3  4  1  0
  4  5  1  0
  5  6  2  0
  6  7  1  0
  7  8  1  0
  7  9  2  0
  9 10  1  0
 10 11  1  0
  9 12  1  0
  2 13  1  0
 13 14  2  0
 13 15  1  0
 12  4  2  0
M  END
>  <rName>  (1338) 
D-Phe_3OMe_4Br

>  <PQ_SYMBOL>  (1338) 
D-Phe_3OMe_4Br

>  <FULL_NAME>  (1338) 
4-Bromo-3-methoxy-D-phenylalanine

>  <IUPAC_CONDENSED>  (1338) 
D-Phe(3-OMe,4-Br)

>  <IUPAC>  (1338) 
(2R)-2-amino-3-(4-bromo-3-methoxyphenyl)propanoic acid

>  <TYPE>  (1338) 
Backbone

>  <CLASS>  (1338) 
alpha

>  <ANALOG>  (1338) 
Tyr

>  <MOL_WT>  (1338) 
274.114

>  <LOGP>  (1338) 
1.4121000000000001

>  <TPSA>  (1338) 
72.55

>  <POPULARITY>  (1338) 
2.2

>  <PROTECTED>  (1338) 
TRUE

>  <SMILES>  (1338) 
N[C@H](Cc1(ccc(Br)c(OC)c1))C(=O)O

>  <INCHIKEY>  (1338) 
WEKMPZFTGPEKKL-MRVPVSSYSA-N

$$$$
D-Phe_3Oallyl
     RDKit          2D

 16 16  0  0  0  0  0  0  0  0999 V2000
   -3.4045    1.2232    0.0000 N   0  0  0  0  0  0  0  0  0  0  0  0
   -3.0391   -0.2316    0.0000 C   0  0  0  0  0  0  0  0  0  0  0  0
   -1.5965   -0.6426    0.0000 C   0  0  0  0  0  0  0  0  0  0  0  0
   -0.5193    0.4012    0.0000 C   0  0  0  0  0  0  0  0  0  0  0  0
   -0.8847    1.8560    0.0000 C   0  0  0  0  0  0  0  0  0  0  0  0
    0.1926    2.8999    0.0000 C   0  0  0  0  0  0  0  0  0  0  0  0
    1.6352    2.4889    0.0000 C   0  0  0  0  0  0  0  0  0  0  0  0
    2.0005    1.0340    0.0000 C   0  0  0  0  0  0  0  0  0  0  0  0
    3.4431    0.6230    0.0000 O   0  0  0  0  0  0  0  0  0  0  0  0
    3.8085   -0.8318    0.0000 C   0  0  0  0  0  0  0  0  0  0  0  0
    5.2511   -1.2428    0.0000 C   0  0  0  0  0  0  0  0  0  0  0  0
    5.6164   -2.6976    0.0000 C   0  0  0  0  0  0  0  0  0  0  0  0
    0.9233   -0.0098    0.0000 C   0  0  0  0  0  0  0  0  0  0  0  0
   -4.1164   -1.2754    0.0000 C   0  0  0  0  0  0  0  0  0  0  0  0
   -3.7510   -2.7303    0.0000 O   0  0  0  0  0  0  0  0  0  0  0  0
   -5.5590   -0.8644    0.0000 O   0  0  0  0  0  0  0  0  0  0  0  0
  2  1  1  6
  2  3  1  0
  3  4  1  0
  4  5  1  0
  5  6  2  0
  6  7  1  0
  7  8  2  0
  8  9  1  0
  9 10  1  0
 10 11  1  0
 11 12  2  0
  8 13  1  0
  2 14  1  0
 14 15  2  0
 14 16  1  0
 13  4  2  0
M  END
>  <rName>  (1339) 
D-Phe_3Oallyl

>  <PQ_SYMBOL>  (1339) 
D-Phe_3Oallyl

>  <FULL_NAME>  (1339) 
(R)-3-(3-(allyloxy)phenyl)-2-aminopropanoic acid

>  <IUPAC_CONDENSED>  (1339) 
D-Phe(3-Oallyl)

>  <IUPAC>  (1339) 
(2R)-2-amino-3-(3-((prop-2-en-1-yl)oxy)phenyl)propanoic acid

>  <TYPE>  (1339) 
Backbone

>  <CLASS>  (1339) 
alpha

>  <ANALOG>  (1339) 
Tyr

>  <MOL_WT>  (1339) 
221.25599999999994

>  <LOGP>  (1339) 
1.2058000000000002

>  <TPSA>  (1339) 
72.55

>  <POPULARITY>  (1339) 
3.9

>  <PROTECTED>  (1339) 
TRUE

>  <SMILES>  (1339) 
N[C@H](Cc1(cccc(OCC=C)c1))C(=O)O

>  <INCHIKEY>  (1339) 
WYLZWXCYLFVNHQ-LLVKDONJSA-N

$$$$
D-Phe_3Ph
     RDKit          2D

 18 19  0  0  0  0  0  0  0  0999 V2000
   -3.8804    1.4159    0.0000 N   0  0  0  0  0  0  0  0  0  0  0  0
   -3.6989   -0.0731    0.0000 C   0  0  0  0  0  0  0  0  0  0  0  0
   -2.3187   -0.6604    0.0000 C   0  0  0  0  0  0  0  0  0  0  0  0
   -1.1199    0.2413    0.0000 C   0  0  0  0  0  0  0  0  0  0  0  0
   -1.3014    1.7303    0.0000 C   0  0  0  0  0  0  0  0  0  0  0  0
   -0.1027    2.6319    0.0000 C   0  0  0  0  0  0  0  0  0  0  0  0
    1.2776    2.0446    0.0000 C   0  0  0  0  0  0  0  0  0  0  0  0
    1.4590    0.5556    0.0000 C   0  0  0  0  0  0  0  0  0  0  0  0
    0.2603   -0.3461    0.0000 C   0  0  0  0  0  0  0  0  0  0  0  0
    2.8393   -0.0317    0.0000 C   0  0  0  0  0  0  0  0  0  0  0  0
    3.0208   -1.5207    0.0000 C   0  0  0  0  0  0  0  0  0  0  0  0
    4.4010   -2.1080    0.0000 C   0  0  0  0  0  0  0  0  0  0  0  0
    5.5997   -1.2064    0.0000 C   0  0  0  0  0  0  0  0  0  0  0  0
    5.4183    0.2826    0.0000 C   0  0  0  0  0  0  0  0  0  0  0  0
    4.0380    0.8699    0.0000 C   0  0  0  0  0  0  0  0  0  0  0  0
   -4.8977   -0.9747    0.0000 C   0  0  0  0  0  0  0  0  0  0  0  0
   -4.7162   -2.4637    0.0000 O   0  0  0  0  0  0  0  0  0  0  0  0
   -6.2779   -0.3874    0.0000 O   0  0  0  0  0  0  0  0  0  0  0  0
  2  1  1  6
  2  3  1  0
  3  4  1  0
  4  5  1  0
  5  6  2  0
  6  7  1  0
  7  8  2  0
  8  9  1  0
  8 10  1  0
 10 11  2  0
 11 12  1  0
 12 13  2  0
 13 14  1  0
 14 15  2  0
  2 16  1  0
 16 17  2  0
 16 18  1  0
  9  4  2  0
 15 10  1  0
M  END
>  <rName>  (1340) 
D-Phe_3Ph

>  <PQ_SYMBOL>  (1340) 
D-Phe_3Ph

>  <FULL_NAME>  (1340) 
3-phenyl-D-phenylalanine

>  <IUPAC_CONDENSED>  (1340) 
D-Phe(3-Ph)

>  <IUPAC>  (1340) 
(2R)-2-amino-3-(3-phenylphenyl)propanoic acid

>  <TYPE>  (1340) 
Backbone

>  <CLASS>  (1340) 
alpha

>  <ANALOG>  (1340) 
Phe

>  <MOL_WT>  (1340) 
241.29

>  <LOGP>  (1340) 
2.308

>  <TPSA>  (1340) 
63.32000000000001

>  <POPULARITY>  (1340) 
6.6

>  <PROTECTED>  (1340) 
TRUE

>  <SMILES>  (1340) 
N[C@H](Cc1(cccc(c1)c2(ccccc2)))C(=O)O

>  <INCHIKEY>  (1340) 
XXPHIHDDXCFWMS-CQSZACIVSA-N

$$$$
D-Phe_3vinyl
     RDKit          2D

 14 14  0  0  0  0  0  0  0  0999 V2000
   -2.2742    1.6194    0.0000 N   0  0  0  0  0  0  0  0  0  0  0  0
   -2.3172    0.1200    0.0000 C   0  0  0  0  0  0  0  0  0  0  0  0
   -1.0402   -0.6669    0.0000 C   0  0  0  0  0  0  0  0  0  0  0  0
    0.2798    0.0456    0.0000 C   0  0  0  0  0  0  0  0  0  0  0  0
    0.3228    1.5450    0.0000 C   0  0  0  0  0  0  0  0  0  0  0  0
    1.6428    2.2574    0.0000 C   0  0  0  0  0  0  0  0  0  0  0  0
    2.9198    1.4705    0.0000 C   0  0  0  0  0  0  0  0  0  0  0  0
    2.8768   -0.0289    0.0000 C   0  0  0  0  0  0  0  0  0  0  0  0
    4.1538   -0.8158    0.0000 C   0  0  0  0  0  0  0  0  0  0  0  0
    4.1108   -2.3152    0.0000 C   0  0  0  0  0  0  0  0  0  0  0  0
    1.5568   -0.7414    0.0000 C   0  0  0  0  0  0  0  0  0  0  0  0
   -3.6372   -0.5924    0.0000 C   0  0  0  0  0  0  0  0  0  0  0  0
   -3.6802   -2.0918    0.0000 O   0  0  0  0  0  0  0  0  0  0  0  0
   -4.9142    0.1945    0.0000 O   0  0  0  0  0  0  0  0  0  0  0  0
  2  1  1  6
  2  3  1  0
  3  4  1  0
  4  5  2  0
  5  6  1  0
  6  7  2  0
  7  8  1  0
  8  9  1  0
  9 10  2  0
  8 11  2  0
  2 12  1  0
 12 13  2  0
 12 14  1  0
 11  4  1  0
M  END
>  <rName>  (1341) 
D-Phe_3vinyl

>  <PQ_SYMBOL>  (1341) 
D-Phe_3vinyl

>  <FULL_NAME>  (1341) 
(R)-2-Amino-3-(3-vinylphenyl)propanoic acid

>  <IUPAC_CONDENSED>  (1341) 
D-Phe(3-vinyl)

>  <IUPAC>  (1341) 
(2R)-2-amino-3-(3-ethenylphenyl)propanoic acid

>  <TYPE>  (1341) 
Backbone

>  <CLASS>  (1341) 
alpha

>  <ANALOG>  (1341) 
Phe

>  <MOL_WT>  (1341) 
191.22999999999996

>  <LOGP>  (1341) 
1.284

>  <TPSA>  (1341) 
63.32000000000001

>  <POPULARITY>  (1341) 
2.2

>  <PROTECTED>  (1341) 
TRUE

>  <SMILES>  (1341) 
N[C@H](Cc1(cccc(C=C)c1))C(=O)O

>  <INCHIKEY>  (1341) 
LOQNGWKGCIQOMO-SNVBAGLBSA-N

$$$$
D-Phe_4Ac
     RDKit          2D

 15 15  0  0  0  0  0  0  0  0999 V2000
   -2.2547    1.6872    0.0000 N   0  0  0  0  0  0  0  0  0  0  0  0
   -2.7489    0.2709    0.0000 C   0  0  0  0  0  0  0  0  0  0  0  0
   -1.7696   -0.8652    0.0000 C   0  0  0  0  0  0  0  0  0  0  0  0
   -0.2959   -0.5852    0.0000 C   0  0  0  0  0  0  0  0  0  0  0  0
    0.1983    0.8311    0.0000 C   0  0  0  0  0  0  0  0  0  0  0  0
    1.6719    1.1111    0.0000 C   0  0  0  0  0  0  0  0  0  0  0  0
    2.6513   -0.0250    0.0000 C   0  0  0  0  0  0  0  0  0  0  0  0
    2.1570   -1.4413    0.0000 C   0  0  0  0  0  0  0  0  0  0  0  0
    0.6834   -1.7213    0.0000 C   0  0  0  0  0  0  0  0  0  0  0  0
    4.1249    0.2550    0.0000 C   0  0  0  0  0  0  0  0  0  0  0  0
    4.6192    1.6713    0.0000 O   0  0  0  0  0  0  0  0  0  0  0  0
    5.1043   -0.8811    0.0000 C   0  0  0  0  0  0  0  0  0  0  0  0
   -4.2225   -0.0091    0.0000 C   0  0  0  0  0  0  0  0  0  0  0  0
   -4.7168   -1.4254    0.0000 O   0  0  0  0  0  0  0  0  0  0  0  0
   -5.2019    1.1270    0.0000 O   0  0  0  0  0  0  0  0  0  0  0  0
  2  1  1  6
  2  3  1  0
  3  4  1  0
  4  5  1  0
  5  6  2  0
  6  7  1  0
  7  8  2  0
  8  9  1  0
  7 10  1  0
 10 11  2  0
 10 12  1  0
  2 13  1  0
 13 14  2  0
 13 15  1  0
  9  4  2  0
M  END
>  <rName>  (1342) 
D-Phe_4Ac

>  <PQ_SYMBOL>  (1342) 
D-Phe_4Ac

>  <FULL_NAME>  (1342) 
(R)-3-(4-acetylphenyl)-2-aminopropanoic acid

>  <IUPAC_CONDENSED>  (1342) 
D-Phe(4-Ac)

>  <IUPAC>  (1342) 
(2R)-3-(4-(acetyl)phenyl)-2-aminopropanoic acid

>  <TYPE>  (1342) 
Backbone

>  <CLASS>  (1342) 
alpha

>  <ANALOG>  (1342) 
Phe

>  <MOL_WT>  (1342) 
207.22899999999996

>  <LOGP>  (1342) 
0.8435999999999999

>  <TPSA>  (1342) 
80.39

>  <POPULARITY>  (1342) 
9.1

>  <PROTECTED>  (1342) 
TRUE

>  <SMILES>  (1342) 
N[C@H](Cc1(ccc(cc1)C(=O)C))C(=O)O

>  <INCHIKEY>  (1342) 
ZXSBHXZKWRIEIA-SNVBAGLBSA-N

$$$$
D-Phe_4BO2
     RDKit          2D

 15 15  0  0  0  0  0  0  0  0999 V2000
   -2.2547    1.6872    0.0000 N   0  0  0  0  0  0  0  0  0  0  0  0
   -2.7489    0.2709    0.0000 C   0  0  0  0  0  0  0  0  0  0  0  0
   -4.2225   -0.0091    0.0000 C   0  0  0  0  0  0  0  0  0  0  0  0
   -4.7168   -1.4254    0.0000 O   0  0  0  0  0  0  0  0  0  0  0  0
   -5.2019    1.1270    0.0000 O   0  0  0  0  0  0  0  0  0  0  0  0
   -1.7696   -0.8652    0.0000 C   0  0  0  0  0  0  0  0  0  0  0  0
   -0.2959   -0.5852    0.0000 C   0  0  0  0  0  0  0  0  0  0  0  0
    0.1983    0.8311    0.0000 C   0  0  0  0  0  0  0  0  0  0  0  0
    1.6719    1.1111    0.0000 C   0  0  0  0  0  0  0  0  0  0  0  0
    2.6513   -0.0250    0.0000 C   0  0  0  0  0  0  0  0  0  0  0  0
    2.1570   -1.4413    0.0000 C   0  0  0  0  0  0  0  0  0  0  0  0
    0.6834   -1.7213    0.0000 C   0  0  0  0  0  0  0  0  0  0  0  0
    4.1249    0.2550    0.0000 B   0  0  0  0  0  0  0  0  0  0  0  0
    5.1043   -0.8811    0.0000 O   0  0  0  0  0  0  0  0  0  0  0  0
    4.6192    1.6713    0.0000 O   0  0  0  0  0  0  0  0  0  0  0  0
  2  1  1  6
  2  3  1  0
  3  4  2  0
  3  5  1  0
  2  6  1  0
  6  7  1  0
  7  8  1  0
  8  9  2  0
  9 10  1  0
 10 11  2  0
 11 12  1  0
 10 13  1  0
 13 14  1  0
 13 15  1  0
 12  7  2  0
M  END
>  <rName>  (1343) 
D-Phe_4BO2

>  <PQ_SYMBOL>  (1343) 
D-Phe_4BO2

>  <FULL_NAME>  (1343) 
(2R)-2-amino-3-(4-boronophenyl)propanoic acid

>  <IUPAC_CONDENSED>  (1343) 
D-Phe(4-BO2)

>  <IUPAC>  (1343) 
(2R)-2-amino-3-(4-(dihydroxyboryl)phenyl)propanoic acid

>  <TYPE>  (1343) 
C-term cap

>  <CLASS>  (1343) 
c_cap

>  <ANALOG>  (1343) 
X

>  <MOL_WT>  (1343) 
209.01000000000002

>  <LOGP>  (1343) 
-1.6792000000000002

>  <TPSA>  (1343) 
103.78000000000002

>  <POPULARITY>  (1343) 
5.6

>  <PROTECTED>  (1343) 
TRUE

>  <SMILES>  (1343) 
N[C@@H](C(=O)O)Cc1ccc(cc1)B(O)O

>  <INCHIKEY>  (1343) 
NFIVJOSXJDORSP-MRVPVSSYSA-N

$$$$
D-Phe_4Br
     RDKit          2D

 13 13  0  0  0  0  0  0  0  0999 V2000
   -1.5766    1.6851    0.0000 N   0  0  0  0  0  0  0  0  0  0  0  0
   -2.0128    0.2500    0.0000 C   0  0  0  0  0  0  0  0  0  0  0  0
   -0.9880   -0.8454    0.0000 C   0  0  0  0  0  0  0  0  0  0  0  0
    0.4730   -0.5055    0.0000 C   0  0  0  0  0  0  0  0  0  0  0  0
    0.9092    0.9296    0.0000 C   0  0  0  0  0  0  0  0  0  0  0  0
    2.3702    1.2695    0.0000 C   0  0  0  0  0  0  0  0  0  0  0  0
    3.3950    0.1741    0.0000 C   0  0  0  0  0  0  0  0  0  0  0  0
    4.8560    0.5140    0.0000 Br  0  0  0  0  0  0  0  0  0  0  0  0
    2.9588   -1.2611    0.0000 C   0  0  0  0  0  0  0  0  0  0  0  0
    1.4978   -1.6009    0.0000 C   0  0  0  0  0  0  0  0  0  0  0  0
   -3.4738   -0.0899    0.0000 C   0  0  0  0  0  0  0  0  0  0  0  0
   -3.9100   -1.5250    0.0000 O   0  0  0  0  0  0  0  0  0  0  0  0
   -4.4986    1.0055    0.0000 O   0  0  0  0  0  0  0  0  0  0  0  0
  2  1  1  6
  2  3  1  0
  3  4  1  0
  4  5  1  0
  5  6  2  0
  6  7  1  0
  7  8  1  0
  7  9  2  0
  9 10  1  0
  2 11  1  0
 11 12  2  0
 11 13  1  0
 10  4  2  0
M  END
>  <rName>  (1344) 
D-Phe_4Br

>  <PQ_SYMBOL>  (1344) 
D-Phe_4Br

>  <FULL_NAME>  (1344) 
4-bromo-D-phenylalanine

>  <IUPAC_CONDENSED>  (1344) 
D-Phe(4-Br)

>  <IUPAC>  (1344) 
(2R)-2-amino-3-(4-bromophenyl)propanoic acid

>  <TYPE>  (1344) 
Backbone

>  <CLASS>  (1344) 
alpha

>  <ANALOG>  (1344) 
Phe

>  <MOL_WT>  (1344) 
244.08799999999997

>  <LOGP>  (1344) 
1.4035000000000002

>  <TPSA>  (1344) 
63.32000000000001

>  <POPULARITY>  (1344) 
16.9

>  <PROTECTED>  (1344) 
TRUE

>  <SMILES>  (1344) 
N[C@H](Cc1(ccc(Br)cc1))C(=O)O

>  <INCHIKEY>  (1344) 
PEMUHKUIQHFMTH-MRVPVSSYSA-N

$$$$
D-Phe_4CF3
     RDKit          2D

 16 16  0  0  0  0  0  0  0  0999 V2000
   -2.5021    1.6866    0.0000 N   0  0  0  0  0  0  0  0  0  0  0  0
   -3.0051    0.2735    0.0000 C   0  0  0  0  0  0  0  0  0  0  0  0
   -2.0328   -0.8687    0.0000 C   0  0  0  0  0  0  0  0  0  0  0  0
   -0.5574   -0.5977    0.0000 C   0  0  0  0  0  0  0  0  0  0  0  0
   -0.0545    0.8155    0.0000 C   0  0  0  0  0  0  0  0  0  0  0  0
    1.4208    1.0865    0.0000 C   0  0  0  0  0  0  0  0  0  0  0  0
    2.3932   -0.0557    0.0000 C   0  0  0  0  0  0  0  0  0  0  0  0
    1.8902   -1.4688    0.0000 C   0  0  0  0  0  0  0  0  0  0  0  0
    0.4149   -1.7398    0.0000 C   0  0  0  0  0  0  0  0  0  0  0  0
    3.8685    0.2153    0.0000 C   0  0  0  0  0  0  0  0  0  0  0  0
    5.3438    0.4863    0.0000 F   0  0  0  0  0  0  0  0  0  0  0  0
    4.1395   -1.2600    0.0000 F   0  0  0  0  0  0  0  0  0  0  0  0
    3.5975    1.6906    0.0000 F   0  0  0  0  0  0  0  0  0  0  0  0
   -4.4804    0.0025    0.0000 C   0  0  0  0  0  0  0  0  0  0  0  0
   -4.9834   -1.4107    0.0000 O   0  0  0  0  0  0  0  0  0  0  0  0
   -5.4528    1.1446    0.0000 O   0  0  0  0  0  0  0  0  0  0  0  0
  2  1  1  6
  2  3  1  0
  3  4  1  0
  4  5  1  0
  5  6  2  0
  6  7  1  0
  7  8  2  0
  8  9  1  0
  7 10  1  0
 10 11  1  0
 10 12  1  0
 10 13  1  0
  2 14  1  0
 14 15  2  0
 14 16  1  0
  9  4  2  0
M  END
>  <rName>  (1345) 
D-Phe_4CF3

>  <PQ_SYMBOL>  (1345) 
D-Phe_4CF3

>  <FULL_NAME>  (1345) 
4-(trifluoromethyl)-D-phenylalanine

>  <IUPAC_CONDENSED>  (1345) 
D-Phe(4-CF3)

>  <IUPAC>  (1345) 
(2R)-2-amino-3-(4-(trifluoromethyl)phenyl)propanoic acid

>  <TYPE>  (1345) 
Backbone

>  <CLASS>  (1345) 
alpha

>  <ANALOG>  (1345) 
Phe

>  <MOL_WT>  (1345) 
233.18899999999994

>  <LOGP>  (1345) 
1.6598000000000002

>  <TPSA>  (1345) 
63.32000000000001

>  <POPULARITY>  (1345) 
17.6

>  <PROTECTED>  (1345) 
TRUE

>  <SMILES>  (1345) 
N[C@H](Cc1(ccc(cc1)C(F)(F)F))C(=O)O

>  <INCHIKEY>  (1345) 
CRFFPDBJLGAGQL-MRVPVSSYSA-N

$$$$
D-Phe_4CH2SO3H
     RDKit          2D

 17 17  0  0  0  0  0  0  0  0999 V2000
   -3.1457    1.6694    0.0000 N   0  0  0  0  0  0  0  0  0  0  0  0
   -3.4800    0.2071    0.0000 C   0  0  0  0  0  0  0  0  0  0  0  0
   -2.3807   -0.8135    0.0000 C   0  0  0  0  0  0  0  0  0  0  0  0
   -0.9472   -0.3718    0.0000 C   0  0  0  0  0  0  0  0  0  0  0  0
   -0.6130    1.0905    0.0000 C   0  0  0  0  0  0  0  0  0  0  0  0
    0.8205    1.5322    0.0000 C   0  0  0  0  0  0  0  0  0  0  0  0
    1.9198    0.5116    0.0000 C   0  0  0  0  0  0  0  0  0  0  0  0
    1.5855   -0.9507    0.0000 C   0  0  0  0  0  0  0  0  0  0  0  0
    0.1520   -1.3924    0.0000 C   0  0  0  0  0  0  0  0  0  0  0  0
    3.3533    0.9532    0.0000 C   0  0  0  0  0  0  0  0  0  0  0  0
    4.4525   -0.0674    0.0000 S   0  0  0  0  0  0  0  0  0  0  0  0
    5.4731    1.0319    0.0000 O   0  0  0  0  0  0  0  0  0  0  0  0
    3.4319   -1.1666    0.0000 O   0  0  0  0  0  0  0  0  0  0  0  0
    5.5518   -1.0880    0.0000 O   0  0  0  0  0  0  0  0  0  0  0  0
   -4.9135   -0.2346    0.0000 C   0  0  0  0  0  0  0  0  0  0  0  0
   -5.2477   -1.6969    0.0000 O   0  0  0  0  0  0  0  0  0  0  0  0
   -6.0127    0.7860    0.0000 O   0  0  0  0  0  0  0  0  0  0  0  0
  2  1  1  6
  2  3  1  0
  3  4  1  0
  4  5  1  0
  5  6  2  0
  6  7  1  0
  7  8  2  0
  8  9  1  0
  7 10  1  0
 10 11  1  0
 11 12  2  0
 11 13  2  0
 11 14  1  0
  2 15  1  0
 15 16  2  0
 15 17  1  0
  9  4  2  0
M  END
>  <rName>  (1346) 
D-Phe_4CH2SO3H

>  <PQ_SYMBOL>  (1346) 
D-Phe_4CH2SO3H

>  <FULL_NAME>  (1346) 
(R)-2-amino-3-(4-(sulfomethyl)phenyl)propanoic acid

>  <IUPAC_CONDENSED>  (1346) 
D-Phe(4-CH2SO3H)

>  <IUPAC>  (1346) 
(2R)-2-amino-3-(4-(sulfomethyl)phenyl)propanoic acid

>  <TYPE>  (1346) 
Backbone

>  <CLASS>  (1346) 
alpha

>  <ANALOG>  (1346) 
Phe

>  <MOL_WT>  (1346) 
259.28299999999996

>  <LOGP>  (1346) 
0.028800000000000048

>  <TPSA>  (1346) 
117.69000000000001

>  <POPULARITY>  (1346) 
3.7

>  <PROTECTED>  (1346) 
TRUE

>  <SMILES>  (1346) 
N[C@H](Cc1(ccc(cc1)CS(=O)(=O)O))C(=O)O

>  <INCHIKEY>  (1346) 
ICCZHONAEMZRSG-SECBINFHSA-N

$$$$
D-Phe_4CN
     RDKit          2D

 14 14  0  0  0  0  0  0  0  0999 V2000
   -1.9640    1.7008    0.0000 N   0  0  0  0  0  0  0  0  0  0  0  0
   -2.4550    0.2835    0.0000 C   0  0  0  0  0  0  0  0  0  0  0  0
   -1.4730   -0.8504    0.0000 C   0  0  0  0  0  0  0  0  0  0  0  0
   -0.0000   -0.5669    0.0000 C   0  0  0  0  0  0  0  0  0  0  0  0
    0.4910    0.8504    0.0000 C   0  0  0  0  0  0  0  0  0  0  0  0
    1.9640    1.1339    0.0000 C   0  0  0  0  0  0  0  0  0  0  0  0
    2.9459    0.0000    0.0000 C   0  0  0  0  0  0  0  0  0  0  0  0
    4.4189    0.2835    0.0000 C   0  0  0  0  0  0  0  0  0  0  0  0
    5.8919    0.5669    0.0000 N   0  0  0  0  0  0  0  0  0  0  0  0
    2.4550   -1.4174    0.0000 C   0  0  0  0  0  0  0  0  0  0  0  0
    0.9820   -1.7008    0.0000 C   0  0  0  0  0  0  0  0  0  0  0  0
   -3.9279   -0.0000    0.0000 C   0  0  0  0  0  0  0  0  0  0  0  0
   -4.4189   -1.4174    0.0000 O   0  0  0  0  0  0  0  0  0  0  0  0
   -4.9099    1.1339    0.0000 O   0  0  0  0  0  0  0  0  0  0  0  0
  2  1  1  6
  2  3  1  0
  3  4  1  0
  4  5  1  0
  5  6  2  0
  6  7  1  0
  7  8  1  0
  8  9  3  0
  7 10  2  0
 10 11  1  0
  2 12  1  0
 12 13  2  0
 12 14  1  0
 11  4  2  0
M  END
>  <rName>  (1347) 
D-Phe_4CN

>  <PQ_SYMBOL>  (1347) 
D-Phe_4CN

>  <FULL_NAME>  (1347) 
4-Cyano-D-Phenylalanine

>  <IUPAC_CONDENSED>  (1347) 
D-Phe(4-CN)

>  <IUPAC>  (1347) 
(2R)-2-amino-3-(4-(nitrilomethyl)phenyl)propanoic acid

>  <TYPE>  (1347) 
Backbone

>  <CLASS>  (1347) 
alpha

>  <ANALOG>  (1347) 
Phe

>  <MOL_WT>  (1347) 
190.202

>  <LOGP>  (1347) 
0.5126800000000002

>  <TPSA>  (1347) 
87.11

>  <POPULARITY>  (1347) 
16.8

>  <PROTECTED>  (1347) 
TRUE

>  <SMILES>  (1347) 
N[C@H](Cc1(ccc(C#N)cc1))C(=O)O

>  <INCHIKEY>  (1347) 
KWIPUXXIFQQMKN-SECBINFHSA-N

$$$$
D-Phe_4CO2H
     RDKit          2D

 15 15  0  0  0  0  0  0  0  0999 V2000
   -2.2547    1.6872    0.0000 N   0  0  0  0  0  0  0  0  0  0  0  0
   -2.7489    0.2709    0.0000 C   0  0  0  0  0  0  0  0  0  0  0  0
   -1.7696   -0.8652    0.0000 C   0  0  0  0  0  0  0  0  0  0  0  0
   -0.2959   -0.5852    0.0000 C   0  0  0  0  0  0  0  0  0  0  0  0
    0.1983    0.8311    0.0000 C   0  0  0  0  0  0  0  0  0  0  0  0
    1.6719    1.1111    0.0000 C   0  0  0  0  0  0  0  0  0  0  0  0
    2.6513   -0.0250    0.0000 C   0  0  0  0  0  0  0  0  0  0  0  0
    2.1570   -1.4413    0.0000 C   0  0  0  0  0  0  0  0  0  0  0  0
    0.6834   -1.7213    0.0000 C   0  0  0  0  0  0  0  0  0  0  0  0
    4.1249    0.2550    0.0000 C   0  0  0  0  0  0  0  0  0  0  0  0
    4.6192    1.6713    0.0000 O   0  0  0  0  0  0  0  0  0  0  0  0
    5.1043   -0.8811    0.0000 O   0  0  0  0  0  0  0  0  0  0  0  0
   -4.2225   -0.0091    0.0000 C   0  0  0  0  0  0  0  0  0  0  0  0
   -4.7168   -1.4254    0.0000 O   0  0  0  0  0  0  0  0  0  0  0  0
   -5.2019    1.1270    0.0000 O   0  0  0  0  0  0  0  0  0  0  0  0
  2  1  1  6
  2  3  1  0
  3  4  1  0
  4  5  1  0
  5  6  2  0
  6  7  1  0
  7  8  2  0
  8  9  1  0
  7 10  1  0
 10 11  2  0
 10 12  1  0
  2 13  1  0
 13 14  2  0
 13 15  1  0
  9  4  2  0
M  END
>  <rName>  (1348) 
D-Phe_4CO2H

>  <PQ_SYMBOL>  (1348) 
D-Phe_4CO2H

>  <FULL_NAME>  (1348) 
(R)-4-(2-amino-2-carboxyethyl)benzoic acid

>  <IUPAC_CONDENSED>  (1348) 
D-Phe(4-CO2H)

>  <IUPAC>  (1348) 
4-((2R)-2-amino-3-hydroxy-3-oxopropyl)benzoic acid

>  <TYPE>  (1348) 
Backbone

>  <CLASS>  (1348) 
alpha

>  <ANALOG>  (1348) 
Phe

>  <MOL_WT>  (1348) 
209.20099999999996

>  <LOGP>  (1348) 
0.33920000000000006

>  <TPSA>  (1348) 
100.62000000000002

>  <POPULARITY>  (1348) 
8.4

>  <PROTECTED>  (1348) 
TRUE

>  <SMILES>  (1348) 
N[C@H](Cc1(ccc(cc1)C(=O)O))C(=O)O

>  <INCHIKEY>  (1348) 
YXDGRBPZVQPESQ-MRVPVSSYSA-N

$$$$
D-Phe_4CONH2
     RDKit          2D

 15 15  0  0  0  0  0  0  0  0999 V2000
   -2.2547    1.6872    0.0000 N   0  0  0  0  0  0  0  0  0  0  0  0
   -2.7489    0.2709    0.0000 C   0  0  0  0  0  0  0  0  0  0  0  0
   -1.7696   -0.8652    0.0000 C   0  0  0  0  0  0  0  0  0  0  0  0
   -0.2959   -0.5852    0.0000 C   0  0  0  0  0  0  0  0  0  0  0  0
    0.1983    0.8311    0.0000 C   0  0  0  0  0  0  0  0  0  0  0  0
    1.6719    1.1111    0.0000 C   0  0  0  0  0  0  0  0  0  0  0  0
    2.6513   -0.0250    0.0000 C   0  0  0  0  0  0  0  0  0  0  0  0
    2.1570   -1.4413    0.0000 C   0  0  0  0  0  0  0  0  0  0  0  0
    0.6834   -1.7213    0.0000 C   0  0  0  0  0  0  0  0  0  0  0  0
    4.1249    0.2550    0.0000 C   0  0  0  0  0  0  0  0  0  0  0  0
    4.6192    1.6713    0.0000 O   0  0  0  0  0  0  0  0  0  0  0  0
    5.1043   -0.8811    0.0000 N   0  0  0  0  0  0  0  0  0  0  0  0
   -4.2225   -0.0091    0.0000 C   0  0  0  0  0  0  0  0  0  0  0  0
   -4.7168   -1.4254    0.0000 O   0  0  0  0  0  0  0  0  0  0  0  0
   -5.2019    1.1270    0.0000 O   0  0  0  0  0  0  0  0  0  0  0  0
  2  1  1  6
  2  3  1  0
  3  4  1  0
  4  5  1  0
  5  6  2  0
  6  7  1  0
  7  8  2  0
  8  9  1  0
  7 10  1  0
 10 11  2  0
 10 12  1  0
  2 13  1  0
 13 14  2  0
 13 15  1  0
  9  4  2  0
M  END
>  <rName>  (1349) 
D-Phe_4CONH2

>  <PQ_SYMBOL>  (1349) 
D-Phe_4CONH2

>  <FULL_NAME>  (1349) 
(R)-2-amino-3-(4-carbamoylphenyl)propanoic acid

>  <IUPAC_CONDENSED>  (1349) 
D-Phe(4-CONH2)

>  <IUPAC>  (1349) 
(2R)-2-amino-3-(4-carbamoylphenyl)propanoic acid

>  <TYPE>  (1349) 
Backbone

>  <CLASS>  (1349) 
alpha

>  <ANALOG>  (1349) 
Phe

>  <MOL_WT>  (1349) 
208.21699999999996

>  <LOGP>  (1349) 
-0.2601000000000003

>  <TPSA>  (1349) 
106.41000000000001

>  <POPULARITY>  (1349) 
6.3

>  <PROTECTED>  (1349) 
TRUE

>  <SMILES>  (1349) 
N[C@H](Cc1(ccc(cc1)C(=O)N))C(=O)O

>  <INCHIKEY>  (1349) 
OZVAXCWACWDNIQ-MRVPVSSYSA-N

$$$$
D-Phe_4Cl
     RDKit          2D

 13 13  0  0  0  0  0  0  0  0999 V2000
   -1.5766    1.6851    0.0000 N   0  0  0  0  0  0  0  0  0  0  0  0
   -2.0128    0.2500    0.0000 C   0  0  0  0  0  0  0  0  0  0  0  0
   -0.9880   -0.8454    0.0000 C   0  0  0  0  0  0  0  0  0  0  0  0
    0.4730   -0.5055    0.0000 C   0  0  0  0  0  0  0  0  0  0  0  0
    0.9092    0.9296    0.0000 C   0  0  0  0  0  0  0  0  0  0  0  0
    2.3702    1.2695    0.0000 C   0  0  0  0  0  0  0  0  0  0  0  0
    3.3950    0.1741    0.0000 C   0  0  0  0  0  0  0  0  0  0  0  0
    4.8560    0.5140    0.0000 Cl  0  0  0  0  0  0  0  0  0  0  0  0
    2.9588   -1.2611    0.0000 C   0  0  0  0  0  0  0  0  0  0  0  0
    1.4978   -1.6009    0.0000 C   0  0  0  0  0  0  0  0  0  0  0  0
   -3.4738   -0.0899    0.0000 C   0  0  0  0  0  0  0  0  0  0  0  0
   -3.9100   -1.5250    0.0000 O   0  0  0  0  0  0  0  0  0  0  0  0
   -4.4986    1.0055    0.0000 O   0  0  0  0  0  0  0  0  0  0  0  0
  2  1  1  6
  2  3  1  0
  3  4  1  0
  4  5  1  0
  5  6  2  0
  6  7  1  0
  7  8  1  0
  7  9  2  0
  9 10  1  0
  2 11  1  0
 11 12  2  0
 11 13  1  0
 10  4  2  0
M  END
>  <rName>  (1350) 
D-Phe_4Cl

>  <PQ_SYMBOL>  (1350) 
D-Phe_4Cl

>  <FULL_NAME>  (1350) 
4-Chloro-D-Phenylalanine

>  <IUPAC_CONDENSED>  (1350) 
D-Phe(4-Cl)

>  <IUPAC>  (1350) 
(2R)-2-amino-3-(4-chlorophenyl)propanoic acid

>  <TYPE>  (1350) 
Backbone

>  <CLASS>  (1350) 
alpha

>  <ANALOG>  (1350) 
Phe

>  <MOL_WT>  (1350) 
199.637

>  <LOGP>  (1350) 
1.2944000000000002

>  <TPSA>  (1350) 
63.32000000000001

>  <POPULARITY>  (1350) 
30.0

>  <PROTECTED>  (1350) 
TRUE

>  <SMILES>  (1350) 
N[C@H](Cc1(ccc(Cl)cc1))C(=O)O

>  <INCHIKEY>  (1350) 
NIGWMJHCCYYCSF-MRVPVSSYSA-N

$$$$
D-Phe_4Et
     RDKit          2D

 14 14  0  0  0  0  0  0  0  0999 V2000
   -2.0397    1.6757    0.0000 N   0  0  0  0  0  0  0  0  0  0  0  0
   -2.4395    0.2299    0.0000 C   0  0  0  0  0  0  0  0  0  0  0  0
   -1.3873   -0.8392    0.0000 C   0  0  0  0  0  0  0  0  0  0  0  0
    0.0646   -0.4625    0.0000 C   0  0  0  0  0  0  0  0  0  0  0  0
    0.4644    0.9832    0.0000 C   0  0  0  0  0  0  0  0  0  0  0  0
    1.9164    1.3598    0.0000 C   0  0  0  0  0  0  0  0  0  0  0  0
    2.9685    0.2907    0.0000 C   0  0  0  0  0  0  0  0  0  0  0  0
    2.5687   -1.1550    0.0000 C   0  0  0  0  0  0  0  0  0  0  0  0
    1.1168   -1.5316    0.0000 C   0  0  0  0  0  0  0  0  0  0  0  0
    4.4205    0.6674    0.0000 C   0  0  0  0  0  0  0  0  0  0  0  0
    5.4726   -0.4017    0.0000 C   0  0  0  0  0  0  0  0  0  0  0  0
   -3.8914   -0.1467    0.0000 C   0  0  0  0  0  0  0  0  0  0  0  0
   -4.2912   -1.5924    0.0000 O   0  0  0  0  0  0  0  0  0  0  0  0
   -4.9436    0.9224    0.0000 O   0  0  0  0  0  0  0  0  0  0  0  0
  2  1  1  6
  2  3  1  0
  3  4  1  0
  4  5  1  0
  5  6  2  0
  6  7  1  0
  7  8  2  0
  8  9  1  0
  7 10  1  0
 10 11  1  0
  2 12  1  0
 12 13  2  0
 12 14  1  0
  9  4  2  0
M  END
>  <rName>  (1351) 
D-Phe_4Et

>  <PQ_SYMBOL>  (1351) 
D-Phe_4Et

>  <FULL_NAME>  (1351) 
(R)-2-amino-3-(4-ethylphenyl)propanoic acid

>  <IUPAC_CONDENSED>  (1351) 
D-Phe(4-Et)

>  <IUPAC>  (1351) 
(2R)-2-amino-3-(4-ethylphenyl)propanoic acid

>  <TYPE>  (1351) 
Backbone

>  <CLASS>  (1351) 
alpha

>  <ANALOG>  (1351) 
Phe

>  <MOL_WT>  (1351) 
193.24599999999995

>  <LOGP>  (1351) 
1.2034000000000002

>  <TPSA>  (1351) 
63.32000000000001

>  <POPULARITY>  (1351) 
10.8

>  <PROTECTED>  (1351) 
TRUE

>  <SMILES>  (1351) 
N[C@H](Cc1(ccc(cc1)CC))C(=O)O

>  <INCHIKEY>  (1351) 
AWKDBHFQJATNBQ-SNVBAGLBSA-N

$$$$
D-Phe_4F
     RDKit          2D

 13 13  0  0  0  0  0  0  0  0999 V2000
   -1.5766    1.6851    0.0000 N   0  0  0  0  0  0  0  0  0  0  0  0
   -2.0128    0.2500    0.0000 C   0  0  0  0  0  0  0  0  0  0  0  0
   -0.9880   -0.8454    0.0000 C   0  0  0  0  0  0  0  0  0  0  0  0
    0.4730   -0.5055    0.0000 C   0  0  0  0  0  0  0  0  0  0  0  0
    0.9092    0.9296    0.0000 C   0  0  0  0  0  0  0  0  0  0  0  0
    2.3702    1.2695    0.0000 C   0  0  0  0  0  0  0  0  0  0  0  0
    3.3950    0.1741    0.0000 C   0  0  0  0  0  0  0  0  0  0  0  0
    4.8560    0.5140    0.0000 F   0  0  0  0  0  0  0  0  0  0  0  0
    2.9588   -1.2611    0.0000 C   0  0  0  0  0  0  0  0  0  0  0  0
    1.4978   -1.6009    0.0000 C   0  0  0  0  0  0  0  0  0  0  0  0
   -3.4738   -0.0899    0.0000 C   0  0  0  0  0  0  0  0  0  0  0  0
   -3.9100   -1.5250    0.0000 O   0  0  0  0  0  0  0  0  0  0  0  0
   -4.4986    1.0055    0.0000 O   0  0  0  0  0  0  0  0  0  0  0  0
  2  1  1  6
  2  3  1  0
  3  4  1  0
  4  5  1  0
  5  6  2  0
  6  7  1  0
  7  8  1  0
  7  9  2  0
  9 10  1  0
  2 11  1  0
 11 12  2  0
 11 13  1  0
 10  4  2  0
M  END
>  <rName>  (1352) 
D-Phe_4F

>  <PQ_SYMBOL>  (1352) 
D-Phe_4F

>  <FULL_NAME>  (1352) 
4-fluoro-D-phenylalanine

>  <IUPAC_CONDENSED>  (1352) 
D-Phe(4-F)

>  <IUPAC>  (1352) 
(2R)-2-amino-3-(4-fluorophenyl)propanoic acid

>  <TYPE>  (1352) 
Backbone

>  <CLASS>  (1352) 
alpha

>  <ANALOG>  (1352) 
Phe

>  <MOL_WT>  (1352) 
183.182

>  <LOGP>  (1352) 
0.7801

>  <TPSA>  (1352) 
63.32000000000001

>  <POPULARITY>  (1352) 
22.0

>  <PROTECTED>  (1352) 
TRUE

>  <SMILES>  (1352) 
N[C@H](Cc1(ccc(F)cc1))C(=O)O

>  <INCHIKEY>  (1352) 
XWHHYOYVRVGJJY-MRVPVSSYSA-N

$$$$
D-Phe_4For
     RDKit          2D

 14 14  0  0  0  0  0  0  0  0999 V2000
   -2.0397    1.6757    0.0000 N   0  0  0  0  0  0  0  0  0  0  0  0
   -2.4395    0.2299    0.0000 C   0  0  0  0  0  0  0  0  0  0  0  0
   -1.3873   -0.8392    0.0000 C   0  0  0  0  0  0  0  0  0  0  0  0
    0.0646   -0.4625    0.0000 C   0  0  0  0  0  0  0  0  0  0  0  0
    0.4644    0.9832    0.0000 C   0  0  0  0  0  0  0  0  0  0  0  0
    1.9164    1.3598    0.0000 C   0  0  0  0  0  0  0  0  0  0  0  0
    2.9685    0.2907    0.0000 C   0  0  0  0  0  0  0  0  0  0  0  0
    4.4205    0.6674    0.0000 C   0  0  0  0  0  0  0  0  0  0  0  0
    5.4726   -0.4017    0.0000 O   0  0  0  0  0  0  0  0  0  0  0  0
    2.5687   -1.1550    0.0000 C   0  0  0  0  0  0  0  0  0  0  0  0
    1.1168   -1.5316    0.0000 C   0  0  0  0  0  0  0  0  0  0  0  0
   -3.8914   -0.1467    0.0000 C   0  0  0  0  0  0  0  0  0  0  0  0
   -4.2912   -1.5924    0.0000 O   0  0  0  0  0  0  0  0  0  0  0  0
   -4.9436    0.9224    0.0000 O   0  0  0  0  0  0  0  0  0  0  0  0
  2  1  1  6
  2  3  1  0
  3  4  1  0
  4  5  1  0
  5  6  2  0
  6  7  1  0
  7  8  1  0
  8  9  2  0
  7 10  2  0
 10 11  1  0
  2 12  1  0
 12 13  2  0
 12 14  1  0
 11  4  2  0
M  END
>  <rName>  (1353) 
D-Phe_4For

>  <PQ_SYMBOL>  (1353) 
D-Phe_4For

>  <FULL_NAME>  (1353) 
(R)-2-Amino-3-(4-formylphenyl)propanoic Acid

>  <IUPAC_CONDENSED>  (1353) 
D-Phe(4-For)

>  <IUPAC>  (1353) 
(2R)-2-amino-3-(4-formylphenyl)propanoic acid

>  <TYPE>  (1353) 
Backbone

>  <CLASS>  (1353) 
alpha

>  <ANALOG>  (1353) 
Phe

>  <MOL_WT>  (1353) 
193.20199999999997

>  <LOGP>  (1353) 
0.45349999999999996

>  <TPSA>  (1353) 
80.39

>  <POPULARITY>  (1353) 
2.2

>  <PROTECTED>  (1353) 
TRUE

>  <SMILES>  (1353) 
N[C@H](Cc1(ccc(C=O)cc1))C(=O)O

>  <INCHIKEY>  (1353) 
KXISAPBCOZRTDN-SECBINFHSA-N

$$$$
D-Phe_4I
     RDKit          2D

 13 13  0  0  0  0  0  0  0  0999 V2000
   -1.5766    1.6851    0.0000 N   0  0  0  0  0  0  0  0  0  0  0  0
   -2.0128    0.2500    0.0000 C   0  0  0  0  0  0  0  0  0  0  0  0
   -0.9880   -0.8454    0.0000 C   0  0  0  0  0  0  0  0  0  0  0  0
    0.4730   -0.5055    0.0000 C   0  0  0  0  0  0  0  0  0  0  0  0
    0.9092    0.9296    0.0000 C   0  0  0  0  0  0  0  0  0  0  0  0
    2.3702    1.2695    0.0000 C   0  0  0  0  0  0  0  0  0  0  0  0
    3.3950    0.1741    0.0000 C   0  0  0  0  0  0  0  0  0  0  0  0
    4.8560    0.5140    0.0000 I   0  0  0  0  0  0  0  0  0  0  0  0
    2.9588   -1.2611    0.0000 C   0  0  0  0  0  0  0  0  0  0  0  0
    1.4978   -1.6009    0.0000 C   0  0  0  0  0  0  0  0  0  0  0  0
   -3.4738   -0.0899    0.0000 C   0  0  0  0  0  0  0  0  0  0  0  0
   -3.9100   -1.5250    0.0000 O   0  0  0  0  0  0  0  0  0  0  0  0
   -4.4986    1.0055    0.0000 O   0  0  0  0  0  0  0  0  0  0  0  0
  2  1  1  6
  2  3  1  0
  3  4  1  0
  4  5  1  0
  5  6  2  0
  6  7  1  0
  7  8  1  0
  7  9  2  0
  9 10  1  0
  2 11  1  0
 11 12  2  0
 11 13  1  0
 10  4  2  0
M  END
>  <rName>  (1354) 
D-Phe_4I

>  <PQ_SYMBOL>  (1354) 
D-Phe_4I

>  <FULL_NAME>  (1354) 
4-iodo-D-phenylalanine

>  <IUPAC_CONDENSED>  (1354) 
D-Phe(4-I)

>  <IUPAC>  (1354) 
(2R)-2-amino-3-(4-iodophenyl)propanoic acid

>  <TYPE>  (1354) 
Backbone

>  <CLASS>  (1354) 
alpha

>  <ANALOG>  (1354) 
Phe

>  <MOL_WT>  (1354) 
291.088

>  <LOGP>  (1354) 
1.2456

>  <TPSA>  (1354) 
63.32000000000001

>  <POPULARITY>  (1354) 
20.8

>  <PROTECTED>  (1354) 
TRUE

>  <SMILES>  (1354) 
N[C@H](Cc1(ccc(I)cc1))C(=O)O

>  <INCHIKEY>  (1354) 
PZNQZSRPDOEBMS-MRVPVSSYSA-N

$$$$
D-Phe_4Me
     RDKit          2D

 13 13  0  0  0  0  0  0  0  0999 V2000
   -1.5766    1.6851    0.0000 N   0  0  0  0  0  0  0  0  0  0  0  0
   -2.0128    0.2500    0.0000 C   0  0  0  0  0  0  0  0  0  0  0  0
   -0.9880   -0.8454    0.0000 C   0  0  0  0  0  0  0  0  0  0  0  0
    0.4730   -0.5055    0.0000 C   0  0  0  0  0  0  0  0  0  0  0  0
    0.9092    0.9296    0.0000 C   0  0  0  0  0  0  0  0  0  0  0  0
    2.3702    1.2695    0.0000 C   0  0  0  0  0  0  0  0  0  0  0  0
    3.3950    0.1741    0.0000 C   0  0  0  0  0  0  0  0  0  0  0  0
    4.8560    0.5140    0.0000 C   0  0  0  0  0  0  0  0  0  0  0  0
    2.9588   -1.2611    0.0000 C   0  0  0  0  0  0  0  0  0  0  0  0
    1.4978   -1.6009    0.0000 C   0  0  0  0  0  0  0  0  0  0  0  0
   -3.4738   -0.0899    0.0000 C   0  0  0  0  0  0  0  0  0  0  0  0
   -3.9100   -1.5250    0.0000 O   0  0  0  0  0  0  0  0  0  0  0  0
   -4.4986    1.0055    0.0000 O   0  0  0  0  0  0  0  0  0  0  0  0
  2  1  1  6
  2  3  1  0
  3  4  1  0
  4  5  1  0
  5  6  2  0
  6  7  1  0
  7  8  1  0
  7  9  2  0
  9 10  1  0
  2 11  1  0
 11 12  2  0
 11 13  1  0
 10  4  2  0
M  END
>  <rName>  (1355) 
D-Phe_4Me

>  <PQ_SYMBOL>  (1355) 
D-Phe_4Me

>  <FULL_NAME>  (1355) 
4-Methyl-D-Phenylalanine

>  <IUPAC_CONDENSED>  (1355) 
D-Phe(4-Me)

>  <IUPAC>  (1355) 
(2R)-2-amino-3-(4-methylphenyl)propanoic acid

>  <TYPE>  (1355) 
Backbone

>  <CLASS>  (1355) 
alpha

>  <ANALOG>  (1355) 
Phe

>  <MOL_WT>  (1355) 
179.21899999999997

>  <LOGP>  (1355) 
0.9494199999999999

>  <TPSA>  (1355) 
63.32000000000001

>  <POPULARITY>  (1355) 
15.0

>  <PROTECTED>  (1355) 
TRUE

>  <SMILES>  (1355) 
N[C@H](Cc1(ccc(C)cc1))C(=O)O

>  <INCHIKEY>  (1355) 
DQLHSFUMICQIMB-SECBINFHSA-N

$$$$
D-Phe_4MeNH2
     RDKit          2D

 14 14  0  0  0  0  0  0  0  0999 V2000
   -2.0397    1.6757    0.0000 N   0  0  0  0  0  0  0  0  0  0  0  0
   -2.4395    0.2299    0.0000 C   0  0  0  0  0  0  0  0  0  0  0  0
   -1.3873   -0.8392    0.0000 C   0  0  0  0  0  0  0  0  0  0  0  0
    0.0646   -0.4625    0.0000 C   0  0  0  0  0  0  0  0  0  0  0  0
    0.4644    0.9832    0.0000 C   0  0  0  0  0  0  0  0  0  0  0  0
    1.9164    1.3598    0.0000 C   0  0  0  0  0  0  0  0  0  0  0  0
    2.9685    0.2907    0.0000 C   0  0  0  0  0  0  0  0  0  0  0  0
    2.5687   -1.1550    0.0000 C   0  0  0  0  0  0  0  0  0  0  0  0
    1.1168   -1.5316    0.0000 C   0  0  0  0  0  0  0  0  0  0  0  0
    4.4205    0.6674    0.0000 C   0  0  0  0  0  0  0  0  0  0  0  0
    5.4726   -0.4017    0.0000 N   0  0  0  0  0  0  0  0  0  0  0  0
   -3.8914   -0.1467    0.0000 C   0  0  0  0  0  0  0  0  0  0  0  0
   -4.2912   -1.5924    0.0000 O   0  0  0  0  0  0  0  0  0  0  0  0
   -4.9436    0.9224    0.0000 O   0  0  0  0  0  0  0  0  0  0  0  0
  2  1  1  6
  2  3  1  0
  3  4  1  0
  4  5  1  0
  5  6  2  0
  6  7  1  0
  7  8  2  0
  8  9  1  0
  7 10  1  0
 10 11  1  0
  2 12  1  0
 12 13  2  0
 12 14  1  0
  9  4  2  0
M  END
>  <rName>  (1356) 
D-Phe_4MeNH2

>  <PQ_SYMBOL>  (1356) 
D-Phe_4MeNH2

>  <FULL_NAME>  (1356) 
4-Aminomethyl-D-Phenylalanine

>  <IUPAC_CONDENSED>  (1356) 
D-Phe(4-MeNH2)

>  <IUPAC>  (1356) 
(2R)-2-amino-3-(4-(aminomethyl)phenyl)propanoic acid

>  <TYPE>  (1356) 
Backbone

>  <CLASS>  (1356) 
alpha

>  <ANALOG>  (1356) 
Phe

>  <MOL_WT>  (1356) 
194.23399999999995

>  <LOGP>  (1356) 
0.09970000000000018

>  <TPSA>  (1356) 
89.34

>  <POPULARITY>  (1356) 
8.4

>  <PROTECTED>  (1356) 
TRUE

>  <SMILES>  (1356) 
N[C@H](Cc1(ccc(cc1)CN))C(=O)O

>  <INCHIKEY>  (1356) 
GNVNKFUEUXUWDV-SECBINFHSA-N

$$$$
D-Phe_4N3
     RDKit          2D

 15 15  0  0  0  0  0  0  0  0999 V2000
   -2.5677    1.6361    0.0000 N   0  0  0  0  0  0  0  0  0  0  0  0
   -2.8881    0.1707    0.0000 C   0  0  0  0  0  0  0  0  0  0  0  0
   -1.7791   -0.8394    0.0000 C   0  0  0  0  0  0  0  0  0  0  0  0
   -0.3499   -0.3841    0.0000 C   0  0  0  0  0  0  0  0  0  0  0  0
   -0.0296    1.0813    0.0000 C   0  0  0  0  0  0  0  0  0  0  0  0
    1.3996    1.5366    0.0000 C   0  0  0  0  0  0  0  0  0  0  0  0
    2.5086    0.5265    0.0000 C   0  0  0  0  0  0  0  0  0  0  0  0
    2.1882   -0.9389    0.0000 C   0  0  0  0  0  0  0  0  0  0  0  0
    0.7590   -1.3942    0.0000 C   0  0  0  0  0  0  0  0  0  0  0  0
    3.9378    0.9818    0.0000 N   0  0  0  0  0  0  0  0  0  0  0  0
    5.0467   -0.0283    0.0000 N   0  0  0  0  0  0  0  0  0  0  0  0
    6.1556   -1.0384    0.0000 N   0  0  0  0  0  0  0  0  0  0  0  0
   -4.3173   -0.2847    0.0000 C   0  0  0  0  0  0  0  0  0  0  0  0
   -4.6376   -1.7501    0.0000 O   0  0  0  0  0  0  0  0  0  0  0  0
   -5.4262    0.7254    0.0000 O   0  0  0  0  0  0  0  0  0  0  0  0
  2  1  1  6
  2  3  1  0
  3  4  1  0
  4  5  1  0
  5  6  2  0
  6  7  1  0
  7  8  2  0
  8  9  1  0
  7 10  1  0
 10 11  1  0
 11 12  3  0
  2 13  1  0
 13 14  2  0
 13 15  1  0
  9  4  2  0
M  CHG  2  10  -1  11   1
M  END
>  <rName>  (1357) 
D-Phe_4N3

>  <PQ_SYMBOL>  (1357) 
D-Phe_4N3

>  <FULL_NAME>  (1357) 
(2R)-2-amino-3-(4-azidophenyl)propanoic acid

>  <IUPAC_CONDENSED>  (1357) 
D-Phe(4-N3)

>  <IUPAC>  (1357) 
(2R)-2-amino-3-(4-azidophenyl)propanoic acid

>  <TYPE>  (1357) 
Backbone

>  <CLASS>  (1357) 
alpha

>  <ANALOG>  (1357) 
Phe

>  <MOL_WT>  (1357) 
206.20499999999996

>  <LOGP>  (1357) 
1.41428

>  <TPSA>  (1357) 
105.57000000000001

>  <POPULARITY>  (1357) 
7.9

>  <PROTECTED>  (1357) 
TRUE

>  <SMILES>  (1357) 
N[C@H](Cc1(ccc(cc1)[N-][N+]#N))C(=O)O

>  <INCHIKEY>  (1357) 
NEMHIKRLROONTL-MRVPVSSYSA-N

$$$$
D-Phe_4NH2
     RDKit          2D

 13 13  0  0  0  0  0  0  0  0999 V2000
   -1.5766    1.6851    0.0000 N   0  0  0  0  0  0  0  0  0  0  0  0
   -2.0128    0.2500    0.0000 C   0  0  0  0  0  0  0  0  0  0  0  0
   -0.9880   -0.8454    0.0000 C   0  0  0  0  0  0  0  0  0  0  0  0
    0.4730   -0.5055    0.0000 C   0  0  0  0  0  0  0  0  0  0  0  0
    0.9092    0.9296    0.0000 C   0  0  0  0  0  0  0  0  0  0  0  0
    2.3702    1.2695    0.0000 C   0  0  0  0  0  0  0  0  0  0  0  0
    3.3950    0.1741    0.0000 C   0  0  0  0  0  0  0  0  0  0  0  0
    4.8560    0.5140    0.0000 N   0  0  0  0  0  0  0  0  0  0  0  0
    2.9588   -1.2611    0.0000 C   0  0  0  0  0  0  0  0  0  0  0  0
    1.4978   -1.6009    0.0000 C   0  0  0  0  0  0  0  0  0  0  0  0
   -3.4738   -0.0899    0.0000 C   0  0  0  0  0  0  0  0  0  0  0  0
   -3.9100   -1.5250    0.0000 O   0  0  0  0  0  0  0  0  0  0  0  0
   -4.4986    1.0055    0.0000 O   0  0  0  0  0  0  0  0  0  0  0  0
  2  1  1  6
  2  3  1  0
  3  4  1  0
  4  5  1  0
  5  6  2  0
  6  7  1  0
  7  8  1  0
  7  9  2  0
  9 10  1  0
  2 11  1  0
 11 12  2  0
 11 13  1  0
 10  4  2  0
M  END
>  <rName>  (1358) 
D-Phe_4NH2

>  <PQ_SYMBOL>  (1358) 
D-Phe_4NH2

>  <FULL_NAME>  (1358) 
4-Amino-D-Phenylalanine

>  <IUPAC_CONDENSED>  (1358) 
D-Phe(4-NH2)

>  <IUPAC>  (1358) 
(2R)-2-amino-3-(4-aminophenyl)propanoic acid

>  <TYPE>  (1358) 
Backbone

>  <CLASS>  (1358) 
alpha

>  <ANALOG>  (1358) 
Phe

>  <MOL_WT>  (1358) 
180.207

>  <LOGP>  (1358) 
0.22319999999999962

>  <TPSA>  (1358) 
89.34

>  <POPULARITY>  (1358) 
16.3

>  <PROTECTED>  (1358) 
TRUE

>  <SMILES>  (1358) 
N[C@H](Cc1(ccc(N)cc1))C(=O)O

>  <INCHIKEY>  (1358) 
CMUHFUGDYMFHEI-MRVPVSSYSA-N

$$$$
D-Phe_4NHAc
     RDKit          2D

 16 16  0  0  0  0  0  0  0  0999 V2000
   -2.8646    1.6700    0.0000 N   0  0  0  0  0  0  0  0  0  0  0  0
   -3.2013    0.2083    0.0000 C   0  0  0  0  0  0  0  0  0  0  0  0
   -2.1038   -0.8141    0.0000 C   0  0  0  0  0  0  0  0  0  0  0  0
   -0.6696   -0.3749    0.0000 C   0  0  0  0  0  0  0  0  0  0  0  0
   -0.3329    1.0868    0.0000 C   0  0  0  0  0  0  0  0  0  0  0  0
    1.1014    1.5261    0.0000 C   0  0  0  0  0  0  0  0  0  0  0  0
    2.1989    0.5036    0.0000 C   0  0  0  0  0  0  0  0  0  0  0  0
    1.8622   -0.9581    0.0000 C   0  0  0  0  0  0  0  0  0  0  0  0
    0.4280   -1.3974    0.0000 C   0  0  0  0  0  0  0  0  0  0  0  0
    3.6332    0.9429    0.0000 N   0  0  0  0  0  0  0  0  0  0  0  0
    4.7307   -0.0796    0.0000 C   0  0  0  0  0  0  0  0  0  0  0  0
    4.3940   -1.5413    0.0000 O   0  0  0  0  0  0  0  0  0  0  0  0
    6.1649    0.3597    0.0000 C   0  0  0  0  0  0  0  0  0  0  0  0
   -4.6356   -0.2309    0.0000 C   0  0  0  0  0  0  0  0  0  0  0  0
   -4.9723   -1.6927    0.0000 O   0  0  0  0  0  0  0  0  0  0  0  0
   -5.7331    0.7915    0.0000 O   0  0  0  0  0  0  0  0  0  0  0  0
  2  1  1  6
  2  3  1  0
  3  4  1  0
  4  5  1  0
  5  6  2  0
  6  7  1  0
  7  8  2  0
  8  9  1  0
  7 10  1  0
 10 11  1  0
 11 12  2  0
 11 13  1  0
  2 14  1  0
 14 15  2  0
 14 16  1  0
  9  4  2  0
M  END
>  <rName>  (1359) 
D-Phe_4NHAc

>  <PQ_SYMBOL>  (1359) 
D-Phe_4NHAc

>  <FULL_NAME>  (1359) 
4-(Acetylamino)-D-phenylalanine

>  <IUPAC_CONDENSED>  (1359) 
D-Phe(4-NHAc)

>  <IUPAC>  (1359) 
(2R)-2-amino-3-(4-methylcarbonylaminophenyl)propanoic acid

>  <TYPE>  (1359) 
Backbone

>  <CLASS>  (1359) 
alpha

>  <ANALOG>  (1359) 
Phe

>  <MOL_WT>  (1359) 
222.24399999999994

>  <LOGP>  (1359) 
0.5993999999999997

>  <TPSA>  (1359) 
92.42

>  <POPULARITY>  (1359) 
9.4

>  <PROTECTED>  (1359) 
TRUE

>  <SMILES>  (1359) 
N[C@H](Cc1(ccc(cc1)NC(=O)C))C(=O)O

>  <INCHIKEY>  (1359) 
YAYQQGFBTYYMMH-SNVBAGLBSA-N

$$$$
D-Phe_4NO2
     RDKit          2D

 15 15  0  0  0  0  0  0  0  0999 V2000
   -2.2547    1.6872    0.0000 N   0  0  0  0  0  0  0  0  0  0  0  0
   -2.7489    0.2709    0.0000 C   0  0  0  0  0  0  0  0  0  0  0  0
   -1.7696   -0.8652    0.0000 C   0  0  0  0  0  0  0  0  0  0  0  0
   -0.2959   -0.5852    0.0000 C   0  0  0  0  0  0  0  0  0  0  0  0
    0.1983    0.8311    0.0000 C   0  0  0  0  0  0  0  0  0  0  0  0
    1.6719    1.1111    0.0000 C   0  0  0  0  0  0  0  0  0  0  0  0
    2.6513   -0.0250    0.0000 C   0  0  0  0  0  0  0  0  0  0  0  0
    2.1570   -1.4413    0.0000 C   0  0  0  0  0  0  0  0  0  0  0  0
    0.6834   -1.7213    0.0000 C   0  0  0  0  0  0  0  0  0  0  0  0
    4.1249    0.2550    0.0000 N   0  0  0  0  0  0  0  0  0  0  0  0
    4.6192    1.6713    0.0000 O   0  0  0  0  0  0  0  0  0  0  0  0
    5.1043   -0.8811    0.0000 O   0  0  0  0  0  0  0  0  0  0  0  0
   -4.2225   -0.0091    0.0000 C   0  0  0  0  0  0  0  0  0  0  0  0
   -4.7168   -1.4254    0.0000 O   0  0  0  0  0  0  0  0  0  0  0  0
   -5.2019    1.1270    0.0000 O   0  0  0  0  0  0  0  0  0  0  0  0
  2  1  1  6
  2  3  1  0
  3  4  1  0
  4  5  1  0
  5  6  2  0
  6  7  1  0
  7  8  2  0
  8  9  1  0
  7 10  1  0
 10 11  2  0
 10 12  1  0
  2 13  1  0
 13 14  2  0
 13 15  1  0
  9  4  2  0
M  CHG  2  10   1  12  -1
M  END
>  <rName>  (1360) 
D-Phe_4NO2

>  <PQ_SYMBOL>  (1360) 
D-Phe_4NO2

>  <FULL_NAME>  (1360) 
4-Nitro-D-Phenylalanine

>  <IUPAC_CONDENSED>  (1360) 
D-Phe(4-NO2)

>  <IUPAC>  (1360) 
(2R)-2-amino-3-(4-nitrophenyl)propanoic acid

>  <TYPE>  (1360) 
Backbone

>  <CLASS>  (1360) 
alpha

>  <ANALOG>  (1360) 
Phe

>  <MOL_WT>  (1360) 
210.18899999999994

>  <LOGP>  (1360) 
0.5492000000000001

>  <TPSA>  (1360) 
106.46

>  <POPULARITY>  (1360) 
16.4

>  <PROTECTED>  (1360) 
TRUE

>  <SMILES>  (1360) 
N[C@H](Cc1(ccc(cc1)[N+](=O)[O-]))C(=O)O

>  <INCHIKEY>  (1360) 
GTVVZTAFGPQSPC-MRVPVSSYSA-N

$$$$
D-Phe_4OBn
     RDKit          2D

 20 21  0  0  0  0  0  0  0  0999 V2000
   -4.5045    1.7035    0.0000 N   0  0  0  0  0  0  0  0  0  0  0  0
   -4.9466    0.2701    0.0000 C   0  0  0  0  0  0  0  0  0  0  0  0
   -3.9264   -0.8295    0.0000 C   0  0  0  0  0  0  0  0  0  0  0  0
   -2.4640   -0.4957    0.0000 C   0  0  0  0  0  0  0  0  0  0  0  0
   -2.0218    0.9376    0.0000 C   0  0  0  0  0  0  0  0  0  0  0  0
   -0.5594    1.2714    0.0000 C   0  0  0  0  0  0  0  0  0  0  0  0
    0.4608    0.1718    0.0000 C   0  0  0  0  0  0  0  0  0  0  0  0
    1.9232    0.5056    0.0000 O   0  0  0  0  0  0  0  0  0  0  0  0
    2.9435   -0.5940    0.0000 C   0  0  0  0  0  0  0  0  0  0  0  0
    4.4059   -0.2603    0.0000 C   0  0  0  0  0  0  0  0  0  0  0  0
    5.4261   -1.3599    0.0000 C   0  0  0  0  0  0  0  0  0  0  0  0
    6.8885   -1.0261    0.0000 C   0  0  0  0  0  0  0  0  0  0  0  0
    7.3307    0.4072    0.0000 C   0  0  0  0  0  0  0  0  0  0  0  0
    6.3104    1.5068    0.0000 C   0  0  0  0  0  0  0  0  0  0  0  0
    4.8480    1.1731    0.0000 C   0  0  0  0  0  0  0  0  0  0  0  0
    0.0187   -1.2616    0.0000 C   0  0  0  0  0  0  0  0  0  0  0  0
   -1.4437   -1.5953    0.0000 C   0  0  0  0  0  0  0  0  0  0  0  0
   -6.4090   -0.0637    0.0000 C   0  0  0  0  0  0  0  0  0  0  0  0
   -6.8512   -1.4970    0.0000 O   0  0  0  0  0  0  0  0  0  0  0  0
   -7.4292    1.0359    0.0000 O   0  0  0  0  0  0  0  0  0  0  0  0
  2  1  1  6
  2  3  1  0
  3  4  1  0
  4  5  1  0
  5  6  2  0
  6  7  1  0
  7  8  1  0
  8  9  1  0
  9 10  1  0
 10 11  2  0
 11 12  1  0
 12 13  2  0
 13 14  1  0
 14 15  2  0
  7 16  2  0
 16 17  1  0
  2 18  1  0
 18 19  2  0
 18 20  1  0
 15 10  1  0
 17  4  2  0
M  END
>  <rName>  (1361) 
D-Phe_4OBn

>  <PQ_SYMBOL>  (1361) 
D-Phe_4OBn

>  <FULL_NAME>  (1361) 
O-Benzyl-D-tyrosine

>  <IUPAC_CONDENSED>  (1361) 
D-Tyr(Bn)

>  <IUPAC>  (1361) 
(2R)-2-amino-3-(4-benzyloxyphenyl)propanoic acid

>  <TYPE>  (1361) 
Backbone

>  <CLASS>  (1361) 
alpha

>  <ANALOG>  (1361) 
Tyr

>  <MOL_WT>  (1361) 
271.316

>  <LOGP>  (1361) 
2.22

>  <TPSA>  (1361) 
72.55

>  <POPULARITY>  (1361) 
14.0

>  <PROTECTED>  (1361) 
TRUE

>  <SMILES>  (1361) 
N[C@H](Cc2(ccc(OCc1(ccccc1))cc2))C(=O)O

>  <INCHIKEY>  (1361) 
KAFHLONDOVSENM-OAHLLOKOSA-N

$$$$
D-Phe_4OPh
     RDKit          2D

 19 20  0  0  0  0  0  0  0  0999 V2000
   -4.0697    1.5683    0.0000 N   0  0  0  0  0  0  0  0  0  0  0  0
   -4.2646    0.0811    0.0000 C   0  0  0  0  0  0  0  0  0  0  0  0
   -3.0740   -0.8314    0.0000 C   0  0  0  0  0  0  0  0  0  0  0  0
   -1.6885   -0.2565    0.0000 C   0  0  0  0  0  0  0  0  0  0  0  0
   -1.4936    1.2308    0.0000 C   0  0  0  0  0  0  0  0  0  0  0  0
   -0.1082    1.8057    0.0000 C   0  0  0  0  0  0  0  0  0  0  0  0
    1.0824    0.8933    0.0000 C   0  0  0  0  0  0  0  0  0  0  0  0
    2.4679    1.4681    0.0000 O   0  0  0  0  0  0  0  0  0  0  0  0
    3.6585    0.5557    0.0000 C   0  0  0  0  0  0  0  0  0  0  0  0
    3.4636   -0.9316    0.0000 C   0  0  0  0  0  0  0  0  0  0  0  0
    4.6542   -1.8440    0.0000 C   0  0  0  0  0  0  0  0  0  0  0  0
    6.0396   -1.2691    0.0000 C   0  0  0  0  0  0  0  0  0  0  0  0
    6.2345    0.2182    0.0000 C   0  0  0  0  0  0  0  0  0  0  0  0
    5.0439    1.1306    0.0000 C   0  0  0  0  0  0  0  0  0  0  0  0
    0.8875   -0.5940    0.0000 C   0  0  0  0  0  0  0  0  0  0  0  0
   -0.4979   -1.1689    0.0000 C   0  0  0  0  0  0  0  0  0  0  0  0
   -5.6500   -0.4938    0.0000 C   0  0  0  0  0  0  0  0  0  0  0  0
   -5.8449   -1.9811    0.0000 O   0  0  0  0  0  0  0  0  0  0  0  0
   -6.8406    0.4186    0.0000 O   0  0  0  0  0  0  0  0  0  0  0  0
  2  1  1  6
  2  3  1  0
  3  4  1  0
  4  5  1  0
  5  6  2  0
  6  7  1  0
  7  8  1  0
  8  9  1  0
  9 10  2  0
 10 11  1  0
 11 12  2  0
 12 13  1  0
 13 14  2  0
  7 15  2  0
 15 16  1  0
  2 17  1  0
 17 18  2  0
 17 19  1  0
 14  9  1  0
 16  4  2  0
M  END
>  <rName>  (1362) 
D-Phe_4OPh

>  <PQ_SYMBOL>  (1362) 
D-Phe_4OPh

>  <FULL_NAME>  (1362) 
(R)-2-amino-3-(4-phenoxyphenyl)propanoic acid

>  <IUPAC_CONDENSED>  (1362) 
D-Tyr(Ph)

>  <IUPAC>  (1362) 
(2R)-2-amino-3-(4-phenoxyphenyl)propanoic acid

>  <TYPE>  (1362) 
Backbone

>  <CLASS>  (1362) 
alpha

>  <ANALOG>  (1362) 
Tyr

>  <MOL_WT>  (1362) 
257.289

>  <LOGP>  (1362) 
2.4333

>  <TPSA>  (1362) 
72.55

>  <POPULARITY>  (1362) 
9.0

>  <PROTECTED>  (1362) 
TRUE

>  <SMILES>  (1362) 
N[C@H](Cc2(ccc(Oc1(ccccc1))cc2))C(=O)O

>  <INCHIKEY>  (1362) 
DRDNRDDAAFSVNM-CQSZACIVSA-N

$$$$
D-Phe_4Oallyl
     RDKit          2D

 16 16  0  0  0  0  0  0  0  0999 V2000
   -3.0307    1.6397    0.0000 N   0  0  0  0  0  0  0  0  0  0  0  0
   -3.3793    0.1807    0.0000 C   0  0  0  0  0  0  0  0  0  0  0  0
   -2.2900   -0.8506    0.0000 C   0  0  0  0  0  0  0  0  0  0  0  0
   -0.8523   -0.4229    0.0000 C   0  0  0  0  0  0  0  0  0  0  0  0
   -0.5038    1.0360    0.0000 C   0  0  0  0  0  0  0  0  0  0  0  0
    0.9340    1.4637    0.0000 C   0  0  0  0  0  0  0  0  0  0  0  0
    2.0232    0.4324    0.0000 C   0  0  0  0  0  0  0  0  0  0  0  0
    3.4609    0.8600    0.0000 O   0  0  0  0  0  0  0  0  0  0  0  0
    4.5502   -0.1713    0.0000 C   0  0  0  0  0  0  0  0  0  0  0  0
    5.9879    0.2564    0.0000 C   0  0  0  0  0  0  0  0  0  0  0  0
    7.0771   -0.7749    0.0000 C   0  0  0  0  0  0  0  0  0  0  0  0
    1.6747   -1.0266    0.0000 C   0  0  0  0  0  0  0  0  0  0  0  0
    0.2369   -1.4542    0.0000 C   0  0  0  0  0  0  0  0  0  0  0  0
   -4.8170   -0.2469    0.0000 C   0  0  0  0  0  0  0  0  0  0  0  0
   -5.1655   -1.7059    0.0000 O   0  0  0  0  0  0  0  0  0  0  0  0
   -5.9062    0.7844    0.0000 O   0  0  0  0  0  0  0  0  0  0  0  0
  2  1  1  6
  2  3  1  0
  3  4  1  0
  4  5  1  0
  5  6  2  0
  6  7  1  0
  7  8  1  0
  8  9  1  0
  9 10  1  0
 10 11  2  0
  7 12  2  0
 12 13  1  0
  2 14  1  0
 14 15  2  0
 14 16  1  0
 13  4  2  0
M  END
>  <rName>  (1363) 
D-Phe_4Oallyl

>  <PQ_SYMBOL>  (1363) 
D-Phe_4Oallyl

>  <FULL_NAME>  (1363) 
(R)-3-(4-(allyloxy)phenyl)-2-aminopropanoic acid

>  <IUPAC_CONDENSED>  (1363) 
D-Tyr(allyl)

>  <IUPAC>  (1363) 
(2R)-2-amino-3-(4-((prop-2-en-1-yl)oxy)phenyl)propanoic acid

>  <TYPE>  (1363) 
Backbone

>  <CLASS>  (1363) 
alpha

>  <ANALOG>  (1363) 
Tyr

>  <MOL_WT>  (1363) 
221.25599999999997

>  <LOGP>  (1363) 
1.2058000000000002

>  <TPSA>  (1363) 
72.55

>  <POPULARITY>  (1363) 
5.0

>  <PROTECTED>  (1363) 
TRUE

>  <SMILES>  (1363) 
N[C@H](Cc1(ccc(OCC=C)cc1))C(=O)O

>  <INCHIKEY>  (1363) 
PHUOJEKTSKQBNT-LLVKDONJSA-N

$$$$
D-Phe_4POOMe2
     RDKit          2D

 19 19  0  0  0  0  0  0  0  0999 V2000
   -3.7809    1.6141    0.0000 N   0  0  0  0  0  0  0  0  0  0  0  0
   -3.9852    0.1281    0.0000 C   0  0  0  0  0  0  0  0  0  0  0  0
   -2.8004   -0.7918    0.0000 C   0  0  0  0  0  0  0  0  0  0  0  0
   -1.4113   -0.2258    0.0000 C   0  0  0  0  0  0  0  0  0  0  0  0
   -1.2070    1.2603    0.0000 C   0  0  0  0  0  0  0  0  0  0  0  0
    0.1821    1.8263    0.0000 C   0  0  0  0  0  0  0  0  0  0  0  0
    1.3669    0.9064    0.0000 C   0  0  0  0  0  0  0  0  0  0  0  0
    2.7559    1.4725    0.0000 O   0  0  0  0  0  0  0  0  0  0  0  0
    3.9407    0.5525    0.0000 P   0  0  0  0  0  0  0  0  0  0  0  0
    4.8607    1.7373    0.0000 O   0  0  0  0  0  0  0  0  0  0  0  0
    3.0208   -0.6323    0.0000 O   0  0  0  0  0  0  0  0  0  0  0  0
    3.5869   -2.0213    0.0000 C   0  0  0  0  0  0  0  0  0  0  0  0
    5.1255   -0.3674    0.0000 O   0  0  0  0  0  0  0  0  0  0  0  0
    4.9212   -1.8534    0.0000 C   0  0  0  0  0  0  0  0  0  0  0  0
    1.1626   -0.5796    0.0000 C   0  0  0  0  0  0  0  0  0  0  0  0
   -0.2265   -1.1457    0.0000 C   0  0  0  0  0  0  0  0  0  0  0  0
   -5.3743   -0.4380    0.0000 C   0  0  0  0  0  0  0  0  0  0  0  0
   -5.5786   -1.9240    0.0000 O   0  0  0  0  0  0  0  0  0  0  0  0
   -6.5590    0.4820    0.0000 O   0  0  0  0  0  0  0  0  0  0  0  0
  2  1  1  6
  2  3  1  0
  3  4  1  0
  4  5  1  0
  5  6  2  0
  6  7  1  0
  7  8  1  0
  8  9  1  0
  9 10  2  0
  9 11  1  0
 11 12  1  0
  9 13  1  0
 13 14  1  0
  7 15  2  0
 15 16  1  0
  2 17  1  0
 17 18  2  0
 17 19  1  0
 16  4  2  0
M  END
>  <rName>  (1364) 
D-Phe_4POOMe2

>  <PQ_SYMBOL>  (1364) 
D-Phe_4POOMe2

>  <FULL_NAME>  (1364) 
(R)-2-amino-3-(4-((dimethoxyphosphoryl)oxy)phenyl)propanoic acid

>  <IUPAC_CONDENSED>  (1364) 
D-Phe(4-PO(OMe)2)

>  <IUPAC>  (1364) 
(2R)-2-amino-3-(4-((dimethoxyphosphoryl)oxy)phenyl)propanoic acid

>  <TYPE>  (1364) 
Backbone

>  <CLASS>  (1364) 
alpha

>  <ANALOG>  (1364) 
Tyr

>  <MOL_WT>  (1364) 
289.224

>  <LOGP>  (1364) 
1.4207

>  <TPSA>  (1364) 
108.08

>  <POPULARITY>  (1364) 
5.4

>  <PROTECTED>  (1364) 
TRUE

>  <SMILES>  (1364) 
N[C@H](Cc1(ccc(OP(=O)(OC)OC)cc1))C(=O)O

>  <INCHIKEY>  (1364) 
HESLJQBDDBJJQQ-SNVBAGLBSA-N

$$$$
D-Phe_4Ph_2Me
     RDKit          2D

 19 20  0  0  0  0  0  0  0  0999 V2000
   -3.3749    1.6701    0.0000 N   0  0  0  0  0  0  0  0  0  0  0  0
   -3.9688    0.2927    0.0000 C   0  0  0  0  0  0  0  0  0  0  0  0
   -3.0729   -0.9104    0.0000 C   0  0  0  0  0  0  0  0  0  0  0  0
   -1.5831   -0.7360    0.0000 C   0  0  0  0  0  0  0  0  0  0  0  0
   -0.9892    0.6414    0.0000 C   0  0  0  0  0  0  0  0  0  0  0  0
    0.5007    0.8158    0.0000 C   0  0  0  0  0  0  0  0  0  0  0  0
    1.3966   -0.3872    0.0000 C   0  0  0  0  0  0  0  0  0  0  0  0
    0.8027   -1.7647    0.0000 C   0  0  0  0  0  0  0  0  0  0  0  0
   -0.6871   -1.9390    0.0000 C   0  0  0  0  0  0  0  0  0  0  0  0
    2.8864   -0.2129    0.0000 C   0  0  0  0  0  0  0  0  0  0  0  0
    3.7823   -1.4159    0.0000 C   0  0  0  0  0  0  0  0  0  0  0  0
    5.2722   -1.2415    0.0000 C   0  0  0  0  0  0  0  0  0  0  0  0
    5.8661    0.1359    0.0000 C   0  0  0  0  0  0  0  0  0  0  0  0
    4.9702    1.3389    0.0000 C   0  0  0  0  0  0  0  0  0  0  0  0
    3.4803    1.1646    0.0000 C   0  0  0  0  0  0  0  0  0  0  0  0
    2.5844    2.3676    0.0000 C   0  0  0  0  0  0  0  0  0  0  0  0
   -5.4587    0.1183    0.0000 C   0  0  0  0  0  0  0  0  0  0  0  0
   -6.0526   -1.2591    0.0000 O   0  0  0  0  0  0  0  0  0  0  0  0
   -6.3546    1.3214    0.0000 O   0  0  0  0  0  0  0  0  0  0  0  0
  2  1  1  6
  2  3  1  0
  3  4  1  0
  4  5  1  0
  5  6  2  0
  6  7  1  0
  7  8  2  0
  8  9  1  0
  7 10  1  0
 10 11  2  0
 11 12  1  0
 12 13  2  0
 13 14  1  0
 14 15  2  0
 15 16  1  0
  2 17  1  0
 17 18  2  0
 17 19  1  0
  9  4  2  0
 15 10  1  0
M  END
>  <rName>  (1365) 
D-Phe_4Ph_2Me

>  <PQ_SYMBOL>  (1365) 
D-Phe_4Ph_2Me

>  <FULL_NAME>  (1365) 
D-Phe(4-Ph(2-Me))

>  <IUPAC_CONDENSED>  (1365) 
D-Phe(4-Ph(2-Me))

>  <IUPAC>  (1365) 
(2R)-2-amino-3-(4-(2-methylphenyl)phenyl)propanoic acid

>  <TYPE>  (1365) 
Backbone

>  <CLASS>  (1365) 
alpha

>  <ANALOG>  (1365) 
Phe

>  <MOL_WT>  (1365) 
255.31699999999998

>  <LOGP>  (1365) 
2.6164200000000006

>  <TPSA>  (1365) 
63.32000000000001

>  <POPULARITY>  (1365) 
2.2

>  <PROTECTED>  (1365) 
TRUE

>  <SMILES>  (1365) 
N[C@H](Cc1(ccc(cc1)c2(ccccc2C)))C(=O)O

>  <INCHIKEY>  (1365) 
UTGOGZMACBMWOF-OAHLLOKOSA-N

$$$$
D-Phe_4Ph_4Cl
     RDKit          2D

 19 20  0  0  0  0  0  0  0  0999 V2000
   -3.6454    1.7385    0.0000 N   0  0  0  0  0  0  0  0  0  0  0  0
   -4.2241    0.3546    0.0000 C   0  0  0  0  0  0  0  0  0  0  0  0
   -3.3150   -0.8385    0.0000 C   0  0  0  0  0  0  0  0  0  0  0  0
   -1.8272   -0.6478    0.0000 C   0  0  0  0  0  0  0  0  0  0  0  0
   -1.2485    0.7361    0.0000 C   0  0  0  0  0  0  0  0  0  0  0  0
    0.2394    0.9268    0.0000 C   0  0  0  0  0  0  0  0  0  0  0  0
    1.1485   -0.2664    0.0000 C   0  0  0  0  0  0  0  0  0  0  0  0
    0.5697   -1.6502    0.0000 C   0  0  0  0  0  0  0  0  0  0  0  0
   -0.9181   -1.8409    0.0000 C   0  0  0  0  0  0  0  0  0  0  0  0
    2.6363   -0.0757    0.0000 C   0  0  0  0  0  0  0  0  0  0  0  0
    3.5454   -1.2688    0.0000 C   0  0  0  0  0  0  0  0  0  0  0  0
    5.0332   -1.0781    0.0000 C   0  0  0  0  0  0  0  0  0  0  0  0
    5.6119    0.3058    0.0000 C   0  0  0  0  0  0  0  0  0  0  0  0
    7.0998    0.4965    0.0000 Cl  0  0  0  0  0  0  0  0  0  0  0  0
    4.7029    1.4989    0.0000 C   0  0  0  0  0  0  0  0  0  0  0  0
    3.2150    1.3082    0.0000 C   0  0  0  0  0  0  0  0  0  0  0  0
   -5.7119    0.1639    0.0000 C   0  0  0  0  0  0  0  0  0  0  0  0
   -6.2907   -1.2199    0.0000 O   0  0  0  0  0  0  0  0  0  0  0  0
   -6.6210    1.3571    0.0000 O   0  0  0  0  0  0  0  0  0  0  0  0
  2  1  1  6
  2  3  1  0
  3  4  1  0
  4  5  1  0
  5  6  2  0
  6  7  1  0
  7  8  2  0
  8  9  1  0
  7 10  1  0
 10 11  1  0
 11 12  2  0
 12 13  1  0
 13 14  1  0
 13 15  2  0
 15 16  1  0
  2 17  1  0
 17 18  2  0
 17 19  1  0
  9  4  2  0
 16 10  2  0
M  END
>  <rName>  (1366) 
D-Phe_4Ph_4Cl

>  <PQ_SYMBOL>  (1366) 
D-Phe_4Ph_4Cl

>  <FULL_NAME>  (1366) 
4-(4-Chlorophenyl)-D-phenylalanine

>  <IUPAC_CONDENSED>  (1366) 
D-Phe(4-Ph(4-Cl))

>  <IUPAC>  (1366) 
(2R)-2-amino-3-[4-(4-chlorophenyl)phenyl]propanoic acid

>  <TYPE>  (1366) 
Backbone

>  <CLASS>  (1366) 
alpha

>  <ANALOG>  (1366) 
Phe

>  <MOL_WT>  (1366) 
275.735

>  <LOGP>  (1366) 
2.961400000000001

>  <TPSA>  (1366) 
63.32000000000001

>  <POPULARITY>  (1366) 
3.5

>  <PROTECTED>  (1366) 
TRUE

>  <SMILES>  (1366) 
N[C@H](Cc1(ccc(cc1)c2(ccc(Cl)cc2)))C(=O)O

>  <INCHIKEY>  (1366) 
YNAJOMWNXOKORZ-CQSZACIVSA-N

$$$$
D-Phe_4Ph_4F
     RDKit          2D

 19 20  0  0  0  0  0  0  0  0999 V2000
   -3.6454    1.7385    0.0000 N   0  0  0  0  0  0  0  0  0  0  0  0
   -4.2241    0.3546    0.0000 C   0  0  0  0  0  0  0  0  0  0  0  0
   -3.3150   -0.8385    0.0000 C   0  0  0  0  0  0  0  0  0  0  0  0
   -1.8272   -0.6478    0.0000 C   0  0  0  0  0  0  0  0  0  0  0  0
   -1.2485    0.7361    0.0000 C   0  0  0  0  0  0  0  0  0  0  0  0
    0.2394    0.9268    0.0000 C   0  0  0  0  0  0  0  0  0  0  0  0
    1.1485   -0.2664    0.0000 C   0  0  0  0  0  0  0  0  0  0  0  0
    0.5697   -1.6502    0.0000 C   0  0  0  0  0  0  0  0  0  0  0  0
   -0.9181   -1.8409    0.0000 C   0  0  0  0  0  0  0  0  0  0  0  0
    2.6363   -0.0757    0.0000 C   0  0  0  0  0  0  0  0  0  0  0  0
    3.5454   -1.2688    0.0000 C   0  0  0  0  0  0  0  0  0  0  0  0
    5.0332   -1.0781    0.0000 C   0  0  0  0  0  0  0  0  0  0  0  0
    5.6119    0.3058    0.0000 C   0  0  0  0  0  0  0  0  0  0  0  0
    7.0998    0.4965    0.0000 F   0  0  0  0  0  0  0  0  0  0  0  0
    4.7029    1.4989    0.0000 C   0  0  0  0  0  0  0  0  0  0  0  0
    3.2150    1.3082    0.0000 C   0  0  0  0  0  0  0  0  0  0  0  0
   -5.7119    0.1639    0.0000 C   0  0  0  0  0  0  0  0  0  0  0  0
   -6.2907   -1.2199    0.0000 O   0  0  0  0  0  0  0  0  0  0  0  0
   -6.6210    1.3571    0.0000 O   0  0  0  0  0  0  0  0  0  0  0  0
  2  1  1  6
  2  3  1  0
  3  4  1  0
  4  5  1  0
  5  6  2  0
  6  7  1  0
  7  8  2  0
  8  9  1  0
  7 10  1  0
 10 11  1  0
 11 12  2  0
 12 13  1  0
 13 14  1  0
 13 15  2  0
 15 16  1  0
  2 17  1  0
 17 18  2  0
 17 19  1  0
  9  4  2  0
 16 10  2  0
M  END
>  <rName>  (1367) 
D-Phe_4Ph_4F

>  <PQ_SYMBOL>  (1367) 
D-Phe_4Ph_4F

>  <FULL_NAME>  (1367) 
4-(4-Fluorophenyl)-D-phenylalanine

>  <IUPAC_CONDENSED>  (1367) 
D-Phe(4-Ph(4-F))

>  <IUPAC>  (1367) 
(2R)-2-amino-3-[4-(4-fluorophenyl)phenyl]propanoic acid

>  <TYPE>  (1367) 
Backbone

>  <CLASS>  (1367) 
alpha

>  <ANALOG>  (1367) 
Phe

>  <MOL_WT>  (1367) 
259.28

>  <LOGP>  (1367) 
2.4471

>  <TPSA>  (1367) 
63.32000000000001

>  <POPULARITY>  (1367) 
2.2

>  <PROTECTED>  (1367) 
TRUE

>  <SMILES>  (1367) 
N[C@H](Cc1(ccc(cc1)c2(ccc(F)cc2)))C(=O)O

>  <INCHIKEY>  (1367) 
ZHWJVPSCAHSSBQ-CQSZACIVSA-N

$$$$
D-Phe_4Ph_4OH
     RDKit          2D

 19 20  0  0  0  0  0  0  0  0999 V2000
   -3.6454    1.7385    0.0000 N   0  0  0  0  0  0  0  0  0  0  0  0
   -4.2241    0.3546    0.0000 C   0  0  0  0  0  0  0  0  0  0  0  0
   -3.3150   -0.8385    0.0000 C   0  0  0  0  0  0  0  0  0  0  0  0
   -1.8272   -0.6478    0.0000 C   0  0  0  0  0  0  0  0  0  0  0  0
   -1.2485    0.7361    0.0000 C   0  0  0  0  0  0  0  0  0  0  0  0
    0.2394    0.9268    0.0000 C   0  0  0  0  0  0  0  0  0  0  0  0
    1.1485   -0.2664    0.0000 C   0  0  0  0  0  0  0  0  0  0  0  0
    0.5697   -1.6502    0.0000 C   0  0  0  0  0  0  0  0  0  0  0  0
   -0.9181   -1.8409    0.0000 C   0  0  0  0  0  0  0  0  0  0  0  0
    2.6363   -0.0757    0.0000 C   0  0  0  0  0  0  0  0  0  0  0  0
    3.5454   -1.2688    0.0000 C   0  0  0  0  0  0  0  0  0  0  0  0
    5.0332   -1.0781    0.0000 C   0  0  0  0  0  0  0  0  0  0  0  0
    5.6119    0.3058    0.0000 C   0  0  0  0  0  0  0  0  0  0  0  0
    7.0998    0.4965    0.0000 O   0  0  0  0  0  0  0  0  0  0  0  0
    4.7029    1.4989    0.0000 C   0  0  0  0  0  0  0  0  0  0  0  0
    3.2150    1.3082    0.0000 C   0  0  0  0  0  0  0  0  0  0  0  0
   -5.7119    0.1639    0.0000 C   0  0  0  0  0  0  0  0  0  0  0  0
   -6.2907   -1.2199    0.0000 O   0  0  0  0  0  0  0  0  0  0  0  0
   -6.6210    1.3571    0.0000 O   0  0  0  0  0  0  0  0  0  0  0  0
  2  1  1  6
  2  3  1  0
  3  4  1  0
  4  5  1  0
  5  6  2  0
  6  7  1  0
  7  8  2  0
  8  9  1  0
  7 10  1  0
 10 11  1  0
 11 12  2  0
 12 13  1  0
 13 14  1  0
 13 15  2  0
 15 16  1  0
  2 17  1  0
 17 18  2  0
 17 19  1  0
  9  4  2  0
 16 10  2  0
M  END
>  <rName>  (1368) 
D-Phe_4Ph_4OH

>  <PQ_SYMBOL>  (1368) 
D-Phe_4Ph_4OH

>  <FULL_NAME>  (1368) 
D-Phe(4-Ph(4-OH))

>  <IUPAC_CONDENSED>  (1368) 
D-Phe(4-Ph(4-OH))

>  <IUPAC>  (1368) 
(2R)-2-amino-3-(4-(4-hydroxyphenyl)phenyl)propanoic acid

>  <TYPE>  (1368) 
Backbone

>  <CLASS>  (1368) 
alpha

>  <ANALOG>  (1368) 
Phe

>  <MOL_WT>  (1368) 
257.289

>  <LOGP>  (1368) 
2.0136

>  <TPSA>  (1368) 
83.55

>  <POPULARITY>  (1368) 
2.2

>  <PROTECTED>  (1368) 
TRUE

>  <SMILES>  (1368) 
N[C@H](Cc1(ccc(cc1)c2(ccc(O)cc2)))C(=O)O

>  <INCHIKEY>  (1368) 
NPPPJKMZKWMLIK-CQSZACIVSA-N

$$$$
D-Phe_4Rdihydroorotamido
     RDKit          2D

 23 24  0  0  0  0  0  0  0  0999 V2000
   -5.2545    1.7445    0.0000 N   0  0  0  0  0  0  0  0  0  0  0  0
   -5.6935    0.3102    0.0000 C   0  0  0  0  0  0  0  0  0  0  0  0
   -4.6708   -0.7871    0.0000 C   0  0  0  0  0  0  0  0  0  0  0  0
   -3.2092   -0.4501    0.0000 C   0  0  0  0  0  0  0  0  0  0  0  0
   -2.7702    0.9842    0.0000 C   0  0  0  0  0  0  0  0  0  0  0  0
   -1.3086    1.3212    0.0000 C   0  0  0  0  0  0  0  0  0  0  0  0
   -0.2859    0.2239    0.0000 C   0  0  0  0  0  0  0  0  0  0  0  0
   -0.7248   -1.2104    0.0000 C   0  0  0  0  0  0  0  0  0  0  0  0
   -2.1865   -1.5475    0.0000 C   0  0  0  0  0  0  0  0  0  0  0  0
    1.1758    0.5609    0.0000 N   0  0  0  0  0  0  0  0  0  0  0  0
    2.1985   -0.5364    0.0000 C   0  0  0  0  0  0  0  0  0  0  0  0
    1.7595   -1.9707    0.0000 O   0  0  0  0  0  0  0  0  0  0  0  0
    3.6601   -0.1994    0.0000 C   0  0  0  0  0  0  0  0  0  0  0  0
    4.6828   -1.2967    0.0000 C   0  0  0  0  0  0  0  0  0  0  0  0
    6.1445   -0.9597    0.0000 C   0  0  0  0  0  0  0  0  0  0  0  0
    7.1671   -2.0570    0.0000 O   0  0  0  0  0  0  0  0  0  0  0  0
    6.5834    0.4746    0.0000 N   0  0  0  0  0  0  0  0  0  0  0  0
    5.5607    1.5720    0.0000 C   0  0  0  0  0  0  0  0  0  0  0  0
    5.9997    3.0063    0.0000 O   0  0  0  0  0  0  0  0  0  0  0  0
    4.0991    1.2349    0.0000 N   0  0  0  0  0  0  0  0  0  0  0  0
   -7.1552   -0.0268    0.0000 C   0  0  0  0  0  0  0  0  0  0  0  0
   -7.5941   -1.4612    0.0000 O   0  0  0  0  0  0  0  0  0  0  0  0
   -8.1779    1.0705    0.0000 O   0  0  0  0  0  0  0  0  0  0  0  0
  2  1  1  6
  2  3  1  0
  3  4  1  0
  4  5  1  0
  5  6  2  0
  6  7  1  0
  7  8  2  0
  8  9  1  0
  7 10  1  0
 10 11  1  0
 11 12  2  0
 13 11  1  6
 13 14  1  0
 14 15  1  0
 15 16  2  0
 15 17  1  0
 17 18  1  0
 18 19  2  0
 18 20  1  0
  2 21  1  0
 21 22  2  0
 21 23  1  0
  9  4  2  0
 20 13  1  0
M  END
>  <rName>  (1369) 
D-Phe_4Rdihydroorotamido

>  <PQ_SYMBOL>  (1369) 
D-Phe_4Rdihydroorotamido

>  <FULL_NAME>  (1369) 
D-Phe(4-R-dihydroorotamido)

>  <IUPAC_CONDENSED>  (1369) 
D-Phe(4-R-dihydroorotamido)

>  <IUPAC>  (1369) 
(2R)-2-amino-3-(4-((4R)-2,6-dioxo-1,3-diazacyclohexan-4-ylcarbonylamino)phenyl)propanoic acid

>  <TYPE>  (1369) 
Backbone

>  <CLASS>  (1369) 
alpha

>  <ANALOG>  (1369) 
Phe

>  <MOL_WT>  (1369) 
320.305

>  <LOGP>  (1369) 
-0.8223999999999989

>  <TPSA>  (1369) 
150.61999999999998

>  <POPULARITY>  (1369) 
2.2

>  <PROTECTED>  (1369) 
TRUE

>  <SMILES>  (1369) 
N[C@H](Cc1(ccc(cc1)NC(=O)[C@H]2(CC(=O)NC(=O)N2)))C(=O)O

>  <INCHIKEY>  (1369) 
OLPMLGPIXOYZDU-NXEZZACHSA-N

$$$$
D-Phe_4Sdihydroorotamido
     RDKit          2D

 23 24  0  0  0  0  0  0  0  0999 V2000
   -5.2545    1.7445    0.0000 N   0  0  0  0  0  0  0  0  0  0  0  0
   -5.6935    0.3102    0.0000 C   0  0  0  0  0  0  0  0  0  0  0  0
   -4.6708   -0.7871    0.0000 C   0  0  0  0  0  0  0  0  0  0  0  0
   -3.2092   -0.4501    0.0000 C   0  0  0  0  0  0  0  0  0  0  0  0
   -2.7702    0.9842    0.0000 C   0  0  0  0  0  0  0  0  0  0  0  0
   -1.3086    1.3212    0.0000 C   0  0  0  0  0  0  0  0  0  0  0  0
   -0.2859    0.2239    0.0000 C   0  0  0  0  0  0  0  0  0  0  0  0
   -0.7248   -1.2104    0.0000 C   0  0  0  0  0  0  0  0  0  0  0  0
   -2.1865   -1.5475    0.0000 C   0  0  0  0  0  0  0  0  0  0  0  0
    1.1758    0.5609    0.0000 N   0  0  0  0  0  0  0  0  0  0  0  0
    2.1985   -0.5364    0.0000 C   0  0  0  0  0  0  0  0  0  0  0  0
    1.7595   -1.9707    0.0000 O   0  0  0  0  0  0  0  0  0  0  0  0
    3.6601   -0.1994    0.0000 C   0  0  0  0  0  0  0  0  0  0  0  0
    4.6828   -1.2967    0.0000 C   0  0  0  0  0  0  0  0  0  0  0  0
    6.1445   -0.9597    0.0000 C   0  0  0  0  0  0  0  0  0  0  0  0
    7.1671   -2.0570    0.0000 O   0  0  0  0  0  0  0  0  0  0  0  0
    6.5834    0.4746    0.0000 N   0  0  0  0  0  0  0  0  0  0  0  0
    5.5607    1.5720    0.0000 C   0  0  0  0  0  0  0  0  0  0  0  0
    5.9997    3.0063    0.0000 O   0  0  0  0  0  0  0  0  0  0  0  0
    4.0991    1.2349    0.0000 N   0  0  0  0  0  0  0  0  0  0  0  0
   -7.1552   -0.0268    0.0000 C   0  0  0  0  0  0  0  0  0  0  0  0
   -7.5941   -1.4612    0.0000 O   0  0  0  0  0  0  0  0  0  0  0  0
   -8.1779    1.0705    0.0000 O   0  0  0  0  0  0  0  0  0  0  0  0
  2  1  1  6
  2  3  1  0
  3  4  1  0
  4  5  1  0
  5  6  2  0
  6  7  1  0
  7  8  2  0
  8  9  1  0
  7 10  1  0
 10 11  1  0
 11 12  2  0
 13 11  1  1
 13 14  1  0
 14 15  1  0
 15 16  2  0
 15 17  1  0
 17 18  1  0
 18 19  2  0
 18 20  1  0
  2 21  1  0
 21 22  2  0
 21 23  1  0
  9  4  2  0
 20 13  1  0
M  END
>  <rName>  (1370) 
D-Phe_4Sdihydroorotamido

>  <PQ_SYMBOL>  (1370) 
D-Phe_4Sdihydroorotamido

>  <FULL_NAME>  (1370) 
(R)-2-amino-3-(4-((S)-2,6-dioxohexahydropyrimidine-4-carboxamido)phenyl)propanoic acid

>  <IUPAC_CONDENSED>  (1370) 
D-Phe(4-S-dihydroorotamido)

>  <IUPAC>  (1370) 
(2R)-2-amino-3-(4-((4S)-2,6-dioxo-1,3-diazacyclohexan-4-ylcarbonylamino)phenyl)propanoic acid

>  <TYPE>  (1370) 
Backbone

>  <CLASS>  (1370) 
alpha

>  <ANALOG>  (1370) 
Phe

>  <MOL_WT>  (1370) 
320.305

>  <LOGP>  (1370) 
-0.8223999999999989

>  <TPSA>  (1370) 
150.61999999999998

>  <POPULARITY>  (1370) 
4.4

>  <PROTECTED>  (1370) 
TRUE

>  <SMILES>  (1370) 
N[C@H](Cc1(ccc(cc1)NC(=O)[C@@H]2(CC(=O)NC(=O)N2)))C(=O)O

>  <INCHIKEY>  (1370) 
OLPMLGPIXOYZDU-ZJUUUORDSA-N

$$$$
D-Phe_4ethynyl
     RDKit          2D

 14 14  0  0  0  0  0  0  0  0999 V2000
   -1.9640    1.7008    0.0000 N   0  0  0  0  0  0  0  0  0  0  0  0
   -2.4550    0.2835    0.0000 C   0  0  0  0  0  0  0  0  0  0  0  0
   -1.4730   -0.8504    0.0000 C   0  0  0  0  0  0  0  0  0  0  0  0
   -0.0000   -0.5669    0.0000 C   0  0  0  0  0  0  0  0  0  0  0  0
    0.4910    0.8504    0.0000 C   0  0  0  0  0  0  0  0  0  0  0  0
    1.9640    1.1339    0.0000 C   0  0  0  0  0  0  0  0  0  0  0  0
    2.9459    0.0000    0.0000 C   0  0  0  0  0  0  0  0  0  0  0  0
    4.4189    0.2835    0.0000 C   0  0  0  0  0  0  0  0  0  0  0  0
    5.8919    0.5669    0.0000 C   0  0  0  0  0  0  0  0  0  0  0  0
    2.4550   -1.4174    0.0000 C   0  0  0  0  0  0  0  0  0  0  0  0
    0.9820   -1.7008    0.0000 C   0  0  0  0  0  0  0  0  0  0  0  0
   -3.9279   -0.0000    0.0000 C   0  0  0  0  0  0  0  0  0  0  0  0
   -4.4189   -1.4174    0.0000 O   0  0  0  0  0  0  0  0  0  0  0  0
   -4.9099    1.1339    0.0000 O   0  0  0  0  0  0  0  0  0  0  0  0
  2  1  1  6
  2  3  1  0
  3  4  1  0
  4  5  1  0
  5  6  2  0
  6  7  1  0
  7  8  1  0
  8  9  3  0
  7 10  2  0
 10 11  1  0
  2 12  1  0
 12 13  2  0
 12 14  1  0
 11  4  2  0
M  END
>  <rName>  (1371) 
D-Phe_4ethynyl

>  <PQ_SYMBOL>  (1371) 
D-Phe_4ethynyl

>  <FULL_NAME>  (1371) 
(2R)-2-amino-3-(4-ethynylphenyl)propanoic acid

>  <IUPAC_CONDENSED>  (1371) 
D-Phe(4-ethynyl)

>  <IUPAC>  (1371) 
(2R)-2-amino-3-(4-ethynylphenyl)propanoic acid

>  <TYPE>  (1371) 
Backbone

>  <CLASS>  (1371) 
alpha

>  <ANALOG>  (1371) 
Phe

>  <MOL_WT>  (1371) 
189.21399999999997

>  <LOGP>  (1371) 
0.6223000000000001

>  <TPSA>  (1371) 
63.32000000000001

>  <POPULARITY>  (1371) 
2.2

>  <PROTECTED>  (1371) 
TRUE

>  <SMILES>  (1371) 
N[C@H](Cc1(ccc(C#C)cc1))C(=O)O

>  <INCHIKEY>  (1371) 
PPDNGMUGVMESGE-SNVBAGLBSA-N

$$$$
D-Phe_4guanidino
     RDKit          2D

 16 16  0  0  0  0  0  0  0  0999 V2000
   -2.8646    1.6700    0.0000 N   0  0  0  0  0  0  0  0  0  0  0  0
   -3.2013    0.2083    0.0000 C   0  0  0  0  0  0  0  0  0  0  0  0
   -2.1038   -0.8141    0.0000 C   0  0  0  0  0  0  0  0  0  0  0  0
   -0.6696   -0.3749    0.0000 C   0  0  0  0  0  0  0  0  0  0  0  0
   -0.3329    1.0868    0.0000 C   0  0  0  0  0  0  0  0  0  0  0  0
    1.1014    1.5261    0.0000 C   0  0  0  0  0  0  0  0  0  0  0  0
    2.1989    0.5036    0.0000 C   0  0  0  0  0  0  0  0  0  0  0  0
    1.8622   -0.9581    0.0000 C   0  0  0  0  0  0  0  0  0  0  0  0
    0.4280   -1.3974    0.0000 C   0  0  0  0  0  0  0  0  0  0  0  0
    3.6332    0.9429    0.0000 N   0  0  0  0  0  0  0  0  0  0  0  0
    4.7307   -0.0796    0.0000 C   0  0  0  0  0  0  0  0  0  0  0  0
    4.3940   -1.5413    0.0000 N   0  0  0  0  0  0  0  0  0  0  0  0
    6.1649    0.3597    0.0000 N   0  0  0  0  0  0  0  0  0  0  0  0
   -4.6356   -0.2309    0.0000 C   0  0  0  0  0  0  0  0  0  0  0  0
   -4.9723   -1.6927    0.0000 O   0  0  0  0  0  0  0  0  0  0  0  0
   -5.7331    0.7915    0.0000 O   0  0  0  0  0  0  0  0  0  0  0  0
  2  1  1  6
  2  3  1  0
  3  4  1  0
  4  5  1  0
  5  6  2  0
  6  7  1  0
  7  8  2  0
  8  9  1  0
  7 10  1  0
 10 11  1  0
 11 12  2  0
 11 13  1  0
  2 14  1  0
 14 15  2  0
 14 16  1  0
  9  4  2  0
M  END
>  <rName>  (1372) 
D-Phe_4guanidino

>  <PQ_SYMBOL>  (1372) 
D-Phe_4guanidino

>  <FULL_NAME>  (1372) 
(2R)-2-amino-3-[4-(diaminomethylideneamino)phenyl]propanoic acid

>  <IUPAC_CONDENSED>  (1372) 
D-Phe(4-guanidino)

>  <IUPAC>  (1372) 
(2R)-2-amino-3-(4-(((amino)(imino)methyl)amino)phenyl)propanoic acid

>  <TYPE>  (1372) 
Backbone

>  <CLASS>  (1372) 
alpha

>  <ANALOG>  (1372) 
Phe

>  <MOL_WT>  (1372) 
222.24799999999996

>  <LOGP>  (1372) 
-0.05363000000000029

>  <TPSA>  (1372) 
125.22000000000001

>  <POPULARITY>  (1372) 
13.1

>  <PROTECTED>  (1372) 
TRUE

>  <SMILES>  (1372) 
N[C@H](Cc1(ccc(cc1)NC(=N)N))C(=O)O

>  <INCHIKEY>  (1372) 
FYMNTAQFDTZISY-MRVPVSSYSA-N

$$$$
D-Phe_4iPr
     RDKit          2D

 15 15  0  0  0  0  0  0  0  0999 V2000
   -2.2547    1.6872    0.0000 N   0  0  0  0  0  0  0  0  0  0  0  0
   -2.7489    0.2709    0.0000 C   0  0  0  0  0  0  0  0  0  0  0  0
   -1.7696   -0.8652    0.0000 C   0  0  0  0  0  0  0  0  0  0  0  0
   -0.2959   -0.5852    0.0000 C   0  0  0  0  0  0  0  0  0  0  0  0
    0.1983    0.8311    0.0000 C   0  0  0  0  0  0  0  0  0  0  0  0
    1.6719    1.1111    0.0000 C   0  0  0  0  0  0  0  0  0  0  0  0
    2.6513   -0.0250    0.0000 C   0  0  0  0  0  0  0  0  0  0  0  0
    2.1570   -1.4413    0.0000 C   0  0  0  0  0  0  0  0  0  0  0  0
    0.6834   -1.7213    0.0000 C   0  0  0  0  0  0  0  0  0  0  0  0
    4.1249    0.2550    0.0000 C   0  0  0  0  0  0  0  0  0  0  0  0
    5.1043   -0.8811    0.0000 C   0  0  0  0  0  0  0  0  0  0  0  0
    4.6192    1.6713    0.0000 C   0  0  0  0  0  0  0  0  0  0  0  0
   -4.2225   -0.0091    0.0000 C   0  0  0  0  0  0  0  0  0  0  0  0
   -4.7168   -1.4254    0.0000 O   0  0  0  0  0  0  0  0  0  0  0  0
   -5.2019    1.1270    0.0000 O   0  0  0  0  0  0  0  0  0  0  0  0
  2  1  1  6
  2  3  1  0
  3  4  1  0
  4  5  1  0
  5  6  2  0
  6  7  1  0
  7  8  2  0
  8  9  1  0
  7 10  1  0
 10 11  1  0
 10 12  1  0
  2 13  1  0
 13 14  2  0
 13 15  1  0
  9  4  2  0
M  END
>  <rName>  (1373) 
D-Phe_4iPr

>  <PQ_SYMBOL>  (1373) 
D-Phe_4iPr

>  <FULL_NAME>  (1373) 
(R)-2-Amino-3-(4-isopropylphenyl)propanoic acid

>  <IUPAC_CONDENSED>  (1373) 
D-Phe(4-iPr)

>  <IUPAC>  (1373) 
(2R)-2-amino-3-(4-propan-2-ylphenyl)propanoic acid

>  <TYPE>  (1373) 
Backbone

>  <CLASS>  (1373) 
alpha

>  <ANALOG>  (1373) 
Phe

>  <MOL_WT>  (1373) 
207.27299999999997

>  <LOGP>  (1373) 
1.7644000000000002

>  <TPSA>  (1373) 
63.32000000000001

>  <POPULARITY>  (1373) 
2.2

>  <PROTECTED>  (1373) 
TRUE

>  <SMILES>  (1373) 
N[C@H](Cc1(ccc(cc1)C(C)C))C(=O)O

>  <INCHIKEY>  (1373) 
CYHRSNOITZHLJN-LLVKDONJSA-N

$$$$
D-Phe_4morpholino
     RDKit          2D

 18 19  0  0  0  0  0  0  0  0999 V2000
   -3.2769    1.7174    0.0000 N   0  0  0  0  0  0  0  0  0  0  0  0
   -3.8349    0.3251    0.0000 C   0  0  0  0  0  0  0  0  0  0  0  0
   -2.9082   -0.8544    0.0000 C   0  0  0  0  0  0  0  0  0  0  0  0
   -1.4234   -0.6415    0.0000 C   0  0  0  0  0  0  0  0  0  0  0  0
   -0.8653    0.7508    0.0000 C   0  0  0  0  0  0  0  0  0  0  0  0
    0.6195    0.9637    0.0000 C   0  0  0  0  0  0  0  0  0  0  0  0
    1.5463   -0.2158    0.0000 C   0  0  0  0  0  0  0  0  0  0  0  0
    0.9882   -1.6081    0.0000 C   0  0  0  0  0  0  0  0  0  0  0  0
   -0.4966   -1.8210    0.0000 C   0  0  0  0  0  0  0  0  0  0  0  0
    3.0311   -0.0029    0.0000 N   0  0  0  0  0  0  0  0  0  0  0  0
    3.9578   -1.1824    0.0000 C   0  0  0  0  0  0  0  0  0  0  0  0
    5.4427   -0.9695    0.0000 C   0  0  0  0  0  0  0  0  0  0  0  0
    6.0007    0.4228    0.0000 O   0  0  0  0  0  0  0  0  0  0  0  0
    5.0740    1.6023    0.0000 C   0  0  0  0  0  0  0  0  0  0  0  0
    3.5891    1.3894    0.0000 C   0  0  0  0  0  0  0  0  0  0  0  0
   -5.3198    0.1122    0.0000 C   0  0  0  0  0  0  0  0  0  0  0  0
   -5.8778   -1.2801    0.0000 O   0  0  0  0  0  0  0  0  0  0  0  0
   -6.2465    1.2917    0.0000 O   0  0  0  0  0  0  0  0  0  0  0  0
  2  1  1  6
  2  3  1  0
  3  4  1  0
  4  5  1  0
  5  6  2  0
  6  7  1  0
  7  8  2  0
  8  9  1  0
  7 10  1  0
 10 11  1  0
 11 12  1  0
 12 13  1  0
 13 14  1  0
 14 15  1  0
  2 16  1  0
 16 17  2  0
 16 18  1  0
  9  4  2  0
 15 10  1  0
M  END
>  <rName>  (1374) 
D-Phe_4morpholino

>  <PQ_SYMBOL>  (1374) 
D-Phe_4morpholino

>  <FULL_NAME>  (1374) 
4-(4-Morpholinyl)-D-phenylalanine

>  <IUPAC_CONDENSED>  (1374) 
D-Phe(4-morpholino)

>  <IUPAC>  (1374) 
(2R)-2-amino-3-(4-morpholin-4-ylphenyl)propanoic acid

>  <TYPE>  (1374) 
Backbone

>  <CLASS>  (1374) 
alpha

>  <ANALOG>  (1374) 
Phe

>  <MOL_WT>  (1374) 
250.2979999999999

>  <LOGP>  (1374) 
0.47759999999999997

>  <TPSA>  (1374) 
75.78999999999999

>  <POPULARITY>  (1374) 
2.2

>  <PROTECTED>  (1374) 
TRUE

>  <SMILES>  (1374) 
N[C@H](Cc1(ccc(cc1)N2(CCOCC2)))C(=O)O

>  <INCHIKEY>  (1374) 
BKFTZFXJLYAYLN-GFCCVEGCSA-N

$$$$
D-Phe_4pyrid4yl
     RDKit          2D

 18 19  0  0  0  0  0  0  0  0999 V2000
   -3.2769    1.7174    0.0000 N   0  0  0  0  0  0  0  0  0  0  0  0
   -3.8349    0.3251    0.0000 C   0  0  0  0  0  0  0  0  0  0  0  0
   -2.9082   -0.8544    0.0000 C   0  0  0  0  0  0  0  0  0  0  0  0
   -1.4234   -0.6415    0.0000 C   0  0  0  0  0  0  0  0  0  0  0  0
   -0.8653    0.7508    0.0000 C   0  0  0  0  0  0  0  0  0  0  0  0
    0.6195    0.9637    0.0000 C   0  0  0  0  0  0  0  0  0  0  0  0
    1.5463   -0.2158    0.0000 C   0  0  0  0  0  0  0  0  0  0  0  0
    0.9882   -1.6081    0.0000 C   0  0  0  0  0  0  0  0  0  0  0  0
   -0.4966   -1.8210    0.0000 C   0  0  0  0  0  0  0  0  0  0  0  0
    3.0311   -0.0029    0.0000 C   0  0  0  0  0  0  0  0  0  0  0  0
    3.9578   -1.1824    0.0000 C   0  0  0  0  0  0  0  0  0  0  0  0
    5.4427   -0.9695    0.0000 C   0  0  0  0  0  0  0  0  0  0  0  0
    6.0007    0.4228    0.0000 N   0  0  0  0  0  0  0  0  0  0  0  0
    5.0740    1.6023    0.0000 C   0  0  0  0  0  0  0  0  0  0  0  0
    3.5891    1.3894    0.0000 C   0  0  0  0  0  0  0  0  0  0  0  0
   -5.3198    0.1122    0.0000 C   0  0  0  0  0  0  0  0  0  0  0  0
   -5.8778   -1.2801    0.0000 O   0  0  0  0  0  0  0  0  0  0  0  0
   -6.2465    1.2917    0.0000 O   0  0  0  0  0  0  0  0  0  0  0  0
  2  1  1  6
  2  3  1  0
  3  4  1  0
  4  5  1  0
  5  6  2  0
  6  7  1  0
  7  8  2  0
  8  9  1  0
  7 10  1  0
 10 11  1  0
 11 12  2  0
 12 13  1  0
 13 14  2  0
 14 15  1  0
  2 16  1  0
 16 17  2  0
 16 18  1  0
  9  4  2  0
 15 10  2  0
M  END
>  <rName>  (1375) 
D-Phe_4pyrid4yl

>  <PQ_SYMBOL>  (1375) 
D-Phe_4pyrid4yl

>  <FULL_NAME>  (1375) 
(2R)-2-amino-3-(4-pyridin-4-ylphenyl)propanoic acid

>  <IUPAC_CONDENSED>  (1375) 
D-Phe(4-pyrid-4-yl)

>  <IUPAC>  (1375) 
(2R)-2-amino-3-(4-pyridin-4-ylphenyl)propanoic acid

>  <TYPE>  (1375) 
Backbone

>  <CLASS>  (1375) 
alpha

>  <ANALOG>  (1375) 
Phe

>  <MOL_WT>  (1375) 
242.278

>  <LOGP>  (1375) 
1.703

>  <TPSA>  (1375) 
76.21

>  <POPULARITY>  (1375) 
2.2

>  <PROTECTED>  (1375) 
TRUE

>  <SMILES>  (1375) 
N[C@H](Cc1(ccc(cc1)c2(ccncc2)))C(=O)O

>  <INCHIKEY>  (1375) 
VLCKOHYUPSSERC-CYBMUJFWSA-N

$$$$
D-Phe_4tBu
     RDKit          2D

 16 16  0  0  0  0  0  0  0  0999 V2000
   -2.5021    1.6866    0.0000 N   0  0  0  0  0  0  0  0  0  0  0  0
   -3.0051    0.2735    0.0000 C   0  0  0  0  0  0  0  0  0  0  0  0
   -2.0328   -0.8687    0.0000 C   0  0  0  0  0  0  0  0  0  0  0  0
   -0.5574   -0.5977    0.0000 C   0  0  0  0  0  0  0  0  0  0  0  0
   -0.0545    0.8155    0.0000 C   0  0  0  0  0  0  0  0  0  0  0  0
    1.4208    1.0865    0.0000 C   0  0  0  0  0  0  0  0  0  0  0  0
    2.3932   -0.0557    0.0000 C   0  0  0  0  0  0  0  0  0  0  0  0
    1.8902   -1.4688    0.0000 C   0  0  0  0  0  0  0  0  0  0  0  0
    0.4149   -1.7398    0.0000 C   0  0  0  0  0  0  0  0  0  0  0  0
    3.8685    0.2153    0.0000 C   0  0  0  0  0  0  0  0  0  0  0  0
    4.1395   -1.2600    0.0000 C   0  0  0  0  0  0  0  0  0  0  0  0
    3.5975    1.6906    0.0000 C   0  0  0  0  0  0  0  0  0  0  0  0
    5.3438    0.4863    0.0000 C   0  0  0  0  0  0  0  0  0  0  0  0
   -4.4804    0.0025    0.0000 C   0  0  0  0  0  0  0  0  0  0  0  0
   -4.9834   -1.4107    0.0000 O   0  0  0  0  0  0  0  0  0  0  0  0
   -5.4528    1.1446    0.0000 O   0  0  0  0  0  0  0  0  0  0  0  0
  2  1  1  6
  2  3  1  0
  3  4  1  0
  4  5  1  0
  5  6  2  0
  6  7  1  0
  7  8  2  0
  8  9  1  0
  7 10  1  0
 10 11  1  0
 10 12  1  0
 10 13  1  0
  2 14  1  0
 14 15  2  0
 14 16  1  0
  9  4  2  0
M  END
>  <rName>  (1376) 
D-Phe_4tBu

>  <PQ_SYMBOL>  (1376) 
D-Phe_4tBu

>  <FULL_NAME>  (1376) 
4-tert-Butyl-D-Phenylalanine

>  <IUPAC_CONDENSED>  (1376) 
D-Phe(4-tBu)

>  <IUPAC>  (1376) 
(2R)-2-amino-3-(4-(tert-butyl)phenyl)propanoic acid

>  <TYPE>  (1376) 
Backbone

>  <CLASS>  (1376) 
alpha

>  <ANALOG>  (1376) 
Phe

>  <MOL_WT>  (1376) 
221.29999999999995

>  <LOGP>  (1376) 
1.9385000000000001

>  <TPSA>  (1376) 
63.32000000000001

>  <POPULARITY>  (1376) 
10.5

>  <PROTECTED>  (1376) 
TRUE

>  <SMILES>  (1376) 
N[C@H](Cc1(ccc(cc1)C(C)(C)C))C(=O)O

>  <INCHIKEY>  (1376) 
CSJZKSXYLTYFPU-LLVKDONJSA-N

$$$$
D-Phe_4ureido
     RDKit          2D

 16 16  0  0  0  0  0  0  0  0999 V2000
   -2.8646    1.6700    0.0000 N   0  0  0  0  0  0  0  0  0  0  0  0
   -3.2013    0.2083    0.0000 C   0  0  0  0  0  0  0  0  0  0  0  0
   -2.1038   -0.8141    0.0000 C   0  0  0  0  0  0  0  0  0  0  0  0
   -0.6696   -0.3749    0.0000 C   0  0  0  0  0  0  0  0  0  0  0  0
   -0.3329    1.0868    0.0000 C   0  0  0  0  0  0  0  0  0  0  0  0
    1.1014    1.5261    0.0000 C   0  0  0  0  0  0  0  0  0  0  0  0
    2.1989    0.5036    0.0000 C   0  0  0  0  0  0  0  0  0  0  0  0
    1.8622   -0.9581    0.0000 C   0  0  0  0  0  0  0  0  0  0  0  0
    0.4280   -1.3974    0.0000 C   0  0  0  0  0  0  0  0  0  0  0  0
    3.6332    0.9429    0.0000 N   0  0  0  0  0  0  0  0  0  0  0  0
    4.7307   -0.0796    0.0000 C   0  0  0  0  0  0  0  0  0  0  0  0
    4.3940   -1.5413    0.0000 O   0  0  0  0  0  0  0  0  0  0  0  0
    6.1649    0.3597    0.0000 N   0  0  0  0  0  0  0  0  0  0  0  0
   -4.6356   -0.2309    0.0000 C   0  0  0  0  0  0  0  0  0  0  0  0
   -4.9723   -1.6927    0.0000 O   0  0  0  0  0  0  0  0  0  0  0  0
   -5.7331    0.7915    0.0000 O   0  0  0  0  0  0  0  0  0  0  0  0
  2  1  1  6
  2  3  1  0
  3  4  1  0
  4  5  1  0
  5  6  2  0
  6  7  1  0
  7  8  2  0
  8  9  1  0
  7 10  1  0
 10 11  1  0
 11 12  2  0
 11 13  1  0
  2 14  1  0
 14 15  2  0
 14 16  1  0
  9  4  2  0
M  END
>  <rName>  (1377) 
D-Phe_4ureido

>  <PQ_SYMBOL>  (1377) 
D-Phe_4ureido

>  <FULL_NAME>  (1377) 
4-((Aminocarbonyl)amino)-D-phenylalanine

>  <IUPAC_CONDENSED>  (1377) 
D-Phe(4-ureido)

>  <IUPAC>  (1377) 
(2R)-2-amino-3-(4-(carbamoylamino)phenyl)propanoic acid

>  <TYPE>  (1377) 
Backbone

>  <CLASS>  (1377) 
alpha

>  <ANALOG>  (1377) 
Phe

>  <MOL_WT>  (1377) 
223.23199999999994

>  <LOGP>  (1377) 
0.1316

>  <TPSA>  (1377) 
118.44000000000001

>  <POPULARITY>  (1377) 
14.2

>  <PROTECTED>  (1377) 
TRUE

>  <SMILES>  (1377) 
N[C@H](Cc1(ccc(cc1)NC(=O)N))C(=O)O

>  <INCHIKEY>  (1377) 
ZTAKYRNNPKFXGS-MRVPVSSYSA-N

$$$$
D-Phe_4ureido_tBu
     RDKit          2D

 20 20  0  0  0  0  0  0  0  0999 V2000
   -4.4694    1.6046    0.0000 N   0  0  0  0  0  0  0  0  0  0  0  0
   -4.7233    0.1263    0.0000 C   0  0  0  0  0  0  0  0  0  0  0  0
   -3.5700   -0.8328    0.0000 C   0  0  0  0  0  0  0  0  0  0  0  0
   -2.1627   -0.3135    0.0000 C   0  0  0  0  0  0  0  0  0  0  0  0
   -1.9088    1.1649    0.0000 C   0  0  0  0  0  0  0  0  0  0  0  0
   -0.5016    1.6842    0.0000 C   0  0  0  0  0  0  0  0  0  0  0  0
    0.6518    0.7251    0.0000 C   0  0  0  0  0  0  0  0  0  0  0  0
    0.3979   -0.7532    0.0000 C   0  0  0  0  0  0  0  0  0  0  0  0
   -1.0094   -1.2725    0.0000 C   0  0  0  0  0  0  0  0  0  0  0  0
    2.0590    1.2444    0.0000 N   0  0  0  0  0  0  0  0  0  0  0  0
    3.2123    0.2854    0.0000 C   0  0  0  0  0  0  0  0  0  0  0  0
    2.9585   -1.1930    0.0000 O   0  0  0  0  0  0  0  0  0  0  0  0
    4.6196    0.8047    0.0000 N   0  0  0  0  0  0  0  0  0  0  0  0
    5.7729   -0.1544    0.0000 C   0  0  0  0  0  0  0  0  0  0  0  0
    6.7320    0.9990    0.0000 C   0  0  0  0  0  0  0  0  0  0  0  0
    4.8139   -1.3077    0.0000 C   0  0  0  0  0  0  0  0  0  0  0  0
    6.9263   -1.1134    0.0000 C   0  0  0  0  0  0  0  0  0  0  0  0
   -6.1306   -0.3930    0.0000 C   0  0  0  0  0  0  0  0  0  0  0  0
   -6.3844   -1.8714    0.0000 O   0  0  0  0  0  0  0  0  0  0  0  0
   -7.2839    0.5660    0.0000 O   0  0  0  0  0  0  0  0  0  0  0  0
  2  1  1  6
  2  3  1  0
  3  4  1  0
  4  5  1  0
  5  6  2  0
  6  7  1  0
  7  8  2  0
  8  9  1  0
  7 10  1  0
 10 11  1  0
 11 12  2  0
 11 13  1  0
 13 14  1  0
 14 15  1  0
 14 16  1  0
 14 17  1  0
  2 18  1  0
 18 19  2  0
 18 20  1  0
  9  4  2  0
M  END
>  <rName>  (1378) 
D-Phe_4ureido_tBu

>  <PQ_SYMBOL>  (1378) 
D-Phe_4ureido_tBu

>  <FULL_NAME>  (1378) 
(R)-2-amino-3-(4-(3-(tert-butyl)ureido)phenyl)propanoic acid

>  <IUPAC_CONDENSED>  (1378) 
D-Phe(4-ureido(tBu))

>  <IUPAC>  (1378) 
(2R)-2-amino-3-(4-(((tert-butyl)carbamoyl)amino)phenyl)propanoic acid

>  <TYPE>  (1378) 
Backbone

>  <CLASS>  (1378) 
alpha

>  <ANALOG>  (1378) 
Phe

>  <MOL_WT>  (1378) 
279.34

>  <LOGP>  (1378) 
1.561

>  <TPSA>  (1378) 
104.45

>  <POPULARITY>  (1378) 
4.2

>  <PROTECTED>  (1378) 
TRUE

>  <SMILES>  (1378) 
N[C@H](Cc1(ccc(cc1)NC(=O)NC(C)(C)C))C(=O)O

>  <INCHIKEY>  (1378) 
QAUACHLRTFZNBE-LLVKDONJSA-N

$$$$
D-Phe_4vinyl
     RDKit          2D

 14 14  0  0  0  0  0  0  0  0999 V2000
   -2.0397    1.6757    0.0000 N   0  0  0  0  0  0  0  0  0  0  0  0
   -2.4395    0.2299    0.0000 C   0  0  0  0  0  0  0  0  0  0  0  0
   -1.3873   -0.8392    0.0000 C   0  0  0  0  0  0  0  0  0  0  0  0
    0.0646   -0.4625    0.0000 C   0  0  0  0  0  0  0  0  0  0  0  0
    0.4644    0.9832    0.0000 C   0  0  0  0  0  0  0  0  0  0  0  0
    1.9164    1.3598    0.0000 C   0  0  0  0  0  0  0  0  0  0  0  0
    2.9685    0.2907    0.0000 C   0  0  0  0  0  0  0  0  0  0  0  0
    4.4205    0.6674    0.0000 C   0  0  0  0  0  0  0  0  0  0  0  0
    5.4726   -0.4017    0.0000 C   0  0  0  0  0  0  0  0  0  0  0  0
    2.5687   -1.1550    0.0000 C   0  0  0  0  0  0  0  0  0  0  0  0
    1.1168   -1.5316    0.0000 C   0  0  0  0  0  0  0  0  0  0  0  0
   -3.8914   -0.1467    0.0000 C   0  0  0  0  0  0  0  0  0  0  0  0
   -4.2912   -1.5924    0.0000 O   0  0  0  0  0  0  0  0  0  0  0  0
   -4.9436    0.9224    0.0000 O   0  0  0  0  0  0  0  0  0  0  0  0
  2  1  1  6
  2  3  1  0
  3  4  1  0
  4  5  1  0
  5  6  2  0
  6  7  1  0
  7  8  1  0
  8  9  2  0
  7 10  2  0
 10 11  1  0
  2 12  1  0
 12 13  2  0
 12 14  1  0
 11  4  2  0
M  END
>  <rName>  (1379) 
D-Phe_4vinyl

>  <PQ_SYMBOL>  (1379) 
D-Phe_4vinyl

>  <FULL_NAME>  (1379) 
(R)-2-amino-3-(4-vinylphenyl)propanoic acid

>  <IUPAC_CONDENSED>  (1379) 
D-Phe(4-vinyl)

>  <IUPAC>  (1379) 
(2R)-2-amino-3-(4-ethenylphenyl)propanoic acid

>  <TYPE>  (1379) 
Backbone

>  <CLASS>  (1379) 
alpha

>  <ANALOG>  (1379) 
Phe

>  <MOL_WT>  (1379) 
191.23

>  <LOGP>  (1379) 
1.284

>  <TPSA>  (1379) 
63.32000000000001

>  <POPULARITY>  (1379) 
5.8

>  <PROTECTED>  (1379) 
TRUE

>  <SMILES>  (1379) 
N[C@H](Cc1(ccc(C=C)cc1))C(=O)O

>  <INCHIKEY>  (1379) 
FEXQXSKTRZQJLH-SNVBAGLBSA-N

$$$$
D-Phe_F5
     RDKit          2D

 17 17  0  0  0  0  0  0  0  0999 V2000
   -2.1241    1.6089    0.0000 N   0  0  0  0  0  0  0  0  0  0  0  0
   -2.4801    0.1517    0.0000 C   0  0  0  0  0  0  0  0  0  0  0  0
   -1.3962   -0.8851    0.0000 C   0  0  0  0  0  0  0  0  0  0  0  0
    0.0438   -0.4648    0.0000 C   0  0  0  0  0  0  0  0  0  0  0  0
    0.3997    0.9923    0.0000 C   0  0  0  0  0  0  0  0  0  0  0  0
   -0.6842    2.0292    0.0000 F   0  0  0  0  0  0  0  0  0  0  0  0
    1.8397    1.4126    0.0000 C   0  0  0  0  0  0  0  0  0  0  0  0
    2.1956    2.8697    0.0000 F   0  0  0  0  0  0  0  0  0  0  0  0
    2.9236    0.3757    0.0000 C   0  0  0  0  0  0  0  0  0  0  0  0
    4.3635    0.7960    0.0000 F   0  0  0  0  0  0  0  0  0  0  0  0
    2.5676   -1.0814    0.0000 C   0  0  0  0  0  0  0  0  0  0  0  0
    3.6515   -2.1183    0.0000 F   0  0  0  0  0  0  0  0  0  0  0  0
    1.1277   -1.5017    0.0000 C   0  0  0  0  0  0  0  0  0  0  0  0
    0.7717   -2.9589    0.0000 F   0  0  0  0  0  0  0  0  0  0  0  0
   -3.9200   -0.2685    0.0000 C   0  0  0  0  0  0  0  0  0  0  0  0
   -4.2760   -1.7257    0.0000 O   0  0  0  0  0  0  0  0  0  0  0  0
   -5.0039    0.7683    0.0000 O   0  0  0  0  0  0  0  0  0  0  0  0
  2  1  1  6
  2  3  1  0
  3  4  1  0
  4  5  2  0
  5  6  1  0
  5  7  1  0
  7  8  1  0
  7  9  2  0
  9 10  1  0
  9 11  1  0
 11 12  1  0
 11 13  2  0
 13 14  1  0
  2 15  1  0
 15 16  2  0
 15 17  1  0
 13  4  1  0
M  END
>  <rName>  (1380) 
D-Phe_F5

>  <PQ_SYMBOL>  (1380) 
D-Phe_F5

>  <FULL_NAME>  (1380) 
D-Pentafluorophenylalanine

>  <IUPAC_CONDENSED>  (1380) 
D-Phe(F5)

>  <IUPAC>  (1380) 
(2R)-2-amino-3-(2,3,4,5,6-pentafluorophenyl)propanoic acid

>  <TYPE>  (1380) 
Backbone

>  <CLASS>  (1380) 
alpha

>  <ANALOG>  (1380) 
Phe

>  <MOL_WT>  (1380) 
255.14199999999997

>  <LOGP>  (1380) 
1.3365000000000002

>  <TPSA>  (1380) 
63.32000000000001

>  <POPULARITY>  (1380) 
9.4

>  <PROTECTED>  (1380) 
TRUE

>  <SMILES>  (1380) 
N[C@H](Cc1(c(F)c(F)c(F)c(F)c1F))C(=O)O

>  <INCHIKEY>  (1380) 
YYTDJPUFAVPHQA-GSVOUGTGSA-N

$$$$
D-Phe_bRMe
     RDKit          2D

 13 13  0  0  0  0  0  0  0  0999 V2000
    1.1110    1.8899    0.0000 N   0  0  0  0  0  0  0  0  0  0  0  0
    1.5339    0.4508    0.0000 C   0  0  0  0  0  0  0  0  0  0  0  0
    0.4991   -0.6350    0.0000 C   0  0  0  0  0  0  0  0  0  0  0  0
    0.9220   -2.0742    0.0000 C   0  0  0  0  0  0  0  0  0  0  0  0
   -0.9587   -0.2818    0.0000 C   0  0  0  0  0  0  0  0  0  0  0  0
   -1.9936   -1.3676    0.0000 C   0  0  0  0  0  0  0  0  0  0  0  0
   -3.4514   -1.0143    0.0000 C   0  0  0  0  0  0  0  0  0  0  0  0
   -3.8743    0.4248    0.0000 C   0  0  0  0  0  0  0  0  0  0  0  0
   -2.8395    1.5107    0.0000 C   0  0  0  0  0  0  0  0  0  0  0  0
   -1.3817    1.1574    0.0000 C   0  0  0  0  0  0  0  0  0  0  0  0
    2.9917    0.0975    0.0000 C   0  0  0  0  0  0  0  0  0  0  0  0
    3.4147   -1.3416    0.0000 O   0  0  0  0  0  0  0  0  0  0  0  0
    4.0266    1.1834    0.0000 O   0  0  0  0  0  0  0  0  0  0  0  0
  2  1  1  1
  2  3  1  0
  3  4  1  6
  3  5  1  0
  5  6  2  0
  6  7  1  0
  7  8  2  0
  8  9  1  0
  9 10  2  0
  2 11  1  0
 11 12  2  0
 11 13  1  0
 10  5  1  0
M  END
>  <rName>  (1381) 
D-Phe_bRMe

>  <PQ_SYMBOL>  (1381) 
D-Phe_bRMe

>  <FULL_NAME>  (1381) 
(betaR)-beta-Methyl-D-phenylalanine

>  <IUPAC_CONDENSED>  (1381) 
D-Phe(bR-Me)

>  <IUPAC>  (1381) 
(2R,3R)-2-amino-3-phenylbutanoic acid

>  <TYPE>  (1381) 
Backbone

>  <CLASS>  (1381) 
alpha

>  <ANALOG>  (1381) 
Phe

>  <MOL_WT>  (1381) 
179.21899999999997

>  <LOGP>  (1381) 
1.202

>  <TPSA>  (1381) 
63.32000000000001

>  <POPULARITY>  (1381) 
16.5

>  <PROTECTED>  (1381) 
TRUE

>  <SMILES>  (1381) 
N[C@H]([C@H](C)c1(ccccc1))C(=O)O

>  <INCHIKEY>  (1381) 
IRZQDMYEJPNDEN-VXNVDRBHSA-N

$$$$
D-Phe_bROH
     RDKit          2D

 13 13  0  0  0  0  0  0  0  0999 V2000
   -1.1110    1.8899    0.0000 N   0  0  0  0  0  0  0  0  0  0  0  0
   -1.5339    0.4508    0.0000 C   0  0  0  0  0  0  0  0  0  0  0  0
   -0.4991   -0.6350    0.0000 C   0  0  0  0  0  0  0  0  0  0  0  0
   -0.9220   -2.0742    0.0000 O   0  0  0  0  0  0  0  0  0  0  0  0
    0.9587   -0.2818    0.0000 C   0  0  0  0  0  0  0  0  0  0  0  0
    1.3817    1.1574    0.0000 C   0  0  0  0  0  0  0  0  0  0  0  0
    2.8395    1.5107    0.0000 C   0  0  0  0  0  0  0  0  0  0  0  0
    3.8743    0.4248    0.0000 C   0  0  0  0  0  0  0  0  0  0  0  0
    3.4514   -1.0143    0.0000 C   0  0  0  0  0  0  0  0  0  0  0  0
    1.9936   -1.3676    0.0000 C   0  0  0  0  0  0  0  0  0  0  0  0
   -2.9917    0.0975    0.0000 C   0  0  0  0  0  0  0  0  0  0  0  0
   -3.4147   -1.3416    0.0000 O   0  0  0  0  0  0  0  0  0  0  0  0
   -4.0266    1.1834    0.0000 O   0  0  0  0  0  0  0  0  0  0  0  0
  2  1  1  6
  2  3  1  0
  3  4  1  1
  3  5  1  0
  5  6  2  0
  6  7  1  0
  7  8  2  0
  8  9  1  0
  9 10  2  0
  2 11  1  0
 11 12  2  0
 11 13  1  0
 10  5  1  0
M  END
>  <rName>  (1382) 
D-Phe_bROH

>  <PQ_SYMBOL>  (1382) 
D-Phe_bROH

>  <FULL_NAME>  (1382) 
erythro-D-Phenylserine

>  <IUPAC_CONDENSED>  (1382) 
D-Phe(bR-OH)

>  <IUPAC>  (1382) 
(2R,3R)-2-amino-3-hydroxy-3-phenylpropanoic acid

>  <TYPE>  (1382) 
Backbone

>  <CLASS>  (1382) 
alpha

>  <ANALOG>  (1382) 
Phe

>  <MOL_WT>  (1382) 
181.19099999999997

>  <LOGP>  (1382) 
0.13190000000000007

>  <TPSA>  (1382) 
83.55

>  <POPULARITY>  (1382) 
2.2

>  <PROTECTED>  (1382) 
TRUE

>  <SMILES>  (1382) 
N[C@H]([C@H](O)c1(ccccc1))C(=O)O

>  <INCHIKEY>  (1382) 
VHVGNTVUSQUXPS-HTQZYQBOSA-N

$$$$
D-Phe_bSMe
     RDKit          2D

 13 13  0  0  0  0  0  0  0  0999 V2000
    1.1110    1.8899    0.0000 N   0  0  0  0  0  0  0  0  0  0  0  0
    1.5339    0.4508    0.0000 C   0  0  0  0  0  0  0  0  0  0  0  0
    0.4991   -0.6350    0.0000 C   0  0  0  0  0  0  0  0  0  0  0  0
    0.9220   -2.0742    0.0000 C   0  0  0  0  0  0  0  0  0  0  0  0
   -0.9587   -0.2818    0.0000 C   0  0  0  0  0  0  0  0  0  0  0  0
   -1.9936   -1.3676    0.0000 C   0  0  0  0  0  0  0  0  0  0  0  0
   -3.4514   -1.0143    0.0000 C   0  0  0  0  0  0  0  0  0  0  0  0
   -3.8743    0.4248    0.0000 C   0  0  0  0  0  0  0  0  0  0  0  0
   -2.8395    1.5107    0.0000 C   0  0  0  0  0  0  0  0  0  0  0  0
   -1.3817    1.1574    0.0000 C   0  0  0  0  0  0  0  0  0  0  0  0
    2.9917    0.0975    0.0000 C   0  0  0  0  0  0  0  0  0  0  0  0
    3.4147   -1.3416    0.0000 O   0  0  0  0  0  0  0  0  0  0  0  0
    4.0266    1.1834    0.0000 O   0  0  0  0  0  0  0  0  0  0  0  0
  2  1  1  1
  2  3  1  0
  3  4  1  1
  3  5  1  0
  5  6  2  0
  6  7  1  0
  7  8  2  0
  8  9  1  0
  9 10  2  0
  2 11  1  0
 11 12  2  0
 11 13  1  0
 10  5  1  0
M  END
>  <rName>  (1383) 
D-Phe_bSMe

>  <PQ_SYMBOL>  (1383) 
D-Phe_bSMe

>  <FULL_NAME>  (1383) 
(2R,3S)-2-amino-3-phenylbutanoic acid

>  <IUPAC_CONDENSED>  (1383) 
D-Phe(bS-Me)

>  <IUPAC>  (1383) 
(2R,3S)-2-amino-3-phenylbutanoic acid

>  <TYPE>  (1383) 
Backbone

>  <CLASS>  (1383) 
alpha

>  <ANALOG>  (1383) 
Phe

>  <MOL_WT>  (1383) 
179.21899999999997

>  <LOGP>  (1383) 
1.202

>  <TPSA>  (1383) 
63.32000000000001

>  <POPULARITY>  (1383) 
17.8

>  <PROTECTED>  (1383) 
TRUE

>  <SMILES>  (1383) 
N[C@H]([C@@H](C)c1(ccccc1))C(=O)O

>  <INCHIKEY>  (1383) 
IRZQDMYEJPNDEN-IONNQARKSA-N

$$$$
D-Phe_bSOH
     RDKit          2D

 13 13  0  0  0  0  0  0  0  0999 V2000
   -1.1110    1.8899    0.0000 N   0  0  0  0  0  0  0  0  0  0  0  0
   -1.5339    0.4508    0.0000 C   0  0  0  0  0  0  0  0  0  0  0  0
   -0.4991   -0.6350    0.0000 C   0  0  0  0  0  0  0  0  0  0  0  0
   -0.9220   -2.0742    0.0000 O   0  0  0  0  0  0  0  0  0  0  0  0
    0.9587   -0.2818    0.0000 C   0  0  0  0  0  0  0  0  0  0  0  0
    1.3817    1.1574    0.0000 C   0  0  0  0  0  0  0  0  0  0  0  0
    2.8395    1.5107    0.0000 C   0  0  0  0  0  0  0  0  0  0  0  0
    3.8743    0.4248    0.0000 C   0  0  0  0  0  0  0  0  0  0  0  0
    3.4514   -1.0143    0.0000 C   0  0  0  0  0  0  0  0  0  0  0  0
    1.9936   -1.3676    0.0000 C   0  0  0  0  0  0  0  0  0  0  0  0
   -2.9917    0.0975    0.0000 C   0  0  0  0  0  0  0  0  0  0  0  0
   -3.4147   -1.3416    0.0000 O   0  0  0  0  0  0  0  0  0  0  0  0
   -4.0266    1.1834    0.0000 O   0  0  0  0  0  0  0  0  0  0  0  0
  2  1  1  6
  2  3  1  0
  3  4  1  6
  3  5  1  0
  5  6  2  0
  6  7  1  0
  7  8  2  0
  8  9  1  0
  9 10  2  0
  2 11  1  0
 11 12  2  0
 11 13  1  0
 10  5  1  0
M  END
>  <rName>  (1384) 
D-Phe_bSOH

>  <PQ_SYMBOL>  (1384) 
D-Phe_bSOH

>  <FULL_NAME>  (1384) 
D-Threo-3-Phenylserine

>  <IUPAC_CONDENSED>  (1384) 
D-Phe(bS-OH)

>  <IUPAC>  (1384) 
(2R,3S)-2-amino-3-hydroxy-3-phenylpropanoic acid

>  <TYPE>  (1384) 
Backbone

>  <CLASS>  (1384) 
alpha

>  <ANALOG>  (1384) 
Phe

>  <MOL_WT>  (1384) 
181.19099999999997

>  <LOGP>  (1384) 
0.13190000000000007

>  <TPSA>  (1384) 
83.55

>  <POPULARITY>  (1384) 
16.1

>  <PROTECTED>  (1384) 
TRUE

>  <SMILES>  (1384) 
N[C@H]([C@@H](O)c1(ccccc1))C(=O)O

>  <INCHIKEY>  (1384) 
VHVGNTVUSQUXPS-SFYZADRCSA-N

$$$$
D-Phe_pyrid3yl
     RDKit          2D

 18 19  0  0  0  0  0  0  0  0999 V2000
   -3.2769    1.7174    0.0000 N   0  0  0  0  0  0  0  0  0  0  0  0
   -3.8349    0.3251    0.0000 C   0  0  0  0  0  0  0  0  0  0  0  0
   -2.9082   -0.8544    0.0000 C   0  0  0  0  0  0  0  0  0  0  0  0
   -1.4234   -0.6415    0.0000 C   0  0  0  0  0  0  0  0  0  0  0  0
   -0.8653    0.7508    0.0000 C   0  0  0  0  0  0  0  0  0  0  0  0
    0.6195    0.9637    0.0000 C   0  0  0  0  0  0  0  0  0  0  0  0
    1.5463   -0.2158    0.0000 C   0  0  0  0  0  0  0  0  0  0  0  0
    0.9882   -1.6081    0.0000 C   0  0  0  0  0  0  0  0  0  0  0  0
   -0.4966   -1.8210    0.0000 C   0  0  0  0  0  0  0  0  0  0  0  0
    3.0311   -0.0029    0.0000 C   0  0  0  0  0  0  0  0  0  0  0  0
    3.9578   -1.1824    0.0000 C   0  0  0  0  0  0  0  0  0  0  0  0
    5.4427   -0.9695    0.0000 C   0  0  0  0  0  0  0  0  0  0  0  0
    6.0007    0.4228    0.0000 C   0  0  0  0  0  0  0  0  0  0  0  0
    5.0740    1.6023    0.0000 N   0  0  0  0  0  0  0  0  0  0  0  0
    3.5891    1.3894    0.0000 C   0  0  0  0  0  0  0  0  0  0  0  0
   -5.3198    0.1122    0.0000 C   0  0  0  0  0  0  0  0  0  0  0  0
   -5.8778   -1.2801    0.0000 O   0  0  0  0  0  0  0  0  0  0  0  0
   -6.2465    1.2917    0.0000 O   0  0  0  0  0  0  0  0  0  0  0  0
  2  1  1  6
  2  3  1  0
  3  4  1  0
  4  5  1  0
  5  6  2  0
  6  7  1  0
  7  8  2  0
  8  9  1  0
  7 10  1  0
 10 11  2  0
 11 12  1  0
 12 13  2  0
 13 14  1  0
 14 15  2  0
  2 16  1  0
 16 17  2  0
 16 18  1  0
  9  4  2  0
 15 10  1  0
M  END
>  <rName>  (1385) 
D-Phe_pyrid3yl

>  <PQ_SYMBOL>  (1385) 
D-Phe_pyrid3yl

>  <FULL_NAME>  (1385) 
4-(3-Pyridinyl)-D-Phenylalanine

>  <IUPAC_CONDENSED>  (1385) 
D-Phe(pyrid-3-yl)

>  <IUPAC>  (1385) 
(2R)-2-amino-3-(4-(pyridin-3-yl)phenyl)propanoic acid

>  <TYPE>  (1385) 
Backbone

>  <CLASS>  (1385) 
alpha

>  <ANALOG>  (1385) 
Phe

>  <MOL_WT>  (1385) 
242.278

>  <LOGP>  (1385) 
1.703

>  <TPSA>  (1385) 
76.21

>  <POPULARITY>  (1385) 
5.0

>  <PROTECTED>  (1385) 
TRUE

>  <SMILES>  (1385) 
N[C@H](Cc1(ccc(cc1)c2(cccnc2)))C(=O)O

>  <INCHIKEY>  (1385) 
HWAKOCNTLFYOFR-CYBMUJFWSA-N

$$$$
D-Phg
     RDKit          2D

 11 11  0  0  0  0  0  0  0  0999 V2000
   -1.6031   -2.0851    0.0000 N   0  0  0  0  0  0  0  0  0  0  0  0
   -1.1770   -0.6469    0.0000 C   0  0  0  0  0  0  0  0  0  0  0  0
    0.2816   -0.2968    0.0000 C   0  0  0  0  0  0  0  0  0  0  0  0
    0.7077    1.1415    0.0000 C   0  0  0  0  0  0  0  0  0  0  0  0
    2.1662    1.4916    0.0000 C   0  0  0  0  0  0  0  0  0  0  0  0
    3.1987    0.4035    0.0000 C   0  0  0  0  0  0  0  0  0  0  0  0
    2.7726   -1.0347    0.0000 C   0  0  0  0  0  0  0  0  0  0  0  0
    1.3141   -1.3849    0.0000 C   0  0  0  0  0  0  0  0  0  0  0  0
   -2.2095    0.4412    0.0000 C   0  0  0  0  0  0  0  0  0  0  0  0
   -1.7834    1.8794    0.0000 O   0  0  0  0  0  0  0  0  0  0  0  0
   -3.6680    0.0911    0.0000 O   0  0  0  0  0  0  0  0  0  0  0  0
  2  1  1  1
  2  3  1  0
  3  4  2  0
  4  5  1  0
  5  6  2  0
  6  7  1  0
  7  8  2  0
  2  9  1  0
  9 10  2  0
  9 11  1  0
  8  3  1  0
M  END
>  <rName>  (1386) 
D-Phg

>  <PQ_SYMBOL>  (1386) 
D-Phg

>  <FULL_NAME>  (1386) 
D-2-Phenylglycine

>  <IUPAC_CONDENSED>  (1386) 
D-Phg

>  <IUPAC>  (1386) 
(2R)-2-amino-2-phenylacetic acid

>  <TYPE>  (1386) 
Backbone

>  <CLASS>  (1386) 
alpha

>  <ANALOG>  (1386) 
X

>  <MOL_WT>  (1386) 
151.16499999999996

>  <LOGP>  (1386) 
0.7710000000000001

>  <TPSA>  (1386) 
63.32000000000001

>  <POPULARITY>  (1386) 
32.5

>  <PROTECTED>  (1386) 
TRUE

>  <SMILES>  (1386) 
N[C@H](c1(ccccc1))C(=O)O

>  <INCHIKEY>  (1386) 
ZGUNAGUHMKGQNY-SSDOTTSWSA-N

$$$$
D-Phg-ol
     RDKit          2D

 10 10  0  0  0  0  0  0  0  0999 V2000
   -1.9660   -1.7051    0.0000 N   0  0  0  0  0  0  0  0  0  0  0  0
   -1.3951   -0.3180    0.0000 C   0  0  0  0  0  0  0  0  0  0  0  0
   -2.3110    0.8699    0.0000 C   0  0  0  0  0  0  0  0  0  0  0  0
   -3.7977    0.6707    0.0000 O   0  0  0  0  0  0  0  0  0  0  0  0
    0.0916   -0.1188    0.0000 C   0  0  0  0  0  0  0  0  0  0  0  0
    0.6624    1.2683    0.0000 C   0  0  0  0  0  0  0  0  0  0  0  0
    2.1491    1.4676    0.0000 C   0  0  0  0  0  0  0  0  0  0  0  0
    3.0650    0.2796    0.0000 C   0  0  0  0  0  0  0  0  0  0  0  0
    2.4942   -1.1075    0.0000 C   0  0  0  0  0  0  0  0  0  0  0  0
    1.0075   -1.3067    0.0000 C   0  0  0  0  0  0  0  0  0  0  0  0
  2  1  1  1
  2  3  1  0
  3  4  1  0
  2  5  1  0
  5  6  2  0
  6  7  1  0
  7  8  2  0
  8  9  1  0
  9 10  2  0
 10  5  1  0
M  END
>  <rName>  (1387) 
D-Phg-ol

>  <PQ_SYMBOL>  (1387) 
D-Phg-ol

>  <FULL_NAME>  (1387) 
(2R)-2-amino-2-phenylethan-1-ol

>  <IUPAC_CONDENSED>  (1387) 
D-Phg-ol

>  <IUPAC>  (1387) 
(2R)-2-amino-2-phenylethan-1-ol

>  <TYPE>  (1387) 
C-term cap

>  <CLASS>  (1387) 
c_cap

>  <ANALOG>  (1387) 
X

>  <MOL_WT>  (1387) 
137.182

>  <LOGP>  (1387) 
0.6787000000000001

>  <TPSA>  (1387) 
46.25

>  <POPULARITY>  (1387) 
13.0

>  <PROTECTED>  (1387) 
FALSE

>  <SMILES>  (1387) 
N[C@@H](CO)c1ccccc1

>  <INCHIKEY>  (1387) 
IJXJGQCXFSSHNL-QMMMGPOBSA-N

$$$$
D-Phg_2Cl
     RDKit          2D

 12 12  0  0  0  0  0  0  0  0999 V2000
   -1.5242   -1.9777    0.0000 N   0  0  0  0  0  0  0  0  0  0  0  0
   -1.2142   -0.5101    0.0000 C   0  0  0  0  0  0  0  0  0  0  0  0
    0.2118   -0.0447    0.0000 C   0  0  0  0  0  0  0  0  0  0  0  0
    0.5219    1.4229    0.0000 C   0  0  0  0  0  0  0  0  0  0  0  0
    1.9479    1.8882    0.0000 C   0  0  0  0  0  0  0  0  0  0  0  0
    3.0638    0.8859    0.0000 C   0  0  0  0  0  0  0  0  0  0  0  0
    2.7538   -0.5817    0.0000 C   0  0  0  0  0  0  0  0  0  0  0  0
    1.3278   -1.0470    0.0000 C   0  0  0  0  0  0  0  0  0  0  0  0
    1.0178   -2.5147    0.0000 Cl  0  0  0  0  0  0  0  0  0  0  0  0
   -2.3301    0.4922    0.0000 C   0  0  0  0  0  0  0  0  0  0  0  0
   -2.0201    1.9598    0.0000 O   0  0  0  0  0  0  0  0  0  0  0  0
   -3.7561    0.0269    0.0000 O   0  0  0  0  0  0  0  0  0  0  0  0
  2  1  1  1
  2  3  1  0
  3  4  2  0
  4  5  1  0
  5  6  2  0
  6  7  1  0
  7  8  2  0
  8  9  1  0
  2 10  1  0
 10 11  2  0
 10 12  1  0
  8  3  1  0
M  END
>  <rName>  (1388) 
D-Phg_2Cl

>  <PQ_SYMBOL>  (1388) 
D-Phg_2Cl

>  <FULL_NAME>  (1388) 
D-(+)-(2-Chlorophenyl)glycine

>  <IUPAC_CONDENSED>  (1388) 
D-Phg(2-Cl)

>  <IUPAC>  (1388) 
(2R)-2-amino-2-(2-chlorophenyl)acetic acid

>  <TYPE>  (1388) 
Backbone

>  <CLASS>  (1388) 
alpha

>  <ANALOG>  (1388) 
X

>  <MOL_WT>  (1388) 
185.60999999999996

>  <LOGP>  (1388) 
1.4244

>  <TPSA>  (1388) 
63.32000000000001

>  <POPULARITY>  (1388) 
7.5

>  <PROTECTED>  (1388) 
TRUE

>  <SMILES>  (1388) 
N[C@H](c1(ccccc1Cl))C(=O)O

>  <INCHIKEY>  (1388) 
LMIZLNPFTRQPSF-SSDOTTSWSA-N

$$$$
D-Phg_2OMe
     RDKit          2D

 13 13  0  0  0  0  0  0  0  0999 V2000
   -1.1420   -2.1120    0.0000 N   0  0  0  0  0  0  0  0  0  0  0  0
   -1.2559   -0.6164    0.0000 C   0  0  0  0  0  0  0  0  0  0  0  0
   -0.0175    0.2301    0.0000 C   0  0  0  0  0  0  0  0  0  0  0  0
   -0.1314    1.7258    0.0000 C   0  0  0  0  0  0  0  0  0  0  0  0
    1.1069    2.5722    0.0000 C   0  0  0  0  0  0  0  0  0  0  0  0
    2.4592    1.9230    0.0000 C   0  0  0  0  0  0  0  0  0  0  0  0
    2.5731    0.4274    0.0000 C   0  0  0  0  0  0  0  0  0  0  0  0
    1.3347   -0.4191    0.0000 C   0  0  0  0  0  0  0  0  0  0  0  0
    1.4486   -1.9148    0.0000 O   0  0  0  0  0  0  0  0  0  0  0  0
    2.8008   -2.5640    0.0000 C   0  0  0  0  0  0  0  0  0  0  0  0
   -2.6081    0.0328    0.0000 C   0  0  0  0  0  0  0  0  0  0  0  0
   -2.7220    1.5285    0.0000 O   0  0  0  0  0  0  0  0  0  0  0  0
   -3.8464   -0.8136    0.0000 O   0  0  0  0  0  0  0  0  0  0  0  0
  2  1  1  1
  2  3  1  0
  3  4  2  0
  4  5  1  0
  5  6  2  0
  6  7  1  0
  7  8  2  0
  8  9  1  0
  9 10  1  0
  2 11  1  0
 11 12  2  0
 11 13  1  0
  8  3  1  0
M  END
>  <rName>  (1389) 
D-Phg_2OMe

>  <PQ_SYMBOL>  (1389) 
D-Phg_2OMe

>  <FULL_NAME>  (1389) 
(R)-2-amino-2-(2-methoxyphenyl)acetic acid

>  <IUPAC_CONDENSED>  (1389) 
D-Phg(2-OMe)

>  <IUPAC>  (1389) 
(2R)-2-amino-2-(2-methoxyphenyl)acetic acid

>  <TYPE>  (1389) 
Backbone

>  <CLASS>  (1389) 
alpha

>  <ANALOG>  (1389) 
X

>  <MOL_WT>  (1389) 
181.19099999999997

>  <LOGP>  (1389) 
0.7796000000000001

>  <TPSA>  (1389) 
72.55

>  <POPULARITY>  (1389) 
8.6

>  <PROTECTED>  (1389) 
TRUE

>  <SMILES>  (1389) 
N[C@H](c1(ccccc1OC))C(=O)O

>  <INCHIKEY>  (1389) 
DQSACLYOIBPCJU-MRVPVSSYSA-N

$$$$
D-Phg_3Br
     RDKit          2D

 12 12  0  0  0  0  0  0  0  0999 V2000
   -1.5885   -2.1920    0.0000 N   0  0  0  0  0  0  0  0  0  0  0  0
   -1.3991   -0.7040    0.0000 C   0  0  0  0  0  0  0  0  0  0  0  0
   -0.0158   -0.1240    0.0000 C   0  0  0  0  0  0  0  0  0  0  0  0
    0.1736    1.3640    0.0000 C   0  0  0  0  0  0  0  0  0  0  0  0
    1.5569    1.9440    0.0000 C   0  0  0  0  0  0  0  0  0  0  0  0
    2.7509    1.0360    0.0000 C   0  0  0  0  0  0  0  0  0  0  0  0
    2.5615   -0.4520    0.0000 C   0  0  0  0  0  0  0  0  0  0  0  0
    3.7555   -1.3600    0.0000 Br  0  0  0  0  0  0  0  0  0  0  0  0
    1.1782   -1.0320    0.0000 C   0  0  0  0  0  0  0  0  0  0  0  0
   -2.5931    0.2040    0.0000 C   0  0  0  0  0  0  0  0  0  0  0  0
   -2.4037    1.6920    0.0000 O   0  0  0  0  0  0  0  0  0  0  0  0
   -3.9764   -0.3760    0.0000 O   0  0  0  0  0  0  0  0  0  0  0  0
  2  1  1  1
  2  3  1  0
  3  4  2  0
  4  5  1  0
  5  6  2  0
  6  7  1  0
  7  8  1  0
  7  9  2  0
  2 10  1  0
 10 11  2  0
 10 12  1  0
  9  3  1  0
M  END
>  <rName>  (1390) 
D-Phg_3Br

>  <PQ_SYMBOL>  (1390) 
D-Phg_3Br

>  <FULL_NAME>  (1390) 
(R)-2-Amino-2-(3-bromophenyl)acetic acid

>  <IUPAC_CONDENSED>  (1390) 
D-Phg(3-Br)

>  <IUPAC>  (1390) 
(2R)-2-amino-2-(3-bromophenyl)acetic acid

>  <TYPE>  (1390) 
Backbone

>  <CLASS>  (1390) 
alpha

>  <ANALOG>  (1390) 
X

>  <MOL_WT>  (1390) 
230.06099999999998

>  <LOGP>  (1390) 
1.5335000000000003

>  <TPSA>  (1390) 
63.32000000000001

>  <POPULARITY>  (1390) 
7.5

>  <PROTECTED>  (1390) 
TRUE

>  <SMILES>  (1390) 
N[C@H](c1(cccc(Br)c1))C(=O)O

>  <INCHIKEY>  (1390) 
MJPMYLPJAVQUQA-SSDOTTSWSA-N

$$$$
D-Phg_3Cl
     RDKit          2D

 12 12  0  0  0  0  0  0  0  0999 V2000
   -1.5885   -2.1920    0.0000 N   0  0  0  0  0  0  0  0  0  0  0  0
   -1.3991   -0.7040    0.0000 C   0  0  0  0  0  0  0  0  0  0  0  0
   -0.0158   -0.1240    0.0000 C   0  0  0  0  0  0  0  0  0  0  0  0
    0.1736    1.3640    0.0000 C   0  0  0  0  0  0  0  0  0  0  0  0
    1.5569    1.9440    0.0000 C   0  0  0  0  0  0  0  0  0  0  0  0
    2.7509    1.0360    0.0000 C   0  0  0  0  0  0  0  0  0  0  0  0
    2.5615   -0.4520    0.0000 C   0  0  0  0  0  0  0  0  0  0  0  0
    3.7555   -1.3600    0.0000 Cl  0  0  0  0  0  0  0  0  0  0  0  0
    1.1782   -1.0320    0.0000 C   0  0  0  0  0  0  0  0  0  0  0  0
   -2.5931    0.2040    0.0000 C   0  0  0  0  0  0  0  0  0  0  0  0
   -2.4037    1.6920    0.0000 O   0  0  0  0  0  0  0  0  0  0  0  0
   -3.9764   -0.3760    0.0000 O   0  0  0  0  0  0  0  0  0  0  0  0
  2  1  1  1
  2  3  1  0
  3  4  2  0
  4  5  1  0
  5  6  2  0
  6  7  1  0
  7  8  1  0
  7  9  2  0
  2 10  1  0
 10 11  2  0
 10 12  1  0
  9  3  1  0
M  END
>  <rName>  (1391) 
D-Phg_3Cl

>  <PQ_SYMBOL>  (1391) 
D-Phg_3Cl

>  <FULL_NAME>  (1391) 
(2R)-2-amino-2-(3-chlorophenyl)acetic acid

>  <IUPAC_CONDENSED>  (1391) 
D-Phg(3-Cl)

>  <IUPAC>  (1391) 
(2R)-2-amino-2-(3-chlorophenyl)acetic acid

>  <TYPE>  (1391) 
Backbone

>  <CLASS>  (1391) 
alpha

>  <ANALOG>  (1391) 
X

>  <MOL_WT>  (1391) 
185.60999999999999

>  <LOGP>  (1391) 
1.4244

>  <TPSA>  (1391) 
63.32000000000001

>  <POPULARITY>  (1391) 
8.0

>  <PROTECTED>  (1391) 
TRUE

>  <SMILES>  (1391) 
N[C@H](c1(cccc(Cl)c1))C(=O)O

>  <INCHIKEY>  (1391) 
MGOUENCSVMAGSE-SSDOTTSWSA-N

$$$$
D-Phg_3F
     RDKit          2D

 12 12  0  0  0  0  0  0  0  0999 V2000
   -1.5885   -2.1920    0.0000 N   0  0  0  0  0  0  0  0  0  0  0  0
   -1.3991   -0.7040    0.0000 C   0  0  0  0  0  0  0  0  0  0  0  0
   -0.0158   -0.1240    0.0000 C   0  0  0  0  0  0  0  0  0  0  0  0
    0.1736    1.3640    0.0000 C   0  0  0  0  0  0  0  0  0  0  0  0
    1.5569    1.9440    0.0000 C   0  0  0  0  0  0  0  0  0  0  0  0
    2.7509    1.0360    0.0000 C   0  0  0  0  0  0  0  0  0  0  0  0
    2.5615   -0.4520    0.0000 C   0  0  0  0  0  0  0  0  0  0  0  0
    3.7555   -1.3600    0.0000 F   0  0  0  0  0  0  0  0  0  0  0  0
    1.1782   -1.0320    0.0000 C   0  0  0  0  0  0  0  0  0  0  0  0
   -2.5931    0.2040    0.0000 C   0  0  0  0  0  0  0  0  0  0  0  0
   -2.4037    1.6920    0.0000 O   0  0  0  0  0  0  0  0  0  0  0  0
   -3.9764   -0.3760    0.0000 O   0  0  0  0  0  0  0  0  0  0  0  0
  2  1  1  1
  2  3  1  0
  3  4  2  0
  4  5  1  0
  5  6  2  0
  6  7  1  0
  7  8  1  0
  7  9  2  0
  2 10  1  0
 10 11  2  0
 10 12  1  0
  9  3  1  0
M  END
>  <rName>  (1392) 
D-Phg_3F

>  <PQ_SYMBOL>  (1392) 
D-Phg_3F

>  <FULL_NAME>  (1392) 
(R)-2-Amino-2-(3-fluorophenyl)acetic acid

>  <IUPAC_CONDENSED>  (1392) 
D-Phg(3-F)

>  <IUPAC>  (1392) 
(2R)-2-amino-2-(3-fluorophenyl)acetic acid

>  <TYPE>  (1392) 
Backbone

>  <CLASS>  (1392) 
alpha

>  <ANALOG>  (1392) 
X

>  <MOL_WT>  (1392) 
169.15499999999997

>  <LOGP>  (1392) 
0.9101000000000001

>  <TPSA>  (1392) 
63.32000000000001

>  <POPULARITY>  (1392) 
7.9

>  <PROTECTED>  (1392) 
TRUE

>  <SMILES>  (1392) 
N[C@H](c1(cccc(F)c1))C(=O)O

>  <INCHIKEY>  (1392) 
LVYBCZIDQKJNFP-SSDOTTSWSA-N

$$$$
D-Phg_3Me
     RDKit          2D

 12 12  0  0  0  0  0  0  0  0999 V2000
   -1.5885   -2.1920    0.0000 N   0  0  0  0  0  0  0  0  0  0  0  0
   -1.3991   -0.7040    0.0000 C   0  0  0  0  0  0  0  0  0  0  0  0
   -0.0158   -0.1240    0.0000 C   0  0  0  0  0  0  0  0  0  0  0  0
    0.1736    1.3640    0.0000 C   0  0  0  0  0  0  0  0  0  0  0  0
    1.5569    1.9440    0.0000 C   0  0  0  0  0  0  0  0  0  0  0  0
    2.7509    1.0360    0.0000 C   0  0  0  0  0  0  0  0  0  0  0  0
    2.5615   -0.4520    0.0000 C   0  0  0  0  0  0  0  0  0  0  0  0
    3.7555   -1.3600    0.0000 C   0  0  0  0  0  0  0  0  0  0  0  0
    1.1782   -1.0320    0.0000 C   0  0  0  0  0  0  0  0  0  0  0  0
   -2.5931    0.2040    0.0000 C   0  0  0  0  0  0  0  0  0  0  0  0
   -2.4037    1.6920    0.0000 O   0  0  0  0  0  0  0  0  0  0  0  0
   -3.9764   -0.3760    0.0000 O   0  0  0  0  0  0  0  0  0  0  0  0
  2  1  1  1
  2  3  1  0
  3  4  2  0
  4  5  1  0
  5  6  2  0
  6  7  1  0
  7  8  1  0
  7  9  2  0
  2 10  1  0
 10 11  2  0
 10 12  1  0
  9  3  1  0
M  END
>  <rName>  (1393) 
D-Phg_3Me

>  <PQ_SYMBOL>  (1393) 
D-Phg_3Me

>  <FULL_NAME>  (1393) 
(2R)-2-amino-2-(3-methylphenyl)acetic acid

>  <IUPAC_CONDENSED>  (1393) 
D-Phg(3-Me)

>  <IUPAC>  (1393) 
(2R)-2-amino-2-(3-methylphenyl)acetic acid

>  <TYPE>  (1393) 
Backbone

>  <CLASS>  (1393) 
alpha

>  <ANALOG>  (1393) 
X

>  <MOL_WT>  (1393) 
165.19199999999998

>  <LOGP>  (1393) 
1.07942

>  <TPSA>  (1393) 
63.32000000000001

>  <POPULARITY>  (1393) 
2.2

>  <PROTECTED>  (1393) 
TRUE

>  <SMILES>  (1393) 
N[C@H](c1(cccc(C)c1))C(=O)O

>  <INCHIKEY>  (1393) 
LUSUJXIQPCPYCT-MRVPVSSYSA-N

$$$$
D-Phg_3OH
     RDKit          2D

 12 12  0  0  0  0  0  0  0  0999 V2000
   -1.5885   -2.1920    0.0000 N   0  0  0  0  0  0  0  0  0  0  0  0
   -1.3991   -0.7040    0.0000 C   0  0  0  0  0  0  0  0  0  0  0  0
   -0.0158   -0.1240    0.0000 C   0  0  0  0  0  0  0  0  0  0  0  0
    0.1736    1.3640    0.0000 C   0  0  0  0  0  0  0  0  0  0  0  0
    1.5569    1.9440    0.0000 C   0  0  0  0  0  0  0  0  0  0  0  0
    2.7509    1.0360    0.0000 C   0  0  0  0  0  0  0  0  0  0  0  0
    2.5615   -0.4520    0.0000 C   0  0  0  0  0  0  0  0  0  0  0  0
    3.7555   -1.3600    0.0000 O   0  0  0  0  0  0  0  0  0  0  0  0
    1.1782   -1.0320    0.0000 C   0  0  0  0  0  0  0  0  0  0  0  0
   -2.5931    0.2040    0.0000 C   0  0  0  0  0  0  0  0  0  0  0  0
   -2.4037    1.6920    0.0000 O   0  0  0  0  0  0  0  0  0  0  0  0
   -3.9764   -0.3760    0.0000 O   0  0  0  0  0  0  0  0  0  0  0  0
  2  1  1  1
  2  3  1  0
  3  4  2  0
  4  5  1  0
  5  6  2  0
  6  7  1  0
  7  8  1  0
  7  9  2  0
  2 10  1  0
 10 11  2  0
 10 12  1  0
  9  3  1  0
M  END
>  <rName>  (1394) 
D-Phg_3OH

>  <PQ_SYMBOL>  (1394) 
D-Phg_3OH

>  <FULL_NAME>  (1394) 
(R)-2-amino-2-(3-hydroxyphenyl)acetic acid

>  <IUPAC_CONDENSED>  (1394) 
D-Phg(3-OH)

>  <IUPAC>  (1394) 
(2R)-2-amino-2-(3-hydroxyphenyl)acetic acid

>  <TYPE>  (1394) 
Backbone

>  <CLASS>  (1394) 
alpha

>  <ANALOG>  (1394) 
X

>  <MOL_WT>  (1394) 
167.16399999999996

>  <LOGP>  (1394) 
0.4766

>  <TPSA>  (1394) 
83.55

>  <POPULARITY>  (1394) 
9.7

>  <PROTECTED>  (1394) 
TRUE

>  <SMILES>  (1394) 
N[C@H](c1(cccc(O)c1))C(=O)O

>  <INCHIKEY>  (1394) 
DQLYTFPAEVJTFM-SSDOTTSWSA-N

$$$$
D-Phg_3OMe
     RDKit          2D

 13 13  0  0  0  0  0  0  0  0999 V2000
   -1.4877   -2.2692    0.0000 N   0  0  0  0  0  0  0  0  0  0  0  0
   -1.5624   -0.7710    0.0000 C   0  0  0  0  0  0  0  0  0  0  0  0
   -0.3023    0.0427    0.0000 C   0  0  0  0  0  0  0  0  0  0  0  0
   -0.3769    1.5408    0.0000 C   0  0  0  0  0  0  0  0  0  0  0  0
    0.8832    2.3546    0.0000 C   0  0  0  0  0  0  0  0  0  0  0  0
    2.2179    1.6702    0.0000 C   0  0  0  0  0  0  0  0  0  0  0  0
    2.2926    0.1720    0.0000 C   0  0  0  0  0  0  0  0  0  0  0  0
    3.6273   -0.5124    0.0000 O   0  0  0  0  0  0  0  0  0  0  0  0
    3.7020   -2.0105    0.0000 C   0  0  0  0  0  0  0  0  0  0  0  0
    1.0325   -0.6417    0.0000 C   0  0  0  0  0  0  0  0  0  0  0  0
   -2.8971   -0.0866    0.0000 C   0  0  0  0  0  0  0  0  0  0  0  0
   -2.9718    1.4115    0.0000 O   0  0  0  0  0  0  0  0  0  0  0  0
   -4.1572   -0.9004    0.0000 O   0  0  0  0  0  0  0  0  0  0  0  0
  2  1  1  1
  2  3  1  0
  3  4  2  0
  4  5  1  0
  5  6  2  0
  6  7  1  0
  7  8  1  0
  8  9  1  0
  7 10  2  0
  2 11  1  0
 11 12  2  0
 11 13  1  0
 10  3  1  0
M  END
>  <rName>  (1395) 
D-Phg_3OMe

>  <PQ_SYMBOL>  (1395) 
D-Phg_3OMe

>  <FULL_NAME>  (1395) 
(R)-2-amino-2-(3-methoxyphenyl)acetic acid

>  <IUPAC_CONDENSED>  (1395) 
D-Phg(3-OMe)

>  <IUPAC>  (1395) 
(2R)-2-amino-2-(3-methoxyphenyl)acetic acid

>  <TYPE>  (1395) 
Backbone

>  <CLASS>  (1395) 
alpha

>  <ANALOG>  (1395) 
X

>  <MOL_WT>  (1395) 
181.19099999999997

>  <LOGP>  (1395) 
0.7796000000000001

>  <TPSA>  (1395) 
72.55

>  <POPULARITY>  (1395) 
9.1

>  <PROTECTED>  (1395) 
TRUE

>  <SMILES>  (1395) 
N[C@H](c1(cccc(OC)c1))C(=O)O

>  <INCHIKEY>  (1395) 
UMKVNPOZWRHJPM-MRVPVSSYSA-N

$$$$
D-Phg_4Cl
     RDKit          2D

 12 12  0  0  0  0  0  0  0  0999 V2000
   -2.1139   -2.0272    0.0000 N   0  0  0  0  0  0  0  0  0  0  0  0
   -1.6041   -0.6165    0.0000 C   0  0  0  0  0  0  0  0  0  0  0  0
   -0.1275   -0.3527    0.0000 C   0  0  0  0  0  0  0  0  0  0  0  0
    0.3824    1.0580    0.0000 C   0  0  0  0  0  0  0  0  0  0  0  0
    1.8590    1.3219    0.0000 C   0  0  0  0  0  0  0  0  0  0  0  0
    2.8258    0.1750    0.0000 C   0  0  0  0  0  0  0  0  0  0  0  0
    4.3024    0.4388    0.0000 Cl  0  0  0  0  0  0  0  0  0  0  0  0
    2.3159   -1.2357    0.0000 C   0  0  0  0  0  0  0  0  0  0  0  0
    0.8393   -1.4995    0.0000 C   0  0  0  0  0  0  0  0  0  0  0  0
   -2.5709    0.5304    0.0000 C   0  0  0  0  0  0  0  0  0  0  0  0
   -2.0610    1.9411    0.0000 O   0  0  0  0  0  0  0  0  0  0  0  0
   -4.0475    0.2665    0.0000 O   0  0  0  0  0  0  0  0  0  0  0  0
  2  1  1  1
  2  3  1  0
  3  4  1  0
  4  5  2  0
  5  6  1  0
  6  7  1  0
  6  8  2  0
  8  9  1  0
  2 10  1  0
 10 11  2  0
 10 12  1  0
  9  3  2  0
M  END
>  <rName>  (1396) 
D-Phg_4Cl

>  <PQ_SYMBOL>  (1396) 
D-Phg_4Cl

>  <FULL_NAME>  (1396) 
(r)-2-Amino-2-(4-chlorophenyl)acetic acid

>  <IUPAC_CONDENSED>  (1396) 
D-Phg(4-Cl)

>  <IUPAC>  (1396) 
(2R)-2-amino-2-(4-chlorophenyl)acetic acid

>  <TYPE>  (1396) 
Backbone

>  <CLASS>  (1396) 
alpha

>  <ANALOG>  (1396) 
X

>  <MOL_WT>  (1396) 
185.60999999999999

>  <LOGP>  (1396) 
1.4244

>  <TPSA>  (1396) 
63.32000000000001

>  <POPULARITY>  (1396) 
2.2

>  <PROTECTED>  (1396) 
TRUE

>  <SMILES>  (1396) 
N[C@H](c1(ccc(Cl)cc1))C(=O)O

>  <INCHIKEY>  (1396) 
QGJGBYXRJVIYGA-SSDOTTSWSA-N

$$$$
D-Phg_4F
     RDKit          2D

 12 12  0  0  0  0  0  0  0  0999 V2000
   -2.1139   -2.0272    0.0000 N   0  0  0  0  0  0  0  0  0  0  0  0
   -1.6041   -0.6165    0.0000 C   0  0  0  0  0  0  0  0  0  0  0  0
   -0.1275   -0.3527    0.0000 C   0  0  0  0  0  0  0  0  0  0  0  0
    0.3824    1.0580    0.0000 C   0  0  0  0  0  0  0  0  0  0  0  0
    1.8590    1.3219    0.0000 C   0  0  0  0  0  0  0  0  0  0  0  0
    2.8258    0.1750    0.0000 C   0  0  0  0  0  0  0  0  0  0  0  0
    4.3024    0.4388    0.0000 F   0  0  0  0  0  0  0  0  0  0  0  0
    2.3159   -1.2357    0.0000 C   0  0  0  0  0  0  0  0  0  0  0  0
    0.8393   -1.4995    0.0000 C   0  0  0  0  0  0  0  0  0  0  0  0
   -2.5709    0.5304    0.0000 C   0  0  0  0  0  0  0  0  0  0  0  0
   -2.0610    1.9411    0.0000 O   0  0  0  0  0  0  0  0  0  0  0  0
   -4.0475    0.2665    0.0000 O   0  0  0  0  0  0  0  0  0  0  0  0
  2  1  1  1
  2  3  1  0
  3  4  1  0
  4  5  2  0
  5  6  1  0
  6  7  1  0
  6  8  2  0
  8  9  1  0
  2 10  1  0
 10 11  2  0
 10 12  1  0
  9  3  2  0
M  END
>  <rName>  (1397) 
D-Phg_4F

>  <PQ_SYMBOL>  (1397) 
D-Phg_4F

>  <FULL_NAME>  (1397) 
D-(-)-4-Fluorophenylglycine

>  <IUPAC_CONDENSED>  (1397) 
D-Phg(4-F)

>  <IUPAC>  (1397) 
(2R)-2-amino-2-(4-fluorophenyl)acetic acid

>  <TYPE>  (1397) 
Backbone

>  <CLASS>  (1397) 
alpha

>  <ANALOG>  (1397) 
X

>  <MOL_WT>  (1397) 
169.15499999999997

>  <LOGP>  (1397) 
0.9101000000000001

>  <TPSA>  (1397) 
63.32000000000001

>  <POPULARITY>  (1397) 
2.2

>  <PROTECTED>  (1397) 
TRUE

>  <SMILES>  (1397) 
N[C@H](c1(ccc(F)cc1))C(=O)O

>  <INCHIKEY>  (1397) 
JKFYKCYQEWQPTM-SSDOTTSWSA-N

$$$$
D-Phg_4NO2
     RDKit          2D

 14 14  0  0  0  0  0  0  0  0999 V2000
   -2.9275   -1.9768    0.0000 N   0  0  0  0  0  0  0  0  0  0  0  0
   -2.3537   -0.5909    0.0000 C   0  0  0  0  0  0  0  0  0  0  0  0
   -0.8665   -0.3950    0.0000 C   0  0  0  0  0  0  0  0  0  0  0  0
   -0.2927    0.9909    0.0000 C   0  0  0  0  0  0  0  0  0  0  0  0
    1.1945    1.1869    0.0000 C   0  0  0  0  0  0  0  0  0  0  0  0
    2.1077   -0.0030    0.0000 C   0  0  0  0  0  0  0  0  0  0  0  0
    1.5339   -1.3889    0.0000 C   0  0  0  0  0  0  0  0  0  0  0  0
    0.0468   -1.5849    0.0000 C   0  0  0  0  0  0  0  0  0  0  0  0
    3.5949    0.1930    0.0000 N   0  0  0  0  0  0  0  0  0  0  0  0
    4.1687    1.5789    0.0000 O   0  0  0  0  0  0  0  0  0  0  0  0
    4.5082   -0.9970    0.0000 O   0  0  0  0  0  0  0  0  0  0  0  0
   -3.2670    0.5990    0.0000 C   0  0  0  0  0  0  0  0  0  0  0  0
   -2.6931    1.9849    0.0000 O   0  0  0  0  0  0  0  0  0  0  0  0
   -4.7541    0.4030    0.0000 O   0  0  0  0  0  0  0  0  0  0  0  0
  2  1  1  1
  2  3  1  0
  3  4  1  0
  4  5  2  0
  5  6  1  0
  6  7  2  0
  7  8  1  0
  6  9  1  0
  9 10  2  0
  9 11  1  0
  2 12  1  0
 12 13  2  0
 12 14  1  0
  8  3  2  0
M  CHG  2   9   1  11  -1
M  END
>  <rName>  (1398) 
D-Phg_4NO2

>  <PQ_SYMBOL>  (1398) 
D-Phg_4NO2

>  <FULL_NAME>  (1398) 
(R)-2-Amino-2-(4-nitrophenyl)acetic acid

>  <IUPAC_CONDENSED>  (1398) 
D-Phg(4-NO2)

>  <IUPAC>  (1398) 
(2R)-2-amino-2-(4-nitrophenyl)acetic acid

>  <TYPE>  (1398) 
Backbone

>  <CLASS>  (1398) 
alpha

>  <ANALOG>  (1398) 
Lys

>  <MOL_WT>  (1398) 
196.16199999999998

>  <LOGP>  (1398) 
0.6792

>  <TPSA>  (1398) 
106.46

>  <POPULARITY>  (1398) 
2.2

>  <PROTECTED>  (1398) 
TRUE

>  <SMILES>  (1398) 
N[C@H](c1(ccc(cc1)[N+](=O)[O-]))C(=O)O

>  <INCHIKEY>  (1398) 
XCVDAQWKJUCVHJ-SSDOTTSWSA-N

$$$$
D-Phg_Ph
     RDKit          2D

 17 18  0  0  0  0  0  0  0  0999 V2000
   -4.0797   -1.9050    0.0000 N   0  0  0  0  0  0  0  0  0  0  0  0
   -3.4503   -0.5435    0.0000 C   0  0  0  0  0  0  0  0  0  0  0  0
   -1.9564   -0.4078    0.0000 C   0  0  0  0  0  0  0  0  0  0  0  0
   -1.3270    0.9537    0.0000 C   0  0  0  0  0  0  0  0  0  0  0  0
    0.1669    1.0894    0.0000 C   0  0  0  0  0  0  0  0  0  0  0  0
    1.0313   -0.1365    0.0000 C   0  0  0  0  0  0  0  0  0  0  0  0
    0.4018   -1.4981    0.0000 C   0  0  0  0  0  0  0  0  0  0  0  0
   -1.0920   -1.6337    0.0000 C   0  0  0  0  0  0  0  0  0  0  0  0
    2.5251   -0.0009    0.0000 C   0  0  0  0  0  0  0  0  0  0  0  0
    3.3895   -1.2268    0.0000 C   0  0  0  0  0  0  0  0  0  0  0  0
    4.8834   -1.0911    0.0000 C   0  0  0  0  0  0  0  0  0  0  0  0
    5.5128    0.2704    0.0000 C   0  0  0  0  0  0  0  0  0  0  0  0
    4.6484    1.4963    0.0000 C   0  0  0  0  0  0  0  0  0  0  0  0
    3.1546    1.3607    0.0000 C   0  0  0  0  0  0  0  0  0  0  0  0
   -4.3147    0.6824    0.0000 C   0  0  0  0  0  0  0  0  0  0  0  0
   -3.6852    2.0439    0.0000 O   0  0  0  0  0  0  0  0  0  0  0  0
   -5.8085    0.5467    0.0000 O   0  0  0  0  0  0  0  0  0  0  0  0
  2  1  1  1
  2  3  1  0
  3  4  1  0
  4  5  2  0
  5  6  1  0
  6  7  2  0
  7  8  1  0
  6  9  1  0
  9 10  2  0
 10 11  1  0
 11 12  2  0
 12 13  1  0
 13 14  2  0
  2 15  1  0
 15 16  2  0
 15 17  1  0
  8  3  2  0
 14  9  1  0
M  END
>  <rName>  (1399) 
D-Phg_Ph

>  <PQ_SYMBOL>  (1399) 
D-Phg_Ph

>  <FULL_NAME>  (1399) 
(S)-Amino-biphenyl-4-yl-acetic acid

>  <IUPAC_CONDENSED>  (1399) 
D-Phg(Ph)

>  <IUPAC>  (1399) 
(2R)-2-amino-2-(4-phenylphenyl)acetic acid

>  <TYPE>  (1399) 
Backbone

>  <CLASS>  (1399) 
alpha

>  <ANALOG>  (1399) 
X

>  <MOL_WT>  (1399) 
227.263

>  <LOGP>  (1399) 
2.4379999999999997

>  <TPSA>  (1399) 
63.32000000000001

>  <POPULARITY>  (1399) 
4.9

>  <PROTECTED>  (1399) 
TRUE

>  <SMILES>  (1399) 
N[C@H](c1(ccc(cc1)c2(ccccc2)))C(=O)O

>  <INCHIKEY>  (1399) 
BMWOGALGPJNHSP-CYBMUJFWSA-N

$$$$
D-Pip
     RDKit          2D

  9  9  0  0  0  0  0  0  0  0999 V2000
    0.4167   -1.2990    0.0000 N   0  0  0  0  0  0  0  0  0  0  0  0
   -0.3333    0.0000    0.0000 C   0  0  0  0  0  0  0  0  0  0  0  0
    0.4167    1.2990    0.0000 C   0  0  0  0  0  0  0  0  0  0  0  0
    1.9167    1.2990    0.0000 C   0  0  0  0  0  0  0  0  0  0  0  0
    2.6667    0.0000    0.0000 C   0  0  0  0  0  0  0  0  0  0  0  0
    1.9167   -1.2990    0.0000 C   0  0  0  0  0  0  0  0  0  0  0  0
   -1.8333   -0.0000    0.0000 C   0  0  0  0  0  0  0  0  0  0  0  0
   -2.5833   -1.2990    0.0000 O   0  0  0  0  0  0  0  0  0  0  0  0
   -2.5833    1.2990    0.0000 O   0  0  0  0  0  0  0  0  0  0  0  0
  1  2  1  0
  2  3  1  0
  3  4  1  0
  4  5  1  0
  5  6  1  0
  2  7  1  1
  7  8  2  0
  7  9  1  0
  6  1  1  0
M  END
>  <rName>  (1400) 
D-Pip

>  <PQ_SYMBOL>  (1400) 
D-Pip

>  <FULL_NAME>  (1400) 
D-Pipecolic acid, D-Homoproline

>  <IUPAC_CONDENSED>  (1400) 
D-Pip

>  <IUPAC>  (1400) 
(2R)-piperidine-2-carboxylic acid

>  <TYPE>  (1400) 
Backbone

>  <CLASS>  (1400) 
alpha

>  <ANALOG>  (1400) 
Pro

>  <MOL_WT>  (1400) 
129.15900000000002

>  <LOGP>  (1400) 
0.2131

>  <TPSA>  (1400) 
49.33

>  <POPULARITY>  (1400) 
35.0

>  <PROTECTED>  (1400) 
TRUE

>  <SMILES>  (1400) 
N1[C@H](CCCC1)C(=O)O

>  <INCHIKEY>  (1400) 
HXEACLLIILLPRG-RXMQYKEDSA-N

$$$$
D-Pip_3SCF3
     RDKit          2D

 13 13  0  0  0  0  0  0  0  0999 V2000
    1.9624   -1.1465    0.0000 N   0  0  0  0  0  0  0  0  0  0  0  0
    0.5135   -0.7583    0.0000 C   0  0  0  0  0  0  0  0  0  0  0  0
    0.1253    0.6906    0.0000 C   0  0  0  0  0  0  0  0  0  0  0  0
    1.1860    1.7512    0.0000 C   0  0  0  0  0  0  0  0  0  0  0  0
    2.6349    1.3630    0.0000 C   0  0  0  0  0  0  0  0  0  0  0  0
    3.0231   -0.0859    0.0000 C   0  0  0  0  0  0  0  0  0  0  0  0
   -1.3236    1.0788    0.0000 C   0  0  0  0  0  0  0  0  0  0  0  0
   -2.7725    1.4670    0.0000 F   0  0  0  0  0  0  0  0  0  0  0  0
   -0.9353    2.5277    0.0000 F   0  0  0  0  0  0  0  0  0  0  0  0
   -1.7118   -0.3701    0.0000 F   0  0  0  0  0  0  0  0  0  0  0  0
   -0.5471   -1.8190    0.0000 C   0  0  0  0  0  0  0  0  0  0  0  0
   -1.9960   -1.4307    0.0000 O   0  0  0  0  0  0  0  0  0  0  0  0
   -0.1589   -3.2679    0.0000 O   0  0  0  0  0  0  0  0  0  0  0  0
  1  2  1  0
  2  3  1  0
  3  4  1  0
  4  5  1  0
  5  6  1  0
  3  7  1  1
  7  8  1  0
  7  9  1  0
  7 10  1  0
  2 11  1  1
 11 12  2  0
 11 13  1  0
  6  1  1  0
M  END
>  <rName>  (1401) 
D-Pip_3SCF3

>  <PQ_SYMBOL>  (1401) 
D-Pip_3SCF3

>  <FULL_NAME>  (1401) 
Rac-(2r,3s)-3-(trifluoromethyl)piperidine-2-carboxylic acid

>  <IUPAC_CONDENSED>  (1401) 
D-Pip(3S-CF3)

>  <IUPAC>  (1401) 
(2R,3S)-3-(trifluoromethyl)piperidine-2-carboxylic acid

>  <TYPE>  (1401) 
Backbone

>  <CLASS>  (1401) 
alpha

>  <ANALOG>  (1401) 
Pro

>  <MOL_WT>  (1401) 
197.156

>  <LOGP>  (1401) 
1.0014999999999998

>  <TPSA>  (1401) 
49.33

>  <POPULARITY>  (1401) 
3.4

>  <PROTECTED>  (1401) 
TRUE

>  <SMILES>  (1401) 
N1[C@H]([C@H](CCC1)C(F)(F)F)C(=O)O

>  <INCHIKEY>  (1401) 
IWBOSHUHSBAEKF-CRCLSJGQSA-N

$$$$
D-Pip_3SOH
     RDKit          2D

 10 10  0  0  0  0  0  0  0  0999 V2000
    0.5274   -1.5344    0.0000 N   0  0  0  0  0  0  0  0  0  0  0  0
   -0.2866   -0.2745    0.0000 C   0  0  0  0  0  0  0  0  0  0  0  0
    0.3975    1.0604    0.0000 C   0  0  0  0  0  0  0  0  0  0  0  0
   -0.4166    2.3203    0.0000 O   0  0  0  0  0  0  0  0  0  0  0  0
    1.8956    1.1355    0.0000 C   0  0  0  0  0  0  0  0  0  0  0  0
    2.7096   -0.1244    0.0000 C   0  0  0  0  0  0  0  0  0  0  0  0
    2.0255   -1.4594    0.0000 C   0  0  0  0  0  0  0  0  0  0  0  0
   -1.7848   -0.3495    0.0000 C   0  0  0  0  0  0  0  0  0  0  0  0
   -2.4688   -1.6844    0.0000 O   0  0  0  0  0  0  0  0  0  0  0  0
   -2.5988    0.9104    0.0000 O   0  0  0  0  0  0  0  0  0  0  0  0
  1  2  1  0
  2  3  1  0
  3  4  1  1
  3  5  1  0
  5  6  1  0
  6  7  1  0
  2  8  1  1
  8  9  2  0
  8 10  1  0
  7  1  1  0
M  END
>  <rName>  (1402) 
D-Pip_3SOH

>  <PQ_SYMBOL>  (1402) 
D-Pip_3SOH

>  <FULL_NAME>  (1402) 
(2R,3S)-3-hydroxypiperidine-2-carboxylic acid

>  <IUPAC_CONDENSED>  (1402) 
D-Pip(3S-OH)

>  <IUPAC>  (1402) 
(2R,3S)-3-hydroxypiperidine-2-carboxylic acid

>  <TYPE>  (1402) 
Backbone

>  <CLASS>  (1402) 
alpha

>  <ANALOG>  (1402) 
Pro

>  <MOL_WT>  (1402) 
145.15800000000002

>  <LOGP>  (1402) 
-0.8161000000000005

>  <TPSA>  (1402) 
69.56

>  <POPULARITY>  (1402) 
2.2

>  <PROTECTED>  (1402) 
TRUE

>  <SMILES>  (1402) 
N1[C@H]([C@@H](O)CCC1)C(=O)O

>  <INCHIKEY>  (1402) 
FDMYUQHVJYNDLI-CRCLSJGQSA-N

$$$$
D-Pip_4RMe
     RDKit          2D

 10 10  0  0  0  0  0  0  0  0999 V2000
   -0.2551   -1.5451    0.0000 N   0  0  0  0  0  0  0  0  0  0  0  0
   -0.6466   -0.0971    0.0000 C   0  0  0  0  0  0  0  0  0  0  0  0
    0.4117    0.9659    0.0000 C   0  0  0  0  0  0  0  0  0  0  0  0
    1.8615    0.5809    0.0000 C   0  0  0  0  0  0  0  0  0  0  0  0
    2.9197    1.6440    0.0000 C   0  0  0  0  0  0  0  0  0  0  0  0
    2.2529   -0.8671    0.0000 C   0  0  0  0  0  0  0  0  0  0  0  0
    1.1946   -1.9301    0.0000 C   0  0  0  0  0  0  0  0  0  0  0  0
   -2.0963    0.2879    0.0000 C   0  0  0  0  0  0  0  0  0  0  0  0
   -3.1546   -0.7752    0.0000 O   0  0  0  0  0  0  0  0  0  0  0  0
   -2.4878    1.7359    0.0000 O   0  0  0  0  0  0  0  0  0  0  0  0
  1  2  1  0
  2  3  1  0
  3  4  1  0
  4  5  1  6
  4  6  1  0
  6  7  1  0
  2  8  1  1
  8  9  2  0
  8 10  1  0
  7  1  1  0
M  END
>  <rName>  (1403) 
D-Pip_4RMe

>  <PQ_SYMBOL>  (1403) 
D-Pip_4RMe

>  <FULL_NAME>  (1403) 
(2R,4R)-4-methylpiperidine-2-carboxylic acid

>  <IUPAC_CONDENSED>  (1403) 
D-Pip(4R-Me)

>  <IUPAC>  (1403) 
(2R,4R)-4-methylpiperidine-2-carboxylic acid

>  <TYPE>  (1403) 
Backbone

>  <CLASS>  (1403) 
alpha

>  <ANALOG>  (1403) 
Pro

>  <MOL_WT>  (1403) 
143.186

>  <LOGP>  (1403) 
0.4591

>  <TPSA>  (1403) 
49.33

>  <POPULARITY>  (1403) 
7.0

>  <PROTECTED>  (1403) 
TRUE

>  <SMILES>  (1403) 
N1[C@H](C[C@H](C)CC1)C(=O)O

>  <INCHIKEY>  (1403) 
UQHCHLWYGMSPJC-PHDIDXHHSA-N

$$$$
D-Pip_4ROH
     RDKit          2D

 10 10  0  0  0  0  0  0  0  0999 V2000
   -0.2551   -1.5451    0.0000 N   0  0  0  0  0  0  0  0  0  0  0  0
   -0.6466   -0.0971    0.0000 C   0  0  0  0  0  0  0  0  0  0  0  0
    0.4117    0.9659    0.0000 C   0  0  0  0  0  0  0  0  0  0  0  0
    1.8615    0.5809    0.0000 C   0  0  0  0  0  0  0  0  0  0  0  0
    2.9197    1.6440    0.0000 O   0  0  0  0  0  0  0  0  0  0  0  0
    2.2529   -0.8671    0.0000 C   0  0  0  0  0  0  0  0  0  0  0  0
    1.1946   -1.9301    0.0000 C   0  0  0  0  0  0  0  0  0  0  0  0
   -2.0963    0.2879    0.0000 C   0  0  0  0  0  0  0  0  0  0  0  0
   -3.1546   -0.7752    0.0000 O   0  0  0  0  0  0  0  0  0  0  0  0
   -2.4878    1.7359    0.0000 O   0  0  0  0  0  0  0  0  0  0  0  0
  1  2  1  0
  2  3  1  0
  3  4  1  0
  4  5  1  6
  4  6  1  0
  6  7  1  0
  2  8  1  1
  8  9  2  0
  8 10  1  0
  7  1  1  0
M  END
>  <rName>  (1404) 
D-Pip_4ROH

>  <PQ_SYMBOL>  (1404) 
D-Pip_4ROH

>  <FULL_NAME>  (1404) 
(2R,4R)-4-hydroxypiperidine-2-carboxylic acid

>  <IUPAC_CONDENSED>  (1404) 
D-Pip(4R-OH)

>  <IUPAC>  (1404) 
(2R,4R)-4-hydroxypiperidine-2-carboxylic acid

>  <TYPE>  (1404) 
Backbone

>  <CLASS>  (1404) 
alpha

>  <ANALOG>  (1404) 
Pro

>  <MOL_WT>  (1404) 
145.15800000000002

>  <LOGP>  (1404) 
-0.8161000000000005

>  <TPSA>  (1404) 
69.56

>  <POPULARITY>  (1404) 
2.2

>  <PROTECTED>  (1404) 
TRUE

>  <SMILES>  (1404) 
N1[C@H](C[C@H](O)CC1)C(=O)O

>  <INCHIKEY>  (1404) 
KRHNXNZBLHHEIU-RFZPGFLSSA-N

$$$$
D-Pip_4SCF3
     RDKit          2D

 13 13  0  0  0  0  0  0  0  0999 V2000
   -1.5495   -1.6263    0.0000 N   0  0  0  0  0  0  0  0  0  0  0  0
   -1.5035   -0.1270    0.0000 C   0  0  0  0  0  0  0  0  0  0  0  0
   -0.1821    0.5828    0.0000 C   0  0  0  0  0  0  0  0  0  0  0  0
    1.0934   -0.2067    0.0000 C   0  0  0  0  0  0  0  0  0  0  0  0
    1.0474   -1.7060    0.0000 C   0  0  0  0  0  0  0  0  0  0  0  0
   -0.2741   -2.4158    0.0000 C   0  0  0  0  0  0  0  0  0  0  0  0
    2.4148    0.5031    0.0000 C   0  0  0  0  0  0  0  0  0  0  0  0
    3.7362    1.2129    0.0000 F   0  0  0  0  0  0  0  0  0  0  0  0
    3.1246   -0.8183    0.0000 F   0  0  0  0  0  0  0  0  0  0  0  0
    1.7050    1.8245    0.0000 F   0  0  0  0  0  0  0  0  0  0  0  0
   -2.7789    0.6625    0.0000 C   0  0  0  0  0  0  0  0  0  0  0  0
   -4.1003   -0.0474    0.0000 O   0  0  0  0  0  0  0  0  0  0  0  0
   -2.7329    2.1617    0.0000 O   0  0  0  0  0  0  0  0  0  0  0  0
  1  2  1  0
  2  3  1  0
  3  4  1  0
  4  5  1  0
  5  6  1  0
  4  7  1  1
  7  8  1  0
  7  9  1  0
  7 10  1  0
  2 11  1  1
 11 12  2  0
 11 13  1  0
  6  1  1  0
M  END
>  <rName>  (1405) 
D-Pip_4SCF3

>  <PQ_SYMBOL>  (1405) 
D-Pip_4SCF3

>  <FULL_NAME>  (1405) 
(2R,4S)-4-(Trifluoromethyl)piperidine-2-carboxylic acid

>  <IUPAC_CONDENSED>  (1405) 
D-Pip(4S-CF3)

>  <IUPAC>  (1405) 
(2R,4S)-4-(trifluoromethyl)piperidine-2-carboxylic acid

>  <TYPE>  (1405) 
Backbone

>  <CLASS>  (1405) 
alpha

>  <ANALOG>  (1405) 
Pro

>  <MOL_WT>  (1405) 
197.156

>  <LOGP>  (1405) 
1.0014999999999998

>  <TPSA>  (1405) 
49.33

>  <POPULARITY>  (1405) 
3.5

>  <PROTECTED>  (1405) 
TRUE

>  <SMILES>  (1405) 
N1[C@H](C[C@H](CC1)C(F)(F)F)C(=O)O

>  <INCHIKEY>  (1405) 
KPHYTPGXIQKXLP-CRCLSJGQSA-N

$$$$
D-Pip_4SEt
     RDKit          2D

 11 11  0  0  0  0  0  0  0  0999 V2000
   -0.8455   -1.5700    0.0000 N   0  0  0  0  0  0  0  0  0  0  0  0
   -1.0616   -0.0856    0.0000 C   0  0  0  0  0  0  0  0  0  0  0  0
    0.1159    0.8437    0.0000 C   0  0  0  0  0  0  0  0  0  0  0  0
    1.5094    0.2886    0.0000 C   0  0  0  0  0  0  0  0  0  0  0  0
    2.6869    1.2179    0.0000 C   0  0  0  0  0  0  0  0  0  0  0  0
    4.0804    0.6628    0.0000 C   0  0  0  0  0  0  0  0  0  0  0  0
    1.7255   -1.1957    0.0000 C   0  0  0  0  0  0  0  0  0  0  0  0
    0.5480   -2.1250    0.0000 C   0  0  0  0  0  0  0  0  0  0  0  0
   -2.4551    0.4694    0.0000 C   0  0  0  0  0  0  0  0  0  0  0  0
   -3.6326   -0.4599    0.0000 O   0  0  0  0  0  0  0  0  0  0  0  0
   -2.6712    1.9538    0.0000 O   0  0  0  0  0  0  0  0  0  0  0  0
  1  2  1  0
  2  3  1  0
  3  4  1  0
  4  5  1  1
  5  6  1  0
  4  7  1  0
  7  8  1  0
  2  9  1  1
  9 10  2  0
  9 11  1  0
  8  1  1  0
M  END
>  <rName>  (1406) 
D-Pip_4SEt

>  <PQ_SYMBOL>  (1406) 
D-Pip_4SEt

>  <FULL_NAME>  (1406) 
(2R,4S)-4-ethylpiperidine-2-carboxylic acid

>  <IUPAC_CONDENSED>  (1406) 
D-Pip(4S-Et)

>  <IUPAC>  (1406) 
(2R,4S)-4-ethylpiperidine-2-carboxylic acid

>  <TYPE>  (1406) 
Backbone

>  <CLASS>  (1406) 
alpha

>  <ANALOG>  (1406) 
Pro

>  <MOL_WT>  (1406) 
157.21300000000002

>  <LOGP>  (1406) 
0.8492

>  <TPSA>  (1406) 
49.33

>  <POPULARITY>  (1406) 
5.9

>  <PROTECTED>  (1406) 
TRUE

>  <SMILES>  (1406) 
N1[C@H](C[C@@H](CC)CC1)C(=O)O

>  <INCHIKEY>  (1406) 
FMRBNNFMLPDYAJ-NKWVEPMBSA-N

$$$$
D-Pip_4SMe
     RDKit          2D

 10 10  0  0  0  0  0  0  0  0999 V2000
   -0.2551   -1.5451    0.0000 N   0  0  0  0  0  0  0  0  0  0  0  0
   -0.6466   -0.0971    0.0000 C   0  0  0  0  0  0  0  0  0  0  0  0
    0.4117    0.9659    0.0000 C   0  0  0  0  0  0  0  0  0  0  0  0
    1.8615    0.5809    0.0000 C   0  0  0  0  0  0  0  0  0  0  0  0
    2.9197    1.6440    0.0000 C   0  0  0  0  0  0  0  0  0  0  0  0
    2.2529   -0.8671    0.0000 C   0  0  0  0  0  0  0  0  0  0  0  0
    1.1946   -1.9301    0.0000 C   0  0  0  0  0  0  0  0  0  0  0  0
   -2.0963    0.2879    0.0000 C   0  0  0  0  0  0  0  0  0  0  0  0
   -3.1546   -0.7752    0.0000 O   0  0  0  0  0  0  0  0  0  0  0  0
   -2.4878    1.7359    0.0000 O   0  0  0  0  0  0  0  0  0  0  0  0
  1  2  1  0
  2  3  1  0
  3  4  1  0
  4  5  1  1
  4  6  1  0
  6  7  1  0
  2  8  1  1
  8  9  2  0
  8 10  1  0
  7  1  1  0
M  END
>  <rName>  (1407) 
D-Pip_4SMe

>  <PQ_SYMBOL>  (1407) 
D-Pip_4SMe

>  <FULL_NAME>  (1407) 
(2R,4S)-4-Methylpiperidine-2-carboxylic acid

>  <IUPAC_CONDENSED>  (1407) 
D-Pip(4S-Me)

>  <IUPAC>  (1407) 
(2R,4S)-4-methylpiperidine-2-carboxylic acid

>  <TYPE>  (1407) 
Backbone

>  <CLASS>  (1407) 
alpha

>  <ANALOG>  (1407) 
Pro

>  <MOL_WT>  (1407) 
143.186

>  <LOGP>  (1407) 
0.4591

>  <TPSA>  (1407) 
49.33

>  <POPULARITY>  (1407) 
6.4

>  <PROTECTED>  (1407) 
TRUE

>  <SMILES>  (1407) 
N1[C@H](C[C@@H](C)CC1)C(=O)O

>  <INCHIKEY>  (1407) 
UQHCHLWYGMSPJC-NTSWFWBYSA-N

$$$$
D-Pip_4SOH
     RDKit          2D

 10 10  0  0  0  0  0  0  0  0999 V2000
   -0.2551   -1.5451    0.0000 N   0  0  0  0  0  0  0  0  0  0  0  0
   -0.6466   -0.0971    0.0000 C   0  0  0  0  0  0  0  0  0  0  0  0
    0.4117    0.9659    0.0000 C   0  0  0  0  0  0  0  0  0  0  0  0
    1.8615    0.5809    0.0000 C   0  0  0  0  0  0  0  0  0  0  0  0
    2.9197    1.6440    0.0000 O   0  0  0  0  0  0  0  0  0  0  0  0
    2.2529   -0.8671    0.0000 C   0  0  0  0  0  0  0  0  0  0  0  0
    1.1946   -1.9301    0.0000 C   0  0  0  0  0  0  0  0  0  0  0  0
   -2.0963    0.2879    0.0000 C   0  0  0  0  0  0  0  0  0  0  0  0
   -3.1546   -0.7752    0.0000 O   0  0  0  0  0  0  0  0  0  0  0  0
   -2.4878    1.7359    0.0000 O   0  0  0  0  0  0  0  0  0  0  0  0
  1  2  1  0
  2  3  1  0
  3  4  1  0
  4  5  1  1
  4  6  1  0
  6  7  1  0
  2  8  1  1
  8  9  2  0
  8 10  1  0
  7  1  1  0
M  END
>  <rName>  (1408) 
D-Pip_4SOH

>  <PQ_SYMBOL>  (1408) 
D-Pip_4SOH

>  <FULL_NAME>  (1408) 
(2R,4S)-4-Hydroxypiperidine-2-Carboxylic Acid

>  <IUPAC_CONDENSED>  (1408) 
D-Pip(4S-OH)

>  <IUPAC>  (1408) 
(2R,4S)-4-hydroxypiperidine-2-carboxylic acid

>  <TYPE>  (1408) 
Backbone

>  <CLASS>  (1408) 
alpha

>  <ANALOG>  (1408) 
Pro

>  <MOL_WT>  (1408) 
145.15800000000002

>  <LOGP>  (1408) 
-0.8161000000000005

>  <TPSA>  (1408) 
69.56

>  <POPULARITY>  (1408) 
7.8

>  <PROTECTED>  (1408) 
TRUE

>  <SMILES>  (1408) 
N1[C@H](C[C@@H](O)CC1)C(=O)O

>  <INCHIKEY>  (1408) 
KRHNXNZBLHHEIU-CRCLSJGQSA-N

$$$$
D-Pip_4SOMe
     RDKit          2D

 11 11  0  0  0  0  0  0  0  0999 V2000
   -0.8455   -1.5700    0.0000 N   0  0  0  0  0  0  0  0  0  0  0  0
   -1.0616   -0.0856    0.0000 C   0  0  0  0  0  0  0  0  0  0  0  0
    0.1159    0.8437    0.0000 C   0  0  0  0  0  0  0  0  0  0  0  0
    1.5094    0.2886    0.0000 C   0  0  0  0  0  0  0  0  0  0  0  0
    2.6869    1.2179    0.0000 O   0  0  0  0  0  0  0  0  0  0  0  0
    4.0804    0.6628    0.0000 C   0  0  0  0  0  0  0  0  0  0  0  0
    1.7255   -1.1957    0.0000 C   0  0  0  0  0  0  0  0  0  0  0  0
    0.5480   -2.1250    0.0000 C   0  0  0  0  0  0  0  0  0  0  0  0
   -2.4551    0.4694    0.0000 C   0  0  0  0  0  0  0  0  0  0  0  0
   -3.6326   -0.4599    0.0000 O   0  0  0  0  0  0  0  0  0  0  0  0
   -2.6712    1.9538    0.0000 O   0  0  0  0  0  0  0  0  0  0  0  0
  1  2  1  0
  2  3  1  0
  3  4  1  0
  4  5  1  1
  5  6  1  0
  4  7  1  0
  7  8  1  0
  2  9  1  1
  9 10  2  0
  9 11  1  0
  8  1  1  0
M  END
>  <rName>  (1409) 
D-Pip_4SOMe

>  <PQ_SYMBOL>  (1409) 
D-Pip_4SOMe

>  <FULL_NAME>  (1409) 
(2R,4S)-4-Methoxy-2-piperidinecarboxylic acid

>  <IUPAC_CONDENSED>  (1409) 
D-Pip(4S-OMe)

>  <IUPAC>  (1409) 
(2R,4S)-4-methoxypiperidine-2-carboxylic acid

>  <TYPE>  (1409) 
Backbone

>  <CLASS>  (1409) 
alpha

>  <ANALOG>  (1409) 
Pro

>  <MOL_WT>  (1409) 
159.185

>  <LOGP>  (1409) 
-0.1620000000000002

>  <TPSA>  (1409) 
58.56

>  <POPULARITY>  (1409) 
4.5

>  <PROTECTED>  (1409) 
TRUE

>  <SMILES>  (1409) 
N1[C@H](C[C@@H](OC)CC1)C(=O)O

>  <INCHIKEY>  (1409) 
ABGLVXROVAEWNL-NTSWFWBYSA-N

$$$$
D-Pip_4SOPh
     RDKit          2D

 16 17  0  0  0  0  0  0  0  0999 V2000
   -2.6520   -1.5541    0.0000 N   0  0  0  0  0  0  0  0  0  0  0  0
   -2.8597   -0.0686    0.0000 C   0  0  0  0  0  0  0  0  0  0  0  0
   -1.6771    0.8541    0.0000 C   0  0  0  0  0  0  0  0  0  0  0  0
   -0.2867    0.2912    0.0000 C   0  0  0  0  0  0  0  0  0  0  0  0
    0.8960    1.2139    0.0000 O   0  0  0  0  0  0  0  0  0  0  0  0
    2.2864    0.6510    0.0000 C   0  0  0  0  0  0  0  0  0  0  0  0
    2.4941   -0.8345    0.0000 C   0  0  0  0  0  0  0  0  0  0  0  0
    3.8845   -1.3974    0.0000 C   0  0  0  0  0  0  0  0  0  0  0  0
    5.0672   -0.4747    0.0000 C   0  0  0  0  0  0  0  0  0  0  0  0
    4.8594    1.0108    0.0000 C   0  0  0  0  0  0  0  0  0  0  0  0
    3.4690    1.5737    0.0000 C   0  0  0  0  0  0  0  0  0  0  0  0
   -0.0789   -1.1943    0.0000 C   0  0  0  0  0  0  0  0  0  0  0  0
   -1.2616   -2.1170    0.0000 C   0  0  0  0  0  0  0  0  0  0  0  0
   -4.2501    0.4943    0.0000 C   0  0  0  0  0  0  0  0  0  0  0  0
   -5.4327   -0.4284    0.0000 O   0  0  0  0  0  0  0  0  0  0  0  0
   -4.4578    1.9798    0.0000 O   0  0  0  0  0  0  0  0  0  0  0  0
  1  2  1  0
  2  3  1  0
  3  4  1  0
  4  5  1  1
  5  6  1  0
  6  7  2  0
  7  8  1  0
  8  9  2  0
  9 10  1  0
 10 11  2  0
  4 12  1  0
 12 13  1  0
  2 14  1  1
 14 15  2  0
 14 16  1  0
 11  6  1  0
 13  1  1  0
M  END
>  <rName>  (1410) 
D-Pip_4SOPh

>  <PQ_SYMBOL>  (1410) 
D-Pip_4SOPh

>  <FULL_NAME>  (1410) 
O=C(O)[C@H]1C[C@@H](Oc2ccccc2)CCN1

>  <IUPAC_CONDENSED>  (1410) 
D-Pip(4S-OPh)

>  <IUPAC>  (1410) 
(2R,4S)-4-phenoxypiperidine-2-carboxylic acid

>  <TYPE>  (1410) 
Backbone

>  <CLASS>  (1410) 
alpha

>  <ANALOG>  (1410) 
Pro

>  <MOL_WT>  (1410) 
221.25599999999997

>  <LOGP>  (1410) 
1.2706000000000002

>  <TPSA>  (1410) 
58.56

>  <POPULARITY>  (1410) 
4.1

>  <PROTECTED>  (1410) 
TRUE

>  <SMILES>  (1410) 
N2[C@H](C[C@@H](Oc1(ccccc1))CC2)C(=O)O

>  <INCHIKEY>  (1410) 
JMEYWEMGNSRCIS-WDEREUQCSA-N

$$$$
D-Pip_4SPh
     RDKit          2D

 15 16  0  0  0  0  0  0  0  0999 V2000
   -2.6277   -1.4715    0.0000 N   0  0  0  0  0  0  0  0  0  0  0  0
   -2.3065   -0.0063    0.0000 C   0  0  0  0  0  0  0  0  0  0  0  0
   -0.8770    0.4482    0.0000 C   0  0  0  0  0  0  0  0  0  0  0  0
    0.2313   -0.5626    0.0000 C   0  0  0  0  0  0  0  0  0  0  0  0
   -0.0898   -2.0278    0.0000 C   0  0  0  0  0  0  0  0  0  0  0  0
   -1.5193   -2.4823    0.0000 C   0  0  0  0  0  0  0  0  0  0  0  0
    1.6608   -0.1081    0.0000 C   0  0  0  0  0  0  0  0  0  0  0  0
    2.7692   -1.1188    0.0000 C   0  0  0  0  0  0  0  0  0  0  0  0
    4.1986   -0.6643    0.0000 C   0  0  0  0  0  0  0  0  0  0  0  0
    4.5198    0.8009    0.0000 C   0  0  0  0  0  0  0  0  0  0  0  0
    3.4115    1.8116    0.0000 C   0  0  0  0  0  0  0  0  0  0  0  0
    1.9820    1.3571    0.0000 C   0  0  0  0  0  0  0  0  0  0  0  0
   -3.4148    1.0044    0.0000 C   0  0  0  0  0  0  0  0  0  0  0  0
   -4.8443    0.5499    0.0000 O   0  0  0  0  0  0  0  0  0  0  0  0
   -3.0937    2.4696    0.0000 O   0  0  0  0  0  0  0  0  0  0  0  0
  1  2  1  0
  2  3  1  0
  3  4  1  0
  4  5  1  0
  5  6  1  0
  4  7  1  1
  7  8  2  0
  8  9  1  0
  9 10  2  0
 10 11  1  0
 11 12  2  0
  2 13  1  1
 13 14  2  0
 13 15  1  0
  6  1  1  0
 12  7  1  0
M  END
>  <rName>  (1411) 
D-Pip_4SPh

>  <PQ_SYMBOL>  (1411) 
D-Pip_4SPh

>  <FULL_NAME>  (1411) 
(2R,4S)-4-phenylpiperidine-2-carboxylic acid

>  <IUPAC_CONDENSED>  (1411) 
D-Pip(4S-Ph)

>  <IUPAC>  (1411) 
(2R,4S)-4-phenylpiperidine-2-carboxylic acid

>  <TYPE>  (1411) 
Backbone

>  <CLASS>  (1411) 
alpha

>  <ANALOG>  (1411) 
Pro

>  <MOL_WT>  (1411) 
205.257

>  <LOGP>  (1411) 
1.6068

>  <TPSA>  (1411) 
49.33

>  <POPULARITY>  (1411) 
5.4

>  <PROTECTED>  (1411) 
TRUE

>  <SMILES>  (1411) 
N1[C@H](C[C@H](CC1)c2(ccccc2))C(=O)O

>  <INCHIKEY>  (1411) 
SDOBJMPXVWEBMO-WDEREUQCSA-N

$$$$
D-Pip_4StBu
     RDKit          2D

 13 13  0  0  0  0  0  0  0  0999 V2000
   -1.5495   -1.6263    0.0000 N   0  0  0  0  0  0  0  0  0  0  0  0
   -1.5035   -0.1270    0.0000 C   0  0  0  0  0  0  0  0  0  0  0  0
   -0.1821    0.5828    0.0000 C   0  0  0  0  0  0  0  0  0  0  0  0
    1.0934   -0.2067    0.0000 C   0  0  0  0  0  0  0  0  0  0  0  0
    1.0474   -1.7060    0.0000 C   0  0  0  0  0  0  0  0  0  0  0  0
   -0.2741   -2.4158    0.0000 C   0  0  0  0  0  0  0  0  0  0  0  0
    2.4148    0.5031    0.0000 C   0  0  0  0  0  0  0  0  0  0  0  0
    3.1246   -0.8183    0.0000 C   0  0  0  0  0  0  0  0  0  0  0  0
    1.7050    1.8245    0.0000 C   0  0  0  0  0  0  0  0  0  0  0  0
    3.7362    1.2129    0.0000 C   0  0  0  0  0  0  0  0  0  0  0  0
   -2.7789    0.6625    0.0000 C   0  0  0  0  0  0  0  0  0  0  0  0
   -4.1003   -0.0474    0.0000 O   0  0  0  0  0  0  0  0  0  0  0  0
   -2.7329    2.1617    0.0000 O   0  0  0  0  0  0  0  0  0  0  0  0
  1  2  1  0
  2  3  1  0
  3  4  1  0
  4  5  1  0
  5  6  1  0
  4  7  1  1
  7  8  1  0
  7  9  1  0
  7 10  1  0
  2 11  1  1
 11 12  2  0
 11 13  1  0
  6  1  1  0
M  END
>  <rName>  (1412) 
D-Pip_4StBu

>  <PQ_SYMBOL>  (1412) 
D-Pip_4StBu

>  <FULL_NAME>  (1412) 
2-Piperidinecarboxylic acid, 4-tert-butyl-

>  <IUPAC_CONDENSED>  (1412) 
D-Pip(4S-tBu)

>  <IUPAC>  (1412) 
(2R,4S)-4-(tert-butyl)piperidine-2-carboxylic acid

>  <TYPE>  (1412) 
Backbone

>  <CLASS>  (1412) 
alpha

>  <ANALOG>  (1412) 
Pro

>  <MOL_WT>  (1412) 
185.267

>  <LOGP>  (1412) 
1.4852999999999998

>  <TPSA>  (1412) 
49.33

>  <POPULARITY>  (1412) 
3.8

>  <PROTECTED>  (1412) 
TRUE

>  <SMILES>  (1412) 
N1[C@H](C[C@H](CC1)C(C)(C)C)C(=O)O

>  <INCHIKEY>  (1412) 
TYTJHUHYZVFQDK-JGVFFNPUSA-N

$$$$
D-Pip_4carbonyl
     RDKit          2D

 10 10  0  0  0  0  0  0  0  0999 V2000
   -0.2551   -1.5451    0.0000 N   0  0  0  0  0  0  0  0  0  0  0  0
   -0.6466   -0.0971    0.0000 C   0  0  0  0  0  0  0  0  0  0  0  0
    0.4117    0.9659    0.0000 C   0  0  0  0  0  0  0  0  0  0  0  0
    1.8615    0.5809    0.0000 C   0  0  0  0  0  0  0  0  0  0  0  0
    2.9197    1.6440    0.0000 O   0  0  0  0  0  0  0  0  0  0  0  0
    2.2529   -0.8671    0.0000 C   0  0  0  0  0  0  0  0  0  0  0  0
    1.1946   -1.9301    0.0000 C   0  0  0  0  0  0  0  0  0  0  0  0
   -2.0963    0.2879    0.0000 C   0  0  0  0  0  0  0  0  0  0  0  0
   -3.1546   -0.7752    0.0000 O   0  0  0  0  0  0  0  0  0  0  0  0
   -2.4878    1.7359    0.0000 O   0  0  0  0  0  0  0  0  0  0  0  0
  1  2  1  0
  2  3  1  0
  3  4  1  0
  4  5  2  0
  4  6  1  0
  6  7  1  0
  2  8  1  1
  8  9  2  0
  8 10  1  0
  7  1  1  0
M  END
>  <rName>  (1413) 
D-Pip_4carbonyl

>  <PQ_SYMBOL>  (1413) 
D-Pip_4carbonyl

>  <FULL_NAME>  (1413) 
(R)-4-oxopiperidine-2-carboxylic acid

>  <IUPAC_CONDENSED>  (1413) 
D-Pip(4-carbonyl)

>  <IUPAC>  (1413) 
(2R)-4-oxopiperidine-2-carboxylic acid

>  <TYPE>  (1413) 
Backbone

>  <CLASS>  (1413) 
alpha

>  <ANALOG>  (1413) 
Pro

>  <MOL_WT>  (1413) 
143.142

>  <LOGP>  (1413) 
-0.6079000000000006

>  <TPSA>  (1413) 
66.4

>  <POPULARITY>  (1413) 
5.1

>  <PROTECTED>  (1413) 
TRUE

>  <SMILES>  (1413) 
N1[C@H](CC(=O)CC1)C(=O)O

>  <INCHIKEY>  (1413) 
UAISREBYDOFHJY-RXMQYKEDSA-N

$$$$
D-Pip_5RMe
     RDKit          2D

 10 10  0  0  0  0  0  0  0  0999 V2000
    0.0000   -1.2990    0.0000 N   0  0  0  0  0  0  0  0  0  0  0  0
   -0.7500    0.0000    0.0000 C   0  0  0  0  0  0  0  0  0  0  0  0
    0.0000    1.2990    0.0000 C   0  0  0  0  0  0  0  0  0  0  0  0
    1.5000    1.2990    0.0000 C   0  0  0  0  0  0  0  0  0  0  0  0
    2.2500   -0.0000    0.0000 C   0  0  0  0  0  0  0  0  0  0  0  0
    3.7500    0.0000    0.0000 C   0  0  0  0  0  0  0  0  0  0  0  0
    1.5000   -1.2990    0.0000 C   0  0  0  0  0  0  0  0  0  0  0  0
   -2.2500    0.0000    0.0000 C   0  0  0  0  0  0  0  0  0  0  0  0
   -3.0000   -1.2990    0.0000 O   0  0  0  0  0  0  0  0  0  0  0  0
   -3.0000    1.2990    0.0000 O   0  0  0  0  0  0  0  0  0  0  0  0
  1  2  1  0
  2  3  1  0
  3  4  1  0
  4  5  1  0
  5  6  1  1
  5  7  1  0
  2  8  1  1
  8  9  2  0
  8 10  1  0
  7  1  1  0
M  END
>  <rName>  (1414) 
D-Pip_5RMe

>  <PQ_SYMBOL>  (1414) 
D-Pip_5RMe

>  <FULL_NAME>  (1414) 
(2R,5R)-5-Methylpiperidine-2-carboxylic acid

>  <IUPAC_CONDENSED>  (1414) 
D-Pip(5R-Me)

>  <IUPAC>  (1414) 
(2R,5R)-5-methylpiperidine-2-carboxylic acid

>  <TYPE>  (1414) 
Backbone

>  <CLASS>  (1414) 
alpha

>  <ANALOG>  (1414) 
Pro

>  <MOL_WT>  (1414) 
143.186

>  <LOGP>  (1414) 
0.4591

>  <TPSA>  (1414) 
49.33

>  <POPULARITY>  (1414) 
5.7

>  <PROTECTED>  (1414) 
TRUE

>  <SMILES>  (1414) 
N1[C@H](CC[C@@H](C)C1)C(=O)O

>  <INCHIKEY>  (1414) 
JYWQLXDCNQQXGO-PHDIDXHHSA-N

$$$$
D-Pip_5SF
     RDKit          2D

 10 10  0  0  0  0  0  0  0  0999 V2000
    0.0000   -1.2990    0.0000 N   0  0  0  0  0  0  0  0  0  0  0  0
   -0.7500    0.0000    0.0000 C   0  0  0  0  0  0  0  0  0  0  0  0
    0.0000    1.2990    0.0000 C   0  0  0  0  0  0  0  0  0  0  0  0
    1.5000    1.2990    0.0000 C   0  0  0  0  0  0  0  0  0  0  0  0
    2.2500   -0.0000    0.0000 C   0  0  0  0  0  0  0  0  0  0  0  0
    3.7500    0.0000    0.0000 F   0  0  0  0  0  0  0  0  0  0  0  0
    1.5000   -1.2990    0.0000 C   0  0  0  0  0  0  0  0  0  0  0  0
   -2.2500    0.0000    0.0000 C   0  0  0  0  0  0  0  0  0  0  0  0
   -3.0000   -1.2990    0.0000 O   0  0  0  0  0  0  0  0  0  0  0  0
   -3.0000    1.2990    0.0000 O   0  0  0  0  0  0  0  0  0  0  0  0
  1  2  1  0
  2  3  1  0
  3  4  1  0
  4  5  1  0
  5  6  1  6
  5  7  1  0
  2  8  1  1
  8  9  2  0
  8 10  1  0
  7  1  1  0
M  END
>  <rName>  (1415) 
D-Pip_5SF

>  <PQ_SYMBOL>  (1415) 
D-Pip_5SF

>  <FULL_NAME>  (1415) 
(2R,5S)-5-fluoropiperidine-2-carboxylic acid

>  <IUPAC_CONDENSED>  (1415) 
D-Pip(5S-F)

>  <IUPAC>  (1415) 
(2R,5S)-5-fluoropiperidine-2-carboxylic acid

>  <TYPE>  (1415) 
Backbone

>  <CLASS>  (1415) 
alpha

>  <ANALOG>  (1415) 
Pro

>  <MOL_WT>  (1415) 
147.149

>  <LOGP>  (1415) 
0.16109999999999974

>  <TPSA>  (1415) 
49.33

>  <POPULARITY>  (1415) 
3.1

>  <PROTECTED>  (1415) 
TRUE

>  <SMILES>  (1415) 
N1[C@H](CC[C@H](F)C1)C(=O)O

>  <INCHIKEY>  (1415) 
RHTGVGPUHYZXLP-CRCLSJGQSA-N

$$$$
D-Pra
     RDKit          2D

  8  7  0  0  0  0  0  0  0  0999 V2000
    0.0877   -1.7162    0.0000 N   0  0  0  0  0  0  0  0  0  0  0  0
   -0.2706   -0.2596    0.0000 C   0  0  0  0  0  0  0  0  0  0  0  0
    0.8117    0.7789    0.0000 C   0  0  0  0  0  0  0  0  0  0  0  0
    2.2523    0.3609    0.0000 C   0  0  0  0  0  0  0  0  0  0  0  0
    3.6929   -0.0571    0.0000 C   0  0  0  0  0  0  0  0  0  0  0  0
   -1.7112    0.1584    0.0000 C   0  0  0  0  0  0  0  0  0  0  0  0
   -2.0694    1.6149    0.0000 O   0  0  0  0  0  0  0  0  0  0  0  0
   -2.7934   -0.8802    0.0000 O   0  0  0  0  0  0  0  0  0  0  0  0
  2  1  1  1
  2  3  1  0
  3  4  1  0
  4  5  3  0
  2  6  1  0
  6  7  2  0
  6  8  1  0
M  END
>  <rName>  (1416) 
D-Pra

>  <PQ_SYMBOL>  (1416) 
D-Pra

>  <FULL_NAME>  (1416) 
(2R)-2-aminopent-4-ynoic acid

>  <IUPAC_CONDENSED>  (1416) 
D-Pra

>  <IUPAC>  (1416) 
(2R)-2-aminopent-4-ynoic acid

>  <TYPE>  (1416) 
Backbone

>  <CLASS>  (1416) 
alpha

>  <ANALOG>  (1416) 
Val

>  <MOL_WT>  (1416) 
113.11599999999997

>  <LOGP>  (1416) 
-0.5784000000000002

>  <TPSA>  (1416) 
63.32000000000001

>  <POPULARITY>  (1416) 
15.0

>  <PROTECTED>  (1416) 
TRUE

>  <SMILES>  (1416) 
N[C@H](CC#C)C(=O)O

>  <INCHIKEY>  (1416) 
DGYHPLMPMRKMPD-SCSAIBSYSA-N

$$$$
D-Pro-Gly
     RDKit          2D

 12 12  0  0  0  0  0  0  0  0999 V2000
   -0.8910    0.0678    0.0000 N   0  0  0  0  0  0  0  0  0  0  0  0
    0.3322   -0.8004    0.0000 C   0  0  0  0  0  0  0  0  0  0  0  0
    0.1918   -2.2938    0.0000 O   0  0  0  0  0  0  0  0  0  0  0  0
    1.6957   -0.1752    0.0000 C   0  0  0  0  0  0  0  0  0  0  0  0
    3.0029   -0.9109    0.0000 C   0  0  0  0  0  0  0  0  0  0  0  0
    4.1065    0.1051    0.0000 C   0  0  0  0  0  0  0  0  0  0  0  0
    3.4813    1.4686    0.0000 C   0  0  0  0  0  0  0  0  0  0  0  0
    1.9913    1.2953    0.0000 N   0  0  0  0  0  0  0  0  0  0  0  0
   -2.2545   -0.5574    0.0000 C   0  0  0  0  0  0  0  0  0  0  0  0
   -3.4777    0.3109    0.0000 C   0  0  0  0  0  0  0  0  0  0  0  0
   -3.3374    1.8043    0.0000 O   0  0  0  0  0  0  0  0  0  0  0  0
   -4.8412   -0.3143    0.0000 O   0  0  0  0  0  0  0  0  0  0  0  0
  1  2  1  0
  2  3  2  0
  4  2  1  6
  4  5  1  0
  5  6  1  0
  6  7  1  0
  7  8  1  0
  1  9  1  0
  9 10  1  0
 10 11  2  0
 10 12  1  0
  8  4  1  0
M  END
>  <rName>  (1417) 
D-Pro-Gly

>  <PQ_SYMBOL>  (1417) 
D-Pro-Gly

>  <FULL_NAME>  (1417) 
2-{[(2R)-pyrrolidin-2-yl]formamido}acetic acid

>  <IUPAC_CONDENSED>  (1417) 
D-Pro-Gly

>  <IUPAC>  (1417) 
2-((2R)-pyrrolidin-2-ylcarbonylamino)acetic acid

>  <TYPE>  (1417) 
Backbone

>  <CLASS>  (1417) 
alpha

>  <ANALOG>  (1417) 
Gly

>  <MOL_WT>  (1417) 
172.18400000000003

>  <LOGP>  (1417) 
-1.0607999999999995

>  <TPSA>  (1417) 
78.43

>  <POPULARITY>  (1417) 
10.5

>  <PROTECTED>  (1417) 
TRUE

>  <SMILES>  (1417) 
N(C(=O)[C@H]1(CCCN1))CC(=O)O

>  <INCHIKEY>  (1417) 
RNKSNIBMTUYWSH-RXMQYKEDSA-N

$$$$
D-Pro-NH2
     RDKit          2D

  8  8  0  0  0  0  0  0  0  0999 V2000
   -0.8342   -1.2135    0.0000 N   0  0  0  0  0  0  0  0  0  0  0  0
    0.0475   -0.0000    0.0000 C   0  0  0  0  0  0  0  0  0  0  0  0
   -0.8342    1.2135    0.0000 C   0  0  0  0  0  0  0  0  0  0  0  0
   -2.2608    0.7500    0.0000 C   0  0  0  0  0  0  0  0  0  0  0  0
   -2.2608   -0.7500    0.0000 C   0  0  0  0  0  0  0  0  0  0  0  0
    1.5475    0.0000    0.0000 C   0  0  0  0  0  0  0  0  0  0  0  0
    2.2975   -1.2990    0.0000 N   0  0  0  0  0  0  0  0  0  0  0  0
    2.2975    1.2990    0.0000 O   0  0  0  0  0  0  0  0  0  0  0  0
  1  2  1  0
  2  3  1  0
  3  4  1  0
  4  5  1  0
  2  6  1  6
  6  7  1  0
  6  8  2  0
  5  1  1  0
M  END
>  <rName>  (1418) 
D-Pro-NH2

>  <PQ_SYMBOL>  (1418) 
D-Pro-NH2

>  <FULL_NAME>  (1418) 
D-PROLINAMIDE

>  <IUPAC_CONDENSED>  (1418) 
D-Pro-NH2

>  <IUPAC>  (1418) 
(2R)-pyrrolidine-2-carboxamide

>  <TYPE>  (1418) 
C-term cap

>  <CLASS>  (1418) 
c_cap

>  <ANALOG>  (1418) 
X

>  <MOL_WT>  (1418) 
114.14800000000001

>  <LOGP>  (1418) 
-0.7763000000000002

>  <TPSA>  (1418) 
55.12

>  <POPULARITY>  (1418) 
17.5

>  <PROTECTED>  (1418) 
FALSE

>  <SMILES>  (1418) 
N1[C@H](CCC1)C(N)=O

>  <INCHIKEY>  (1418) 
VLJNHYLEOZPXFW-SCSAIBSYSA-N

$$$$
D-Pro-OBn
     RDKit          2D

 15 16  0  0  0  0  0  0  0  0999 V2000
   -4.2447   -0.6610    0.0000 N   0  0  0  0  0  0  0  0  0  0  0  0
   -2.8455   -0.1203    0.0000 C   0  0  0  0  0  0  0  0  0  0  0  0
   -2.9274    1.3775    0.0000 C   0  0  0  0  0  0  0  0  0  0  0  0
   -4.3772    1.7625    0.0000 C   0  0  0  0  0  0  0  0  0  0  0  0
   -5.1913    0.5026    0.0000 C   0  0  0  0  0  0  0  0  0  0  0  0
   -1.5857   -0.9344    0.0000 C   0  0  0  0  0  0  0  0  0  0  0  0
   -1.6608   -2.4325    0.0000 O   0  0  0  0  0  0  0  0  0  0  0  0
   -0.2507   -0.2504    0.0000 O   0  0  0  0  0  0  0  0  0  0  0  0
    1.0091   -1.0645    0.0000 C   0  0  0  0  0  0  0  0  0  0  0  0
    2.3441   -0.3806    0.0000 C   0  0  0  0  0  0  0  0  0  0  0  0
    3.6039   -1.1947    0.0000 C   0  0  0  0  0  0  0  0  0  0  0  0
    4.9389   -0.5107    0.0000 C   0  0  0  0  0  0  0  0  0  0  0  0
    5.0140    0.9874    0.0000 C   0  0  0  0  0  0  0  0  0  0  0  0
    3.7542    1.8015    0.0000 C   0  0  0  0  0  0  0  0  0  0  0  0
    2.4192    1.1176    0.0000 C   0  0  0  0  0  0  0  0  0  0  0  0
  1  2  1  0
  2  3  1  0
  3  4  1  0
  4  5  1  0
  2  6  1  6
  6  7  2  0
  6  8  1  0
  8  9  1  0
  9 10  1  0
 10 11  2  0
 11 12  1  0
 12 13  2  0
 13 14  1  0
 14 15  2  0
 15 10  1  0
  5  1  1  0
M  END
>  <rName>  (1419) 
D-Pro-OBn

>  <PQ_SYMBOL>  (1419) 
D-Pro-OBn

>  <FULL_NAME>  (1419) 
D-Proline benzyl ester

>  <IUPAC_CONDENSED>  (1419) 
D-Pro-OBn

>  <IUPAC>  (1419) 
benzyl (2R)-pyrrolidine-2-carboxylate

>  <TYPE>  (1419) 
C-term cap

>  <CLASS>  (1419) 
c_cap

>  <ANALOG>  (1419) 
X

>  <MOL_WT>  (1419) 
205.257

>  <LOGP>  (1419) 
1.4817999999999996

>  <TPSA>  (1419) 
38.33

>  <POPULARITY>  (1419) 
8.5

>  <PROTECTED>  (1419) 
TRUE

>  <SMILES>  (1419) 
N2[C@H](CCC2)C(=O)OCc1ccccc1

>  <INCHIKEY>  (1419) 
VVCLBQFBKZQOAF-LLVKDONJSA-N

$$$$
D-Pro-OEt
     RDKit          2D

 10 10  0  0  0  0  0  0  0  0999 V2000
   -1.3421   -1.2892    0.0000 N   0  0  0  0  0  0  0  0  0  0  0  0
   -0.8679    0.1339    0.0000 C   0  0  0  0  0  0  0  0  0  0  0  0
   -2.0749    1.0246    0.0000 C   0  0  0  0  0  0  0  0  0  0  0  0
   -3.2949    0.1520    0.0000 C   0  0  0  0  0  0  0  0  0  0  0  0
   -2.8421   -1.2780    0.0000 C   0  0  0  0  0  0  0  0  0  0  0  0
    0.5621    0.5868    0.0000 C   0  0  0  0  0  0  0  0  0  0  0  0
    0.8849    2.0516    0.0000 O   0  0  0  0  0  0  0  0  0  0  0  0
    1.6693   -0.4252    0.0000 O   0  0  0  0  0  0  0  0  0  0  0  0
    3.0993    0.0277    0.0000 C   0  0  0  0  0  0  0  0  0  0  0  0
    4.2065   -0.9843    0.0000 C   0  0  0  0  0  0  0  0  0  0  0  0
  1  2  1  0
  2  3  1  0
  3  4  1  0
  4  5  1  0
  2  6  1  6
  6  7  2  0
  6  8  1  0
  8  9  1  0
  9 10  1  0
  5  1  1  0
M  END
>  <rName>  (1420) 
D-Pro-OEt

>  <PQ_SYMBOL>  (1420) 
D-Pro-OEt

>  <FULL_NAME>  (1420) 
ethyl (2R)-pyrrolidine-2-carboxylate

>  <IUPAC_CONDENSED>  (1420) 
D-Pro-OEt

>  <IUPAC>  (1420) 
ethyl (2R)-pyrrolidine-2-carboxylate

>  <TYPE>  (1420) 
C-term cap

>  <CLASS>  (1420) 
c_cap

>  <ANALOG>  (1420) 
X

>  <MOL_WT>  (1420) 
143.18599999999998

>  <LOGP>  (1420) 
0.3014999999999999

>  <TPSA>  (1420) 
38.33

>  <POPULARITY>  (1420) 
10.1

>  <PROTECTED>  (1420) 
TRUE

>  <SMILES>  (1420) 
N1[C@H](CCC1)C(=O)OCC

>  <INCHIKEY>  (1420) 
QPNJHVDIRZNKOX-ZCFIWIBFSA-N

$$$$
D-Pro-OMe
     RDKit          2D

  9  9  0  0  0  0  0  0  0  0999 V2000
   -1.0828   -1.2444    0.0000 N   0  0  0  0  0  0  0  0  0  0  0  0
   -0.3918    0.0869    0.0000 C   0  0  0  0  0  0  0  0  0  0  0  0
   -1.4444    1.1555    0.0000 C   0  0  0  0  0  0  0  0  0  0  0  0
   -2.7860    0.4846    0.0000 C   0  0  0  0  0  0  0  0  0  0  0  0
   -2.5625   -0.9986    0.0000 C   0  0  0  0  0  0  0  0  0  0  0  0
    1.0915    0.3104    0.0000 C   0  0  0  0  0  0  0  0  0  0  0  0
    1.6396    1.7067    0.0000 O   0  0  0  0  0  0  0  0  0  0  0  0
    2.0267   -0.8624    0.0000 O   0  0  0  0  0  0  0  0  0  0  0  0
    3.5099   -0.6389    0.0000 C   0  0  0  0  0  0  0  0  0  0  0  0
  1  2  1  0
  2  3  1  0
  3  4  1  0
  4  5  1  0
  2  6  1  6
  6  7  2  0
  6  8  1  0
  8  9  1  0
  5  1  1  0
M  END
>  <rName>  (1421) 
D-Pro-OMe

>  <PQ_SYMBOL>  (1421) 
D-Pro-OMe

>  <FULL_NAME>  (1421) 
D-Proline methyl ester

>  <IUPAC_CONDENSED>  (1421) 
D-Pro-OMe

>  <IUPAC>  (1421) 
methyl (2R)-pyrrolidine-2-carboxylate

>  <TYPE>  (1421) 
C-term cap

>  <CLASS>  (1421) 
c_cap

>  <ANALOG>  (1421) 
X

>  <MOL_WT>  (1421) 
129.159

>  <LOGP>  (1421) 
-0.08860000000000023

>  <TPSA>  (1421) 
38.33

>  <POPULARITY>  (1421) 
14.5

>  <PROTECTED>  (1421) 
TRUE

>  <SMILES>  (1421) 
N1[C@H](CCC1)C(=O)OC

>  <INCHIKEY>  (1421) 
BLWYXBNNBYXPPL-RXMQYKEDSA-N

$$$$
D-Pro-ol
     RDKit          2D

  7  7  0  0  0  0  0  0  0  0999 V2000
   -0.2456   -1.1191    0.0000 N   0  0  0  0  0  0  0  0  0  0  0  0
    0.3205    0.2700    0.0000 C   0  0  0  0  0  0  0  0  0  0  0  0
   -0.8257    1.2376    0.0000 C   0  0  0  0  0  0  0  0  0  0  0  0
   -2.1002    0.4466    0.0000 C   0  0  0  0  0  0  0  0  0  0  0  0
   -1.7417   -1.0099    0.0000 C   0  0  0  0  0  0  0  0  0  0  0  0
    1.7770    0.6285    0.0000 C   0  0  0  0  0  0  0  0  0  0  0  0
    2.8157   -0.4537    0.0000 O   0  0  0  0  0  0  0  0  0  0  0  0
  1  2  1  0
  2  3  1  0
  3  4  1  0
  4  5  1  0
  2  6  1  6
  6  7  1  0
  5  1  1  0
M  END
>  <rName>  (1422) 
D-Pro-ol

>  <PQ_SYMBOL>  (1422) 
D-Pro-ol

>  <FULL_NAME>  (1422) 
[(2R)-pyrrolidin-2-yl]methanol

>  <IUPAC_CONDENSED>  (1422) 
D-Pro-ol

>  <IUPAC>  (1422) 
1-((2R)-pyrrolidin-2-yl)methanol

>  <TYPE>  (1422) 
C-term cap

>  <CLASS>  (1422) 
c_cap

>  <ANALOG>  (1422) 
X

>  <MOL_WT>  (1422) 
101.149

>  <LOGP>  (1422) 
-0.26930000000000004

>  <TPSA>  (1422) 
32.26

>  <POPULARITY>  (1422) 
10.1

>  <PROTECTED>  (1422) 
FALSE

>  <SMILES>  (1422) 
N1[C@H](CCC1)CO

>  <INCHIKEY>  (1422) 
HVVNJUAVDAZWCB-RXMQYKEDSA-N

$$$$
D-Pro_3RMe
     RDKit          2D

  9  9  0  0  0  0  0  0  0  0999 V2000
   -0.6730   -1.5641    0.0000 N   0  0  0  0  0  0  0  0  0  0  0  0
    0.1113   -0.2855    0.0000 C   0  0  0  0  0  0  0  0  0  0  0  0
   -0.8624    0.8555    0.0000 C   0  0  0  0  0  0  0  0  0  0  0  0
   -0.5115    2.3139    0.0000 C   0  0  0  0  0  0  0  0  0  0  0  0
   -2.2485    0.2821    0.0000 C   0  0  0  0  0  0  0  0  0  0  0  0
   -2.1314   -1.2133    0.0000 C   0  0  0  0  0  0  0  0  0  0  0  0
    1.6067   -0.1685    0.0000 C   0  0  0  0  0  0  0  0  0  0  0  0
    2.2531    1.1851    0.0000 O   0  0  0  0  0  0  0  0  0  0  0  0
    2.4558   -1.4051    0.0000 O   0  0  0  0  0  0  0  0  0  0  0  0
  1  2  1  0
  2  3  1  0
  3  4  1  1
  3  5  1  0
  5  6  1  0
  2  7  1  6
  7  8  2  0
  7  9  1  0
  6  1  1  0
M  END
>  <rName>  (1423) 
D-Pro_3RMe

>  <PQ_SYMBOL>  (1423) 
D-Pro_3RMe

>  <FULL_NAME>  (1423) 
(2R,3R)-3-Methylpyrrolidine-2-carboxylic acid

>  <IUPAC_CONDENSED>  (1423) 
D-Pro(3R-Me)

>  <IUPAC>  (1423) 
(2R,3R)-3-methylpyrrolidine-2-carboxylic acid

>  <TYPE>  (1423) 
Backbone

>  <CLASS>  (1423) 
alpha

>  <ANALOG>  (1423) 
Pro

>  <MOL_WT>  (1423) 
129.15900000000002

>  <LOGP>  (1423) 
0.06899999999999967

>  <TPSA>  (1423) 
49.33

>  <POPULARITY>  (1423) 
2.2

>  <PROTECTED>  (1423) 
TRUE

>  <SMILES>  (1423) 
N1[C@H]([C@H](C)CC1)C(=O)O

>  <INCHIKEY>  (1423) 
CNPSFBUUYIVHAP-RFZPGFLSSA-N

$$$$
D-Pro_3RPh
     RDKit          2D

 14 15  0  0  0  0  0  0  0  0999 V2000
   -2.9834    0.7769    0.0000 N   0  0  0  0  0  0  0  0  0  0  0  0
   -1.7417   -0.0646    0.0000 C   0  0  0  0  0  0  0  0  0  0  0  0
   -0.5576    0.8562    0.0000 C   0  0  0  0  0  0  0  0  0  0  0  0
   -1.0675    2.2669    0.0000 C   0  0  0  0  0  0  0  0  0  0  0  0
   -2.5667    2.2179    0.0000 C   0  0  0  0  0  0  0  0  0  0  0  0
    0.8833    0.4396    0.0000 C   0  0  0  0  0  0  0  0  0  0  0  0
    1.2430   -1.0167    0.0000 C   0  0  0  0  0  0  0  0  0  0  0  0
    2.6840   -1.4333    0.0000 C   0  0  0  0  0  0  0  0  0  0  0  0
    3.7653   -0.3937    0.0000 C   0  0  0  0  0  0  0  0  0  0  0  0
    3.4056    1.0625    0.0000 C   0  0  0  0  0  0  0  0  0  0  0  0
    1.9647    1.4792    0.0000 C   0  0  0  0  0  0  0  0  0  0  0  0
   -1.6927   -1.5638    0.0000 C   0  0  0  0  0  0  0  0  0  0  0  0
   -0.3698   -2.2710    0.0000 O   0  0  0  0  0  0  0  0  0  0  0  0
   -2.9665   -2.3559    0.0000 O   0  0  0  0  0  0  0  0  0  0  0  0
  1  2  1  0
  2  3  1  0
  3  4  1  0
  4  5  1  0
  3  6  1  6
  6  7  2  0
  7  8  1  0
  8  9  2  0
  9 10  1  0
 10 11  2  0
  2 12  1  6
 12 13  2  0
 12 14  1  0
  5  1  1  0
 11  6  1  0
M  END
>  <rName>  (1424) 
D-Pro_3RPh

>  <PQ_SYMBOL>  (1424) 
D-Pro_3RPh

>  <FULL_NAME>  (1424) 
(2R,3R)-3-phenylpyrrolidine-2-carboxylic acid

>  <IUPAC_CONDENSED>  (1424) 
D-Pro(3R-Ph)

>  <IUPAC>  (1424) 
(2R,3R)-3-phenylpyrrolidine-2-carboxylic acid

>  <TYPE>  (1424) 
Backbone

>  <CLASS>  (1424) 
alpha

>  <ANALOG>  (1424) 
Pro

>  <MOL_WT>  (1424) 
191.23

>  <LOGP>  (1424) 
1.2167

>  <TPSA>  (1424) 
49.33

>  <POPULARITY>  (1424) 
2.2

>  <PROTECTED>  (1424) 
TRUE

>  <SMILES>  (1424) 
N1[C@H]([C@H](CC1)c2(ccccc2))C(=O)O

>  <INCHIKEY>  (1424) 
VDEMEKSASUGYHM-NXEZZACHSA-N

$$$$
D-Pro_3SCF3
     RDKit          2D

 12 12  0  0  0  0  0  0  0  0999 V2000
    1.6514   -1.6520    0.0000 N   0  0  0  0  0  0  0  0  0  0  0  0
    0.9542   -0.3239    0.0000 C   0  0  0  0  0  0  0  0  0  0  0  0
   -0.5244   -0.5766    0.0000 C   0  0  0  0  0  0  0  0  0  0  0  0
   -0.7409   -2.0609    0.0000 C   0  0  0  0  0  0  0  0  0  0  0  0
    0.6038   -2.7255    0.0000 C   0  0  0  0  0  0  0  0  0  0  0  0
   -1.5979    0.4710    0.0000 C   0  0  0  0  0  0  0  0  0  0  0  0
   -2.6714    1.5187    0.0000 F   0  0  0  0  0  0  0  0  0  0  0  0
   -0.5503    1.5445    0.0000 F   0  0  0  0  0  0  0  0  0  0  0  0
   -2.6455   -0.6025    0.0000 F   0  0  0  0  0  0  0  0  0  0  0  0
    1.6188    1.0208    0.0000 C   0  0  0  0  0  0  0  0  0  0  0  0
    0.7866    2.2688    0.0000 O   0  0  0  0  0  0  0  0  0  0  0  0
    3.1157    1.1176    0.0000 O   0  0  0  0  0  0  0  0  0  0  0  0
  1  2  1  0
  2  3  1  0
  3  4  1  0
  4  5  1  0
  3  6  1  6
  6  7  1  0
  6  8  1  0
  6  9  1  0
  2 10  1  6
 10 11  2  0
 10 12  1  0
  5  1  1  0
M  END
>  <rName>  (1425) 
D-Pro_3SCF3

>  <PQ_SYMBOL>  (1425) 
D-Pro_3SCF3

>  <FULL_NAME>  (1425) 
(2R,3S)-3-(Trifluoromethyl)pyrrolidine-2-carboxylic acid

>  <IUPAC_CONDENSED>  (1425) 
D-Pro(3S-CF3)

>  <IUPAC>  (1425) 
(2R,3S)-3-(trifluoromethyl)pyrrolidine-2-carboxylic acid

>  <TYPE>  (1425) 
Backbone

>  <CLASS>  (1425) 
alpha

>  <ANALOG>  (1425) 
Pro

>  <MOL_WT>  (1425) 
183.12900000000002

>  <LOGP>  (1425) 
0.6113999999999999

>  <TPSA>  (1425) 
49.33

>  <POPULARITY>  (1425) 
3.0

>  <PROTECTED>  (1425) 
TRUE

>  <SMILES>  (1425) 
N1[C@H]([C@H](CC1)C(F)(F)F)C(=O)O

>  <INCHIKEY>  (1425) 
XBIQIKRXEMTIOI-IUYQGCFVSA-N

$$$$
D-Pro_3SMe
     RDKit          2D

  9  9  0  0  0  0  0  0  0  0999 V2000
   -0.6730   -1.5641    0.0000 N   0  0  0  0  0  0  0  0  0  0  0  0
    0.1113   -0.2855    0.0000 C   0  0  0  0  0  0  0  0  0  0  0  0
   -0.8624    0.8555    0.0000 C   0  0  0  0  0  0  0  0  0  0  0  0
   -0.5115    2.3139    0.0000 C   0  0  0  0  0  0  0  0  0  0  0  0
   -2.2485    0.2821    0.0000 C   0  0  0  0  0  0  0  0  0  0  0  0
   -2.1314   -1.2133    0.0000 C   0  0  0  0  0  0  0  0  0  0  0  0
    1.6067   -0.1685    0.0000 C   0  0  0  0  0  0  0  0  0  0  0  0
    2.2531    1.1851    0.0000 O   0  0  0  0  0  0  0  0  0  0  0  0
    2.4558   -1.4051    0.0000 O   0  0  0  0  0  0  0  0  0  0  0  0
  1  2  1  0
  2  3  1  0
  3  4  1  6
  3  5  1  0
  5  6  1  0
  2  7  1  6
  7  8  2  0
  7  9  1  0
  6  1  1  0
M  END
>  <rName>  (1426) 
D-Pro_3SMe

>  <PQ_SYMBOL>  (1426) 
D-Pro_3SMe

>  <FULL_NAME>  (1426) 
(2R,3S)-3-methylpyrrolidine-2-carboxylic acid

>  <IUPAC_CONDENSED>  (1426) 
D-Pro(3S-Me)

>  <IUPAC>  (1426) 
(2R,3S)-3-methylpyrrolidine-2-carboxylic acid

>  <TYPE>  (1426) 
Backbone

>  <CLASS>  (1426) 
alpha

>  <ANALOG>  (1426) 
Pro

>  <MOL_WT>  (1426) 
129.15900000000002

>  <LOGP>  (1426) 
0.06899999999999967

>  <TPSA>  (1426) 
49.33

>  <POPULARITY>  (1426) 
11.2

>  <PROTECTED>  (1426) 
TRUE

>  <SMILES>  (1426) 
N1[C@H]([C@@H](C)CC1)C(=O)O

>  <INCHIKEY>  (1426) 
CNPSFBUUYIVHAP-CRCLSJGQSA-N

$$$$
D-Pro_3SOH
     RDKit          2D

  9  9  0  0  0  0  0  0  0  0999 V2000
   -0.6730   -1.5641    0.0000 N   0  0  0  0  0  0  0  0  0  0  0  0
    0.1113   -0.2855    0.0000 C   0  0  0  0  0  0  0  0  0  0  0  0
   -0.8624    0.8555    0.0000 C   0  0  0  0  0  0  0  0  0  0  0  0
   -0.5115    2.3139    0.0000 O   0  0  0  0  0  0  0  0  0  0  0  0
   -2.2485    0.2821    0.0000 C   0  0  0  0  0  0  0  0  0  0  0  0
   -2.1314   -1.2133    0.0000 C   0  0  0  0  0  0  0  0  0  0  0  0
    1.6067   -0.1685    0.0000 C   0  0  0  0  0  0  0  0  0  0  0  0
    2.2531    1.1851    0.0000 O   0  0  0  0  0  0  0  0  0  0  0  0
    2.4558   -1.4051    0.0000 O   0  0  0  0  0  0  0  0  0  0  0  0
  1  2  1  0
  2  3  1  0
  3  4  1  6
  3  5  1  0
  5  6  1  0
  2  7  1  6
  7  8  2  0
  7  9  1  0
  6  1  1  0
M  END
>  <rName>  (1427) 
D-Pro_3SOH

>  <PQ_SYMBOL>  (1427) 
D-Pro_3SOH

>  <FULL_NAME>  (1427) 
(2R,3S)-3-hydroxypyrrolidine-2-carboxylic acid

>  <IUPAC_CONDENSED>  (1427) 
D-Pro(3S-OH)

>  <IUPAC>  (1427) 
(2R,3S)-3-hydroxypyrrolidine-2-carboxylic acid

>  <TYPE>  (1427) 
Backbone

>  <CLASS>  (1427) 
alpha

>  <ANALOG>  (1427) 
Pro

>  <MOL_WT>  (1427) 
131.13100000000003

>  <LOGP>  (1427) 
-1.2062000000000004

>  <TPSA>  (1427) 
69.56

>  <POPULARITY>  (1427) 
8.8

>  <PROTECTED>  (1427) 
TRUE

>  <SMILES>  (1427) 
N1[C@H]([C@@H](O)CC1)C(=O)O

>  <INCHIKEY>  (1427) 
BJBUEDPLEOHJGE-IUYQGCFVSA-N

$$$$
D-Pro_3SPh
     RDKit          2D

 14 15  0  0  0  0  0  0  0  0999 V2000
   -2.9834    0.7769    0.0000 N   0  0  0  0  0  0  0  0  0  0  0  0
   -1.7417   -0.0646    0.0000 C   0  0  0  0  0  0  0  0  0  0  0  0
   -0.5576    0.8562    0.0000 C   0  0  0  0  0  0  0  0  0  0  0  0
   -1.0675    2.2669    0.0000 C   0  0  0  0  0  0  0  0  0  0  0  0
   -2.5667    2.2179    0.0000 C   0  0  0  0  0  0  0  0  0  0  0  0
    0.8833    0.4396    0.0000 C   0  0  0  0  0  0  0  0  0  0  0  0
    1.2430   -1.0167    0.0000 C   0  0  0  0  0  0  0  0  0  0  0  0
    2.6840   -1.4333    0.0000 C   0  0  0  0  0  0  0  0  0  0  0  0
    3.7653   -0.3937    0.0000 C   0  0  0  0  0  0  0  0  0  0  0  0
    3.4056    1.0625    0.0000 C   0  0  0  0  0  0  0  0  0  0  0  0
    1.9647    1.4792    0.0000 C   0  0  0  0  0  0  0  0  0  0  0  0
   -1.6927   -1.5638    0.0000 C   0  0  0  0  0  0  0  0  0  0  0  0
   -0.3698   -2.2710    0.0000 O   0  0  0  0  0  0  0  0  0  0  0  0
   -2.9665   -2.3559    0.0000 O   0  0  0  0  0  0  0  0  0  0  0  0
  1  2  1  0
  2  3  1  0
  3  4  1  0
  4  5  1  0
  3  6  1  1
  6  7  2  0
  7  8  1  0
  8  9  2  0
  9 10  1  0
 10 11  2  0
  2 12  1  6
 12 13  2  0
 12 14  1  0
  5  1  1  0
 11  6  1  0
M  END
>  <rName>  (1428) 
D-Pro_3SPh

>  <PQ_SYMBOL>  (1428) 
D-Pro_3SPh

>  <FULL_NAME>  (1428) 
trans-3-Phenyl-D-proline

>  <IUPAC_CONDENSED>  (1428) 
D-Pro(3S-Ph)

>  <IUPAC>  (1428) 
(2R,3S)-3-phenylpyrrolidine-2-carboxylic acid

>  <TYPE>  (1428) 
Backbone

>  <CLASS>  (1428) 
alpha

>  <ANALOG>  (1428) 
Pro

>  <MOL_WT>  (1428) 
191.23

>  <LOGP>  (1428) 
1.2167

>  <TPSA>  (1428) 
49.33

>  <POPULARITY>  (1428) 
2.2

>  <PROTECTED>  (1428) 
TRUE

>  <SMILES>  (1428) 
N1[C@H]([C@@H](CC1)c2(ccccc2))C(=O)O

>  <INCHIKEY>  (1428) 
VDEMEKSASUGYHM-VHSXEESVSA-N

$$$$
D-Pro_44diF
     RDKit          2D

 10 10  0  0  0  0  0  0  0  0999 V2000
    0.0971   -1.5050    0.0000 N   0  0  0  0  0  0  0  0  0  0  0  0
    0.7221   -0.1414    0.0000 C   0  0  0  0  0  0  0  0  0  0  0  0
   -0.3816    0.8744    0.0000 C   0  0  0  0  0  0  0  0  0  0  0  0
   -1.6888    0.1386    0.0000 C   0  0  0  0  0  0  0  0  0  0  0  0
   -3.1203   -0.3093    0.0000 F   0  0  0  0  0  0  0  0  0  0  0  0
   -2.2839    1.5155    0.0000 F   0  0  0  0  0  0  0  0  0  0  0  0
   -1.3929   -1.3319    0.0000 C   0  0  0  0  0  0  0  0  0  0  0  0
    2.1926    0.1544    0.0000 C   0  0  0  0  0  0  0  0  0  0  0  0
    2.6717    1.5759    0.0000 O   0  0  0  0  0  0  0  0  0  0  0  0
    3.1841   -0.9712    0.0000 O   0  0  0  0  0  0  0  0  0  0  0  0
  1  2  1  0
  2  3  1  0
  3  4  1  0
  4  5  1  0
  4  6  1  0
  4  7  1  0
  2  8  1  6
  8  9  2  0
  8 10  1  0
  7  1  1  0
M  END
>  <rName>  (1429) 
D-Pro_44diF

>  <PQ_SYMBOL>  (1429) 
D-Pro_44diF

>  <FULL_NAME>  (1429) 
(R)-4,4-difluoropyrrolidine-2-carboxylic acid

>  <IUPAC_CONDENSED>  (1429) 
D-Pro(4,4-diF)

>  <IUPAC>  (1429) 
(2R)-4,4-difluoropyrrolidine-2-carboxylic acid

>  <TYPE>  (1429) 
Backbone

>  <CLASS>  (1429) 
alpha

>  <ANALOG>  (1429) 
Pro

>  <MOL_WT>  (1429) 
151.11200000000002

>  <LOGP>  (1429) 
0.06819999999999976

>  <TPSA>  (1429) 
49.33

>  <POPULARITY>  (1429) 
7.7

>  <PROTECTED>  (1429) 
TRUE

>  <SMILES>  (1429) 
N1[C@H](CC(F)(F)C1)C(=O)O

>  <INCHIKEY>  (1429) 
ZPBIYZHGBPBZCK-GSVOUGTGSA-N

$$$$
D-Pro_44diMe
     RDKit          2D

 10 10  0  0  0  0  0  0  0  0999 V2000
    0.0971   -1.5050    0.0000 N   0  0  0  0  0  0  0  0  0  0  0  0
    0.7221   -0.1414    0.0000 C   0  0  0  0  0  0  0  0  0  0  0  0
   -0.3816    0.8744    0.0000 C   0  0  0  0  0  0  0  0  0  0  0  0
   -1.6888    0.1386    0.0000 C   0  0  0  0  0  0  0  0  0  0  0  0
   -3.1203   -0.3093    0.0000 C   0  0  0  0  0  0  0  0  0  0  0  0
   -2.2839    1.5155    0.0000 C   0  0  0  0  0  0  0  0  0  0  0  0
   -1.3929   -1.3319    0.0000 C   0  0  0  0  0  0  0  0  0  0  0  0
    2.1926    0.1544    0.0000 C   0  0  0  0  0  0  0  0  0  0  0  0
    2.6717    1.5759    0.0000 O   0  0  0  0  0  0  0  0  0  0  0  0
    3.1841   -0.9712    0.0000 O   0  0  0  0  0  0  0  0  0  0  0  0
  1  2  1  0
  2  3  1  0
  3  4  1  0
  4  5  1  0
  4  6  1  0
  4  7  1  0
  2  8  1  6
  8  9  2  0
  8 10  1  0
  7  1  1  0
M  END
>  <rName>  (1430) 
D-Pro_44diMe

>  <PQ_SYMBOL>  (1430) 
D-Pro_44diMe

>  <FULL_NAME>  (1430) 
(R)-4,4-Dimethyl-pyrrolidine-2-carboxylic acid

>  <IUPAC_CONDENSED>  (1430) 
D-Pro(4,4-diMe)

>  <IUPAC>  (1430) 
(2R)-4,4-dimethylpyrrolidine-2-carboxylic acid

>  <TYPE>  (1430) 
Backbone

>  <CLASS>  (1430) 
alpha

>  <ANALOG>  (1430) 
Pro

>  <MOL_WT>  (1430) 
143.186

>  <LOGP>  (1430) 
0.4591

>  <TPSA>  (1430) 
49.33

>  <POPULARITY>  (1430) 
11.4

>  <PROTECTED>  (1430) 
TRUE

>  <SMILES>  (1430) 
N1[C@H](CC(C)(C)C1)C(=O)O

>  <INCHIKEY>  (1430) 
BDNWSJQJILLEBS-RXMQYKEDSA-N

$$$$
D-Pro_4RCF3
     RDKit          2D

 12 12  0  0  0  0  0  0  0  0999 V2000
    0.9909   -1.5972    0.0000 N   0  0  0  0  0  0  0  0  0  0  0  0
    1.4358   -0.1647    0.0000 C   0  0  0  0  0  0  0  0  0  0  0  0
    0.2109    0.7011    0.0000 C   0  0  0  0  0  0  0  0  0  0  0  0
   -0.9910   -0.1963    0.0000 C   0  0  0  0  0  0  0  0  0  0  0  0
   -0.5090   -1.6167    0.0000 C   0  0  0  0  0  0  0  0  0  0  0  0
   -2.4235    0.2487    0.0000 C   0  0  0  0  0  0  0  0  0  0  0  0
   -3.8560    0.6936    0.0000 F   0  0  0  0  0  0  0  0  0  0  0  0
   -1.9786    1.6812    0.0000 F   0  0  0  0  0  0  0  0  0  0  0  0
   -2.8685   -1.1838    0.0000 F   0  0  0  0  0  0  0  0  0  0  0  0
    2.8562    0.3173    0.0000 C   0  0  0  0  0  0  0  0  0  0  0  0
    3.1490    1.7885    0.0000 O   0  0  0  0  0  0  0  0  0  0  0  0
    3.9839   -0.6718    0.0000 O   0  0  0  0  0  0  0  0  0  0  0  0
  1  2  1  0
  2  3  1  0
  3  4  1  0
  4  5  1  0
  4  6  1  6
  6  7  1  0
  6  8  1  0
  6  9  1  0
  2 10  1  6
 10 11  2  0
 10 12  1  0
  5  1  1  0
M  END
>  <rName>  (1431) 
D-Pro_4RCF3

>  <PQ_SYMBOL>  (1431) 
D-Pro_4RCF3

>  <FULL_NAME>  (1431) 
(2R,4R)-4-(trifluoromethyl)pyrrolidine-2-carboxylic acid

>  <IUPAC_CONDENSED>  (1431) 
D-Pro(4R-CF3)

>  <IUPAC>  (1431) 
(2R,4R)-4-(trifluoromethyl)pyrrolidine-2-carboxylic acid

>  <TYPE>  (1431) 
Backbone

>  <CLASS>  (1431) 
alpha

>  <ANALOG>  (1431) 
Pro

>  <MOL_WT>  (1431) 
183.12900000000002

>  <LOGP>  (1431) 
0.6113999999999999

>  <TPSA>  (1431) 
49.33

>  <POPULARITY>  (1431) 
3.2

>  <PROTECTED>  (1431) 
TRUE

>  <SMILES>  (1431) 
N1[C@H](C[C@H](C1)C(F)(F)F)C(=O)O

>  <INCHIKEY>  (1431) 
GBECQKOJMXNJCV-QWWZWVQMSA-N

$$$$
D-Pro_4REt
     RDKit          2D

 10 10  0  0  0  0  0  0  0  0999 V2000
    0.5059   -1.6189    0.0000 N   0  0  0  0  0  0  0  0  0  0  0  0
    0.8536   -0.1598    0.0000 C   0  0  0  0  0  0  0  0  0  0  0  0
   -0.4267    0.6218    0.0000 C   0  0  0  0  0  0  0  0  0  0  0  0
   -1.5656   -0.3543    0.0000 C   0  0  0  0  0  0  0  0  0  0  0  0
   -3.0248   -0.0066    0.0000 C   0  0  0  0  0  0  0  0  0  0  0  0
   -3.4533    1.4309    0.0000 C   0  0  0  0  0  0  0  0  0  0  0  0
   -0.9893   -1.7392    0.0000 C   0  0  0  0  0  0  0  0  0  0  0  0
    2.2384    0.4166    0.0000 C   0  0  0  0  0  0  0  0  0  0  0  0
    2.4317    1.9041    0.0000 O   0  0  0  0  0  0  0  0  0  0  0  0
    3.4300   -0.4945    0.0000 O   0  0  0  0  0  0  0  0  0  0  0  0
  1  2  1  0
  2  3  1  0
  3  4  1  0
  4  5  1  6
  5  6  1  0
  4  7  1  0
  2  8  1  6
  8  9  2  0
  8 10  1  0
  7  1  1  0
M  END
>  <rName>  (1432) 
D-Pro_4REt

>  <PQ_SYMBOL>  (1432) 
D-Pro_4REt

>  <FULL_NAME>  (1432) 
rac-(2R,4R)-4-ethylpyrrolidine-2-carboxylic acid

>  <IUPAC_CONDENSED>  (1432) 
D-Pro(4R-Et)

>  <IUPAC>  (1432) 
(2R,4R)-4-ethylpyrrolidine-2-carboxylic acid

>  <TYPE>  (1432) 
Backbone

>  <CLASS>  (1432) 
alpha

>  <ANALOG>  (1432) 
Pro

>  <MOL_WT>  (1432) 
143.186

>  <LOGP>  (1432) 
0.4591

>  <TPSA>  (1432) 
49.33

>  <POPULARITY>  (1432) 
2.2

>  <PROTECTED>  (1432) 
TRUE

>  <SMILES>  (1432) 
N1[C@H](C[C@@H](CC)C1)C(=O)O

>  <INCHIKEY>  (1432) 
VQZWJPSIXQCRTF-PHDIDXHHSA-N

$$$$
D-Pro_4RF
     RDKit          2D

  9  9  0  0  0  0  0  0  0  0999 V2000
   -0.1792   -1.4541    0.0000 N   0  0  0  0  0  0  0  0  0  0  0  0
    0.4598   -0.0969    0.0000 C   0  0  0  0  0  0  0  0  0  0  0  0
   -0.6334    0.9301    0.0000 C   0  0  0  0  0  0  0  0  0  0  0  0
   -1.9481    0.2077    0.0000 C   0  0  0  0  0  0  0  0  0  0  0  0
   -3.3052    0.8467    0.0000 F   0  0  0  0  0  0  0  0  0  0  0  0
   -1.6673   -1.2657    0.0000 C   0  0  0  0  0  0  0  0  0  0  0  0
    1.9333    0.1838    0.0000 C   0  0  0  0  0  0  0  0  0  0  0  0
    2.4269    1.6003    0.0000 O   0  0  0  0  0  0  0  0  0  0  0  0
    2.9132   -0.9519    0.0000 O   0  0  0  0  0  0  0  0  0  0  0  0
  1  2  1  0
  2  3  1  0
  3  4  1  0
  4  5  1  6
  4  6  1  0
  2  7  1  6
  7  8  2  0
  7  9  1  0
  6  1  1  0
M  END
>  <rName>  (1433) 
D-Pro_4RF

>  <PQ_SYMBOL>  (1433) 
D-Pro_4RF

>  <FULL_NAME>  (1433) 
cis-4-Fluoro-D-Proline

>  <IUPAC_CONDENSED>  (1433) 
D-Pro(4R-F)

>  <IUPAC>  (1433) 
(2R,4R)-4-fluoropyrrolidine-2-carboxylic acid

>  <TYPE>  (1433) 
Backbone

>  <CLASS>  (1433) 
alpha

>  <ANALOG>  (1433) 
Pro

>  <MOL_WT>  (1433) 
133.122

>  <LOGP>  (1433) 
-0.22900000000000015

>  <TPSA>  (1433) 
49.33

>  <POPULARITY>  (1433) 
8.0

>  <PROTECTED>  (1433) 
TRUE

>  <SMILES>  (1433) 
N1[C@H](C[C@@H](F)C1)C(=O)O

>  <INCHIKEY>  (1433) 
ZIWHMENIDGOELV-QWWZWVQMSA-N

$$$$
D-Pro_4RN3
     RDKit          2D

 11 11  0  0  0  0  0  0  0  0999 V2000
    1.2535   -1.6430    0.0000 N   0  0  0  0  0  0  0  0  0  0  0  0
    1.2696   -0.1431    0.0000 C   0  0  0  0  0  0  0  0  0  0  0  0
   -0.1519    0.3357    0.0000 C   0  0  0  0  0  0  0  0  0  0  0  0
   -1.0466   -0.8682    0.0000 C   0  0  0  0  0  0  0  0  0  0  0  0
   -0.1780   -2.0912    0.0000 C   0  0  0  0  0  0  0  0  0  0  0  0
   -2.5465   -0.8521    0.0000 N   0  0  0  0  0  0  0  0  0  0  0  0
   -3.2825    0.4549    0.0000 N   0  0  0  0  0  0  0  0  0  0  0  0
   -4.0185    1.7619    0.0000 N   0  0  0  0  0  0  0  0  0  0  0  0
    2.4926    0.7255    0.0000 C   0  0  0  0  0  0  0  0  0  0  0  0
    2.3518    2.2189    0.0000 O   0  0  0  0  0  0  0  0  0  0  0  0
    3.8563    0.1007    0.0000 O   0  0  0  0  0  0  0  0  0  0  0  0
  1  2  1  0
  2  3  1  0
  3  4  1  0
  4  5  1  0
  4  6  1  6
  6  7  2  0
  7  8  2  0
  2  9  1  6
  9 10  2  0
  9 11  1  0
  5  1  1  0
M  CHG  2   7   1   8  -1
M  END
>  <rName>  (1434) 
D-Pro_4RN3

>  <PQ_SYMBOL>  (1434) 
D-Pro_4RN3

>  <FULL_NAME>  (1434) 
(2R,4R)-4-azidopyrrolidine-2-carboxylic acid

>  <IUPAC_CONDENSED>  (1434) 
D-Pro(4R-N3)

>  <IUPAC>  (1434) 
(2R,4R)-4-azidopyrrolidine-2-carboxylic acid

>  <TYPE>  (1434) 
Backbone

>  <CLASS>  (1434) 
alpha

>  <ANALOG>  (1434) 
Pro

>  <MOL_WT>  (1434) 
156.14500000000004

>  <LOGP>  (1434) 
0.11179999999999962

>  <TPSA>  (1434) 
98.09000000000002

>  <POPULARITY>  (1434) 
7.1

>  <PROTECTED>  (1434) 
TRUE

>  <SMILES>  (1434) 
N1[C@H](C[C@H](C1)N=[N+]=[N-])C(=O)O

>  <INCHIKEY>  (1434) 
PPRFZPZRQYPCER-QWWZWVQMSA-N

$$$$
D-Pro_4RPh
     RDKit          2D

 14 15  0  0  0  0  0  0  0  0999 V2000
   -2.0158    1.6013    0.0000 N   0  0  0  0  0  0  0  0  0  0  0  0
   -2.3178    0.1320    0.0000 C   0  0  0  0  0  0  0  0  0  0  0  0
   -1.0138   -0.6092    0.0000 C   0  0  0  0  0  0  0  0  0  0  0  0
    0.0942    0.4019    0.0000 C   0  0  0  0  0  0  0  0  0  0  0  0
   -0.5251    1.7681    0.0000 C   0  0  0  0  0  0  0  0  0  0  0  0
    1.5635    0.0999    0.0000 C   0  0  0  0  0  0  0  0  0  0  0  0
    2.0365   -1.3236    0.0000 C   0  0  0  0  0  0  0  0  0  0  0  0
    3.5058   -1.6256    0.0000 C   0  0  0  0  0  0  0  0  0  0  0  0
    4.5020   -0.5042    0.0000 C   0  0  0  0  0  0  0  0  0  0  0  0
    4.0290    0.9192    0.0000 C   0  0  0  0  0  0  0  0  0  0  0  0
    2.5597    1.2213    0.0000 C   0  0  0  0  0  0  0  0  0  0  0  0
   -3.6840   -0.4872    0.0000 C   0  0  0  0  0  0  0  0  0  0  0  0
   -3.8308   -1.9800    0.0000 O   0  0  0  0  0  0  0  0  0  0  0  0
   -4.9034    0.3863    0.0000 O   0  0  0  0  0  0  0  0  0  0  0  0
  1  2  1  0
  2  3  1  0
  3  4  1  0
  4  5  1  0
  4  6  1  1
  6  7  2  0
  7  8  1  0
  8  9  2  0
  9 10  1  0
 10 11  2  0
  2 12  1  6
 12 13  2  0
 12 14  1  0
  5  1  1  0
 11  6  1  0
M  END
>  <rName>  (1435) 
D-Pro_4RPh

>  <PQ_SYMBOL>  (1435) 
D-Pro_4RPh

>  <FULL_NAME>  (1435) 
(2R,4R)-4-phenylpyrrolidine-2-carboxylic acid

>  <IUPAC_CONDENSED>  (1435) 
D-Pro(4R-Ph)

>  <IUPAC>  (1435) 
(2R,4R)-4-phenylpyrrolidine-2-carboxylic acid

>  <TYPE>  (1435) 
Backbone

>  <CLASS>  (1435) 
alpha

>  <ANALOG>  (1435) 
Pro

>  <MOL_WT>  (1435) 
191.23

>  <LOGP>  (1435) 
1.2167

>  <TPSA>  (1435) 
49.33

>  <POPULARITY>  (1435) 
7.1

>  <PROTECTED>  (1435) 
TRUE

>  <SMILES>  (1435) 
N1[C@H](C[C@@H](C1)c2(ccccc2))C(=O)O

>  <INCHIKEY>  (1435) 
JHHOFXBPLJDHOR-VHSXEESVSA-N

$$$$
D-Pro_4Ramino
     RDKit          2D

  9  9  0  0  0  0  0  0  0  0999 V2000
   -0.1792   -1.4541    0.0000 N   0  0  0  0  0  0  0  0  0  0  0  0
    0.4598   -0.0969    0.0000 C   0  0  0  0  0  0  0  0  0  0  0  0
   -0.6334    0.9301    0.0000 C   0  0  0  0  0  0  0  0  0  0  0  0
   -1.9481    0.2077    0.0000 C   0  0  0  0  0  0  0  0  0  0  0  0
   -3.3052    0.8467    0.0000 N   0  0  0  0  0  0  0  0  0  0  0  0
   -1.6673   -1.2657    0.0000 C   0  0  0  0  0  0  0  0  0  0  0  0
    1.9333    0.1838    0.0000 C   0  0  0  0  0  0  0  0  0  0  0  0
    2.4269    1.6003    0.0000 O   0  0  0  0  0  0  0  0  0  0  0  0
    2.9132   -0.9519    0.0000 O   0  0  0  0  0  0  0  0  0  0  0  0
  1  2  1  0
  2  3  1  0
  3  4  1  0
  4  5  1  6
  4  6  1  0
  2  7  1  6
  7  8  2  0
  7  9  1  0
  6  1  1  0
M  END
>  <rName>  (1436) 
D-Pro_4Ramino

>  <PQ_SYMBOL>  (1436) 
D-Pro_4Ramino

>  <FULL_NAME>  (1436) 
(2R,4R)-4-aminopyrrolidine-2-carboxylic acid

>  <IUPAC_CONDENSED>  (1436) 
D-Pro(4R-amino)

>  <IUPAC>  (1436) 
(2R,4R)-4-aminopyrrolidine-2-carboxylic acid

>  <TYPE>  (1436) 
Backbone

>  <CLASS>  (1436) 
alpha

>  <ANALOG>  (1436) 
Pro

>  <MOL_WT>  (1436) 
130.14700000000002

>  <LOGP>  (1436) 
-1.2397999999999993

>  <TPSA>  (1436) 
75.35

>  <POPULARITY>  (1436) 
9.4

>  <PROTECTED>  (1436) 
TRUE

>  <SMILES>  (1436) 
N1[C@H](C[C@@H](N)C1)C(=O)O

>  <INCHIKEY>  (1436) 
SHINASQYHDCLEU-QWWZWVQMSA-N

$$$$
D-Pro_4Rphenylmethyl
     RDKit          2D

 15 16  0  0  0  0  0  0  0  0999 V2000
   -1.9780    1.3585    0.0000 N   0  0  0  0  0  0  0  0  0  0  0  0
   -2.7771    0.0891    0.0000 C   0  0  0  0  0  0  0  0  0  0  0  0
   -1.8168   -1.0632    0.0000 C   0  0  0  0  0  0  0  0  0  0  0  0
   -0.4242   -0.5059    0.0000 C   0  0  0  0  0  0  0  0  0  0  0  0
   -0.5238    0.9908    0.0000 C   0  0  0  0  0  0  0  0  0  0  0  0
    0.8452   -1.3051    0.0000 C   0  0  0  0  0  0  0  0  0  0  0  0
    2.1720   -0.6053    0.0000 C   0  0  0  0  0  0  0  0  0  0  0  0
    3.4414   -1.4044    0.0000 C   0  0  0  0  0  0  0  0  0  0  0  0
    4.7682   -0.7047    0.0000 C   0  0  0  0  0  0  0  0  0  0  0  0
    4.8256    0.7942    0.0000 C   0  0  0  0  0  0  0  0  0  0  0  0
    3.5562    1.5934    0.0000 C   0  0  0  0  0  0  0  0  0  0  0  0
    2.2294    0.8936    0.0000 C   0  0  0  0  0  0  0  0  0  0  0  0
   -4.2738   -0.0105    0.0000 C   0  0  0  0  0  0  0  0  0  0  0  0
   -4.9359   -1.3565    0.0000 O   0  0  0  0  0  0  0  0  0  0  0  0
   -5.1084    1.2359    0.0000 O   0  0  0  0  0  0  0  0  0  0  0  0
  1  2  1  0
  2  3  1  0
  3  4  1  0
  4  5  1  0
  4  6  1  6
  6  7  1  0
  7  8  2  0
  8  9  1  0
  9 10  2  0
 10 11  1  0
 11 12  2  0
  2 13  1  6
 13 14  2  0
 13 15  1  0
  5  1  1  0
 12  7  1  0
M  END
>  <rName>  (1437) 
D-Pro_4Rphenylmethyl

>  <PQ_SYMBOL>  (1437) 
D-Pro_4Rphenylmethyl

>  <FULL_NAME>  (1437) 
(2R,4R)-4-benzylpyrrolidine-2-carboxylic acid

>  <IUPAC_CONDENSED>  (1437) 
D-Pro(4R-phenylmethyl)

>  <IUPAC>  (1437) 
(2R,4R)-4-benzylpyrrolidine-2-carboxylic acid

>  <TYPE>  (1437) 
Backbone

>  <CLASS>  (1437) 
alpha

>  <ANALOG>  (1437) 
Pro

>  <MOL_WT>  (1437) 
205.257

>  <LOGP>  (1437) 
1.2918

>  <TPSA>  (1437) 
49.33

>  <POPULARITY>  (1437) 
2.2

>  <PROTECTED>  (1437) 
TRUE

>  <SMILES>  (1437) 
N1[C@H](C[C@H](C1)Cc2(ccccc2))C(=O)O

>  <INCHIKEY>  (1437) 
JQVMMZMKXGQVGQ-GHMZBOCLSA-N

$$$$
D-Pro_4Rtriazol1yl
     RDKit          2D

 13 14  0  0  0  0  0  0  0  0999 V2000
    1.6701   -1.5982    0.0000 N   0  0  0  0  0  0  0  0  0  0  0  0
    1.9981   -0.1345    0.0000 C   0  0  0  0  0  0  0  0  0  0  0  0
    0.7074    0.6297    0.0000 C   0  0  0  0  0  0  0  0  0  0  0  0
   -0.4183   -0.3616    0.0000 C   0  0  0  0  0  0  0  0  0  0  0  0
    0.1766   -1.7386    0.0000 C   0  0  0  0  0  0  0  0  0  0  0  0
   -1.8820   -0.0336    0.0000 N   0  0  0  0  0  0  0  0  0  0  0  0
   -3.0077   -1.0250    0.0000 C   0  0  0  0  0  0  0  0  0  0  0  0
   -4.2984   -0.2607    0.0000 C   0  0  0  0  0  0  0  0  0  0  0  0
   -3.9704    1.2030    0.0000 N   0  0  0  0  0  0  0  0  0  0  0  0
   -2.4770    1.3433    0.0000 N   0  0  0  0  0  0  0  0  0  0  0  0
    3.3750    0.4605    0.0000 C   0  0  0  0  0  0  0  0  0  0  0  0
    3.5482    1.9504    0.0000 O   0  0  0  0  0  0  0  0  0  0  0  0
    4.5788   -0.4345    0.0000 O   0  0  0  0  0  0  0  0  0  0  0  0
  1  2  1  0
  2  3  1  0
  3  4  1  0
  4  5  1  0
  4  6  1  6
  6  7  1  0
  7  8  2  0
  8  9  1  0
  9 10  2  0
  2 11  1  6
 11 12  2  0
 11 13  1  0
  5  1  1  0
 10  6  1  0
M  END
>  <rName>  (1438) 
D-Pro_4Rtriazol1yl

>  <PQ_SYMBOL>  (1438) 
D-Pro_4Rtriazol1yl

>  <FULL_NAME>  (1438) 
(2R,4R)-4-(triazol-1-yl)pyrrolidine-2-carboxylic acid

>  <IUPAC_CONDENSED>  (1438) 
D-Pro(4R-triazol-1-yl)

>  <IUPAC>  (1438) 
(2R,4R)-4-(1H-1,2,3-triazol-1-yl)pyrrolidine-2-carboxylic acid

>  <TYPE>  (1438) 
Backbone

>  <CLASS>  (1438) 
alpha

>  <ANALOG>  (1438) 
Pro

>  <MOL_WT>  (1438) 
182.183

>  <LOGP>  (1438) 
-0.7343000000000002

>  <TPSA>  (1438) 
80.04

>  <POPULARITY>  (1438) 
5.4

>  <PROTECTED>  (1438) 
TRUE

>  <SMILES>  (1438) 
N1[C@H](C[C@H](C1)n2(ccnn2))C(=O)O

>  <INCHIKEY>  (1438) 
KCLIAYMWAUHSKI-PHDIDXHHSA-N

$$$$
D-Pro_4SF
     RDKit          2D

  9  9  0  0  0  0  0  0  0  0999 V2000
   -0.1792   -1.4541    0.0000 N   0  0  0  0  0  0  0  0  0  0  0  0
    0.4598   -0.0969    0.0000 C   0  0  0  0  0  0  0  0  0  0  0  0
   -0.6334    0.9301    0.0000 C   0  0  0  0  0  0  0  0  0  0  0  0
   -1.9481    0.2077    0.0000 C   0  0  0  0  0  0  0  0  0  0  0  0
   -3.3052    0.8467    0.0000 F   0  0  0  0  0  0  0  0  0  0  0  0
   -1.6673   -1.2657    0.0000 C   0  0  0  0  0  0  0  0  0  0  0  0
    1.9333    0.1838    0.0000 C   0  0  0  0  0  0  0  0  0  0  0  0
    2.4269    1.6003    0.0000 O   0  0  0  0  0  0  0  0  0  0  0  0
    2.9132   -0.9519    0.0000 O   0  0  0  0  0  0  0  0  0  0  0  0
  1  2  1  0
  2  3  1  0
  3  4  1  0
  4  5  1  1
  4  6  1  0
  2  7  1  6
  7  8  2  0
  7  9  1  0
  6  1  1  0
M  END
>  <rName>  (1439) 
D-Pro_4SF

>  <PQ_SYMBOL>  (1439) 
D-Pro_4SF

>  <FULL_NAME>  (1439) 
trans-4-Fluoro-D-Proline

>  <IUPAC_CONDENSED>  (1439) 
D-Pro(4S-F)

>  <IUPAC>  (1439) 
(2R,4S)-4-fluoropyrrolidine-2-carboxylic acid

>  <TYPE>  (1439) 
Backbone

>  <CLASS>  (1439) 
alpha

>  <ANALOG>  (1439) 
Pro

>  <MOL_WT>  (1439) 
133.122

>  <LOGP>  (1439) 
-0.22900000000000015

>  <TPSA>  (1439) 
49.33

>  <POPULARITY>  (1439) 
7.6

>  <PROTECTED>  (1439) 
TRUE

>  <SMILES>  (1439) 
N1[C@H](C[C@H](F)C1)C(=O)O

>  <INCHIKEY>  (1439) 
ZIWHMENIDGOELV-IUYQGCFVSA-N

$$$$
D-Pro_4SN3
     RDKit          2D

 11 11  0  0  0  0  0  0  0  0999 V2000
    1.2535   -1.6430    0.0000 N   0  0  0  0  0  0  0  0  0  0  0  0
    1.2696   -0.1431    0.0000 C   0  0  0  0  0  0  0  0  0  0  0  0
   -0.1519    0.3357    0.0000 C   0  0  0  0  0  0  0  0  0  0  0  0
   -1.0466   -0.8682    0.0000 C   0  0  0  0  0  0  0  0  0  0  0  0
   -0.1780   -2.0912    0.0000 C   0  0  0  0  0  0  0  0  0  0  0  0
   -2.5465   -0.8521    0.0000 N   0  0  0  0  0  0  0  0  0  0  0  0
   -3.2825    0.4549    0.0000 N   0  0  0  0  0  0  0  0  0  0  0  0
   -4.0185    1.7619    0.0000 N   0  0  0  0  0  0  0  0  0  0  0  0
    2.4926    0.7255    0.0000 C   0  0  0  0  0  0  0  0  0  0  0  0
    2.3518    2.2189    0.0000 O   0  0  0  0  0  0  0  0  0  0  0  0
    3.8563    0.1007    0.0000 O   0  0  0  0  0  0  0  0  0  0  0  0
  1  2  1  0
  2  3  1  0
  3  4  1  0
  4  5  1  0
  4  6  1  1
  6  7  2  0
  7  8  2  0
  2  9  1  6
  9 10  2  0
  9 11  1  0
  5  1  1  0
M  CHG  2   7   1   8  -1
M  END
>  <rName>  (1440) 
D-Pro_4SN3

>  <PQ_SYMBOL>  (1440) 
D-Pro_4SN3

>  <FULL_NAME>  (1440) 
(2R,4S)-4-Azidopyrrolidine-2-carboxylic acid

>  <IUPAC_CONDENSED>  (1440) 
D-Pro(4S-N3)

>  <IUPAC>  (1440) 
(2R,4S)-4-azidopyrrolidine-2-carboxylic acid

>  <TYPE>  (1440) 
Backbone

>  <CLASS>  (1440) 
alpha

>  <ANALOG>  (1440) 
Pro

>  <MOL_WT>  (1440) 
156.14500000000004

>  <LOGP>  (1440) 
0.11179999999999962

>  <TPSA>  (1440) 
98.09000000000002

>  <POPULARITY>  (1440) 
7.1

>  <PROTECTED>  (1440) 
TRUE

>  <SMILES>  (1440) 
N1[C@H](C[C@@H](C1)N=[N+]=[N-])C(=O)O

>  <INCHIKEY>  (1440) 
PPRFZPZRQYPCER-IUYQGCFVSA-N

$$$$
D-Pro_4SNHAc
     RDKit          2D

 12 12  0  0  0  0  0  0  0  0999 V2000
    1.5111   -1.6952    0.0000 N   0  0  0  0  0  0  0  0  0  0  0  0
    1.5414   -0.1955    0.0000 C   0  0  0  0  0  0  0  0  0  0  0  0
    0.1245    0.2967    0.0000 C   0  0  0  0  0  0  0  0  0  0  0  0
   -0.7815   -0.8988    0.0000 C   0  0  0  0  0  0  0  0  0  0  0  0
    0.0755   -2.1299    0.0000 C   0  0  0  0  0  0  0  0  0  0  0  0
   -2.2812   -0.8686    0.0000 N   0  0  0  0  0  0  0  0  0  0  0  0
   -3.0049    0.4453    0.0000 C   0  0  0  0  0  0  0  0  0  0  0  0
   -2.2288    1.7290    0.0000 O   0  0  0  0  0  0  0  0  0  0  0  0
   -4.5046    0.4756    0.0000 C   0  0  0  0  0  0  0  0  0  0  0  0
    2.7725    0.6615    0.0000 C   0  0  0  0  0  0  0  0  0  0  0  0
    2.6458    2.1561    0.0000 O   0  0  0  0  0  0  0  0  0  0  0  0
    4.1302    0.0239    0.0000 O   0  0  0  0  0  0  0  0  0  0  0  0
  1  2  1  0
  2  3  1  0
  3  4  1  0
  4  5  1  0
  4  6  1  1
  6  7  1  0
  7  8  2  0
  7  9  1  0
  2 10  1  6
 10 11  2  0
 10 12  1  0
  5  1  1  0
M  END
>  <rName>  (1441) 
D-Pro_4SNHAc

>  <PQ_SYMBOL>  (1441) 
D-Pro_4SNHAc

>  <FULL_NAME>  (1441) 
D-Pro(4S-NHAc)

>  <IUPAC_CONDENSED>  (1441) 
D-Pro(4S-NHAc)

>  <IUPAC>  (1441) 
(2R,4S)-4-methylcarbonylaminopyrrolidine-2-carboxylic acid

>  <TYPE>  (1441) 
Backbone

>  <CLASS>  (1441) 
alpha

>  <ANALOG>  (1441) 
Pro

>  <MOL_WT>  (1441) 
172.184

>  <LOGP>  (1441) 
-1.0623999999999993

>  <TPSA>  (1441) 
78.42999999999999

>  <POPULARITY>  (1441) 
2.2

>  <PROTECTED>  (1441) 
TRUE

>  <SMILES>  (1441) 
N1[C@H](C[C@@H](C1)NC(=O)C)C(=O)O

>  <INCHIKEY>  (1441) 
VPBHJVNVTZAFLN-NTSWFWBYSA-N

$$$$
D-Pro_4SPh
     RDKit          2D

 14 15  0  0  0  0  0  0  0  0999 V2000
   -2.0158    1.6013    0.0000 N   0  0  0  0  0  0  0  0  0  0  0  0
   -2.3178    0.1320    0.0000 C   0  0  0  0  0  0  0  0  0  0  0  0
   -1.0138   -0.6092    0.0000 C   0  0  0  0  0  0  0  0  0  0  0  0
    0.0942    0.4019    0.0000 C   0  0  0  0  0  0  0  0  0  0  0  0
   -0.5251    1.7681    0.0000 C   0  0  0  0  0  0  0  0  0  0  0  0
    1.5635    0.0999    0.0000 C   0  0  0  0  0  0  0  0  0  0  0  0
    2.0365   -1.3236    0.0000 C   0  0  0  0  0  0  0  0  0  0  0  0
    3.5058   -1.6256    0.0000 C   0  0  0  0  0  0  0  0  0  0  0  0
    4.5020   -0.5042    0.0000 C   0  0  0  0  0  0  0  0  0  0  0  0
    4.0290    0.9192    0.0000 C   0  0  0  0  0  0  0  0  0  0  0  0
    2.5597    1.2213    0.0000 C   0  0  0  0  0  0  0  0  0  0  0  0
   -3.6840   -0.4872    0.0000 C   0  0  0  0  0  0  0  0  0  0  0  0
   -3.8308   -1.9800    0.0000 O   0  0  0  0  0  0  0  0  0  0  0  0
   -4.9034    0.3863    0.0000 O   0  0  0  0  0  0  0  0  0  0  0  0
  1  2  1  0
  2  3  1  0
  3  4  1  0
  4  5  1  0
  4  6  1  6
  6  7  2  0
  7  8  1  0
  8  9  2  0
  9 10  1  0
 10 11  2  0
  2 12  1  6
 12 13  2  0
 12 14  1  0
  5  1  1  0
 11  6  1  0
M  END
>  <rName>  (1442) 
D-Pro_4SPh

>  <PQ_SYMBOL>  (1442) 
D-Pro_4SPh

>  <FULL_NAME>  (1442) 
(2R,4S)-4-Phenylpyrrolidine-2-carboxylic acid

>  <IUPAC_CONDENSED>  (1442) 
D-Pro(4S-Ph)

>  <IUPAC>  (1442) 
(2R,4S)-4-phenylpyrrolidine-2-carboxylic acid

>  <TYPE>  (1442) 
Backbone

>  <CLASS>  (1442) 
alpha

>  <ANALOG>  (1442) 
Pro

>  <MOL_WT>  (1442) 
191.23

>  <LOGP>  (1442) 
1.2167

>  <TPSA>  (1442) 
49.33

>  <POPULARITY>  (1442) 
9.1

>  <PROTECTED>  (1442) 
TRUE

>  <SMILES>  (1442) 
N1[C@H](C[C@H](C1)c2(ccccc2))C(=O)O

>  <INCHIKEY>  (1442) 
JHHOFXBPLJDHOR-NXEZZACHSA-N

$$$$
D-Pro_4SPh_3I
     RDKit          2D

 15 16  0  0  0  0  0  0  0  0999 V2000
   -2.2348    1.6367    0.0000 N   0  0  0  0  0  0  0  0  0  0  0  0
   -2.6457    0.1941    0.0000 C   0  0  0  0  0  0  0  0  0  0  0  0
   -1.4007   -0.6425    0.0000 C   0  0  0  0  0  0  0  0  0  0  0  0
   -0.2203    0.2831    0.0000 C   0  0  0  0  0  0  0  0  0  0  0  0
   -0.7358    1.6917    0.0000 C   0  0  0  0  0  0  0  0  0  0  0  0
    1.2223   -0.1278    0.0000 C   0  0  0  0  0  0  0  0  0  0  0  0
    1.5878   -1.5826    0.0000 C   0  0  0  0  0  0  0  0  0  0  0  0
    3.0304   -1.9935    0.0000 C   0  0  0  0  0  0  0  0  0  0  0  0
    4.1076   -0.9496    0.0000 C   0  0  0  0  0  0  0  0  0  0  0  0
    3.7421    0.5052    0.0000 C   0  0  0  0  0  0  0  0  0  0  0  0
    4.8193    1.5491    0.0000 I   0  0  0  0  0  0  0  0  0  0  0  0
    2.2995    0.9161    0.0000 C   0  0  0  0  0  0  0  0  0  0  0  0
   -4.0543   -0.3215    0.0000 C   0  0  0  0  0  0  0  0  0  0  0  0
   -4.3122   -1.7991    0.0000 O   0  0  0  0  0  0  0  0  0  0  0  0
   -5.2051    0.6407    0.0000 O   0  0  0  0  0  0  0  0  0  0  0  0
  1  2  1  0
  2  3  1  0
  3  4  1  0
  4  5  1  0
  4  6  1  6
  6  7  2  0
  7  8  1  0
  8  9  2  0
  9 10  1  0
 10 11  1  0
 10 12  2  0
  2 13  1  6
 13 14  2  0
 13 15  1  0
  5  1  1  0
 12  6  1  0
M  END
>  <rName>  (1443) 
D-Pro_4SPh_3I

>  <PQ_SYMBOL>  (1443) 
D-Pro_4SPh_3I

>  <FULL_NAME>  (1443) 
O=C(O)[C@H]1C[C@@H](c2cccc(I)c2)CN1

>  <IUPAC_CONDENSED>  (1443) 
D-Pro(4S-Ph(3-I))

>  <IUPAC>  (1443) 
(2R,4S)-4-(3-iodophenyl)pyrrolidine-2-carboxylic acid

>  <TYPE>  (1443) 
Backbone

>  <CLASS>  (1443) 
alpha

>  <ANALOG>  (1443) 
Pro

>  <MOL_WT>  (1443) 
317.12600000000003

>  <LOGP>  (1443) 
1.8213

>  <TPSA>  (1443) 
49.33

>  <POPULARITY>  (1443) 
2.6

>  <PROTECTED>  (1443) 
TRUE

>  <SMILES>  (1443) 
N1[C@H](C[C@H](C1)c2(cccc(I)c2))C(=O)O

>  <INCHIKEY>  (1443) 
GULVWUAWHJTXGZ-PSASIEDQSA-N

$$$$
D-Pro_4Samino
     RDKit          2D

  9  9  0  0  0  0  0  0  0  0999 V2000
   -0.1792   -1.4541    0.0000 N   0  0  0  0  0  0  0  0  0  0  0  0
    0.4598   -0.0969    0.0000 C   0  0  0  0  0  0  0  0  0  0  0  0
   -0.6334    0.9301    0.0000 C   0  0  0  0  0  0  0  0  0  0  0  0
   -1.9481    0.2077    0.0000 C   0  0  0  0  0  0  0  0  0  0  0  0
   -3.3052    0.8467    0.0000 N   0  0  0  0  0  0  0  0  0  0  0  0
   -1.6673   -1.2657    0.0000 C   0  0  0  0  0  0  0  0  0  0  0  0
    1.9333    0.1838    0.0000 C   0  0  0  0  0  0  0  0  0  0  0  0
    2.4269    1.6003    0.0000 O   0  0  0  0  0  0  0  0  0  0  0  0
    2.9132   -0.9519    0.0000 O   0  0  0  0  0  0  0  0  0  0  0  0
  1  2  1  0
  2  3  1  0
  3  4  1  0
  4  5  1  1
  4  6  1  0
  2  7  1  6
  7  8  2  0
  7  9  1  0
  6  1  1  0
M  END
>  <rName>  (1444) 
D-Pro_4Samino

>  <PQ_SYMBOL>  (1444) 
D-Pro_4Samino

>  <FULL_NAME>  (1444) 
(2R,4S)-4-aminopyrrolidine-2-carboxylic acid

>  <IUPAC_CONDENSED>  (1444) 
D-Pro(4S-amino)

>  <IUPAC>  (1444) 
(2R,4S)-4-aminopyrrolidine-2-carboxylic acid

>  <TYPE>  (1444) 
Backbone

>  <CLASS>  (1444) 
alpha

>  <ANALOG>  (1444) 
Pro

>  <MOL_WT>  (1444) 
130.14700000000002

>  <LOGP>  (1444) 
-1.2397999999999993

>  <TPSA>  (1444) 
75.35

>  <POPULARITY>  (1444) 
10.6

>  <PROTECTED>  (1444) 
TRUE

>  <SMILES>  (1444) 
N1[C@H](C[C@H](N)C1)C(=O)O

>  <INCHIKEY>  (1444) 
SHINASQYHDCLEU-IUYQGCFVSA-N

$$$$
D-Pro_55diMe
     RDKit          2D

 10 10  0  0  0  0  0  0  0  0999 V2000
   -0.3816   -0.8744    0.0000 N   0  0  0  0  0  0  0  0  0  0  0  0
    0.7221    0.1414    0.0000 C   0  0  0  0  0  0  0  0  0  0  0  0
    0.0971    1.5050    0.0000 C   0  0  0  0  0  0  0  0  0  0  0  0
   -1.3929    1.3319    0.0000 C   0  0  0  0  0  0  0  0  0  0  0  0
   -1.6888   -0.1386    0.0000 C   0  0  0  0  0  0  0  0  0  0  0  0
   -2.2839   -1.5155    0.0000 C   0  0  0  0  0  0  0  0  0  0  0  0
   -3.1203    0.3093    0.0000 C   0  0  0  0  0  0  0  0  0  0  0  0
    2.1926   -0.1544    0.0000 C   0  0  0  0  0  0  0  0  0  0  0  0
    3.1841    0.9712    0.0000 O   0  0  0  0  0  0  0  0  0  0  0  0
    2.6717   -1.5759    0.0000 O   0  0  0  0  0  0  0  0  0  0  0  0
  1  2  1  0
  2  3  1  0
  3  4  1  0
  4  5  1  0
  5  6  1  0
  5  7  1  0
  2  8  1  6
  8  9  2  0
  8 10  1  0
  5  1  1  0
M  END
>  <rName>  (1445) 
D-Pro_55diMe

>  <PQ_SYMBOL>  (1445) 
D-Pro_55diMe

>  <FULL_NAME>  (1445) 
(2R)-5,5-dimethylpyrrolidine-2-carboxylic acid

>  <IUPAC_CONDENSED>  (1445) 
D-Pro(5,5-diMe)

>  <IUPAC>  (1445) 
(2R)-5,5-dimethylpyrrolidine-2-carboxylic acid

>  <TYPE>  (1445) 
Backbone

>  <CLASS>  (1445) 
alpha

>  <ANALOG>  (1445) 
Pro

>  <MOL_WT>  (1445) 
143.186

>  <LOGP>  (1445) 
0.6015999999999997

>  <TPSA>  (1445) 
49.33

>  <POPULARITY>  (1445) 
11.1

>  <PROTECTED>  (1445) 
TRUE

>  <SMILES>  (1445) 
N1[C@H](CCC1(C)C)C(=O)O

>  <INCHIKEY>  (1445) 
DEMIRSVUSWJCFT-RXMQYKEDSA-N

$$$$
D-Pro_5RMe
     RDKit          2D

  9  9  0  0  0  0  0  0  0  0999 V2000
   -0.6334   -0.9301    0.0000 N   0  0  0  0  0  0  0  0  0  0  0  0
    0.4598    0.0969    0.0000 C   0  0  0  0  0  0  0  0  0  0  0  0
   -0.1792    1.4541    0.0000 C   0  0  0  0  0  0  0  0  0  0  0  0
   -1.6673    1.2657    0.0000 C   0  0  0  0  0  0  0  0  0  0  0  0
   -1.9481   -0.2077    0.0000 C   0  0  0  0  0  0  0  0  0  0  0  0
   -3.3052   -0.8467    0.0000 C   0  0  0  0  0  0  0  0  0  0  0  0
    1.9333   -0.1838    0.0000 C   0  0  0  0  0  0  0  0  0  0  0  0
    2.9132    0.9519    0.0000 O   0  0  0  0  0  0  0  0  0  0  0  0
    2.4269   -1.6003    0.0000 O   0  0  0  0  0  0  0  0  0  0  0  0
  1  2  1  0
  2  3  1  0
  3  4  1  0
  4  5  1  0
  5  6  1  6
  2  7  1  6
  7  8  2  0
  7  9  1  0
  5  1  1  0
M  END
>  <rName>  (1446) 
D-Pro_5RMe

>  <PQ_SYMBOL>  (1446) 
D-Pro_5RMe

>  <FULL_NAME>  (1446) 
(2R,5R)-5-methylpyrrolidine-2-carboxylic acid

>  <IUPAC_CONDENSED>  (1446) 
D-Pro(5R-Me)

>  <IUPAC>  (1446) 
(2R,5R)-5-methylpyrrolidine-2-carboxylic acid

>  <TYPE>  (1446) 
Backbone

>  <CLASS>  (1446) 
alpha

>  <ANALOG>  (1446) 
Pro

>  <MOL_WT>  (1446) 
129.159

>  <LOGP>  (1446) 
0.21149999999999974

>  <TPSA>  (1446) 
49.33

>  <POPULARITY>  (1446) 
9.2

>  <PROTECTED>  (1446) 
TRUE

>  <SMILES>  (1446) 
N1[C@H](CC[C@H]1C)C(=O)O

>  <INCHIKEY>  (1446) 
YNSYWEFVEIFJPZ-RFZPGFLSSA-N

$$$$
D-Pro_5RPh
     RDKit          2D

 14 15  0  0  0  0  0  0  0  0999 V2000
   -1.0138    0.6092    0.0000 N   0  0  0  0  0  0  0  0  0  0  0  0
   -2.3178   -0.1320    0.0000 C   0  0  0  0  0  0  0  0  0  0  0  0
   -2.0158   -1.6013    0.0000 C   0  0  0  0  0  0  0  0  0  0  0  0
   -0.5251   -1.7681    0.0000 C   0  0  0  0  0  0  0  0  0  0  0  0
    0.0942   -0.4019    0.0000 C   0  0  0  0  0  0  0  0  0  0  0  0
    1.5635   -0.0999    0.0000 C   0  0  0  0  0  0  0  0  0  0  0  0
    2.5597   -1.2213    0.0000 C   0  0  0  0  0  0  0  0  0  0  0  0
    4.0290   -0.9192    0.0000 C   0  0  0  0  0  0  0  0  0  0  0  0
    4.5020    0.5042    0.0000 C   0  0  0  0  0  0  0  0  0  0  0  0
    3.5058    1.6256    0.0000 C   0  0  0  0  0  0  0  0  0  0  0  0
    2.0365    1.3236    0.0000 C   0  0  0  0  0  0  0  0  0  0  0  0
   -3.6840    0.4872    0.0000 C   0  0  0  0  0  0  0  0  0  0  0  0
   -4.9034   -0.3863    0.0000 O   0  0  0  0  0  0  0  0  0  0  0  0
   -3.8308    1.9800    0.0000 O   0  0  0  0  0  0  0  0  0  0  0  0
  1  2  1  0
  2  3  1  0
  3  4  1  0
  4  5  1  0
  5  6  1  1
  6  7  2  0
  7  8  1  0
  8  9  2  0
  9 10  1  0
 10 11  2  0
  2 12  1  6
 12 13  2  0
 12 14  1  0
  5  1  1  0
 11  6  1  0
M  END
>  <rName>  (1447) 
D-Pro_5RPh

>  <PQ_SYMBOL>  (1447) 
D-Pro_5RPh

>  <FULL_NAME>  (1447) 
(2R,5R)-5-phenylpyrrolidine-2-carboxylic acid

>  <IUPAC_CONDENSED>  (1447) 
D-Pro(5R-Ph)

>  <IUPAC>  (1447) 
(2R,5R)-5-phenylpyrrolidine-2-carboxylic acid

>  <TYPE>  (1447) 
Backbone

>  <CLASS>  (1447) 
alpha

>  <ANALOG>  (1447) 
Pro

>  <MOL_WT>  (1447) 
191.23

>  <LOGP>  (1447) 
1.5642999999999998

>  <TPSA>  (1447) 
49.33

>  <POPULARITY>  (1447) 
7.1

>  <PROTECTED>  (1447) 
TRUE

>  <SMILES>  (1447) 
N1[C@H](CC[C@@H]1c2(ccccc2))C(=O)O

>  <INCHIKEY>  (1447) 
SMWADGDVGCZIGK-NXEZZACHSA-N

$$$$
D-Pro_5RPh_4Cl
     RDKit          2D

 15 16  0  0  0  0  0  0  0  0999 V2000
   -1.3934    0.6004    0.0000 N   0  0  0  0  0  0  0  0  0  0  0  0
   -2.7205   -0.0987    0.0000 C   0  0  0  0  0  0  0  0  0  0  0  0
   -2.4656   -1.5769    0.0000 C   0  0  0  0  0  0  0  0  0  0  0  0
   -0.9810   -1.7913    0.0000 C   0  0  0  0  0  0  0  0  0  0  0  0
   -0.3183   -0.4457    0.0000 C   0  0  0  0  0  0  0  0  0  0  0  0
    1.1599   -0.1908    0.0000 C   0  0  0  0  0  0  0  0  0  0  0  0
    2.1197   -1.3436    0.0000 C   0  0  0  0  0  0  0  0  0  0  0  0
    3.5978   -1.0887    0.0000 C   0  0  0  0  0  0  0  0  0  0  0  0
    4.1163    0.3188    0.0000 C   0  0  0  0  0  0  0  0  0  0  0  0
    5.5945    0.5737    0.0000 Cl  0  0  0  0  0  0  0  0  0  0  0  0
    3.1565    1.4716    0.0000 C   0  0  0  0  0  0  0  0  0  0  0  0
    1.6783    1.2167    0.0000 C   0  0  0  0  0  0  0  0  0  0  0  0
   -4.0661    0.5640    0.0000 C   0  0  0  0  0  0  0  0  0  0  0  0
   -5.3129   -0.2701    0.0000 O   0  0  0  0  0  0  0  0  0  0  0  0
   -4.1650    2.0607    0.0000 O   0  0  0  0  0  0  0  0  0  0  0  0
  1  2  1  0
  2  3  1  0
  3  4  1  0
  4  5  1  0
  5  6  1  1
  6  7  1  0
  7  8  2  0
  8  9  1  0
  9 10  1  0
  9 11  2  0
 11 12  1  0
  2 13  1  6
 13 14  2  0
 13 15  1  0
  5  1  1  0
 12  6  2  0
M  END
>  <rName>  (1448) 
D-Pro_5RPh_4Cl

>  <PQ_SYMBOL>  (1448) 
D-Pro_5RPh_4Cl

>  <FULL_NAME>  (1448) 
(2R,5R)-5-(4-chlorophenyl)pyrrolidine-2-carboxylic acid

>  <IUPAC_CONDENSED>  (1448) 
D-Pro(5R-Ph(4-Cl))

>  <IUPAC>  (1448) 
(2R,5R)-5-(4-chlorophenyl)pyrrolidine-2-carboxylic acid

>  <TYPE>  (1448) 
Backbone

>  <CLASS>  (1448) 
alpha

>  <ANALOG>  (1448) 
Pro

>  <MOL_WT>  (1448) 
225.67499999999998

>  <LOGP>  (1448) 
2.2177

>  <TPSA>  (1448) 
49.33

>  <POPULARITY>  (1448) 
3.2

>  <PROTECTED>  (1448) 
TRUE

>  <SMILES>  (1448) 
N1[C@H](CC[C@@H]1c2(ccc(Cl)cc2))C(=O)O

>  <INCHIKEY>  (1448) 
CIDBGTQSUQXHLM-NXEZZACHSA-N

$$$$
D-Pro_5RPh_4F
     RDKit          2D

 15 16  0  0  0  0  0  0  0  0999 V2000
   -1.3934    0.6004    0.0000 N   0  0  0  0  0  0  0  0  0  0  0  0
   -2.7205   -0.0987    0.0000 C   0  0  0  0  0  0  0  0  0  0  0  0
   -2.4656   -1.5769    0.0000 C   0  0  0  0  0  0  0  0  0  0  0  0
   -0.9810   -1.7913    0.0000 C   0  0  0  0  0  0  0  0  0  0  0  0
   -0.3183   -0.4457    0.0000 C   0  0  0  0  0  0  0  0  0  0  0  0
    1.1599   -0.1908    0.0000 C   0  0  0  0  0  0  0  0  0  0  0  0
    2.1197   -1.3436    0.0000 C   0  0  0  0  0  0  0  0  0  0  0  0
    3.5978   -1.0887    0.0000 C   0  0  0  0  0  0  0  0  0  0  0  0
    4.1163    0.3188    0.0000 C   0  0  0  0  0  0  0  0  0  0  0  0
    5.5945    0.5737    0.0000 F   0  0  0  0  0  0  0  0  0  0  0  0
    3.1565    1.4716    0.0000 C   0  0  0  0  0  0  0  0  0  0  0  0
    1.6783    1.2167    0.0000 C   0  0  0  0  0  0  0  0  0  0  0  0
   -4.0661    0.5640    0.0000 C   0  0  0  0  0  0  0  0  0  0  0  0
   -5.3129   -0.2701    0.0000 O   0  0  0  0  0  0  0  0  0  0  0  0
   -4.1650    2.0607    0.0000 O   0  0  0  0  0  0  0  0  0  0  0  0
  1  2  1  0
  2  3  1  0
  3  4  1  0
  4  5  1  0
  5  6  1  1
  6  7  1  0
  7  8  2  0
  8  9  1  0
  9 10  1  0
  9 11  2  0
 11 12  1  0
  2 13  1  6
 13 14  2  0
 13 15  1  0
  5  1  1  0
 12  6  2  0
M  END
>  <rName>  (1449) 
D-Pro_5RPh_4F

>  <PQ_SYMBOL>  (1449) 
D-Pro_5RPh_4F

>  <FULL_NAME>  (1449) 
(2R,5R)-5-(4-Fluorophenyl)pyrrolidine-2-carboxylic acid

>  <IUPAC_CONDENSED>  (1449) 
D-Pro(5R-Ph(4-F))

>  <IUPAC>  (1449) 
(2R,5R)-5-(4-fluorophenyl)pyrrolidine-2-carboxylic acid

>  <TYPE>  (1449) 
Backbone

>  <CLASS>  (1449) 
alpha

>  <ANALOG>  (1449) 
Pro

>  <MOL_WT>  (1449) 
209.21999999999997

>  <LOGP>  (1449) 
1.7034

>  <TPSA>  (1449) 
49.33

>  <POPULARITY>  (1449) 
3.1

>  <PROTECTED>  (1449) 
TRUE

>  <SMILES>  (1449) 
N1[C@H](CC[C@@H]1c2(ccc(F)cc2))C(=O)O

>  <INCHIKEY>  (1449) 
VNTUHAMPWLTFSJ-NXEZZACHSA-N

$$$$
D-Pro_5SCF3
     RDKit          2D

 12 12  0  0  0  0  0  0  0  0999 V2000
    0.2109   -0.7011    0.0000 N   0  0  0  0  0  0  0  0  0  0  0  0
    1.4358    0.1647    0.0000 C   0  0  0  0  0  0  0  0  0  0  0  0
    0.9909    1.5972    0.0000 C   0  0  0  0  0  0  0  0  0  0  0  0
   -0.5090    1.6167    0.0000 C   0  0  0  0  0  0  0  0  0  0  0  0
   -0.9910    0.1963    0.0000 C   0  0  0  0  0  0  0  0  0  0  0  0
   -2.4235   -0.2487    0.0000 C   0  0  0  0  0  0  0  0  0  0  0  0
   -3.8560   -0.6936    0.0000 F   0  0  0  0  0  0  0  0  0  0  0  0
   -2.8685    1.1838    0.0000 F   0  0  0  0  0  0  0  0  0  0  0  0
   -1.9786   -1.6812    0.0000 F   0  0  0  0  0  0  0  0  0  0  0  0
    2.8562   -0.3173    0.0000 C   0  0  0  0  0  0  0  0  0  0  0  0
    3.9839    0.6718    0.0000 O   0  0  0  0  0  0  0  0  0  0  0  0
    3.1490   -1.7885    0.0000 O   0  0  0  0  0  0  0  0  0  0  0  0
  1  2  1  0
  2  3  1  0
  3  4  1  0
  4  5  1  0
  5  6  1  6
  6  7  1  0
  6  8  1  0
  6  9  1  0
  2 10  1  6
 10 11  2  0
 10 12  1  0
  5  1  1  0
M  END
>  <rName>  (1450) 
D-Pro_5SCF3

>  <PQ_SYMBOL>  (1450) 
D-Pro_5SCF3

>  <FULL_NAME>  (1450) 
(5S)-5-Trifluoromethyl-D-proline

>  <IUPAC_CONDENSED>  (1450) 
D-Pro(5S-CF3)

>  <IUPAC>  (1450) 
(2R,5S)-5-(trifluoromethyl)pyrrolidine-2-carboxylic acid

>  <TYPE>  (1450) 
Backbone

>  <CLASS>  (1450) 
alpha

>  <ANALOG>  (1450) 
Pro

>  <MOL_WT>  (1450) 
183.129

>  <LOGP>  (1450) 
0.7538999999999998

>  <TPSA>  (1450) 
49.33

>  <POPULARITY>  (1450) 
3.1

>  <PROTECTED>  (1450) 
TRUE

>  <SMILES>  (1450) 
N1[C@H](CC[C@H]1C(F)(F)F)C(=O)O

>  <INCHIKEY>  (1450) 
SWUGLMJWGYDVDN-DMTCNVIQSA-N

$$$$
D-Pro_5SPh
     RDKit          2D

 14 15  0  0  0  0  0  0  0  0999 V2000
   -1.0138    0.6092    0.0000 N   0  0  0  0  0  0  0  0  0  0  0  0
   -2.3178   -0.1320    0.0000 C   0  0  0  0  0  0  0  0  0  0  0  0
   -2.0158   -1.6013    0.0000 C   0  0  0  0  0  0  0  0  0  0  0  0
   -0.5251   -1.7681    0.0000 C   0  0  0  0  0  0  0  0  0  0  0  0
    0.0942   -0.4019    0.0000 C   0  0  0  0  0  0  0  0  0  0  0  0
    1.5635   -0.0999    0.0000 C   0  0  0  0  0  0  0  0  0  0  0  0
    2.5597   -1.2213    0.0000 C   0  0  0  0  0  0  0  0  0  0  0  0
    4.0290   -0.9192    0.0000 C   0  0  0  0  0  0  0  0  0  0  0  0
    4.5020    0.5042    0.0000 C   0  0  0  0  0  0  0  0  0  0  0  0
    3.5058    1.6256    0.0000 C   0  0  0  0  0  0  0  0  0  0  0  0
    2.0365    1.3236    0.0000 C   0  0  0  0  0  0  0  0  0  0  0  0
   -3.6840    0.4872    0.0000 C   0  0  0  0  0  0  0  0  0  0  0  0
   -4.9034   -0.3863    0.0000 O   0  0  0  0  0  0  0  0  0  0  0  0
   -3.8308    1.9800    0.0000 O   0  0  0  0  0  0  0  0  0  0  0  0
  1  2  1  0
  2  3  1  0
  3  4  1  0
  4  5  1  0
  5  6  1  6
  6  7  2  0
  7  8  1  0
  8  9  2  0
  9 10  1  0
 10 11  2  0
  2 12  1  6
 12 13  2  0
 12 14  1  0
  5  1  1  0
 11  6  1  0
M  END
>  <rName>  (1451) 
D-Pro_5SPh

>  <PQ_SYMBOL>  (1451) 
D-Pro_5SPh

>  <FULL_NAME>  (1451) 
(2R,5S)-5-phenylpyrrolidine-2-carboxylic acid

>  <IUPAC_CONDENSED>  (1451) 
D-Pro(5S-Ph)

>  <IUPAC>  (1451) 
(2R,5S)-5-phenylpyrrolidine-2-carboxylic acid

>  <TYPE>  (1451) 
Backbone

>  <CLASS>  (1451) 
alpha

>  <ANALOG>  (1451) 
Pro

>  <MOL_WT>  (1451) 
191.23

>  <LOGP>  (1451) 
1.5642999999999998

>  <TPSA>  (1451) 
49.33

>  <POPULARITY>  (1451) 
14.4

>  <PROTECTED>  (1451) 
TRUE

>  <SMILES>  (1451) 
N1[C@H](CC[C@H]1c2(ccccc2))C(=O)O

>  <INCHIKEY>  (1451) 
SMWADGDVGCZIGK-VHSXEESVSA-N

$$$$
D-Pro_5SPh_4Br
     RDKit          2D

 15 16  0  0  0  0  0  0  0  0999 V2000
   -1.3934    0.6004    0.0000 N   0  0  0  0  0  0  0  0  0  0  0  0
   -2.7205   -0.0987    0.0000 C   0  0  0  0  0  0  0  0  0  0  0  0
   -2.4656   -1.5769    0.0000 C   0  0  0  0  0  0  0  0  0  0  0  0
   -0.9810   -1.7913    0.0000 C   0  0  0  0  0  0  0  0  0  0  0  0
   -0.3183   -0.4457    0.0000 C   0  0  0  0  0  0  0  0  0  0  0  0
    1.1599   -0.1908    0.0000 C   0  0  0  0  0  0  0  0  0  0  0  0
    2.1197   -1.3436    0.0000 C   0  0  0  0  0  0  0  0  0  0  0  0
    3.5978   -1.0887    0.0000 C   0  0  0  0  0  0  0  0  0  0  0  0
    4.1163    0.3188    0.0000 C   0  0  0  0  0  0  0  0  0  0  0  0
    5.5945    0.5737    0.0000 Br  0  0  0  0  0  0  0  0  0  0  0  0
    3.1565    1.4716    0.0000 C   0  0  0  0  0  0  0  0  0  0  0  0
    1.6783    1.2167    0.0000 C   0  0  0  0  0  0  0  0  0  0  0  0
   -4.0661    0.5640    0.0000 C   0  0  0  0  0  0  0  0  0  0  0  0
   -5.3129   -0.2701    0.0000 O   0  0  0  0  0  0  0  0  0  0  0  0
   -4.1650    2.0607    0.0000 O   0  0  0  0  0  0  0  0  0  0  0  0
  1  2  1  0
  2  3  1  0
  3  4  1  0
  4  5  1  0
  5  6  1  6
  6  7  1  0
  7  8  2  0
  8  9  1  0
  9 10  1  0
  9 11  2  0
 11 12  1  0
  2 13  1  6
 13 14  2  0
 13 15  1  0
  5  1  1  0
 12  6  2  0
M  END
>  <rName>  (1452) 
D-Pro_5SPh_4Br

>  <PQ_SYMBOL>  (1452) 
D-Pro_5SPh_4Br

>  <FULL_NAME>  (1452) 
D-Pro(5S-Ph(4-Br))

>  <IUPAC_CONDENSED>  (1452) 
D-Pro(5S-Ph(4-Br))

>  <IUPAC>  (1452) 
(2R,5S)-5-(4-bromophenyl)pyrrolidine-2-carboxylic acid

>  <TYPE>  (1452) 
Backbone

>  <CLASS>  (1452) 
alpha

>  <ANALOG>  (1452) 
Pro

>  <MOL_WT>  (1452) 
270.126

>  <LOGP>  (1452) 
2.3267999999999995

>  <TPSA>  (1452) 
49.33

>  <POPULARITY>  (1452) 
2.2

>  <PROTECTED>  (1452) 
TRUE

>  <SMILES>  (1452) 
N1[C@H](CC[C@H]1c2(ccc(Br)cc2))C(=O)O

>  <INCHIKEY>  (1452) 
PLJDZKZFSUVBSQ-VHSXEESVSA-N

$$$$
D-Pro_b_bdiMe
     RDKit          2D

 10 10  0  0  0  0  0  0  0  0999 V2000
   -0.3795   -1.7836    0.0000 N   0  0  0  0  0  0  0  0  0  0  0  0
    0.2354   -0.4154    0.0000 C   0  0  0  0  0  0  0  0  0  0  0  0
   -0.8759    0.5922    0.0000 C   0  0  0  0  0  0  0  0  0  0  0  0
   -1.7533    1.8087    0.0000 C   0  0  0  0  0  0  0  0  0  0  0  0
    0.2423    1.5920    0.0000 C   0  0  0  0  0  0  0  0  0  0  0  0
   -2.1775   -0.1533    0.0000 C   0  0  0  0  0  0  0  0  0  0  0  0
   -1.8707   -1.6216    0.0000 C   0  0  0  0  0  0  0  0  0  0  0  0
    1.7037   -0.1086    0.0000 C   0  0  0  0  0  0  0  0  0  0  0  0
    2.1721    1.3164    0.0000 O   0  0  0  0  0  0  0  0  0  0  0  0
    2.7035   -1.2268    0.0000 O   0  0  0  0  0  0  0  0  0  0  0  0
  1  2  1  0
  2  3  1  0
  3  4  1  0
  3  5  1  0
  3  6  1  0
  6  7  1  0
  2  8  1  6
  8  9  2  0
  8 10  1  0
  7  1  1  0
M  END
>  <rName>  (1453) 
D-Pro_b_bdiMe

>  <PQ_SYMBOL>  (1453) 
D-Pro_b_bdiMe

>  <FULL_NAME>  (1453) 
(2R)-3,3-Dimethylpyrrolidine-2-carboxylic acid

>  <IUPAC_CONDENSED>  (1453) 
D-Pro(b,b-diMe)

>  <IUPAC>  (1453) 
(2R)-3,3-dimethylpyrrolidine-2-carboxylic acid

>  <TYPE>  (1453) 
Backbone

>  <CLASS>  (1453) 
alpha

>  <ANALOG>  (1453) 
Pro

>  <MOL_WT>  (1453) 
143.186

>  <LOGP>  (1453) 
0.4591

>  <TPSA>  (1453) 
49.33

>  <POPULARITY>  (1453) 
2.2

>  <PROTECTED>  (1453) 
TRUE

>  <SMILES>  (1453) 
N1[C@H](C(C)(C)CC1)C(=O)O

>  <INCHIKEY>  (1453) 
JQFLYFRHDIHZFZ-YFKPBYRVSA-N

$$$$
D-Pyr
     RDKit          2D

  9  9  0  0  0  0  0  0  0  0999 V2000
   -3.3052   -0.8467    0.0000 O   0  0  0  0  0  0  0  0  0  0  0  0
   -1.9481   -0.2077    0.0000 C   0  0  0  0  0  0  0  0  0  0  0  0
   -0.6334   -0.9301    0.0000 N   0  0  0  0  0  0  0  0  0  0  0  0
    0.4598    0.0969    0.0000 C   0  0  0  0  0  0  0  0  0  0  0  0
   -0.1792    1.4541    0.0000 C   0  0  0  0  0  0  0  0  0  0  0  0
   -1.6673    1.2657    0.0000 C   0  0  0  0  0  0  0  0  0  0  0  0
    1.9333   -0.1838    0.0000 C   0  0  0  0  0  0  0  0  0  0  0  0
    2.9132    0.9519    0.0000 O   0  0  0  0  0  0  0  0  0  0  0  0
    2.4269   -1.6003    0.0000 O   0  0  0  0  0  0  0  0  0  0  0  0
  1  2  2  0
  2  3  1  0
  3  4  1  0
  4  5  1  0
  5  6  1  0
  4  7  1  6
  7  8  2  0
  7  9  1  0
  6  2  1  0
M  END
>  <rName>  (1454) 
D-Pyr

>  <PQ_SYMBOL>  (1454) 
D-Pyr

>  <FULL_NAME>  (1454) 
D-Pyroglutamic acid

>  <IUPAC_CONDENSED>  (1454) 
D-Pyr

>  <IUPAC>  (1454) 
(2R)-5-oxopyrrolidine-2-carboxylic acid

>  <TYPE>  (1454) 
N-term cap

>  <CLASS>  (1454) 
n_cap

>  <ANALOG>  (1454) 
X

>  <MOL_WT>  (1454) 
129.115

>  <LOGP>  (1454) 
-0.6504000000000005

>  <TPSA>  (1454) 
66.4

>  <POPULARITY>  (1454) 
15.2

>  <PROTECTED>  (1454) 
FALSE

>  <SMILES>  (1454) 
O=C1N[C@H](CC1)C(=O)O

>  <INCHIKEY>  (1454) 
ODHCTXKNWHHXJC-GSVOUGTGSA-N

$$$$
D-SeMet
     RDKit          2D

  9  8  0  0  0  0  0  0  0  0999 V2000
    0.7616   -1.8791    0.0000 N   0  0  0  0  0  0  0  0  0  0  0  0
    0.8459   -0.3815    0.0000 C   0  0  0  0  0  0  0  0  0  0  0  0
   -0.4089    0.4403    0.0000 C   0  0  0  0  0  0  0  0  0  0  0  0
   -1.7480   -0.2354    0.0000 C   0  0  0  0  0  0  0  0  0  0  0  0
   -3.0029    0.5864    0.0000 Se  0  0  0  0  0  2  0  0  0  0  0  0
   -4.3420   -0.0894    0.0000 C   0  0  0  0  0  0  0  0  0  0  0  0
    2.1851    0.2943    0.0000 C   0  0  0  0  0  0  0  0  0  0  0  0
    2.2694    1.7919    0.0000 O   0  0  0  0  0  0  0  0  0  0  0  0
    3.4399   -0.5275    0.0000 O   0  0  0  0  0  0  0  0  0  0  0  0
  2  1  1  6
  2  3  1  0
  3  4  1  0
  4  5  1  0
  5  6  1  0
  2  7  1  0
  7  8  2  0
  7  9  1  0
M  END
>  <rName>  (1455) 
D-SeMet

>  <PQ_SYMBOL>  (1455) 
D-SeMet

>  <FULL_NAME>  (1455) 
(R)-2-amino-4-(methylselanyl)butanoic acid

>  <IUPAC_CONDENSED>  (1455) 
D-SeMet

>  <IUPAC>  (1455) 
(2R)-2-amino-4-(methylselanyl)butanoic acid

>  <TYPE>  (1455) 
Backbone

>  <CLASS>  (1455) 
alpha

>  <ANALOG>  (1455) 
Met

>  <MOL_WT>  (1455) 
196.10799999999998

>  <LOGP>  (1455) 
-0.041000000000000425

>  <TPSA>  (1455) 
63.32000000000001

>  <POPULARITY>  (1455) 
4.5

>  <PROTECTED>  (1455) 
TRUE

>  <SMILES>  (1455) 
N[C@H](CC[Se]C)C(=O)O

>  <INCHIKEY>  (1455) 
RJFAYQIBOAGBLC-SCSAIBSYSA-N

$$$$
D-Sec
     RDKit          2D

  7  6  0  0  0  0  0  0  0  0999 V2000
    0.5797   -1.7367    0.0000 N   0  0  0  0  0  0  0  0  0  0  0  0
    0.2514   -0.2730    0.0000 C   0  0  0  0  0  0  0  0  0  0  0  0
    1.3548    0.7431    0.0000 C   0  0  0  0  0  0  0  0  0  0  0  0
    2.7865    0.2956    0.0000 Se  0  0  0  0  0  2  0  0  0  0  0  0
   -1.1803    0.1745    0.0000 C   0  0  0  0  0  0  0  0  0  0  0  0
   -1.5086    1.6381    0.0000 O   0  0  0  0  0  0  0  0  0  0  0  0
   -2.2837   -0.8417    0.0000 O   0  0  0  0  0  0  0  0  0  0  0  0
  2  1  1  1
  2  3  1  0
  3  4  1  0
  2  5  1  0
  5  6  2  0
  5  7  1  0
M  END
>  <rName>  (1456) 
D-Sec

>  <PQ_SYMBOL>  (1456) 
D-Sec

>  <FULL_NAME>  (1456) 
3-Selenyl-D-Alanine

>  <IUPAC_CONDENSED>  (1456) 
D-Sec

>  <IUPAC>  (1456) 
(2S)-2-amino-3-selanylpropanoic acid

>  <TYPE>  (1456) 
Backbone

>  <CLASS>  (1456) 
alpha

>  <ANALOG>  (1456) 
Cys

>  <MOL_WT>  (1456) 
168.054

>  <LOGP>  (1456) 
-1.2826000000000002

>  <TPSA>  (1456) 
63.32000000000001

>  <POPULARITY>  (1456) 
5.8

>  <PROTECTED>  (1456) 
TRUE

>  <SMILES>  (1456) 
N[C@H](C[SeH])C(=O)O

>  <INCHIKEY>  (1456) 
ZKZBPNGNEQAJSX-UWTATZPHSA-N

$$$$
D-Ser_Ac
     RDKit          2D

 10  9  0  0  0  0  0  0  0  0999 V2000
   -1.2717    1.9622    0.0000 N   0  0  0  0  0  0  0  0  0  0  0  0
   -1.1946    0.4642    0.0000 C   0  0  0  0  0  0  0  0  0  0  0  0
    0.1413   -0.2180    0.0000 C   0  0  0  0  0  0  0  0  0  0  0  0
    1.4001    0.5978    0.0000 O   0  0  0  0  0  0  0  0  0  0  0  0
    2.7359   -0.0845    0.0000 C   0  0  0  0  0  0  0  0  0  0  0  0
    2.8131   -1.5825    0.0000 O   0  0  0  0  0  0  0  0  0  0  0  0
    3.9947    0.7313    0.0000 C   0  0  0  0  0  0  0  0  0  0  0  0
   -2.4533   -0.3516    0.0000 C   0  0  0  0  0  0  0  0  0  0  0  0
   -2.3762   -1.8496    0.0000 O   0  0  0  0  0  0  0  0  0  0  0  0
   -3.7892    0.3306    0.0000 O   0  0  0  0  0  0  0  0  0  0  0  0
  2  1  1  6
  2  3  1  0
  3  4  1  0
  4  5  1  0
  5  6  2  0
  5  7  1  0
  2  8  1  0
  8  9  2  0
  8 10  1  0
M  END
>  <rName>  (1457) 
D-Ser_Ac

>  <PQ_SYMBOL>  (1457) 
D-Ser_Ac

>  <FULL_NAME>  (1457) 
O-Acetyl-D-Serine

>  <IUPAC_CONDENSED>  (1457) 
D-Ser(Ac)

>  <IUPAC>  (1457) 
(2R)-2-amino-3-(acetoxy)propanoic acid

>  <TYPE>  (1457) 
Backbone

>  <CLASS>  (1457) 
alpha

>  <ANALOG>  (1457) 
Ser

>  <MOL_WT>  (1457) 
147.13

>  <LOGP>  (1457) 
-1.0385999999999997

>  <TPSA>  (1457) 
89.62

>  <POPULARITY>  (1457) 
8.2

>  <PROTECTED>  (1457) 
TRUE

>  <SMILES>  (1457) 
N[C@H](COC(=O)C)C(=O)O

>  <INCHIKEY>  (1457) 
VZXPDPZARILFQX-SCSAIBSYSA-N

$$$$
D-Ser_Bn
     RDKit          2D

 14 14  0  0  0  0  0  0  0  0999 V2000
   -2.7125    1.8435    0.0000 N   0  0  0  0  0  0  0  0  0  0  0  0
   -2.9490    0.3623    0.0000 C   0  0  0  0  0  0  0  0  0  0  0  0
   -1.7844   -0.5831    0.0000 C   0  0  0  0  0  0  0  0  0  0  0  0
   -0.3834   -0.0473    0.0000 O   0  0  0  0  0  0  0  0  0  0  0  0
    0.7812   -0.9927    0.0000 C   0  0  0  0  0  0  0  0  0  0  0  0
    2.1822   -0.4569    0.0000 C   0  0  0  0  0  0  0  0  0  0  0  0
    2.4187    1.0244    0.0000 C   0  0  0  0  0  0  0  0  0  0  0  0
    3.8197    1.5602    0.0000 C   0  0  0  0  0  0  0  0  0  0  0  0
    4.9842    0.6148    0.0000 C   0  0  0  0  0  0  0  0  0  0  0  0
    4.7478   -0.8664    0.0000 C   0  0  0  0  0  0  0  0  0  0  0  0
    3.3467   -1.4023    0.0000 C   0  0  0  0  0  0  0  0  0  0  0  0
   -4.3500   -0.1735    0.0000 C   0  0  0  0  0  0  0  0  0  0  0  0
   -4.5865   -1.6548    0.0000 O   0  0  0  0  0  0  0  0  0  0  0  0
   -5.5146    0.7719    0.0000 O   0  0  0  0  0  0  0  0  0  0  0  0
  2  1  1  6
  2  3  1  0
  3  4  1  0
  4  5  1  0
  5  6  1  0
  6  7  2  0
  7  8  1  0
  8  9  2  0
  9 10  1  0
 10 11  2  0
  2 12  1  0
 12 13  2  0
 12 14  1  0
 11  6  1  0
M  END
>  <rName>  (1458) 
D-Ser_Bn

>  <PQ_SYMBOL>  (1458) 
D-Ser_Bn

>  <FULL_NAME>  (1458) 
O-Benzyl-D-serine

>  <IUPAC_CONDENSED>  (1458) 
D-Ser(Bn)

>  <IUPAC>  (1458) 
(2R)-2-amino-3-benzyloxypropanoic acid

>  <TYPE>  (1458) 
Backbone

>  <CLASS>  (1458) 
alpha

>  <ANALOG>  (1458) 
Ser

>  <MOL_WT>  (1458) 
195.218

>  <LOGP>  (1458) 
0.6151

>  <TPSA>  (1458) 
72.55

>  <POPULARITY>  (1458) 
17.1

>  <PROTECTED>  (1458) 
TRUE

>  <SMILES>  (1458) 
N[C@H](COCc1(ccccc1))C(=O)O

>  <INCHIKEY>  (1458) 
IDGQXGPQOGUGIX-SECBINFHSA-N

$$$$
D-Ser_CF3
     RDKit          2D

 11 10  0  0  0  0  0  0  0  0999 V2000
    1.5275    1.9644    0.0000 N   0  0  0  0  0  0  0  0  0  0  0  0
    1.4450    0.4666    0.0000 C   0  0  0  0  0  0  0  0  0  0  0  0
    0.1067   -0.2107    0.0000 C   0  0  0  0  0  0  0  0  0  0  0  0
   -1.1491    0.6096    0.0000 O   0  0  0  0  0  0  0  0  0  0  0  0
   -2.4875   -0.0678    0.0000 C   0  0  0  0  0  0  0  0  0  0  0  0
   -3.8258   -0.7452    0.0000 F   0  0  0  0  0  0  0  0  0  0  0  0
   -3.1649    1.2706    0.0000 F   0  0  0  0  0  0  0  0  0  0  0  0
   -1.8101   -1.4061    0.0000 F   0  0  0  0  0  0  0  0  0  0  0  0
    2.7008   -0.3537    0.0000 C   0  0  0  0  0  0  0  0  0  0  0  0
    2.6183   -1.8514    0.0000 O   0  0  0  0  0  0  0  0  0  0  0  0
    4.0391    0.3237    0.0000 O   0  0  0  0  0  0  0  0  0  0  0  0
  2  1  1  1
  2  3  1  0
  3  4  1  0
  4  5  1  0
  5  6  1  0
  5  7  1  0
  5  8  1  0
  2  9  1  0
  9 10  2  0
  9 11  1  0
M  END
>  <rName>  (1459) 
D-Ser_CF3

>  <PQ_SYMBOL>  (1459) 
D-Ser_CF3

>  <FULL_NAME>  (1459) 
(2R)-2-amino-3-(trifluoromethoxy)propanoic acid

>  <IUPAC_CONDENSED>  (1459) 
D-Ser(CF3)

>  <IUPAC>  (1459) 
(2R)-2-amino-3-((trifluoromethyl)oxy)propanoic acid

>  <TYPE>  (1459) 
Backbone

>  <CLASS>  (1459) 
alpha

>  <ANALOG>  (1459) 
Ser

>  <MOL_WT>  (1459) 
173.09

>  <LOGP>  (1459) 
-0.06529999999999997

>  <TPSA>  (1459) 
72.55

>  <POPULARITY>  (1459) 
2.9

>  <PROTECTED>  (1459) 
TRUE

>  <SMILES>  (1459) 
N[C@H](COC(F)(F)F)C(=O)O

>  <INCHIKEY>  (1459) 
BGDJXHSDJCFWPX-UWTATZPHSA-N

$$$$
D-Ser_Et
     RDKit          2D

  9  8  0  0  0  0  0  0  0  0999 V2000
    0.7616   -1.8791    0.0000 N   0  0  0  0  0  0  0  0  0  0  0  0
    0.8459   -0.3815    0.0000 C   0  0  0  0  0  0  0  0  0  0  0  0
   -0.4089    0.4403    0.0000 C   0  0  0  0  0  0  0  0  0  0  0  0
   -1.7480   -0.2354    0.0000 O   0  0  0  0  0  0  0  0  0  0  0  0
   -3.0029    0.5864    0.0000 C   0  0  0  0  0  0  0  0  0  0  0  0
   -4.3420   -0.0894    0.0000 C   0  0  0  0  0  0  0  0  0  0  0  0
    2.1851    0.2943    0.0000 C   0  0  0  0  0  0  0  0  0  0  0  0
    2.2694    1.7919    0.0000 O   0  0  0  0  0  0  0  0  0  0  0  0
    3.4399   -0.5275    0.0000 O   0  0  0  0  0  0  0  0  0  0  0  0
  2  1  1  6
  2  3  1  0
  3  4  1  0
  4  5  1  0
  5  6  1  0
  2  7  1  0
  7  8  2  0
  7  9  1  0
M  END
>  <rName>  (1460) 
D-Ser_Et

>  <PQ_SYMBOL>  (1460) 
D-Ser_Et

>  <FULL_NAME>  (1460) 
(2R)-2-Amino-3-ethoxypropanoic acid

>  <IUPAC_CONDENSED>  (1460) 
D-Ser(Et)

>  <IUPAC>  (1460) 
(2R)-2-amino-3-ethoxypropanoic acid

>  <TYPE>  (1460) 
Backbone

>  <CLASS>  (1460) 
alpha

>  <ANALOG>  (1460) 
Ser

>  <MOL_WT>  (1460) 
133.147

>  <LOGP>  (1460) 
-0.5652000000000004

>  <TPSA>  (1460) 
72.55

>  <POPULARITY>  (1460) 
12.6

>  <PROTECTED>  (1460) 
TRUE

>  <SMILES>  (1460) 
N[C@H](COCC)C(=O)O

>  <INCHIKEY>  (1460) 
AFGCRUGTZPDWSF-SCSAIBSYSA-N

$$$$
D-Ser_EtOEtOEtN3
     RDKit          2D

 18 17  0  0  0  0  0  0  0  0999 V2000
   -6.2387   -1.9261    0.0000 N   0  0  0  0  0  0  0  0  0  0  0  0
   -6.2710   -0.4265    0.0000 C   0  0  0  0  0  0  0  0  0  0  0  0
   -4.9883    0.3513    0.0000 C   0  0  0  0  0  0  0  0  0  0  0  0
   -3.6735   -0.3707    0.0000 O   0  0  0  0  0  0  0  0  0  0  0  0
   -2.3909    0.4071    0.0000 C   0  0  0  0  0  0  0  0  0  0  0  0
   -1.0760   -0.3149    0.0000 C   0  0  0  0  0  0  0  0  0  0  0  0
    0.2066    0.4629    0.0000 O   0  0  0  0  0  0  0  0  0  0  0  0
    1.5215   -0.2590    0.0000 C   0  0  0  0  0  0  0  0  0  0  0  0
    2.8041    0.5187    0.0000 C   0  0  0  0  0  0  0  0  0  0  0  0
    4.1189   -0.2032    0.0000 O   0  0  0  0  0  0  0  0  0  0  0  0
    5.4016    0.5745    0.0000 C   0  0  0  0  0  0  0  0  0  0  0  0
    6.7164   -0.1474    0.0000 C   0  0  0  0  0  0  0  0  0  0  0  0
    7.9990    0.6303    0.0000 N   0  0  0  0  0  0  0  0  0  0  0  0
    9.3139   -0.0916    0.0000 N   0  0  0  0  0  0  0  0  0  0  0  0
   10.6287   -0.8135    0.0000 N   0  0  0  0  0  0  0  0  0  0  0  0
   -7.5858    0.2955    0.0000 C   0  0  0  0  0  0  0  0  0  0  0  0
   -7.6180    1.7951    0.0000 O   0  0  0  0  0  0  0  0  0  0  0  0
   -8.8684   -0.4823    0.0000 O   0  0  0  0  0  0  0  0  0  0  0  0
  2  1  1  1
  2  3  1  0
  3  4  1  0
  4  5  1  0
  5  6  1  0
  6  7  1  0
  7  8  1  0
  8  9  1  0
  9 10  1  0
 10 11  1  0
 11 12  1  0
 12 13  1  0
 13 14  2  0
 14 15  2  0
  2 16  1  0
 16 17  2  0
 16 18  1  0
M  CHG  2  14   1  15  -1
M  END
>  <rName>  (1461) 
D-Ser_EtOEtOEtN3

>  <PQ_SYMBOL>  (1461) 
D-Ser_EtOEtOEtN3

>  <FULL_NAME>  (1461) 
O-(2-(2-(2-azidoethoxy)ethoxy)ethyl)-D-serine

>  <IUPAC_CONDENSED>  (1461) 
D-Ser(EtOEtOEtN3)

>  <IUPAC>  (1461) 
(2R)-2-amino-3-((2-((2-((2-azidoethyl)oxy)ethyl)oxy)ethyl)oxy)propanoic acid

>  <TYPE>  (1461) 
Backbone

>  <CLASS>  (1461) 
alpha

>  <ANALOG>  (1461) 
Ser

>  <MOL_WT>  (1461) 
262.26599999999996

>  <LOGP>  (1461) 
-0.2416000000000001

>  <TPSA>  (1461) 
139.77

>  <POPULARITY>  (1461) 
4.0

>  <PROTECTED>  (1461) 
TRUE

>  <SMILES>  (1461) 
N[C@H](COCCOCCOCCN=[N+]=[N-])C(=O)O

>  <INCHIKEY>  (1461) 
BHNVZMHTTIZOKQ-MRVPVSSYSA-N

$$$$
D-Ser_EtOMe
     RDKit          2D

 11 10  0  0  0  0  0  0  0  0999 V2000
    1.9630   -1.8884    0.0000 N   0  0  0  0  0  0  0  0  0  0  0  0
    1.9989   -0.3888    0.0000 C   0  0  0  0  0  0  0  0  0  0  0  0
    0.7181    0.3920    0.0000 C   0  0  0  0  0  0  0  0  0  0  0  0
   -0.5985   -0.3267    0.0000 O   0  0  0  0  0  0  0  0  0  0  0  0
   -1.8792    0.4541    0.0000 C   0  0  0  0  0  0  0  0  0  0  0  0
   -3.1958   -0.2646    0.0000 C   0  0  0  0  0  0  0  0  0  0  0  0
   -4.4765    0.5162    0.0000 O   0  0  0  0  0  0  0  0  0  0  0  0
   -5.7931   -0.2025    0.0000 C   0  0  0  0  0  0  0  0  0  0  0  0
    3.3155    0.3299    0.0000 C   0  0  0  0  0  0  0  0  0  0  0  0
    3.3513    1.8295    0.0000 O   0  0  0  0  0  0  0  0  0  0  0  0
    4.5962   -0.4509    0.0000 O   0  0  0  0  0  0  0  0  0  0  0  0
  2  1  1  6
  2  3  1  0
  3  4  1  0
  4  5  1  0
  5  6  1  0
  6  7  1  0
  7  8  1  0
  2  9  1  0
  9 10  2  0
  9 11  1  0
M  END
>  <rName>  (1462) 
D-Ser_EtOMe

>  <PQ_SYMBOL>  (1462) 
D-Ser_EtOMe

>  <FULL_NAME>  (1462) 
(2R)-2-amino-3-(2-methoxyethoxy)propanoic acid

>  <IUPAC_CONDENSED>  (1462) 
D-Ser(EtOMe)

>  <IUPAC>  (1462) 
(2R)-2-amino-3-((2-methoxyethyl)oxy)propanoic acid

>  <TYPE>  (1462) 
Backbone

>  <CLASS>  (1462) 
alpha

>  <ANALOG>  (1462) 
Ser

>  <MOL_WT>  (1462) 
163.173

>  <LOGP>  (1462) 
-0.9386999999999996

>  <TPSA>  (1462) 
81.78

>  <POPULARITY>  (1462) 
5.0

>  <PROTECTED>  (1462) 
TRUE

>  <SMILES>  (1462) 
N[C@H](COCCOC)C(=O)O

>  <INCHIKEY>  (1462) 
ZOMRDSPJEFYHEH-RXMQYKEDSA-N

$$$$
D-Ser_Me
     RDKit          2D

  8  7  0  0  0  0  0  0  0  0999 V2000
   -0.2517   -1.8862    0.0000 N   0  0  0  0  0  0  0  0  0  0  0  0
   -0.3100   -0.3873    0.0000 C   0  0  0  0  0  0  0  0  0  0  0  0
    0.9590    0.4126    0.0000 C   0  0  0  0  0  0  0  0  0  0  0  0
    2.2862   -0.2864    0.0000 O   0  0  0  0  0  0  0  0  0  0  0  0
    3.5551    0.5134    0.0000 C   0  0  0  0  0  0  0  0  0  0  0  0
   -1.6371    0.3117    0.0000 C   0  0  0  0  0  0  0  0  0  0  0  0
   -1.6954    1.8105    0.0000 O   0  0  0  0  0  0  0  0  0  0  0  0
   -2.9061   -0.4882    0.0000 O   0  0  0  0  0  0  0  0  0  0  0  0
  2  1  1  1
  2  3  1  0
  3  4  1  0
  4  5  1  0
  2  6  1  0
  6  7  2  0
  6  8  1  0
M  END
>  <rName>  (1463) 
D-Ser_Me

>  <PQ_SYMBOL>  (1463) 
D-Ser_Me

>  <FULL_NAME>  (1463) 
O-Methyl-D-Serine

>  <IUPAC_CONDENSED>  (1463) 
D-Ser(Me)

>  <IUPAC>  (1463) 
(2R)-2-amino-3-methoxypropanoic acid

>  <TYPE>  (1463) 
Backbone

>  <CLASS>  (1463) 
alpha

>  <ANALOG>  (1463) 
Ser

>  <MOL_WT>  (1463) 
119.11999999999998

>  <LOGP>  (1463) 
-0.9552999999999998

>  <TPSA>  (1463) 
72.55

>  <POPULARITY>  (1463) 
15.3

>  <PROTECTED>  (1463) 
TRUE

>  <SMILES>  (1463) 
N[C@H](COC)C(=O)O

>  <INCHIKEY>  (1463) 
KNTFCRCCPLEUQZ-GSVOUGTGSA-N

$$$$
D-Ser_PO3H2
     RDKit          2D

 11 10  0  0  0  0  0  0  0  0999 V2000
    1.5275    1.9644    0.0000 N   0  0  0  0  0  0  0  0  0  0  0  0
    1.4450    0.4666    0.0000 C   0  0  0  0  0  0  0  0  0  0  0  0
    0.1067   -0.2107    0.0000 C   0  0  0  0  0  0  0  0  0  0  0  0
   -1.1491    0.6096    0.0000 O   0  0  0  0  0  0  0  0  0  0  0  0
   -2.4875   -0.0678    0.0000 P   0  0  0  0  0  0  0  0  0  0  0  0
   -3.1649    1.2706    0.0000 O   0  0  0  0  0  0  0  0  0  0  0  0
   -1.8101   -1.4061    0.0000 O   0  0  0  0  0  0  0  0  0  0  0  0
   -3.8258   -0.7452    0.0000 O   0  0  0  0  0  0  0  0  0  0  0  0
    2.7008   -0.3537    0.0000 C   0  0  0  0  0  0  0  0  0  0  0  0
    2.6183   -1.8514    0.0000 O   0  0  0  0  0  0  0  0  0  0  0  0
    4.0391    0.3237    0.0000 O   0  0  0  0  0  0  0  0  0  0  0  0
  2  1  1  1
  2  3  1  0
  3  4  1  0
  4  5  1  0
  5  6  2  0
  5  7  1  0
  5  8  1  0
  2  9  1  0
  9 10  2  0
  9 11  1  0
M  END
>  <rName>  (1464) 
D-Ser_PO3H2

>  <PQ_SYMBOL>  (1464) 
D-Ser_PO3H2

>  <FULL_NAME>  (1464) 
O-Phospho-D-Serine

>  <IUPAC_CONDENSED>  (1464) 
D-Ser(PO3H2)

>  <IUPAC>  (1464) 
(2R)-2-amino-3-hydroxy-3-oxopropyl dihydrogen phosphate

>  <TYPE>  (1464) 
Backbone

>  <CLASS>  (1464) 
alpha

>  <ANALOG>  (1464) 
Ser

>  <MOL_WT>  (1464) 
185.072

>  <LOGP>  (1464) 
-1.4924000000000002

>  <TPSA>  (1464) 
130.07999999999998

>  <POPULARITY>  (1464) 
11.3

>  <PROTECTED>  (1464) 
TRUE

>  <SMILES>  (1464) 
N[C@H](COP(=O)(O)O)C(=O)O

>  <INCHIKEY>  (1464) 
BZQFBWGGLXLEPQ-UWTATZPHSA-N

$$$$
D-Ser_Ph
     RDKit          2D

 13 13  0  0  0  0  0  0  0  0999 V2000
   -2.6715   -1.9340    0.0000 N   0  0  0  0  0  0  0  0  0  0  0  0
   -2.4130   -0.4565    0.0000 C   0  0  0  0  0  0  0  0  0  0  0  0
   -1.0042    0.0585    0.0000 C   0  0  0  0  0  0  0  0  0  0  0  0
    0.1462   -0.9041    0.0000 O   0  0  0  0  0  0  0  0  0  0  0  0
    1.5550   -0.3891    0.0000 C   0  0  0  0  0  0  0  0  0  0  0  0
    1.8135    1.0885    0.0000 C   0  0  0  0  0  0  0  0  0  0  0  0
    3.2223    1.6034    0.0000 C   0  0  0  0  0  0  0  0  0  0  0  0
    4.3727    0.6408    0.0000 C   0  0  0  0  0  0  0  0  0  0  0  0
    4.1143   -0.8367    0.0000 C   0  0  0  0  0  0  0  0  0  0  0  0
    2.7054   -1.3517    0.0000 C   0  0  0  0  0  0  0  0  0  0  0  0
   -3.5634    0.5061    0.0000 C   0  0  0  0  0  0  0  0  0  0  0  0
   -3.3050    1.9837    0.0000 O   0  0  0  0  0  0  0  0  0  0  0  0
   -4.9723   -0.0089    0.0000 O   0  0  0  0  0  0  0  0  0  0  0  0
  2  1  1  1
  2  3  1  0
  3  4  1  0
  4  5  1  0
  5  6  2  0
  6  7  1  0
  7  8  2  0
  8  9  1  0
  9 10  2  0
  2 11  1  0
 11 12  2  0
 11 13  1  0
 10  5  1  0
M  END
>  <rName>  (1465) 
D-Ser_Ph

>  <PQ_SYMBOL>  (1465) 
D-Ser_Ph

>  <FULL_NAME>  (1465) 
(R)-2-Amino-3-phenoxypropanoic acid

>  <IUPAC_CONDENSED>  (1465) 
D-Ser(Ph)

>  <IUPAC>  (1465) 
(2R)-2-amino-3-phenoxypropanoic acid

>  <TYPE>  (1465) 
Backbone

>  <CLASS>  (1465) 
alpha

>  <ANALOG>  (1465) 
Ser

>  <MOL_WT>  (1465) 
181.19099999999997

>  <LOGP>  (1465) 
0.4773

>  <TPSA>  (1465) 
72.55

>  <POPULARITY>  (1465) 
2.2

>  <PROTECTED>  (1465) 
TRUE

>  <SMILES>  (1465) 
N[C@H](COc1(ccccc1))C(=O)O

>  <INCHIKEY>  (1465) 
JQBDLDSXPJLCFK-MRVPVSSYSA-N

$$$$
D-Ser_Ph_2OMe
     RDKit          2D

 15 15  0  0  0  0  0  0  0  0999 V2000
   -2.7505   -1.7846    0.0000 N   0  0  0  0  0  0  0  0  0  0  0  0
   -2.6299   -0.2895    0.0000 C   0  0  0  0  0  0  0  0  0  0  0  0
   -1.2747    0.3536    0.0000 C   0  0  0  0  0  0  0  0  0  0  0  0
   -0.0402   -0.4984    0.0000 O   0  0  0  0  0  0  0  0  0  0  0  0
    1.3149    0.1447    0.0000 C   0  0  0  0  0  0  0  0  0  0  0  0
    1.4355    1.6399    0.0000 C   0  0  0  0  0  0  0  0  0  0  0  0
    2.7907    2.2830    0.0000 C   0  0  0  0  0  0  0  0  0  0  0  0
    4.0252    1.4310    0.0000 C   0  0  0  0  0  0  0  0  0  0  0  0
    3.9046   -0.0641    0.0000 C   0  0  0  0  0  0  0  0  0  0  0  0
    2.5495   -0.7073    0.0000 C   0  0  0  0  0  0  0  0  0  0  0  0
    2.4289   -2.2024    0.0000 O   0  0  0  0  0  0  0  0  0  0  0  0
    1.0737   -2.8455    0.0000 C   0  0  0  0  0  0  0  0  0  0  0  0
   -3.8644    0.5625    0.0000 C   0  0  0  0  0  0  0  0  0  0  0  0
   -3.7438    2.0577    0.0000 O   0  0  0  0  0  0  0  0  0  0  0  0
   -5.2195   -0.0806    0.0000 O   0  0  0  0  0  0  0  0  0  0  0  0
  2  1  1  1
  2  3  1  0
  3  4  1  0
  4  5  1  0
  5  6  2  0
  6  7  1  0
  7  8  2  0
  8  9  1  0
  9 10  2  0
 10 11  1  0
 11 12  1  0
  2 13  1  0
 13 14  2  0
 13 15  1  0
 10  5  1  0
M  END
>  <rName>  (1466) 
D-Ser_Ph_2OMe

>  <PQ_SYMBOL>  (1466) 
D-Ser_Ph_2OMe

>  <FULL_NAME>  (1466) 
(2R)-2-amino-3-(2-methoxyphenoxy)propanoic acid

>  <IUPAC_CONDENSED>  (1466) 
D-Ser(Ph(2-OMe))

>  <IUPAC>  (1466) 
(2R)-2-amino-3-(2-methoxyphenoxy)propanoic acid

>  <TYPE>  (1466) 
Backbone

>  <CLASS>  (1466) 
alpha

>  <ANALOG>  (1466) 
Ser

>  <MOL_WT>  (1466) 
211.21699999999996

>  <LOGP>  (1466) 
0.48589999999999994

>  <TPSA>  (1466) 
81.78

>  <POPULARITY>  (1466) 
2.2

>  <PROTECTED>  (1466) 
TRUE

>  <SMILES>  (1466) 
N[C@H](COc1(ccccc1OC))C(=O)O

>  <INCHIKEY>  (1466) 
DOJCGNVHMNQHBF-SSDOTTSWSA-N

$$$$
D-Ser_Ph_4Br
     RDKit          2D

 14 14  0  0  0  0  0  0  0  0999 V2000
   -3.1731   -1.8740    0.0000 N   0  0  0  0  0  0  0  0  0  0  0  0
   -2.8476   -0.4097    0.0000 C   0  0  0  0  0  0  0  0  0  0  0  0
   -1.4168    0.0405    0.0000 C   0  0  0  0  0  0  0  0  0  0  0  0
   -0.3114   -0.9735    0.0000 O   0  0  0  0  0  0  0  0  0  0  0  0
    1.1194   -0.5232    0.0000 C   0  0  0  0  0  0  0  0  0  0  0  0
    1.4449    0.9411    0.0000 C   0  0  0  0  0  0  0  0  0  0  0  0
    2.8757    1.3913    0.0000 C   0  0  0  0  0  0  0  0  0  0  0  0
    3.9810    0.3773    0.0000 C   0  0  0  0  0  0  0  0  0  0  0  0
    5.4119    0.8276    0.0000 Br  0  0  0  0  0  0  0  0  0  0  0  0
    3.6556   -1.0870    0.0000 C   0  0  0  0  0  0  0  0  0  0  0  0
    2.2247   -1.5372    0.0000 C   0  0  0  0  0  0  0  0  0  0  0  0
   -3.9530    0.6043    0.0000 C   0  0  0  0  0  0  0  0  0  0  0  0
   -3.6275    2.0685    0.0000 O   0  0  0  0  0  0  0  0  0  0  0  0
   -5.3838    0.1540    0.0000 O   0  0  0  0  0  0  0  0  0  0  0  0
  2  1  1  1
  2  3  1  0
  3  4  1  0
  4  5  1  0
  5  6  1  0
  6  7  2  0
  7  8  1  0
  8  9  1  0
  8 10  2  0
 10 11  1  0
  2 12  1  0
 12 13  2  0
 12 14  1  0
 11  5  2  0
M  END
>  <rName>  (1467) 
D-Ser_Ph_4Br

>  <PQ_SYMBOL>  (1467) 
D-Ser_Ph_4Br

>  <FULL_NAME>  (1467) 
O-(4-Bromophenyl)-D-serine

>  <IUPAC_CONDENSED>  (1467) 
D-Ser(Ph(4-Br))

>  <IUPAC>  (1467) 
(2R)-2-amino-3-(4-bromophenoxy)propanoic acid

>  <TYPE>  (1467) 
Backbone

>  <CLASS>  (1467) 
alpha

>  <ANALOG>  (1467) 
Ser

>  <MOL_WT>  (1467) 
260.087

>  <LOGP>  (1467) 
1.2398

>  <TPSA>  (1467) 
72.55

>  <POPULARITY>  (1467) 
2.2

>  <PROTECTED>  (1467) 
TRUE

>  <SMILES>  (1467) 
N[C@H](COc1(ccc(Br)cc1))C(=O)O

>  <INCHIKEY>  (1467) 
FPJXAVTUSPPJEN-MRVPVSSYSA-N

$$$$
D-Ser_Ph_4Cl
     RDKit          2D

 14 14  0  0  0  0  0  0  0  0999 V2000
   -3.1731   -1.8740    0.0000 N   0  0  0  0  0  0  0  0  0  0  0  0
   -2.8476   -0.4097    0.0000 C   0  0  0  0  0  0  0  0  0  0  0  0
   -1.4168    0.0405    0.0000 C   0  0  0  0  0  0  0  0  0  0  0  0
   -0.3114   -0.9735    0.0000 O   0  0  0  0  0  0  0  0  0  0  0  0
    1.1194   -0.5232    0.0000 C   0  0  0  0  0  0  0  0  0  0  0  0
    1.4449    0.9411    0.0000 C   0  0  0  0  0  0  0  0  0  0  0  0
    2.8757    1.3913    0.0000 C   0  0  0  0  0  0  0  0  0  0  0  0
    3.9810    0.3773    0.0000 C   0  0  0  0  0  0  0  0  0  0  0  0
    5.4119    0.8276    0.0000 Cl  0  0  0  0  0  0  0  0  0  0  0  0
    3.6556   -1.0870    0.0000 C   0  0  0  0  0  0  0  0  0  0  0  0
    2.2247   -1.5372    0.0000 C   0  0  0  0  0  0  0  0  0  0  0  0
   -3.9530    0.6043    0.0000 C   0  0  0  0  0  0  0  0  0  0  0  0
   -3.6275    2.0685    0.0000 O   0  0  0  0  0  0  0  0  0  0  0  0
   -5.3838    0.1540    0.0000 O   0  0  0  0  0  0  0  0  0  0  0  0
  2  1  1  1
  2  3  1  0
  3  4  1  0
  4  5  1  0
  5  6  1  0
  6  7  2  0
  7  8  1  0
  8  9  1  0
  8 10  2  0
 10 11  1  0
  2 12  1  0
 12 13  2  0
 12 14  1  0
 11  5  2  0
M  END
>  <rName>  (1468) 
D-Ser_Ph_4Cl

>  <PQ_SYMBOL>  (1468) 
D-Ser_Ph_4Cl

>  <FULL_NAME>  (1468) 
2-Fluoro-3-methyl-L-phenylalanine

>  <IUPAC_CONDENSED>  (1468) 
D-Ser(Ph(4-Cl))

>  <IUPAC>  (1468) 
(2R)-2-amino-3-(4-chlorophenoxy)propanoic acid

>  <TYPE>  (1468) 
Backbone

>  <CLASS>  (1468) 
alpha

>  <ANALOG>  (1468) 
Ser

>  <MOL_WT>  (1468) 
215.63599999999997

>  <LOGP>  (1468) 
1.1307

>  <TPSA>  (1468) 
72.55

>  <POPULARITY>  (1468) 
2.2

>  <PROTECTED>  (1468) 
TRUE

>  <SMILES>  (1468) 
N[C@H](COc1(ccc(Cl)cc1))C(=O)O

>  <INCHIKEY>  (1468) 
NEADGQMLXGPJDH-MRVPVSSYSA-N

$$$$
D-Ser_Ph_4F
     RDKit          2D

 14 14  0  0  0  0  0  0  0  0999 V2000
   -3.1731   -1.8740    0.0000 N   0  0  0  0  0  0  0  0  0  0  0  0
   -2.8476   -0.4097    0.0000 C   0  0  0  0  0  0  0  0  0  0  0  0
   -1.4168    0.0405    0.0000 C   0  0  0  0  0  0  0  0  0  0  0  0
   -0.3114   -0.9735    0.0000 O   0  0  0  0  0  0  0  0  0  0  0  0
    1.1194   -0.5232    0.0000 C   0  0  0  0  0  0  0  0  0  0  0  0
    1.4449    0.9411    0.0000 C   0  0  0  0  0  0  0  0  0  0  0  0
    2.8757    1.3913    0.0000 C   0  0  0  0  0  0  0  0  0  0  0  0
    3.9810    0.3773    0.0000 C   0  0  0  0  0  0  0  0  0  0  0  0
    5.4119    0.8276    0.0000 F   0  0  0  0  0  0  0  0  0  0  0  0
    3.6556   -1.0870    0.0000 C   0  0  0  0  0  0  0  0  0  0  0  0
    2.2247   -1.5372    0.0000 C   0  0  0  0  0  0  0  0  0  0  0  0
   -3.9530    0.6043    0.0000 C   0  0  0  0  0  0  0  0  0  0  0  0
   -3.6275    2.0685    0.0000 O   0  0  0  0  0  0  0  0  0  0  0  0
   -5.3838    0.1540    0.0000 O   0  0  0  0  0  0  0  0  0  0  0  0
  2  1  1  1
  2  3  1  0
  3  4  1  0
  4  5  1  0
  5  6  1  0
  6  7  2  0
  7  8  1  0
  8  9  1  0
  8 10  2  0
 10 11  1  0
  2 12  1  0
 12 13  2  0
 12 14  1  0
 11  5  2  0
M  END
>  <rName>  (1469) 
D-Ser_Ph_4F

>  <PQ_SYMBOL>  (1469) 
D-Ser_Ph_4F

>  <FULL_NAME>  (1469) 
(2R)-2-amino-3-(4-fluorophenoxy)propanoic acid

>  <IUPAC_CONDENSED>  (1469) 
D-Ser(Ph(4-F))

>  <IUPAC>  (1469) 
(2R)-2-amino-3-(4-fluorophenoxy)propanoic acid

>  <TYPE>  (1469) 
Backbone

>  <CLASS>  (1469) 
alpha

>  <ANALOG>  (1469) 
Ser

>  <MOL_WT>  (1469) 
199.18099999999998

>  <LOGP>  (1469) 
0.6164000000000001

>  <TPSA>  (1469) 
72.55

>  <POPULARITY>  (1469) 
2.2

>  <PROTECTED>  (1469) 
TRUE

>  <SMILES>  (1469) 
N[C@H](COc1(ccc(F)cc1))C(=O)O

>  <INCHIKEY>  (1469) 
WJHNRDRCQDYEEE-MRVPVSSYSA-N

$$$$
D-Ser_Pr
     RDKit          2D

 10  9  0  0  0  0  0  0  0  0999 V2000
   -1.4166   -1.8843    0.0000 N   0  0  0  0  0  0  0  0  0  0  0  0
   -1.4265   -0.3844    0.0000 C   0  0  0  0  0  0  0  0  0  0  0  0
   -0.1324    0.3741    0.0000 C   0  0  0  0  0  0  0  0  0  0  0  0
    1.1716   -0.3673    0.0000 O   0  0  0  0  0  0  0  0  0  0  0  0
    2.4657    0.3912    0.0000 C   0  0  0  0  0  0  0  0  0  0  0  0
    3.7696   -0.3503    0.0000 C   0  0  0  0  0  0  0  0  0  0  0  0
    5.0637    0.4082    0.0000 C   0  0  0  0  0  0  0  0  0  0  0  0
   -2.7304    0.3571    0.0000 C   0  0  0  0  0  0  0  0  0  0  0  0
   -2.7402    1.8571    0.0000 O   0  0  0  0  0  0  0  0  0  0  0  0
   -4.0245   -0.4014    0.0000 O   0  0  0  0  0  0  0  0  0  0  0  0
  2  1  1  1
  2  3  1  0
  3  4  1  0
  4  5  1  0
  5  6  1  0
  6  7  1  0
  2  8  1  0
  8  9  2  0
  8 10  1  0
M  END
>  <rName>  (1470) 
D-Ser_Pr

>  <PQ_SYMBOL>  (1470) 
D-Ser_Pr

>  <FULL_NAME>  (1470) 
(2R)-2-Amino-3-propoxypropanoic acid

>  <IUPAC_CONDENSED>  (1470) 
D-Ser(Pr)

>  <IUPAC>  (1470) 
(2R)-2-amino-3-propoxypropanoic acid

>  <TYPE>  (1470) 
Backbone

>  <CLASS>  (1470) 
alpha

>  <ANALOG>  (1470) 
Ser

>  <MOL_WT>  (1470) 
147.174

>  <LOGP>  (1470) 
-0.17510000000000053

>  <TPSA>  (1470) 
72.55

>  <POPULARITY>  (1470) 
2.2

>  <PROTECTED>  (1470) 
TRUE

>  <SMILES>  (1470) 
N[C@H](COCCC)C(=O)O

>  <INCHIKEY>  (1470) 
YLVYZXAQMZHQSE-RXMQYKEDSA-N

$$$$
D-Ser_allyl
     RDKit          2D

 10  9  0  0  0  0  0  0  0  0999 V2000
   -1.4166   -1.8843    0.0000 N   0  0  0  0  0  0  0  0  0  0  0  0
   -1.4265   -0.3844    0.0000 C   0  0  0  0  0  0  0  0  0  0  0  0
   -0.1324    0.3741    0.0000 C   0  0  0  0  0  0  0  0  0  0  0  0
    1.1716   -0.3673    0.0000 O   0  0  0  0  0  0  0  0  0  0  0  0
    2.4657    0.3912    0.0000 C   0  0  0  0  0  0  0  0  0  0  0  0
    3.7696   -0.3503    0.0000 C   0  0  0  0  0  0  0  0  0  0  0  0
    5.0637    0.4082    0.0000 C   0  0  0  0  0  0  0  0  0  0  0  0
   -2.7304    0.3571    0.0000 C   0  0  0  0  0  0  0  0  0  0  0  0
   -2.7402    1.8571    0.0000 O   0  0  0  0  0  0  0  0  0  0  0  0
   -4.0245   -0.4014    0.0000 O   0  0  0  0  0  0  0  0  0  0  0  0
  2  1  1  1
  2  3  1  0
  3  4  1  0
  4  5  1  0
  5  6  1  0
  6  7  2  0
  2  8  1  0
  8  9  2  0
  8 10  1  0
M  END
>  <rName>  (1471) 
D-Ser_allyl

>  <PQ_SYMBOL>  (1471) 
D-Ser_allyl

>  <FULL_NAME>  (1471) 
(2R)-2-amino-3-prop-2-enoxypropanoic acid

>  <IUPAC_CONDENSED>  (1471) 
D-Ser(allyl)

>  <IUPAC>  (1471) 
(2R)-2-amino-3-((prop-2-en-1-yl)oxy)propanoic acid

>  <TYPE>  (1471) 
Backbone

>  <CLASS>  (1471) 
alpha

>  <ANALOG>  (1471) 
Ser

>  <MOL_WT>  (1471) 
145.158

>  <LOGP>  (1471) 
-0.3991000000000003

>  <TPSA>  (1471) 
72.55

>  <POPULARITY>  (1471) 
7.7

>  <PROTECTED>  (1471) 
TRUE

>  <SMILES>  (1471) 
N[C@H](COCC=C)C(=O)O

>  <INCHIKEY>  (1471) 
PLTOASLATKFEBR-RXMQYKEDSA-N

$$$$
D-Ser_cBu
     RDKit          2D

 11 11  0  0  0  0  0  0  0  0999 V2000
   -1.9040   -1.9368    0.0000 N   0  0  0  0  0  0  0  0  0  0  0  0
   -1.7069   -0.4498    0.0000 C   0  0  0  0  0  0  0  0  0  0  0  0
   -0.3206    0.1231    0.0000 C   0  0  0  0  0  0  0  0  0  0  0  0
    0.8686   -0.7911    0.0000 O   0  0  0  0  0  0  0  0  0  0  0  0
    2.2549   -0.2182    0.0000 C   0  0  0  0  0  0  0  0  0  0  0  0
    2.8301    1.1671    0.0000 C   0  0  0  0  0  0  0  0  0  0  0  0
    4.2155    0.5919    0.0000 C   0  0  0  0  0  0  0  0  0  0  0  0
    3.6403   -0.7934    0.0000 C   0  0  0  0  0  0  0  0  0  0  0  0
   -2.8962    0.4643    0.0000 C   0  0  0  0  0  0  0  0  0  0  0  0
   -2.6992    1.9513    0.0000 O   0  0  0  0  0  0  0  0  0  0  0  0
   -4.2825   -0.1085    0.0000 O   0  0  0  0  0  0  0  0  0  0  0  0
  2  1  1  1
  2  3  1  0
  3  4  1  0
  4  5  1  0
  5  6  1  0
  6  7  1  0
  7  8  1  0
  2  9  1  0
  9 10  2  0
  9 11  1  0
  8  5  1  0
M  END
>  <rName>  (1472) 
D-Ser_cBu

>  <PQ_SYMBOL>  (1472) 
D-Ser_cBu

>  <FULL_NAME>  (1472) 
O-Cyclobutyl-D-serine

>  <IUPAC_CONDENSED>  (1472) 
D-Ser(cBu)

>  <IUPAC>  (1472) 
(2R)-2-amino-3-cyclobutyloxypropanoic acid

>  <TYPE>  (1472) 
Backbone

>  <CLASS>  (1472) 
alpha

>  <ANALOG>  (1472) 
Ser

>  <MOL_WT>  (1472) 
159.185

>  <LOGP>  (1472) 
-0.03260000000000046

>  <TPSA>  (1472) 
72.55

>  <POPULARITY>  (1472) 
2.2

>  <PROTECTED>  (1472) 
TRUE

>  <SMILES>  (1472) 
N[C@H](COC1(CCC1))C(=O)O

>  <INCHIKEY>  (1472) 
IYHHNZMURDQCNV-ZCFIWIBFSA-N

$$$$
D-Ser_isoamyl
     RDKit          2D

 12 11  0  0  0  0  0  0  0  0999 V2000
    2.4617    1.9005    0.0000 N   0  0  0  0  0  0  0  0  0  0  0  0
    2.4001    0.4018    0.0000 C   0  0  0  0  0  0  0  0  0  0  0  0
    1.0713   -0.2943    0.0000 C   0  0  0  0  0  0  0  0  0  0  0  0
   -0.1958    0.5085    0.0000 O   0  0  0  0  0  0  0  0  0  0  0  0
   -1.5245   -0.1875    0.0000 C   0  0  0  0  0  0  0  0  0  0  0  0
   -2.7917    0.6152    0.0000 C   0  0  0  0  0  0  0  0  0  0  0  0
   -4.1204   -0.0808    0.0000 C   0  0  0  0  0  0  0  0  0  0  0  0
   -5.3876    0.7219    0.0000 C   0  0  0  0  0  0  0  0  0  0  0  0
   -4.1820   -1.5796    0.0000 C   0  0  0  0  0  0  0  0  0  0  0  0
    3.6672   -0.4010    0.0000 C   0  0  0  0  0  0  0  0  0  0  0  0
    3.6056   -1.8997    0.0000 O   0  0  0  0  0  0  0  0  0  0  0  0
    4.9960    0.2950    0.0000 O   0  0  0  0  0  0  0  0  0  0  0  0
  2  1  1  1
  2  3  1  0
  3  4  1  0
  4  5  1  0
  5  6  1  0
  6  7  1  0
  7  8  1  0
  7  9  1  0
  2 10  1  0
 10 11  2  0
 10 12  1  0
M  END
>  <rName>  (1473) 
D-Ser_isoamyl

>  <PQ_SYMBOL>  (1473) 
D-Ser_isoamyl

>  <FULL_NAME>  (1473) 
(2R)-2-amino-3-(3-methylbutoxy)propanoic acid

>  <IUPAC_CONDENSED>  (1473) 
D-Ser(isoamyl)

>  <IUPAC>  (1473) 
(2R)-2-amino-3-(3-methylbutoxy)propanoic acid

>  <TYPE>  (1473) 
Backbone

>  <CLASS>  (1473) 
alpha

>  <ANALOG>  (1473) 
Ser

>  <MOL_WT>  (1473) 
175.22799999999998

>  <LOGP>  (1473) 
0.46099999999999935

>  <TPSA>  (1473) 
72.55

>  <POPULARITY>  (1473) 
2.2

>  <PROTECTED>  (1473) 
TRUE

>  <SMILES>  (1473) 
N[C@H](COCCC(C)C)C(=O)O

>  <INCHIKEY>  (1473) 
LTOLPHMZFDRDOS-SSDOTTSWSA-N

$$$$
D-Ser_prop2ynyl
     RDKit          2D

 10  9  0  0  0  0  0  0  0  0999 V2000
   -1.2340   -1.8694    0.0000 N   0  0  0  0  0  0  0  0  0  0  0  0
   -1.3962   -0.3782    0.0000 C   0  0  0  0  0  0  0  0  0  0  0  0
   -0.1859    0.5079    0.0000 C   0  0  0  0  0  0  0  0  0  0  0  0
    1.1866   -0.0973    0.0000 O   0  0  0  0  0  0  0  0  0  0  0  0
    2.3969    0.7888    0.0000 C   0  0  0  0  0  0  0  0  0  0  0  0
    3.7695    0.1837    0.0000 C   0  0  0  0  0  0  0  0  0  0  0  0
    5.1420   -0.4214    0.0000 C   0  0  0  0  0  0  0  0  0  0  0  0
   -2.7688    0.2269    0.0000 C   0  0  0  0  0  0  0  0  0  0  0  0
   -2.9310    1.7181    0.0000 O   0  0  0  0  0  0  0  0  0  0  0  0
   -3.9791   -0.6591    0.0000 O   0  0  0  0  0  0  0  0  0  0  0  0
  2  1  1  1
  2  3  1  0
  3  4  1  0
  4  5  1  0
  5  6  1  0
  6  7  3  0
  2  8  1  0
  8  9  2  0
  8 10  1  0
M  END
>  <rName>  (1474) 
D-Ser_prop2ynyl

>  <PQ_SYMBOL>  (1474) 
D-Ser_prop2ynyl

>  <FULL_NAME>  (1474) 
(2R)-2-amino-3-prop-2-ynoxypropanoic acid

>  <IUPAC_CONDENSED>  (1474) 
D-Ser(prop-2-ynyl)

>  <IUPAC>  (1474) 
(2R)-2-amino-3-((prop-2-yn-1-yl)oxy)propanoic acid

>  <TYPE>  (1474) 
Backbone

>  <CLASS>  (1474) 
alpha

>  <ANALOG>  (1474) 
Ser

>  <MOL_WT>  (1474) 
143.142

>  <LOGP>  (1474) 
-0.9518999999999997

>  <TPSA>  (1474) 
72.55

>  <POPULARITY>  (1474) 
6.3

>  <PROTECTED>  (1474) 
TRUE

>  <SMILES>  (1474) 
N[C@H](COCC#C)C(=O)O

>  <INCHIKEY>  (1474) 
CBKWZMZSOKUORR-RXMQYKEDSA-N

$$$$
D-Thr-ol
     RDKit          2D

  7  6  0  0  0  0  0  0  0  0999 V2000
   -0.5797    1.7367    0.0000 N   0  0  0  0  0  0  0  0  0  0  0  0
   -0.2514    0.2730    0.0000 C   0  0  0  0  0  0  0  0  0  0  0  0
   -1.3548   -0.7431    0.0000 C   0  0  0  0  0  0  0  0  0  0  0  0
   -2.7865   -0.2956    0.0000 O   0  0  0  0  0  0  0  0  0  0  0  0
    1.1803   -0.1745    0.0000 C   0  0  0  0  0  0  0  0  0  0  0  0
    2.2837    0.8417    0.0000 C   0  0  0  0  0  0  0  0  0  0  0  0
    1.5086   -1.6381    0.0000 O   0  0  0  0  0  0  0  0  0  0  0  0
  2  1  1  6
  2  3  1  0
  3  4  1  0
  2  5  1  0
  5  6  1  6
  5  7  1  0
M  END
>  <rName>  (1475) 
D-Thr-ol

>  <PQ_SYMBOL>  (1475) 
D-Thr-ol

>  <FULL_NAME>  (1475) 
(2S,3S)-2-aminobutane-1,3-diol

>  <IUPAC_CONDENSED>  (1475) 
D-Thr-ol

>  <IUPAC>  (1475) 
(2S,3S)-2-aminobutane-1,3-diol

>  <TYPE>  (1475) 
C-term cap

>  <CLASS>  (1475) 
c_cap

>  <ANALOG>  (1475) 
X

>  <MOL_WT>  (1475) 
105.13699999999999

>  <LOGP>  (1475) 
-1.3132

>  <TPSA>  (1475) 
66.48

>  <POPULARITY>  (1475) 
12.5

>  <PROTECTED>  (1475) 
FALSE

>  <SMILES>  (1475) 
N[C@@H](CO)[C@H](C)O

>  <INCHIKEY>  (1475) 
MUVQIIBPDFTEKM-IMJSIDKUSA-N

$$$$
D-Thr_Bn
     RDKit          2D

 15 15  0  0  0  0  0  0  0  0999 V2000
   -1.6242   -1.6376    0.0000 N   0  0  0  0  0  0  0  0  0  0  0  0
   -2.4349   -0.3756    0.0000 C   0  0  0  0  0  0  0  0  0  0  0  0
   -1.7473    0.9575    0.0000 C   0  0  0  0  0  0  0  0  0  0  0  0
   -0.2490    1.0286    0.0000 O   0  0  0  0  0  0  0  0  0  0  0  0
    0.5617   -0.2335    0.0000 C   0  0  0  0  0  0  0  0  0  0  0  0
    2.0600   -0.1624    0.0000 C   0  0  0  0  0  0  0  0  0  0  0  0
    2.7476    1.1707    0.0000 C   0  0  0  0  0  0  0  0  0  0  0  0
    4.2459    1.2418    0.0000 C   0  0  0  0  0  0  0  0  0  0  0  0
    5.0566   -0.0202    0.0000 C   0  0  0  0  0  0  0  0  0  0  0  0
    4.3690   -1.3533    0.0000 C   0  0  0  0  0  0  0  0  0  0  0  0
    2.8707   -1.4244    0.0000 C   0  0  0  0  0  0  0  0  0  0  0  0
   -2.5580    2.2196    0.0000 C   0  0  0  0  0  0  0  0  0  0  0  0
   -3.9333   -0.4467    0.0000 C   0  0  0  0  0  0  0  0  0  0  0  0
   -4.7440    0.8154    0.0000 O   0  0  0  0  0  0  0  0  0  0  0  0
   -4.6209   -1.7798    0.0000 O   0  0  0  0  0  0  0  0  0  0  0  0
  2  1  1  1
  2  3  1  0
  3  4  1  0
  4  5  1  0
  5  6  1  0
  6  7  2  0
  7  8  1  0
  8  9  2  0
  9 10  1  0
 10 11  2  0
  3 12  1  6
  2 13  1  0
 13 14  2  0
 13 15  1  0
 11  6  1  0
M  END
>  <rName>  (1476) 
D-Thr_Bn

>  <PQ_SYMBOL>  (1476) 
D-Thr_Bn

>  <FULL_NAME>  (1476) 
O3-benzyl-D-threonine

>  <IUPAC_CONDENSED>  (1476) 
D-Thr(Bn)

>  <IUPAC>  (1476) 
(2R,3S)-2-amino-3-benzyloxybutanoic acid

>  <TYPE>  (1476) 
Backbone

>  <CLASS>  (1476) 
alpha

>  <ANALOG>  (1476) 
Thr

>  <MOL_WT>  (1476) 
209.24499999999998

>  <LOGP>  (1476) 
1.0035999999999996

>  <TPSA>  (1476) 
72.55

>  <POPULARITY>  (1476) 
10.9

>  <PROTECTED>  (1476) 
TRUE

>  <SMILES>  (1476) 
N[C@H]([C@@H](OCc1(ccccc1))C)C(=O)O

>  <INCHIKEY>  (1476) 
ONOURAAVVKGJNM-WCBMZHEXSA-N

$$$$
D-Thr_Me
     RDKit          2D

  9  8  0  0  0  0  0  0  0  0999 V2000
    0.3500    1.8226    0.0000 N   0  0  0  0  0  0  0  0  0  0  0  0
   -0.1586    0.4115    0.0000 C   0  0  0  0  0  0  0  0  0  0  0  0
    0.8093   -0.7345    0.0000 C   0  0  0  0  0  0  0  0  0  0  0  0
    2.2856   -0.4694    0.0000 O   0  0  0  0  0  0  0  0  0  0  0  0
    2.7942    0.9418    0.0000 C   0  0  0  0  0  0  0  0  0  0  0  0
    0.3007   -2.1457    0.0000 C   0  0  0  0  0  0  0  0  0  0  0  0
   -1.6349    0.1463    0.0000 C   0  0  0  0  0  0  0  0  0  0  0  0
   -2.1435   -1.2648    0.0000 O   0  0  0  0  0  0  0  0  0  0  0  0
   -2.6028    1.2923    0.0000 O   0  0  0  0  0  0  0  0  0  0  0  0
  2  1  1  6
  2  3  1  0
  3  4  1  0
  4  5  1  0
  3  6  1  1
  2  7  1  0
  7  8  2  0
  7  9  1  0
M  END
>  <rName>  (1477) 
D-Thr_Me

>  <PQ_SYMBOL>  (1477) 
D-Thr_Me

>  <FULL_NAME>  (1477) 
O-Methyl-D-Threonine

>  <IUPAC_CONDENSED>  (1477) 
D-Thr(Me)

>  <IUPAC>  (1477) 
(2R,3S)-2-amino-3-methoxybutanoic acid

>  <TYPE>  (1477) 
Backbone

>  <CLASS>  (1477) 
alpha

>  <ANALOG>  (1477) 
Thr

>  <MOL_WT>  (1477) 
133.147

>  <LOGP>  (1477) 
-0.5668000000000002

>  <TPSA>  (1477) 
72.55

>  <POPULARITY>  (1477) 
8.9

>  <PROTECTED>  (1477) 
TRUE

>  <SMILES>  (1477) 
N[C@H]([C@@H](OC)C)C(=O)O

>  <INCHIKEY>  (1477) 
FYCWLJLGIAUCCL-IUYQGCFVSA-N

$$$$
D-Thr_PO3H2
     RDKit          2D

 12 11  0  0  0  0  0  0  0  0999 V2000
   -0.0306   -1.5204    0.0000 N   0  0  0  0  0  0  0  0  0  0  0  0
   -0.8599   -0.2705    0.0000 C   0  0  0  0  0  0  0  0  0  0  0  0
   -0.1920    1.0727    0.0000 C   0  0  0  0  0  0  0  0  0  0  0  0
    1.3051    1.1659    0.0000 O   0  0  0  0  0  0  0  0  0  0  0  0
    2.1343   -0.0841    0.0000 P   0  0  0  0  0  0  0  0  0  0  0  0
    3.3843    0.7452    0.0000 O   0  0  0  0  0  0  0  0  0  0  0  0
    0.8844   -0.9133    0.0000 O   0  0  0  0  0  0  0  0  0  0  0  0
    2.9636   -1.3340    0.0000 O   0  0  0  0  0  0  0  0  0  0  0  0
   -1.0213    2.3226    0.0000 C   0  0  0  0  0  0  0  0  0  0  0  0
   -2.3570   -0.3637    0.0000 C   0  0  0  0  0  0  0  0  0  0  0  0
   -3.1862    0.8863    0.0000 O   0  0  0  0  0  0  0  0  0  0  0  0
   -3.0248   -1.7068    0.0000 O   0  0  0  0  0  0  0  0  0  0  0  0
  2  1  1  1
  2  3  1  0
  3  4  1  0
  4  5  1  0
  5  6  2  0
  5  7  1  0
  5  8  1  0
  3  9  1  6
  2 10  1  0
 10 11  2  0
 10 12  1  0
M  END
>  <rName>  (1478) 
D-Thr_PO3H2

>  <PQ_SYMBOL>  (1478) 
D-Thr_PO3H2

>  <FULL_NAME>  (1478) 
O-Phospho-D-Threonine, (2R,3S)-O-Phosphono-Threonine

>  <IUPAC_CONDENSED>  (1478) 
D-Thr(PO3H2)

>  <IUPAC>  (1478) 
(2S,3R)-3-amino-4-hydroxy-4-oxobutan-2-yl dihydrogen phosphate

>  <TYPE>  (1478) 
Backbone

>  <CLASS>  (1478) 
alpha

>  <ANALOG>  (1478) 
Thr

>  <MOL_WT>  (1478) 
199.099

>  <LOGP>  (1478) 
-1.1039000000000005

>  <TPSA>  (1478) 
130.07999999999998

>  <POPULARITY>  (1478) 
11.9

>  <PROTECTED>  (1478) 
TRUE

>  <SMILES>  (1478) 
N[C@H]([C@@H](OP(=O)(O)O)C)C(=O)O

>  <INCHIKEY>  (1478) 
USRGIUJOYOXOQJ-STHAYSLISA-N

$$$$
D-Thz
     RDKit          2D

  8  8  0  0  0  0  0  0  0  0999 V2000
   -0.8342   -1.2135    0.0000 N   0  0  0  0  0  0  0  0  0  0  0  0
    0.0475   -0.0000    0.0000 C   0  0  0  0  0  0  0  0  0  0  0  0
   -0.8342    1.2135    0.0000 C   0  0  0  0  0  0  0  0  0  0  0  0
   -2.2608    0.7500    0.0000 S   0  0  0  0  0  0  0  0  0  0  0  0
   -2.2608   -0.7500    0.0000 C   0  0  0  0  0  0  0  0  0  0  0  0
    1.5475    0.0000    0.0000 C   0  0  0  0  0  0  0  0  0  0  0  0
    2.2975    1.2990    0.0000 O   0  0  0  0  0  0  0  0  0  0  0  0
    2.2975   -1.2990    0.0000 O   0  0  0  0  0  0  0  0  0  0  0  0
  1  2  1  0
  2  3  1  0
  3  4  1  0
  4  5  1  0
  2  6  1  6
  6  7  2  0
  6  8  1  0
  5  1  1  0
M  END
>  <rName>  (1479) 
D-Thz

>  <PQ_SYMBOL>  (1479) 
D-Thz

>  <FULL_NAME>  (1479) 
(S)-Thiazolidine-4-carboxylic acid

>  <IUPAC_CONDENSED>  (1479) 
D-Thz

>  <IUPAC>  (1479) 
(4S)-thiazolidine-4-carboxylic acid

>  <TYPE>  (1479) 
Backbone

>  <CLASS>  (1479) 
alpha

>  <ANALOG>  (1479) 
Pro

>  <MOL_WT>  (1479) 
133.172

>  <LOGP>  (1479) 
-0.2665

>  <TPSA>  (1479) 
49.33

>  <POPULARITY>  (1479) 
23.3

>  <PROTECTED>  (1479) 
TRUE

>  <SMILES>  (1479) 
N1[C@H](CSC1)C(=O)O

>  <INCHIKEY>  (1479) 
DZLNHFMRPBPULJ-GSVOUGTGSA-N

$$$$
D-Thz_Me
     RDKit          2D

  9  9  0  0  0  0  0  0  0  0999 V2000
   -0.6334   -0.9301    0.0000 N   0  0  0  0  0  0  0  0  0  0  0  0
    0.4598    0.0969    0.0000 C   0  0  0  0  0  0  0  0  0  0  0  0
   -0.1792    1.4541    0.0000 C   0  0  0  0  0  0  0  0  0  0  0  0
   -1.6673    1.2657    0.0000 S   0  0  0  0  0  0  0  0  0  0  0  0
   -1.9481   -0.2077    0.0000 C   0  0  0  0  0  0  0  0  0  0  0  0
   -3.3052   -0.8467    0.0000 C   0  0  0  0  0  0  0  0  0  0  0  0
    1.9333   -0.1838    0.0000 C   0  0  0  0  0  0  0  0  0  0  0  0
    2.9132    0.9519    0.0000 O   0  0  0  0  0  0  0  0  0  0  0  0
    2.4269   -1.6003    0.0000 O   0  0  0  0  0  0  0  0  0  0  0  0
  1  2  1  0
  2  3  1  0
  3  4  1  0
  4  5  1  0
  5  6  1  0
  2  7  1  6
  7  8  2  0
  7  9  1  0
  5  1  1  0
M  END
>  <rName>  (1480) 
D-Thz_Me

>  <PQ_SYMBOL>  (1480) 
D-Thz_Me

>  <FULL_NAME>  (1480) 
(4S)-2-methyl-1,3-thiazolidine-4-carboxylic acid

>  <IUPAC_CONDENSED>  (1480) 
D-Thz(Me)

>  <IUPAC>  (1480) 
(4S)-2-methyl-thiazolidine-4-carboxylic acid

>  <TYPE>  (1480) 
Backbone

>  <CLASS>  (1480) 
alpha

>  <ANALOG>  (1480) 
Pro

>  <MOL_WT>  (1480) 
147.19899999999998

>  <LOGP>  (1480) 
0.12200000000000005

>  <TPSA>  (1480) 
49.33

>  <POPULARITY>  (1480) 
13.5

>  <PROTECTED>  (1480) 
TRUE

>  <SMILES>  (1480) 
N1[C@H](CSC1C)C(=O)O

>  <INCHIKEY>  (1480) 
FHTPNEYXMGZOSH-SRBOSORUSA-N

$$$$
D-Thz_Me2
     RDKit          2D

 10 10  0  0  0  0  0  0  0  0999 V2000
   -0.3816   -0.8744    0.0000 N   0  0  0  0  0  0  0  0  0  0  0  0
    0.7221    0.1414    0.0000 C   0  0  0  0  0  0  0  0  0  0  0  0
    0.0971    1.5050    0.0000 C   0  0  0  0  0  0  0  0  0  0  0  0
   -1.3929    1.3319    0.0000 S   0  0  0  0  0  0  0  0  0  0  0  0
   -1.6888   -0.1386    0.0000 C   0  0  0  0  0  0  0  0  0  0  0  0
   -2.2839   -1.5155    0.0000 C   0  0  0  0  0  0  0  0  0  0  0  0
   -3.1203    0.3093    0.0000 C   0  0  0  0  0  0  0  0  0  0  0  0
    2.1926   -0.1544    0.0000 C   0  0  0  0  0  0  0  0  0  0  0  0
    3.1841    0.9712    0.0000 O   0  0  0  0  0  0  0  0  0  0  0  0
    2.6717   -1.5759    0.0000 O   0  0  0  0  0  0  0  0  0  0  0  0
  1  2  1  0
  2  3  1  0
  3  4  1  0
  4  5  1  0
  5  6  1  0
  5  7  1  0
  2  8  1  6
  8  9  2  0
  8 10  1  0
  5  1  1  0
M  END
>  <rName>  (1481) 
D-Thz_Me2

>  <PQ_SYMBOL>  (1481) 
D-Thz_Me2

>  <FULL_NAME>  (1481) 
(S)-2,2-Dimethyl-4-thiazolidinecarboxylic acid

>  <IUPAC_CONDENSED>  (1481) 
D-Thz(Me2)

>  <IUPAC>  (1481) 
(4S)-2,2-dimethyl-thiazolidine-4-carboxylic acid

>  <TYPE>  (1481) 
Backbone

>  <CLASS>  (1481) 
alpha

>  <ANALOG>  (1481) 
Pro

>  <MOL_WT>  (1481) 
161.226

>  <LOGP>  (1481) 
0.5121

>  <TPSA>  (1481) 
49.33

>  <POPULARITY>  (1481) 
6.5

>  <PROTECTED>  (1481) 
TRUE

>  <SMILES>  (1481) 
N1[C@H](CSC1(C)C)C(=O)O

>  <INCHIKEY>  (1481) 
OCQICQZUUHJWGZ-SCSAIBSYSA-N

$$$$
D-Thz_b_bdiMe
     RDKit          2D

 10 10  0  0  0  0  0  0  0  0999 V2000
   -0.3795   -1.7836    0.0000 N   0  0  0  0  0  0  0  0  0  0  0  0
    0.2354   -0.4154    0.0000 C   0  0  0  0  0  0  0  0  0  0  0  0
   -0.8759    0.5922    0.0000 C   0  0  0  0  0  0  0  0  0  0  0  0
   -1.7533    1.8087    0.0000 C   0  0  0  0  0  0  0  0  0  0  0  0
    0.2423    1.5920    0.0000 C   0  0  0  0  0  0  0  0  0  0  0  0
   -2.1775   -0.1533    0.0000 S   0  0  0  0  0  0  0  0  0  0  0  0
   -1.8707   -1.6216    0.0000 C   0  0  0  0  0  0  0  0  0  0  0  0
    1.7037   -0.1086    0.0000 C   0  0  0  0  0  0  0  0  0  0  0  0
    2.1721    1.3164    0.0000 O   0  0  0  0  0  0  0  0  0  0  0  0
    2.7035   -1.2268    0.0000 O   0  0  0  0  0  0  0  0  0  0  0  0
  1  2  1  0
  2  3  1  0
  3  4  1  0
  3  5  1  0
  3  6  1  0
  6  7  1  0
  2  8  1  6
  8  9  2  0
  8 10  1  0
  7  1  1  0
M  END
>  <rName>  (1482) 
D-Thz_b_bdiMe

>  <PQ_SYMBOL>  (1482) 
D-Thz_b_bdiMe

>  <FULL_NAME>  (1482) 
(4S)-5,5-dimethyl-1,3-thiazolidine-4-carboxylic acid

>  <IUPAC_CONDENSED>  (1482) 
D-Thz(b,b-diMe)

>  <IUPAC>  (1482) 
(4S)-5,5-dimethyl-thiazolidine-4-carboxylic acid

>  <TYPE>  (1482) 
Backbone

>  <CLASS>  (1482) 
alpha

>  <ANALOG>  (1482) 
Pro

>  <MOL_WT>  (1482) 
161.226

>  <LOGP>  (1482) 
0.5121

>  <TPSA>  (1482) 
49.33

>  <POPULARITY>  (1482) 
20.6

>  <PROTECTED>  (1482) 
TRUE

>  <SMILES>  (1482) 
N1[C@H](C(C)(C)SC1)C(=O)O

>  <INCHIKEY>  (1482) 
PMQQFSDIECYOQV-BYPYZUCNSA-N

$$$$
D-Tic
     RDKit          2D

 13 14  0  0  0  0  0  0  0  0999 V2000
   -1.2457    1.5283    0.0000 N   0  0  0  0  0  0  0  0  0  0  0  0
   -1.6339    0.0794    0.0000 C   0  0  0  0  0  0  0  0  0  0  0  0
   -0.5733   -0.9812    0.0000 C   0  0  0  0  0  0  0  0  0  0  0  0
    0.8756   -0.5930    0.0000 C   0  0  0  0  0  0  0  0  0  0  0  0
    1.9363   -1.6536    0.0000 C   0  0  0  0  0  0  0  0  0  0  0  0
    3.3852   -1.2654    0.0000 C   0  0  0  0  0  0  0  0  0  0  0  0
    3.7734    0.1835    0.0000 C   0  0  0  0  0  0  0  0  0  0  0  0
    2.7127    1.2441    0.0000 C   0  0  0  0  0  0  0  0  0  0  0  0
    1.2638    0.8559    0.0000 C   0  0  0  0  0  0  0  0  0  0  0  0
    0.2032    1.9166    0.0000 C   0  0  0  0  0  0  0  0  0  0  0  0
   -3.0828   -0.3088    0.0000 C   0  0  0  0  0  0  0  0  0  0  0  0
   -3.4710   -1.7577    0.0000 O   0  0  0  0  0  0  0  0  0  0  0  0
   -4.1435    0.7519    0.0000 O   0  0  0  0  0  0  0  0  0  0  0  0
  1  2  1  0
  2  3  1  0
  3  4  1  0
  4  5  2  0
  5  6  1  0
  6  7  2  0
  7  8  1  0
  8  9  2  0
  9 10  1  0
  2 11  1  6
 11 12  2  0
 11 13  1  0
  9  4  1  0
 10  1  1  0
M  END
>  <rName>  (1483) 
D-Tic

>  <PQ_SYMBOL>  (1483) 
D-Tic

>  <FULL_NAME>  (1483) 
D-1,2,3,4-tetrahydroisoquinoline-3-carboxylic acid

>  <IUPAC_CONDENSED>  (1483) 
D-Tic

>  <IUPAC>  (1483) 
(4R)-3-azabicyclo[4.4.0]deca-1(10),6,8-triene-4-carboxylic acid

>  <TYPE>  (1483) 
Backbone

>  <CLASS>  (1483) 
alpha

>  <ANALOG>  (1483) 
Pro

>  <MOL_WT>  (1483) 
177.20299999999995

>  <LOGP>  (1483) 
0.7855000000000001

>  <TPSA>  (1483) 
49.33

>  <POPULARITY>  (1483) 
21.1

>  <PROTECTED>  (1483) 
TRUE

>  <SMILES>  (1483) 
N2[C@H](Cc1(ccccc1C2))C(=O)O

>  <INCHIKEY>  (1483) 
BWKMGYQJPOAASG-SECBINFHSA-N

$$$$
D-Tic_5Cl
     RDKit          2D

 14 15  0  0  0  0  0  0  0  0999 V2000
   -1.4856   -1.6416    0.0000 N   0  0  0  0  0  0  0  0  0  0  0  0
   -1.7624   -0.1673    0.0000 C   0  0  0  0  0  0  0  0  0  0  0  0
   -0.6240    0.8095    0.0000 C   0  0  0  0  0  0  0  0  0  0  0  0
    0.7911    0.3120    0.0000 C   0  0  0  0  0  0  0  0  0  0  0  0
    1.9295    1.2888    0.0000 C   0  0  0  0  0  0  0  0  0  0  0  0
    1.6527    2.7631    0.0000 Cl  0  0  0  0  0  0  0  0  0  0  0  0
    3.3446    0.7913    0.0000 C   0  0  0  0  0  0  0  0  0  0  0  0
    3.6213   -0.6829    0.0000 C   0  0  0  0  0  0  0  0  0  0  0  0
    2.4830   -1.6597    0.0000 C   0  0  0  0  0  0  0  0  0  0  0  0
    1.0678   -1.1622    0.0000 C   0  0  0  0  0  0  0  0  0  0  0  0
   -0.0705   -2.1390    0.0000 C   0  0  0  0  0  0  0  0  0  0  0  0
   -3.1775    0.3302    0.0000 C   0  0  0  0  0  0  0  0  0  0  0  0
   -4.3158   -0.6466    0.0000 O   0  0  0  0  0  0  0  0  0  0  0  0
   -3.4542    1.8044    0.0000 O   0  0  0  0  0  0  0  0  0  0  0  0
  1  2  1  0
  2  3  1  0
  3  4  1  0
  4  5  2  0
  5  6  1  0
  5  7  1  0
  7  8  2  0
  8  9  1  0
  9 10  2  0
 10 11  1  0
  2 12  1  1
 12 13  2  0
 12 14  1  0
 10  4  1  0
 11  1  1  0
M  END
>  <rName>  (1484) 
D-Tic_5Cl

>  <PQ_SYMBOL>  (1484) 
D-Tic_5Cl

>  <FULL_NAME>  (1484) 
(R)-5-Chloro-1,2,3,4-tetrahydroisoquinoline-3-carboxylic acid

>  <IUPAC_CONDENSED>  (1484) 
D-Tic(5-Cl)

>  <IUPAC>  (1484) 
(4R)-7-chloro-3-azabicyclo[4.4.0]deca-1(10),6,8-triene-4-carboxylic acid

>  <TYPE>  (1484) 
Backbone

>  <CLASS>  (1484) 
alpha

>  <ANALOG>  (1484) 
Pro

>  <MOL_WT>  (1484) 
211.64799999999997

>  <LOGP>  (1484) 
1.4389

>  <TPSA>  (1484) 
49.33

>  <POPULARITY>  (1484) 
2.9

>  <PROTECTED>  (1484) 
TRUE

>  <SMILES>  (1484) 
N2[C@H](Cc1(c(Cl)cccc1C2))C(=O)O

>  <INCHIKEY>  (1484) 
VLDJZMKXAZDJMJ-SECBINFHSA-N

$$$$
D-Tic_5Me
     RDKit          2D

 14 15  0  0  0  0  0  0  0  0999 V2000
   -1.4856   -1.6416    0.0000 N   0  0  0  0  0  0  0  0  0  0  0  0
   -1.7624   -0.1673    0.0000 C   0  0  0  0  0  0  0  0  0  0  0  0
   -0.6240    0.8095    0.0000 C   0  0  0  0  0  0  0  0  0  0  0  0
    0.7911    0.3120    0.0000 C   0  0  0  0  0  0  0  0  0  0  0  0
    1.9295    1.2888    0.0000 C   0  0  0  0  0  0  0  0  0  0  0  0
    1.6527    2.7631    0.0000 C   0  0  0  0  0  0  0  0  0  0  0  0
    3.3446    0.7913    0.0000 C   0  0  0  0  0  0  0  0  0  0  0  0
    3.6213   -0.6829    0.0000 C   0  0  0  0  0  0  0  0  0  0  0  0
    2.4830   -1.6597    0.0000 C   0  0  0  0  0  0  0  0  0  0  0  0
    1.0678   -1.1622    0.0000 C   0  0  0  0  0  0  0  0  0  0  0  0
   -0.0705   -2.1390    0.0000 C   0  0  0  0  0  0  0  0  0  0  0  0
   -3.1775    0.3302    0.0000 C   0  0  0  0  0  0  0  0  0  0  0  0
   -4.3158   -0.6466    0.0000 O   0  0  0  0  0  0  0  0  0  0  0  0
   -3.4542    1.8044    0.0000 O   0  0  0  0  0  0  0  0  0  0  0  0
  1  2  1  0
  2  3  1  0
  3  4  1  0
  4  5  2  0
  5  6  1  0
  5  7  1  0
  7  8  2  0
  8  9  1  0
  9 10  2  0
 10 11  1  0
  2 12  1  1
 12 13  2  0
 12 14  1  0
 10  4  1  0
 11  1  1  0
M  END
>  <rName>  (1485) 
D-Tic_5Me

>  <PQ_SYMBOL>  (1485) 
D-Tic_5Me

>  <FULL_NAME>  (1485) 
(3R)-5-methyl-1,2,3,4-tetrahydroisoquinoline-3-carboxylic acid

>  <IUPAC_CONDENSED>  (1485) 
D-Tic(5-Me)

>  <IUPAC>  (1485) 
(4R)-7-methyl-3-azabicyclo[4.4.0]deca-1(10),6,8-triene-4-carboxylic acid

>  <TYPE>  (1485) 
Backbone

>  <CLASS>  (1485) 
alpha

>  <ANALOG>  (1485) 
Pro

>  <MOL_WT>  (1485) 
191.22999999999996

>  <LOGP>  (1485) 
1.09392

>  <TPSA>  (1485) 
49.33

>  <POPULARITY>  (1485) 
3.5

>  <PROTECTED>  (1485) 
TRUE

>  <SMILES>  (1485) 
N2[C@H](Cc1(c(C)cccc1C2))C(=O)O

>  <INCHIKEY>  (1485) 
QLFCCSYNIFSINY-SNVBAGLBSA-N

$$$$
D-Tic_6Br
     RDKit          2D

 14 15  0  0  0  0  0  0  0  0999 V2000
   -1.7557   -1.4941    0.0000 N   0  0  0  0  0  0  0  0  0  0  0  0
   -1.9669   -0.0091    0.0000 C   0  0  0  0  0  0  0  0  0  0  0  0
   -0.7863    0.9163    0.0000 C   0  0  0  0  0  0  0  0  0  0  0  0
    0.6054    0.3566    0.0000 C   0  0  0  0  0  0  0  0  0  0  0  0
    1.7859    1.2820    0.0000 C   0  0  0  0  0  0  0  0  0  0  0  0
    3.1776    0.7223    0.0000 C   0  0  0  0  0  0  0  0  0  0  0  0
    4.3581    1.6476    0.0000 Br  0  0  0  0  0  0  0  0  0  0  0  0
    3.3887   -0.7628    0.0000 C   0  0  0  0  0  0  0  0  0  0  0  0
    2.2081   -1.6882    0.0000 C   0  0  0  0  0  0  0  0  0  0  0  0
    0.8165   -1.1285    0.0000 C   0  0  0  0  0  0  0  0  0  0  0  0
   -0.3641   -2.0538    0.0000 C   0  0  0  0  0  0  0  0  0  0  0  0
   -3.3585    0.5507    0.0000 C   0  0  0  0  0  0  0  0  0  0  0  0
   -4.5391   -0.3747    0.0000 O   0  0  0  0  0  0  0  0  0  0  0  0
   -3.5696    2.0357    0.0000 O   0  0  0  0  0  0  0  0  0  0  0  0
  1  2  1  0
  2  3  1  0
  3  4  1  0
  4  5  1  0
  5  6  2  0
  6  7  1  0
  6  8  1  0
  8  9  2  0
  9 10  1  0
 10 11  1  0
  2 12  1  1
 12 13  2  0
 12 14  1  0
 10  4  2  0
 11  1  1  0
M  END
>  <rName>  (1486) 
D-Tic_6Br

>  <PQ_SYMBOL>  (1486) 
D-Tic_6Br

>  <FULL_NAME>  (1486) 
(3R)-6-Bromo-1,2,3,4-tetrahydroisoquinoline-3-carboxylic acid

>  <IUPAC_CONDENSED>  (1486) 
D-Tic(6-Br)

>  <IUPAC>  (1486) 
(4R)-8-bromo-3-azabicyclo[4.4.0]deca-1(10),6,8-triene-4-carboxylic acid

>  <TYPE>  (1486) 
Backbone

>  <CLASS>  (1486) 
alpha

>  <ANALOG>  (1486) 
Pro

>  <MOL_WT>  (1486) 
256.09899999999993

>  <LOGP>  (1486) 
1.548

>  <TPSA>  (1486) 
49.33

>  <POPULARITY>  (1486) 
2.9

>  <PROTECTED>  (1486) 
TRUE

>  <SMILES>  (1486) 
N2[C@H](Cc1(cc(Br)ccc1C2))C(=O)O

>  <INCHIKEY>  (1486) 
ABTKHLULIDKVRJ-SECBINFHSA-N

$$$$
D-Tic_7Br
     RDKit          2D

 14 15  0  0  0  0  0  0  0  0999 V2000
   -1.5721   -1.5367    0.0000 N   0  0  0  0  0  0  0  0  0  0  0  0
   -2.0048   -0.1005    0.0000 C   0  0  0  0  0  0  0  0  0  0  0  0
   -0.9774    0.9924    0.0000 C   0  0  0  0  0  0  0  0  0  0  0  0
    0.4828    0.6490    0.0000 C   0  0  0  0  0  0  0  0  0  0  0  0
    1.5103    1.7419    0.0000 C   0  0  0  0  0  0  0  0  0  0  0  0
    2.9704    1.3985    0.0000 C   0  0  0  0  0  0  0  0  0  0  0  0
    3.4032   -0.0377    0.0000 C   0  0  0  0  0  0  0  0  0  0  0  0
    4.8633   -0.3811    0.0000 Br  0  0  0  0  0  0  0  0  0  0  0  0
    2.3757   -1.1306    0.0000 C   0  0  0  0  0  0  0  0  0  0  0  0
    0.9155   -0.7872    0.0000 C   0  0  0  0  0  0  0  0  0  0  0  0
   -0.1119   -1.8801    0.0000 C   0  0  0  0  0  0  0  0  0  0  0  0
   -3.4650    0.2429    0.0000 C   0  0  0  0  0  0  0  0  0  0  0  0
   -4.4924   -0.8500    0.0000 O   0  0  0  0  0  0  0  0  0  0  0  0
   -3.8977    1.6791    0.0000 O   0  0  0  0  0  0  0  0  0  0  0  0
  1  2  1  0
  2  3  1  0
  3  4  1  0
  4  5  1  0
  5  6  2  0
  6  7  1  0
  7  8  1  0
  7  9  2  0
  9 10  1  0
 10 11  1  0
  2 12  1  1
 12 13  2  0
 12 14  1  0
 10  4  2  0
 11  1  1  0
M  END
>  <rName>  (1487) 
D-Tic_7Br

>  <PQ_SYMBOL>  (1487) 
D-Tic_7Br

>  <FULL_NAME>  (1487) 
(3r)-7-Bromo-1,2,3,4-tetrahydroisoquinoline-3-carboxylic acid

>  <IUPAC_CONDENSED>  (1487) 
D-Tic(7-Br)

>  <IUPAC>  (1487) 
(4R)-9-bromo-3-azabicyclo[4.4.0]deca-1(10),6,8-triene-4-carboxylic acid

>  <TYPE>  (1487) 
Backbone

>  <CLASS>  (1487) 
alpha

>  <ANALOG>  (1487) 
Pro

>  <MOL_WT>  (1487) 
256.09899999999993

>  <LOGP>  (1487) 
1.548

>  <TPSA>  (1487) 
49.33

>  <POPULARITY>  (1487) 
2.9

>  <PROTECTED>  (1487) 
TRUE

>  <SMILES>  (1487) 
N2[C@H](Cc1(ccc(Br)cc1C2))C(=O)O

>  <INCHIKEY>  (1487) 
MRRCQSLPXUIPDE-SECBINFHSA-N

$$$$
D-Tic_7Cl
     RDKit          2D

 14 15  0  0  0  0  0  0  0  0999 V2000
   -1.5721   -1.5367    0.0000 N   0  0  0  0  0  0  0  0  0  0  0  0
   -2.0048   -0.1005    0.0000 C   0  0  0  0  0  0  0  0  0  0  0  0
   -0.9774    0.9924    0.0000 C   0  0  0  0  0  0  0  0  0  0  0  0
    0.4828    0.6490    0.0000 C   0  0  0  0  0  0  0  0  0  0  0  0
    1.5103    1.7419    0.0000 C   0  0  0  0  0  0  0  0  0  0  0  0
    2.9704    1.3985    0.0000 C   0  0  0  0  0  0  0  0  0  0  0  0
    3.4032   -0.0377    0.0000 C   0  0  0  0  0  0  0  0  0  0  0  0
    4.8633   -0.3811    0.0000 Cl  0  0  0  0  0  0  0  0  0  0  0  0
    2.3757   -1.1306    0.0000 C   0  0  0  0  0  0  0  0  0  0  0  0
    0.9155   -0.7872    0.0000 C   0  0  0  0  0  0  0  0  0  0  0  0
   -0.1119   -1.8801    0.0000 C   0  0  0  0  0  0  0  0  0  0  0  0
   -3.4650    0.2429    0.0000 C   0  0  0  0  0  0  0  0  0  0  0  0
   -4.4924   -0.8500    0.0000 O   0  0  0  0  0  0  0  0  0  0  0  0
   -3.8977    1.6791    0.0000 O   0  0  0  0  0  0  0  0  0  0  0  0
  1  2  1  0
  2  3  1  0
  3  4  1  0
  4  5  1  0
  5  6  2  0
  6  7  1  0
  7  8  1  0
  7  9  2  0
  9 10  1  0
 10 11  1  0
  2 12  1  1
 12 13  2  0
 12 14  1  0
 10  4  2  0
 11  1  1  0
M  END
>  <rName>  (1488) 
D-Tic_7Cl

>  <PQ_SYMBOL>  (1488) 
D-Tic_7Cl

>  <FULL_NAME>  (1488) 
7-Chloro-D-Tic-OH

>  <IUPAC_CONDENSED>  (1488) 
D-Tic(7-Cl)

>  <IUPAC>  (1488) 
(4R)-9-chloro-3-azabicyclo[4.4.0]deca-1(10),6,8-triene-4-carboxylic acid

>  <TYPE>  (1488) 
Backbone

>  <CLASS>  (1488) 
alpha

>  <ANALOG>  (1488) 
Pro

>  <MOL_WT>  (1488) 
211.64799999999997

>  <LOGP>  (1488) 
1.4389

>  <TPSA>  (1488) 
49.33

>  <POPULARITY>  (1488) 
3.0

>  <PROTECTED>  (1488) 
TRUE

>  <SMILES>  (1488) 
N2[C@H](Cc1(ccc(Cl)cc1C2))C(=O)O

>  <INCHIKEY>  (1488) 
JCIOLAVNXSFZSH-SECBINFHSA-N

$$$$
D-Tic_7Me
     RDKit          2D

 14 15  0  0  0  0  0  0  0  0999 V2000
   -1.5721   -1.5367    0.0000 N   0  0  0  0  0  0  0  0  0  0  0  0
   -2.0048   -0.1005    0.0000 C   0  0  0  0  0  0  0  0  0  0  0  0
   -0.9774    0.9924    0.0000 C   0  0  0  0  0  0  0  0  0  0  0  0
    0.4828    0.6490    0.0000 C   0  0  0  0  0  0  0  0  0  0  0  0
    1.5103    1.7419    0.0000 C   0  0  0  0  0  0  0  0  0  0  0  0
    2.9704    1.3985    0.0000 C   0  0  0  0  0  0  0  0  0  0  0  0
    3.4032   -0.0377    0.0000 C   0  0  0  0  0  0  0  0  0  0  0  0
    4.8633   -0.3811    0.0000 C   0  0  0  0  0  0  0  0  0  0  0  0
    2.3757   -1.1306    0.0000 C   0  0  0  0  0  0  0  0  0  0  0  0
    0.9155   -0.7872    0.0000 C   0  0  0  0  0  0  0  0  0  0  0  0
   -0.1119   -1.8801    0.0000 C   0  0  0  0  0  0  0  0  0  0  0  0
   -3.4650    0.2429    0.0000 C   0  0  0  0  0  0  0  0  0  0  0  0
   -4.4924   -0.8500    0.0000 O   0  0  0  0  0  0  0  0  0  0  0  0
   -3.8977    1.6791    0.0000 O   0  0  0  0  0  0  0  0  0  0  0  0
  1  2  1  0
  2  3  1  0
  3  4  1  0
  4  5  1  0
  5  6  2  0
  6  7  1  0
  7  8  1  0
  7  9  2  0
  9 10  1  0
 10 11  1  0
  2 12  1  1
 12 13  2  0
 12 14  1  0
 10  4  2  0
 11  1  1  0
M  END
>  <rName>  (1489) 
D-Tic_7Me

>  <PQ_SYMBOL>  (1489) 
D-Tic_7Me

>  <FULL_NAME>  (1489) 
(R)-7-Methyl-1,2,3,4-tetrahydroisoquinoline-3-carboxylic Acid

>  <IUPAC_CONDENSED>  (1489) 
D-Tic(7-Me)

>  <IUPAC>  (1489) 
(3R)-7-methyl-1,2,3,4-tetrahydroisoquinoline-3-carboxylic acid

>  <TYPE>  (1489) 
Backbone

>  <CLASS>  (1489) 
alpha

>  <ANALOG>  (1489) 
Pro

>  <MOL_WT>  (1489) 
191.22999999999996

>  <LOGP>  (1489) 
1.09392

>  <TPSA>  (1489) 
49.33

>  <POPULARITY>  (1489) 
2.2

>  <PROTECTED>  (1489) 
TRUE

>  <SMILES>  (1489) 
N2[C@H](Cc1(ccc(C)cc1C2))C(=O)O

>  <INCHIKEY>  (1489) 
IFKNWIVAOLUMOT-SNVBAGLBSA-N

$$$$
D-Tic_7OH
     RDKit          2D

 14 15  0  0  0  0  0  0  0  0999 V2000
   -1.5721   -1.5367    0.0000 N   0  0  0  0  0  0  0  0  0  0  0  0
   -2.0048   -0.1005    0.0000 C   0  0  0  0  0  0  0  0  0  0  0  0
   -0.9774    0.9924    0.0000 C   0  0  0  0  0  0  0  0  0  0  0  0
    0.4828    0.6490    0.0000 C   0  0  0  0  0  0  0  0  0  0  0  0
    1.5103    1.7419    0.0000 C   0  0  0  0  0  0  0  0  0  0  0  0
    2.9704    1.3985    0.0000 C   0  0  0  0  0  0  0  0  0  0  0  0
    3.4032   -0.0377    0.0000 C   0  0  0  0  0  0  0  0  0  0  0  0
    4.8633   -0.3811    0.0000 O   0  0  0  0  0  0  0  0  0  0  0  0
    2.3757   -1.1306    0.0000 C   0  0  0  0  0  0  0  0  0  0  0  0
    0.9155   -0.7872    0.0000 C   0  0  0  0  0  0  0  0  0  0  0  0
   -0.1119   -1.8801    0.0000 C   0  0  0  0  0  0  0  0  0  0  0  0
   -3.4650    0.2429    0.0000 C   0  0  0  0  0  0  0  0  0  0  0  0
   -4.4924   -0.8500    0.0000 O   0  0  0  0  0  0  0  0  0  0  0  0
   -3.8977    1.6791    0.0000 O   0  0  0  0  0  0  0  0  0  0  0  0
  1  2  1  0
  2  3  1  0
  3  4  1  0
  4  5  1  0
  5  6  2  0
  6  7  1  0
  7  8  1  0
  7  9  2  0
  9 10  1  0
 10 11  1  0
  2 12  1  1
 12 13  2  0
 12 14  1  0
 10  4  2  0
 11  1  1  0
M  END
>  <rName>  (1490) 
D-Tic_7OH

>  <PQ_SYMBOL>  (1490) 
D-Tic_7OH

>  <FULL_NAME>  (1490) 
(R)-7-hydroxy-1,2,3,4-tetrahydroisoquinoline-3-carboxylic acid

>  <IUPAC_CONDENSED>  (1490) 
D-Tic(7-OH)

>  <IUPAC>  (1490) 
(4R)-9-hydroxy-3-azabicyclo[4.4.0]deca-1(10),6,8-triene-4-carboxylic acid

>  <TYPE>  (1490) 
Backbone

>  <CLASS>  (1490) 
alpha

>  <ANALOG>  (1490) 
Pro

>  <MOL_WT>  (1490) 
193.20199999999994

>  <LOGP>  (1490) 
0.49109999999999987

>  <TPSA>  (1490) 
69.56

>  <POPULARITY>  (1490) 
9.0

>  <PROTECTED>  (1490) 
TRUE

>  <SMILES>  (1490) 
N2[C@H](Cc1(ccc(O)cc1C2))C(=O)O

>  <INCHIKEY>  (1490) 
HIKCRLDSCSWXML-SECBINFHSA-N

$$$$
D-Tic_7OMe
     RDKit          2D

 15 16  0  0  0  0  0  0  0  0999 V2000
   -1.8077   -1.5627    0.0000 N   0  0  0  0  0  0  0  0  0  0  0  0
   -2.3522   -0.1650    0.0000 C   0  0  0  0  0  0  0  0  0  0  0  0
   -1.4140    1.0053    0.0000 C   0  0  0  0  0  0  0  0  0  0  0  0
    0.0687    0.7780    0.0000 C   0  0  0  0  0  0  0  0  0  0  0  0
    1.0069    1.9484    0.0000 C   0  0  0  0  0  0  0  0  0  0  0  0
    2.4896    1.7210    0.0000 C   0  0  0  0  0  0  0  0  0  0  0  0
    3.0341    0.3233    0.0000 C   0  0  0  0  0  0  0  0  0  0  0  0
    4.5167    0.0960    0.0000 O   0  0  0  0  0  0  0  0  0  0  0  0
    5.0612   -1.3017    0.0000 C   0  0  0  0  0  0  0  0  0  0  0  0
    2.0958   -0.8471    0.0000 C   0  0  0  0  0  0  0  0  0  0  0  0
    0.6132   -0.6197    0.0000 C   0  0  0  0  0  0  0  0  0  0  0  0
   -0.3251   -1.7901    0.0000 C   0  0  0  0  0  0  0  0  0  0  0  0
   -3.8349    0.0623    0.0000 C   0  0  0  0  0  0  0  0  0  0  0  0
   -4.7731   -1.1080    0.0000 O   0  0  0  0  0  0  0  0  0  0  0  0
   -4.3793    1.4600    0.0000 O   0  0  0  0  0  0  0  0  0  0  0  0
  1  2  1  0
  2  3  1  0
  3  4  1  0
  4  5  1  0
  5  6  2  0
  6  7  1  0
  7  8  1  0
  8  9  1  0
  7 10  2  0
 10 11  1  0
 11 12  1  0
  2 13  1  1
 13 14  2  0
 13 15  1  0
 11  4  2  0
 12  1  1  0
M  END
>  <rName>  (1491) 
D-Tic_7OMe

>  <PQ_SYMBOL>  (1491) 
D-Tic_7OMe

>  <FULL_NAME>  (1491) 
(3R)-7-methoxy-1,2,3,4-tetrahydroisoquinoline-3-carboxylic acid

>  <IUPAC_CONDENSED>  (1491) 
D-Tic(7-OMe)

>  <IUPAC>  (1491) 
(4R)-9-methoxy-3-azabicyclo[4.4.0]deca-1(10),6,8-triene-4-carboxylic acid

>  <TYPE>  (1491) 
Backbone

>  <CLASS>  (1491) 
alpha

>  <ANALOG>  (1491) 
Pro

>  <MOL_WT>  (1491) 
207.22899999999996

>  <LOGP>  (1491) 
0.7941

>  <TPSA>  (1491) 
58.56

>  <POPULARITY>  (1491) 
7.1

>  <PROTECTED>  (1491) 
TRUE

>  <SMILES>  (1491) 
N2[C@H](Cc1(ccc(OC)cc1C2))C(=O)O

>  <INCHIKEY>  (1491) 
YDNMAPUCPGTICT-SNVBAGLBSA-N

$$$$
D-Tpi
     RDKit          2D

 16 18  0  0  0  0  0  0  0  0999 V2000
   -2.5143   -1.4629    0.0000 N   0  0  0  0  0  0  0  0  0  0  0  0
   -2.4824    0.0368    0.0000 C   0  0  0  0  0  0  0  0  0  0  0  0
   -1.1676    0.7589    0.0000 C   0  0  0  0  0  0  0  0  0  0  0  0
    0.1151   -0.0186    0.0000 C   0  0  0  0  0  0  0  0  0  0  0  0
    0.0831   -1.5183    0.0000 C   0  0  0  0  0  0  0  0  0  0  0  0
   -1.2316   -2.2404    0.0000 C   0  0  0  0  0  0  0  0  0  0  0  0
    1.4995   -2.0121    0.0000 N   0  0  0  0  0  0  0  0  0  0  0  0
    2.4069   -0.8176    0.0000 C   0  0  0  0  0  0  0  0  0  0  0  0
    3.9017   -0.6927    0.0000 C   0  0  0  0  0  0  0  0  0  0  0  0
    4.5408    0.6643    0.0000 C   0  0  0  0  0  0  0  0  0  0  0  0
    3.6852    1.8964    0.0000 C   0  0  0  0  0  0  0  0  0  0  0  0
    2.1904    1.7714    0.0000 C   0  0  0  0  0  0  0  0  0  0  0  0
    1.5513    0.4144    0.0000 C   0  0  0  0  0  0  0  0  0  0  0  0
   -3.7651    0.8143    0.0000 C   0  0  0  0  0  0  0  0  0  0  0  0
   -5.0799    0.0921    0.0000 O   0  0  0  0  0  0  0  0  0  0  0  0
   -3.7332    2.3139    0.0000 O   0  0  0  0  0  0  0  0  0  0  0  0
  1  2  1  0
  2  3  1  0
  3  4  1  0
  4  5  2  0
  5  6  1  0
  5  7  1  0
  7  8  1  0
  8  9  2  0
  9 10  1  0
 10 11  2  0
 11 12  1  0
 12 13  2  0
  2 14  1  1
 14 15  2  0
 14 16  1  0
  6  1  1  0
 13  4  1  0
 13  8  1  0
M  END
>  <rName>  (1492) 
D-Tpi

>  <PQ_SYMBOL>  (1492) 
D-Tpi

>  <FULL_NAME>  (1492) 
D-Tryptoline-3-carboxylic acid

>  <IUPAC_CONDENSED>  (1492) 
D-Tpi

>  <IUPAC>  (1492) 
(12R)-8,11-diazatricyclo[7.4.0.0^{2,7}]trideca-1(9),2,4,6-tetraene-12-carboxylic acid

>  <TYPE>  (1492) 
Backbone

>  <CLASS>  (1492) 
alpha

>  <ANALOG>  (1492) 
Pro

>  <MOL_WT>  (1492) 
216.24

>  <LOGP>  (1492) 
1.2668

>  <TPSA>  (1492) 
65.12

>  <POPULARITY>  (1492) 
12.5

>  <PROTECTED>  (1492) 
TRUE

>  <SMILES>  (1492) 
N1[C@H](Cc2(c(C1)[nH]c3(ccccc23)))C(=O)O

>  <INCHIKEY>  (1492) 
FSNCEEGOMTYXKY-SNVBAGLBSA-N

$$$$
D-Trp-OBn
     RDKit          2D

 22 24  0  0  0  0  0  0  0  0999 V2000
    0.0709   -1.5459    0.0000 N   0  0  0  0  0  0  0  0  0  0  0  0
    0.2042   -0.0518    0.0000 C   0  0  0  0  0  0  0  0  0  0  0  0
    1.5648    0.5798    0.0000 C   0  0  0  0  0  0  0  0  0  0  0  0
    2.7920   -0.2827    0.0000 C   0  0  0  0  0  0  0  0  0  0  0  0
    2.8156   -1.7825    0.0000 C   0  0  0  0  0  0  0  0  0  0  0  0
    4.2493   -2.2235    0.0000 N   0  0  0  0  0  0  0  0  0  0  0  0
    5.1118   -0.9963    0.0000 C   0  0  0  0  0  0  0  0  0  0  0  0
    6.6009   -0.8160    0.0000 C   0  0  0  0  0  0  0  0  0  0  0  0
    7.1894    0.5637    0.0000 C   0  0  0  0  0  0  0  0  0  0  0  0
    6.2887    1.7632    0.0000 C   0  0  0  0  0  0  0  0  0  0  0  0
    4.7996    1.5830    0.0000 C   0  0  0  0  0  0  0  0  0  0  0  0
    4.2111    0.2032    0.0000 C   0  0  0  0  0  0  0  0  0  0  0  0
   -1.0230    0.8106    0.0000 C   0  0  0  0  0  0  0  0  0  0  0  0
   -0.8897    2.3047    0.0000 O   0  0  0  0  0  0  0  0  0  0  0  0
   -2.3836    0.1790    0.0000 O   0  0  0  0  0  0  0  0  0  0  0  0
   -3.6108    1.0415    0.0000 C   0  0  0  0  0  0  0  0  0  0  0  0
   -4.9714    0.4099    0.0000 C   0  0  0  0  0  0  0  0  0  0  0  0
   -6.1986    1.2724    0.0000 C   0  0  0  0  0  0  0  0  0  0  0  0
   -7.5592    0.6408    0.0000 C   0  0  0  0  0  0  0  0  0  0  0  0
   -7.6925   -0.8533    0.0000 C   0  0  0  0  0  0  0  0  0  0  0  0
   -6.4652   -1.7157    0.0000 C   0  0  0  0  0  0  0  0  0  0  0  0
   -5.1047   -1.0841    0.0000 C   0  0  0  0  0  0  0  0  0  0  0  0
  2  1  1  1
  2  3  1  0
  3  4  1  0
  4  5  2  0
  5  6  1  0
  6  7  1  0
  7  8  2  0
  8  9  1  0
  9 10  2  0
 10 11  1  0
 11 12  2  0
  2 13  1  0
 13 14  2  0
 13 15  1  0
 15 16  1  0
 16 17  1  0
 17 18  2  0
 18 19  1  0
 19 20  2  0
 20 21  1  0
 21 22  2  0
 22 17  1  0
 12  4  1  0
 12  7  1  0
M  END
>  <rName>  (1493) 
D-Trp-OBn

>  <PQ_SYMBOL>  (1493) 
D-Trp-OBn

>  <FULL_NAME>  (1493) 
D-Tryptophan benzyl ester

>  <IUPAC_CONDENSED>  (1493) 
D-Trp-OBn

>  <IUPAC>  (1493) 
benzyl (2R)-2-amino-3-(1H-indol-3-yl)propanoate

>  <TYPE>  (1493) 
C-term cap

>  <CLASS>  (1493) 
c_cap

>  <ANALOG>  (1493) 
X

>  <MOL_WT>  (1493) 
294.354

>  <LOGP>  (1493) 
2.7811000000000012

>  <TPSA>  (1493) 
68.11

>  <POPULARITY>  (1493) 
7.8

>  <PROTECTED>  (1493) 
TRUE

>  <SMILES>  (1493) 
N[C@H](Cc2(c[nH]c3(ccccc23)))C(=O)OCc1ccccc1

>  <INCHIKEY>  (1493) 
TYQYRKDGHAPZRF-MRXNPFEDSA-N

$$$$
D-Trp_2Me
     RDKit          2D

 16 17  0  0  0  0  0  0  0  0999 V2000
   -2.5941   -1.4623    0.0000 N   0  0  0  0  0  0  0  0  0  0  0  0
   -2.4986    0.0347    0.0000 C   0  0  0  0  0  0  0  0  0  0  0  0
   -1.1544    0.7005    0.0000 C   0  0  0  0  0  0  0  0  0  0  0  0
    0.0942   -0.1307    0.0000 C   0  0  0  0  0  0  0  0  0  0  0  0
    0.1557   -1.6294    0.0000 C   0  0  0  0  0  0  0  0  0  0  0  0
   -1.0206   -2.5601    0.0000 C   0  0  0  0  0  0  0  0  0  0  0  0
    1.6001   -2.0341    0.0000 N   0  0  0  0  0  0  0  0  0  0  0  0
    2.4313   -0.7854    0.0000 C   0  0  0  0  0  0  0  0  0  0  0  0
    3.9154   -0.5676    0.0000 C   0  0  0  0  0  0  0  0  0  0  0  0
    4.4688    0.8266    0.0000 C   0  0  0  0  0  0  0  0  0  0  0  0
    3.5381    2.0030    0.0000 C   0  0  0  0  0  0  0  0  0  0  0  0
    2.0540    1.7851    0.0000 C   0  0  0  0  0  0  0  0  0  0  0  0
    1.5006    0.3909    0.0000 C   0  0  0  0  0  0  0  0  0  0  0  0
   -3.7473    0.8659    0.0000 C   0  0  0  0  0  0  0  0  0  0  0  0
   -3.6518    2.3628    0.0000 O   0  0  0  0  0  0  0  0  0  0  0  0
   -5.0914    0.2001    0.0000 O   0  0  0  0  0  0  0  0  0  0  0  0
  2  1  1  1
  2  3  1  0
  3  4  1  0
  4  5  2  0
  5  6  1  0
  5  7  1  0
  7  8  1  0
  8  9  2  0
  9 10  1  0
 10 11  2  0
 11 12  1  0
 12 13  2  0
  2 14  1  0
 14 15  2  0
 14 16  1  0
 13  4  1  0
 13  8  1  0
M  END
>  <rName>  (1494) 
D-Trp_2Me

>  <PQ_SYMBOL>  (1494) 
D-Trp_2Me

>  <FULL_NAME>  (1494) 
2-Methyl-d-tryptophan

>  <IUPAC_CONDENSED>  (1494) 
D-Trp(2-Me)

>  <IUPAC>  (1494) 
(2R)-2-amino-3-(2-methyl-1H-indol-3-yl)propanoic acid

>  <TYPE>  (1494) 
Backbone

>  <CLASS>  (1494) 
alpha

>  <ANALOG>  (1494) 
Trp

>  <MOL_WT>  (1494) 
218.256

>  <LOGP>  (1494) 
1.4307200000000002

>  <TPSA>  (1494) 
79.11

>  <POPULARITY>  (1494) 
15.4

>  <PROTECTED>  (1494) 
TRUE

>  <SMILES>  (1494) 
N[C@H](Cc1(c(C)[nH]c2(ccccc12)))C(=O)O

>  <INCHIKEY>  (1494) 
BXJSOEWOQDVGJW-SNVBAGLBSA-N

$$$$
D-Trp_4Aza
     RDKit          2D

 15 16  0  0  0  0  0  0  0  0999 V2000
   -2.6183   -1.7023    0.0000 N   0  0  0  0  0  0  0  0  0  0  0  0
   -2.5622   -0.2034    0.0000 C   0  0  0  0  0  0  0  0  0  0  0  0
   -1.2360    0.4975    0.0000 C   0  0  0  0  0  0  0  0  0  0  0  0
    0.0341   -0.3006    0.0000 C   0  0  0  0  0  0  0  0  0  0  0  0
    0.1349   -1.7972    0.0000 C   0  0  0  0  0  0  0  0  0  0  0  0
    1.5895   -2.1637    0.0000 N   0  0  0  0  0  0  0  0  0  0  0  0
    2.3875   -0.8937    0.0000 C   0  0  0  0  0  0  0  0  0  0  0  0
    3.8654   -0.6369    0.0000 C   0  0  0  0  0  0  0  0  0  0  0  0
    4.3820    0.7713    0.0000 C   0  0  0  0  0  0  0  0  0  0  0  0
    3.4207    1.9228    0.0000 C   0  0  0  0  0  0  0  0  0  0  0  0
    1.9429    1.6661    0.0000 N   0  0  0  0  0  0  0  0  0  0  0  0
    1.4263    0.2578    0.0000 C   0  0  0  0  0  0  0  0  0  0  0  0
   -3.8322    0.5947    0.0000 C   0  0  0  0  0  0  0  0  0  0  0  0
   -3.7761    2.0937    0.0000 O   0  0  0  0  0  0  0  0  0  0  0  0
   -5.1584   -0.1061    0.0000 O   0  0  0  0  0  0  0  0  0  0  0  0
  2  1  1  1
  2  3  1  0
  3  4  1  0
  4  5  2  0
  5  6  1  0
  6  7  1  0
  7  8  2  0
  8  9  1  0
  9 10  2  0
 10 11  1  0
 11 12  2  0
  2 13  1  0
 13 14  2  0
 13 15  1  0
 12  4  1  0
 12  7  1  0
M  END
>  <rName>  (1495) 
D-Trp_4Aza

>  <PQ_SYMBOL>  (1495) 
D-Trp_4Aza

>  <FULL_NAME>  (1495) 
(2R)-2-amino-3-(1H-pyrrolo[3,2-b]pyridin-3-yl)propanoic acid

>  <IUPAC_CONDENSED>  (1495) 
D-Trp(4-Aza)

>  <IUPAC>  (1495) 
(2R)-2-amino-3-(1H-pyrrolo[3,2-b]pyridin-3-yl)propanoic acid

>  <TYPE>  (1495) 
Backbone

>  <CLASS>  (1495) 
alpha

>  <ANALOG>  (1495) 
Phe

>  <MOL_WT>  (1495) 
205.21699999999998

>  <LOGP>  (1495) 
0.5173000000000003

>  <TPSA>  (1495) 
92.00000000000001

>  <POPULARITY>  (1495) 
2.2

>  <PROTECTED>  (1495) 
TRUE

>  <SMILES>  (1495) 
N[C@H](Cc1(c[nH]c2(cccnc12)))C(=O)O

>  <INCHIKEY>  (1495) 
FICCYWIDRZLXIS-SSDOTTSWSA-N

$$$$
D-Trp_4Br
     RDKit          2D

 16 17  0  0  0  0  0  0  0  0999 V2000
   -2.7276   -1.8081    0.0000 N   0  0  0  0  0  0  0  0  0  0  0  0
   -2.6325   -0.3111    0.0000 C   0  0  0  0  0  0  0  0  0  0  0  0
   -1.2885    0.3550    0.0000 C   0  0  0  0  0  0  0  0  0  0  0  0
   -0.0397   -0.4758    0.0000 C   0  0  0  0  0  0  0  0  0  0  0  0
    0.0222   -1.9745    0.0000 C   0  0  0  0  0  0  0  0  0  0  0  0
    1.4667   -2.3788    0.0000 N   0  0  0  0  0  0  0  0  0  0  0  0
    2.2976   -1.1299    0.0000 C   0  0  0  0  0  0  0  0  0  0  0  0
    3.7816   -0.9117    0.0000 C   0  0  0  0  0  0  0  0  0  0  0  0
    4.3347    0.4826    0.0000 C   0  0  0  0  0  0  0  0  0  0  0  0
    3.4037    1.6587    0.0000 C   0  0  0  0  0  0  0  0  0  0  0  0
    1.9196    1.4405    0.0000 C   0  0  0  0  0  0  0  0  0  0  0  0
    0.9886    2.6166    0.0000 Br  0  0  0  0  0  0  0  0  0  0  0  0
    1.3666    0.0462    0.0000 C   0  0  0  0  0  0  0  0  0  0  0  0
   -3.8814    0.5198    0.0000 C   0  0  0  0  0  0  0  0  0  0  0  0
   -3.7863    2.0167    0.0000 O   0  0  0  0  0  0  0  0  0  0  0  0
   -5.2254   -0.1464    0.0000 O   0  0  0  0  0  0  0  0  0  0  0  0
  2  1  1  1
  2  3  1  0
  3  4  1  0
  4  5  2  0
  5  6  1  0
  6  7  1  0
  7  8  2  0
  8  9  1  0
  9 10  2  0
 10 11  1  0
 11 12  1  0
 11 13  2  0
  2 14  1  0
 14 15  2  0
 14 16  1  0
 13  4  1  0
 13  7  1  0
M  END
>  <rName>  (1496) 
D-Trp_4Br

>  <PQ_SYMBOL>  (1496) 
D-Trp_4Br

>  <FULL_NAME>  (1496) 
4-bromo-D-tryptophan

>  <IUPAC_CONDENSED>  (1496) 
D-Trp(4-Br)

>  <IUPAC>  (1496) 
(2R)-2-amino-3-(4-bromo-1H-indol-3-yl)propanoic acid

>  <TYPE>  (1496) 
Backbone

>  <CLASS>  (1496) 
alpha

>  <ANALOG>  (1496) 
Trp

>  <MOL_WT>  (1496) 
283.125

>  <LOGP>  (1496) 
1.8848000000000003

>  <TPSA>  (1496) 
79.11

>  <POPULARITY>  (1496) 
3.8

>  <PROTECTED>  (1496) 
TRUE

>  <SMILES>  (1496) 
N[C@H](Cc1(c[nH]c2(cccc(Br)c12)))C(=O)O

>  <INCHIKEY>  (1496) 
OFKIVYVSESEHFZ-MRVPVSSYSA-N

$$$$
D-Trp_4CN
     RDKit          2D

 17 18  0  0  0  0  0  0  0  0999 V2000
   -2.7358   -2.0247    0.0000 N   0  0  0  0  0  0  0  0  0  0  0  0
   -2.6372   -0.5279    0.0000 C   0  0  0  0  0  0  0  0  0  0  0  0
   -1.2916    0.1350    0.0000 C   0  0  0  0  0  0  0  0  0  0  0  0
   -0.0447   -0.6988    0.0000 C   0  0  0  0  0  0  0  0  0  0  0  0
    0.0136   -2.1977    0.0000 C   0  0  0  0  0  0  0  0  0  0  0  0
    1.4571   -2.6054    0.0000 N   0  0  0  0  0  0  0  0  0  0  0  0
    2.2910   -1.3585    0.0000 C   0  0  0  0  0  0  0  0  0  0  0  0
    3.7755   -1.1438    0.0000 C   0  0  0  0  0  0  0  0  0  0  0  0
    4.3319    0.2492    0.0000 C   0  0  0  0  0  0  0  0  0  0  0  0
    3.4037    1.4275    0.0000 C   0  0  0  0  0  0  0  0  0  0  0  0
    1.9191    1.2128    0.0000 C   0  0  0  0  0  0  0  0  0  0  0  0
    0.9909    2.3912    0.0000 C   0  0  0  0  0  0  0  0  0  0  0  0
    0.0627    3.5695    0.0000 N   0  0  0  0  0  0  0  0  0  0  0  0
    1.3628   -0.1802    0.0000 C   0  0  0  0  0  0  0  0  0  0  0  0
   -3.8841    0.3059    0.0000 C   0  0  0  0  0  0  0  0  0  0  0  0
   -3.7854    1.8027    0.0000 O   0  0  0  0  0  0  0  0  0  0  0  0
   -5.2296   -0.3570    0.0000 O   0  0  0  0  0  0  0  0  0  0  0  0
  2  1  1  1
  2  3  1  0
  3  4  1  0
  4  5  2  0
  5  6  1  0
  6  7  1  0
  7  8  2  0
  8  9  1  0
  9 10  2  0
 10 11  1  0
 11 12  1  0
 12 13  3  0
 11 14  2  0
  2 15  1  0
 15 16  2  0
 15 17  1  0
 14  4  1  0
 14  7  1  0
M  END
>  <rName>  (1497) 
D-Trp_4CN

>  <PQ_SYMBOL>  (1497) 
D-Trp_4CN

>  <FULL_NAME>  (1497) 
4-cyano-D-tryptophan

>  <IUPAC_CONDENSED>  (1497) 
D-Trp(4-CN)

>  <IUPAC>  (1497) 
(2R)-2-amino-3-(4-(nitrilomethyl)-1H-indol-3-yl)propanoic acid

>  <TYPE>  (1497) 
Backbone

>  <CLASS>  (1497) 
alpha

>  <ANALOG>  (1497) 
Trp

>  <MOL_WT>  (1497) 
229.23899999999998

>  <LOGP>  (1497) 
0.9939800000000001

>  <TPSA>  (1497) 
102.89999999999999

>  <POPULARITY>  (1497) 
3.1

>  <PROTECTED>  (1497) 
TRUE

>  <SMILES>  (1497) 
N[C@H](Cc1(c[nH]c2(cccc(C#N)c12)))C(=O)O

>  <INCHIKEY>  (1497) 
UOPSYGYZOBPCLD-SECBINFHSA-N

$$$$
D-Trp_4Cl
     RDKit          2D

 16 17  0  0  0  0  0  0  0  0999 V2000
   -2.7276   -1.8081    0.0000 N   0  0  0  0  0  0  0  0  0  0  0  0
   -2.6325   -0.3111    0.0000 C   0  0  0  0  0  0  0  0  0  0  0  0
   -1.2885    0.3550    0.0000 C   0  0  0  0  0  0  0  0  0  0  0  0
   -0.0397   -0.4758    0.0000 C   0  0  0  0  0  0  0  0  0  0  0  0
    0.0222   -1.9745    0.0000 C   0  0  0  0  0  0  0  0  0  0  0  0
    1.4667   -2.3788    0.0000 N   0  0  0  0  0  0  0  0  0  0  0  0
    2.2976   -1.1299    0.0000 C   0  0  0  0  0  0  0  0  0  0  0  0
    3.7816   -0.9117    0.0000 C   0  0  0  0  0  0  0  0  0  0  0  0
    4.3347    0.4826    0.0000 C   0  0  0  0  0  0  0  0  0  0  0  0
    3.4037    1.6587    0.0000 C   0  0  0  0  0  0  0  0  0  0  0  0
    1.9196    1.4405    0.0000 C   0  0  0  0  0  0  0  0  0  0  0  0
    0.9886    2.6166    0.0000 Cl  0  0  0  0  0  0  0  0  0  0  0  0
    1.3666    0.0462    0.0000 C   0  0  0  0  0  0  0  0  0  0  0  0
   -3.8814    0.5198    0.0000 C   0  0  0  0  0  0  0  0  0  0  0  0
   -3.7863    2.0167    0.0000 O   0  0  0  0  0  0  0  0  0  0  0  0
   -5.2254   -0.1464    0.0000 O   0  0  0  0  0  0  0  0  0  0  0  0
  2  1  1  1
  2  3  1  0
  3  4  1  0
  4  5  2  0
  5  6  1  0
  6  7  1  0
  7  8  2  0
  8  9  1  0
  9 10  2  0
 10 11  1  0
 11 12  1  0
 11 13  2  0
  2 14  1  0
 14 15  2  0
 14 16  1  0
 13  4  1  0
 13  7  1  0
M  END
>  <rName>  (1498) 
D-Trp_4Cl

>  <PQ_SYMBOL>  (1498) 
D-Trp_4Cl

>  <FULL_NAME>  (1498) 
4-chloro-D-tryptophan

>  <IUPAC_CONDENSED>  (1498) 
D-Trp(4-Cl)

>  <IUPAC>  (1498) 
(2R)-2-amino-3-(4-chloro-1H-indol-3-yl)propanoic acid

>  <TYPE>  (1498) 
Backbone

>  <CLASS>  (1498) 
alpha

>  <ANALOG>  (1498) 
Trp

>  <MOL_WT>  (1498) 
238.67399999999998

>  <LOGP>  (1498) 
1.7757000000000003

>  <TPSA>  (1498) 
79.11

>  <POPULARITY>  (1498) 
4.1

>  <PROTECTED>  (1498) 
TRUE

>  <SMILES>  (1498) 
N[C@H](Cc1(c[nH]c2(cccc(Cl)c12)))C(=O)O

>  <INCHIKEY>  (1498) 
NRTHKYABOMUPSC-MRVPVSSYSA-N

$$$$
D-Trp_4F
     RDKit          2D

 16 17  0  0  0  0  0  0  0  0999 V2000
   -2.7276   -1.8081    0.0000 N   0  0  0  0  0  0  0  0  0  0  0  0
   -2.6325   -0.3111    0.0000 C   0  0  0  0  0  0  0  0  0  0  0  0
   -1.2885    0.3550    0.0000 C   0  0  0  0  0  0  0  0  0  0  0  0
   -0.0397   -0.4758    0.0000 C   0  0  0  0  0  0  0  0  0  0  0  0
    0.0222   -1.9745    0.0000 C   0  0  0  0  0  0  0  0  0  0  0  0
    1.4667   -2.3788    0.0000 N   0  0  0  0  0  0  0  0  0  0  0  0
    2.2976   -1.1299    0.0000 C   0  0  0  0  0  0  0  0  0  0  0  0
    3.7816   -0.9117    0.0000 C   0  0  0  0  0  0  0  0  0  0  0  0
    4.3347    0.4826    0.0000 C   0  0  0  0  0  0  0  0  0  0  0  0
    3.4037    1.6587    0.0000 C   0  0  0  0  0  0  0  0  0  0  0  0
    1.9196    1.4405    0.0000 C   0  0  0  0  0  0  0  0  0  0  0  0
    0.9886    2.6166    0.0000 F   0  0  0  0  0  0  0  0  0  0  0  0
    1.3666    0.0462    0.0000 C   0  0  0  0  0  0  0  0  0  0  0  0
   -3.8814    0.5198    0.0000 C   0  0  0  0  0  0  0  0  0  0  0  0
   -3.7863    2.0167    0.0000 O   0  0  0  0  0  0  0  0  0  0  0  0
   -5.2254   -0.1464    0.0000 O   0  0  0  0  0  0  0  0  0  0  0  0
  2  1  1  1
  2  3  1  0
  3  4  1  0
  4  5  2  0
  5  6  1  0
  6  7  1  0
  7  8  2  0
  8  9  1  0
  9 10  2  0
 10 11  1  0
 11 12  1  0
 11 13  2  0
  2 14  1  0
 14 15  2  0
 14 16  1  0
 13  4  1  0
 13  7  1  0
M  END
>  <rName>  (1499) 
D-Trp_4F

>  <PQ_SYMBOL>  (1499) 
D-Trp_4F

>  <FULL_NAME>  (1499) 
4-fluoro-D-tryptophan

>  <IUPAC_CONDENSED>  (1499) 
D-Trp(4-F)

>  <IUPAC>  (1499) 
(2R)-2-amino-3-(4-fluoro-1H-indol-3-yl)propanoic acid

>  <TYPE>  (1499) 
Backbone

>  <CLASS>  (1499) 
alpha

>  <ANALOG>  (1499) 
Trp

>  <MOL_WT>  (1499) 
222.21899999999997

>  <LOGP>  (1499) 
1.2614000000000003

>  <TPSA>  (1499) 
79.11

>  <POPULARITY>  (1499) 
5.5

>  <PROTECTED>  (1499) 
TRUE

>  <SMILES>  (1499) 
N[C@H](Cc1(c[nH]c2(cccc(F)c12)))C(=O)O

>  <INCHIKEY>  (1499) 
DEBQMEYEKKWIKC-MRVPVSSYSA-N

$$$$
D-Trp_4I
     RDKit          2D

 16 17  0  0  0  0  0  0  0  0999 V2000
   -2.7276   -1.8081    0.0000 N   0  0  0  0  0  0  0  0  0  0  0  0
   -2.6325   -0.3111    0.0000 C   0  0  0  0  0  0  0  0  0  0  0  0
   -1.2885    0.3550    0.0000 C   0  0  0  0  0  0  0  0  0  0  0  0
   -0.0397   -0.4758    0.0000 C   0  0  0  0  0  0  0  0  0  0  0  0
    0.0222   -1.9745    0.0000 C   0  0  0  0  0  0  0  0  0  0  0  0
    1.4667   -2.3788    0.0000 N   0  0  0  0  0  0  0  0  0  0  0  0
    2.2976   -1.1299    0.0000 C   0  0  0  0  0  0  0  0  0  0  0  0
    3.7816   -0.9117    0.0000 C   0  0  0  0  0  0  0  0  0  0  0  0
    4.3347    0.4826    0.0000 C   0  0  0  0  0  0  0  0  0  0  0  0
    3.4037    1.6587    0.0000 C   0  0  0  0  0  0  0  0  0  0  0  0
    1.9196    1.4405    0.0000 C   0  0  0  0  0  0  0  0  0  0  0  0
    0.9886    2.6166    0.0000 I   0  0  0  0  0  0  0  0  0  0  0  0
    1.3666    0.0462    0.0000 C   0  0  0  0  0  0  0  0  0  0  0  0
   -3.8814    0.5198    0.0000 C   0  0  0  0  0  0  0  0  0  0  0  0
   -3.7863    2.0167    0.0000 O   0  0  0  0  0  0  0  0  0  0  0  0
   -5.2254   -0.1464    0.0000 O   0  0  0  0  0  0  0  0  0  0  0  0
  2  1  1  1
  2  3  1  0
  3  4  1  0
  4  5  2  0
  5  6  1  0
  6  7  1  0
  7  8  2  0
  8  9  1  0
  9 10  2  0
 10 11  1  0
 11 12  1  0
 11 13  2  0
  2 14  1  0
 14 15  2  0
 14 16  1  0
 13  4  1  0
 13  7  1  0
M  END
>  <rName>  (1500) 
D-Trp_4I

>  <PQ_SYMBOL>  (1500) 
D-Trp_4I

>  <FULL_NAME>  (1500) 
4-iodo-D-tryptophan

>  <IUPAC_CONDENSED>  (1500) 
D-Trp(4-I)

>  <IUPAC>  (1500) 
(2R)-2-amino-3-(4-iodo-1H-indol-3-yl)propanoic acid

>  <TYPE>  (1500) 
Backbone

>  <CLASS>  (1500) 
alpha

>  <ANALOG>  (1500) 
Trp

>  <MOL_WT>  (1500) 
330.12500000000006

>  <LOGP>  (1500) 
1.7269000000000003

>  <TPSA>  (1500) 
79.11

>  <POPULARITY>  (1500) 
2.9

>  <PROTECTED>  (1500) 
TRUE

>  <SMILES>  (1500) 
N[C@H](Cc1(c[nH]c2(cccc(I)c12)))C(=O)O

>  <INCHIKEY>  (1500) 
DXZHXESNRKDEQX-MRVPVSSYSA-N

$$$$
D-Trp_4Me
     RDKit          2D

 16 17  0  0  0  0  0  0  0  0999 V2000
   -2.7276   -1.8081    0.0000 N   0  0  0  0  0  0  0  0  0  0  0  0
   -2.6325   -0.3111    0.0000 C   0  0  0  0  0  0  0  0  0  0  0  0
   -1.2885    0.3550    0.0000 C   0  0  0  0  0  0  0  0  0  0  0  0
   -0.0397   -0.4758    0.0000 C   0  0  0  0  0  0  0  0  0  0  0  0
    0.0222   -1.9745    0.0000 C   0  0  0  0  0  0  0  0  0  0  0  0
    1.4667   -2.3788    0.0000 N   0  0  0  0  0  0  0  0  0  0  0  0
    2.2976   -1.1299    0.0000 C   0  0  0  0  0  0  0  0  0  0  0  0
    3.7816   -0.9117    0.0000 C   0  0  0  0  0  0  0  0  0  0  0  0
    4.3347    0.4826    0.0000 C   0  0  0  0  0  0  0  0  0  0  0  0
    3.4037    1.6587    0.0000 C   0  0  0  0  0  0  0  0  0  0  0  0
    1.9196    1.4405    0.0000 C   0  0  0  0  0  0  0  0  0  0  0  0
    0.9886    2.6166    0.0000 C   0  0  0  0  0  0  0  0  0  0  0  0
    1.3666    0.0462    0.0000 C   0  0  0  0  0  0  0  0  0  0  0  0
   -3.8814    0.5198    0.0000 C   0  0  0  0  0  0  0  0  0  0  0  0
   -3.7863    2.0167    0.0000 O   0  0  0  0  0  0  0  0  0  0  0  0
   -5.2254   -0.1464    0.0000 O   0  0  0  0  0  0  0  0  0  0  0  0
  2  1  1  1
  2  3  1  0
  3  4  1  0
  4  5  2  0
  5  6  1  0
  6  7  1  0
  7  8  2  0
  8  9  1  0
  9 10  2  0
 10 11  1  0
 11 12  1  0
 11 13  2  0
  2 14  1  0
 14 15  2  0
 14 16  1  0
 13  4  1  0
 13  7  1  0
M  END
>  <rName>  (1501) 
D-Trp_4Me

>  <PQ_SYMBOL>  (1501) 
D-Trp_4Me

>  <FULL_NAME>  (1501) 
4-methyl-D-tryptophan

>  <IUPAC_CONDENSED>  (1501) 
D-Trp(4-Me)

>  <IUPAC>  (1501) 
(2R)-2-amino-3-(4-methyl-1H-indol-3-yl)propanoic acid

>  <TYPE>  (1501) 
Backbone

>  <CLASS>  (1501) 
alpha

>  <ANALOG>  (1501) 
Trp

>  <MOL_WT>  (1501) 
218.25599999999997

>  <LOGP>  (1501) 
1.4307200000000002

>  <TPSA>  (1501) 
79.11

>  <POPULARITY>  (1501) 
5.7

>  <PROTECTED>  (1501) 
TRUE

>  <SMILES>  (1501) 
N[C@H](Cc1(c[nH]c2(cccc(C)c12)))C(=O)O

>  <INCHIKEY>  (1501) 
FPJGLSZLQLNZIW-SECBINFHSA-N

$$$$
D-Trp_4NO2
     RDKit          2D

 18 19  0  0  0  0  0  0  0  0999 V2000
   -2.9018   -2.0059    0.0000 N   0  0  0  0  0  0  0  0  0  0  0  0
   -2.7236   -0.5165    0.0000 C   0  0  0  0  0  0  0  0  0  0  0  0
   -1.3446    0.0739    0.0000 C   0  0  0  0  0  0  0  0  0  0  0  0
   -0.1439   -0.8252    0.0000 C   0  0  0  0  0  0  0  0  0  0  0  0
   -0.1655   -2.3250    0.0000 C   0  0  0  0  0  0  0  0  0  0  0  0
    1.2543   -2.8090    0.0000 N   0  0  0  0  0  0  0  0  0  0  0  0
    2.1533   -1.6082    0.0000 C   0  0  0  0  0  0  0  0  0  0  0  0
    3.6472   -1.4729    0.0000 C   0  0  0  0  0  0  0  0  0  0  0  0
    4.2770   -0.1115    0.0000 C   0  0  0  0  0  0  0  0  0  0  0  0
    3.4128    1.1146    0.0000 C   0  0  0  0  0  0  0  0  0  0  0  0
    1.9189    0.9792    0.0000 C   0  0  0  0  0  0  0  0  0  0  0  0
    1.2892   -0.3822    0.0000 C   0  0  0  0  0  0  0  0  0  0  0  0
    1.0548    2.2053    0.0000 N   0  0  0  0  0  0  0  0  0  0  0  0
   -0.4391    2.0700    0.0000 O   0  0  0  0  0  0  0  0  0  0  0  0
    1.6845    3.5667    0.0000 O   0  0  0  0  0  0  0  0  0  0  0  0
   -3.9243    0.3825    0.0000 C   0  0  0  0  0  0  0  0  0  0  0  0
   -3.7461    1.8719    0.0000 O   0  0  0  0  0  0  0  0  0  0  0  0
   -5.3032   -0.2078    0.0000 O   0  0  0  0  0  0  0  0  0  0  0  0
  2  1  1  1
  2  3  1  0
  3  4  1  0
  4  5  2  0
  5  6  1  0
  6  7  1  0
  7  8  2  0
  8  9  1  0
  9 10  2  0
 10 11  1  0
 11 12  2  0
 11 13  1  0
 13 14  2  0
 13 15  1  0
  2 16  1  0
 16 17  2  0
 16 18  1  0
 12  4  1  0
 12  7  1  0
M  CHG  2  13   1  15  -1
M  END
>  <rName>  (1502) 
D-Trp_4NO2

>  <PQ_SYMBOL>  (1502) 
D-Trp_4NO2

>  <FULL_NAME>  (1502) 
4-nitro-D-tryptophan

>  <IUPAC_CONDENSED>  (1502) 
D-Trp(4-NO2)

>  <IUPAC>  (1502) 
(2R)-2-amino-3-(4-nitro-1H-indol-3-yl)propanoic acid

>  <TYPE>  (1502) 
Backbone

>  <CLASS>  (1502) 
alpha

>  <ANALOG>  (1502) 
Trp

>  <MOL_WT>  (1502) 
249.22599999999997

>  <LOGP>  (1502) 
1.0305000000000002

>  <TPSA>  (1502) 
122.25000000000001

>  <POPULARITY>  (1502) 
3.5

>  <PROTECTED>  (1502) 
TRUE

>  <SMILES>  (1502) 
N[C@H](Cc1(c[nH]c2(cccc(c12)[N+](=O)[O-])))C(=O)O

>  <INCHIKEY>  (1502) 
KKODYMFOTNMKRR-SSDOTTSWSA-N

$$$$
D-Trp_4OMe
     RDKit          2D

 17 18  0  0  0  0  0  0  0  0999 V2000
   -2.9481   -1.8518    0.0000 N   0  0  0  0  0  0  0  0  0  0  0  0
   -2.7536   -0.3645    0.0000 C   0  0  0  0  0  0  0  0  0  0  0  0
   -1.3682    0.2107    0.0000 C   0  0  0  0  0  0  0  0  0  0  0  0
   -0.1774   -0.7015    0.0000 C   0  0  0  0  0  0  0  0  0  0  0  0
   -0.2155   -2.2010    0.0000 C   0  0  0  0  0  0  0  0  0  0  0  0
    1.1989   -2.7006    0.0000 N   0  0  0  0  0  0  0  0  0  0  0  0
    2.1111   -1.5098    0.0000 C   0  0  0  0  0  0  0  0  0  0  0  0
    3.6063   -1.3909    0.0000 C   0  0  0  0  0  0  0  0  0  0  0  0
    4.2510   -0.0364    0.0000 C   0  0  0  0  0  0  0  0  0  0  0  0
    3.4004    1.1990    0.0000 C   0  0  0  0  0  0  0  0  0  0  0  0
    1.9051    1.0801    0.0000 C   0  0  0  0  0  0  0  0  0  0  0  0
    1.0545    2.3156    0.0000 O   0  0  0  0  0  0  0  0  0  0  0  0
    1.6991    3.6700    0.0000 C   0  0  0  0  0  0  0  0  0  0  0  0
    1.2604   -0.2743    0.0000 C   0  0  0  0  0  0  0  0  0  0  0  0
   -3.9444    0.5477    0.0000 C   0  0  0  0  0  0  0  0  0  0  0  0
   -3.7498    2.0350    0.0000 O   0  0  0  0  0  0  0  0  0  0  0  0
   -5.3297   -0.0275    0.0000 O   0  0  0  0  0  0  0  0  0  0  0  0
  2  1  1  1
  2  3  1  0
  3  4  1  0
  4  5  2  0
  5  6  1  0
  6  7  1  0
  7  8  2  0
  8  9  1  0
  9 10  2  0
 10 11  1  0
 11 12  1  0
 12 13  1  0
 11 14  2  0
  2 15  1  0
 15 16  2  0
 15 17  1  0
 14  4  1  0
 14  7  1  0
M  END
>  <rName>  (1503) 
D-Trp_4OMe

>  <PQ_SYMBOL>  (1503) 
D-Trp_4OMe

>  <FULL_NAME>  (1503) 
4-methoxy-D-tryptophan

>  <IUPAC_CONDENSED>  (1503) 
D-Trp(4-OMe)

>  <IUPAC>  (1503) 
(2R)-2-amino-3-(4-methoxy-1H-indol-3-yl)propanoic acid

>  <TYPE>  (1503) 
Backbone

>  <CLASS>  (1503) 
alpha

>  <ANALOG>  (1503) 
Trp

>  <MOL_WT>  (1503) 
234.25499999999997

>  <LOGP>  (1503) 
1.1309

>  <TPSA>  (1503) 
88.34000000000002

>  <POPULARITY>  (1503) 
3.4

>  <PROTECTED>  (1503) 
TRUE

>  <SMILES>  (1503) 
N[C@H](Cc1(c[nH]c2(cccc(OC)c12)))C(=O)O

>  <INCHIKEY>  (1503) 
VYXPKRIKQJEAOO-MRVPVSSYSA-N

$$$$
D-Trp_5Aza
     RDKit          2D

 15 16  0  0  0  0  0  0  0  0999 V2000
   -2.6183   -1.7023    0.0000 N   0  0  0  0  0  0  0  0  0  0  0  0
   -2.5622   -0.2034    0.0000 C   0  0  0  0  0  0  0  0  0  0  0  0
   -1.2360    0.4975    0.0000 C   0  0  0  0  0  0  0  0  0  0  0  0
    0.0341   -0.3006    0.0000 C   0  0  0  0  0  0  0  0  0  0  0  0
    0.1349   -1.7972    0.0000 C   0  0  0  0  0  0  0  0  0  0  0  0
    1.5895   -2.1637    0.0000 N   0  0  0  0  0  0  0  0  0  0  0  0
    2.3875   -0.8937    0.0000 C   0  0  0  0  0  0  0  0  0  0  0  0
    3.8654   -0.6369    0.0000 C   0  0  0  0  0  0  0  0  0  0  0  0
    4.3820    0.7713    0.0000 C   0  0  0  0  0  0  0  0  0  0  0  0
    3.4207    1.9228    0.0000 N   0  0  0  0  0  0  0  0  0  0  0  0
    1.9429    1.6661    0.0000 C   0  0  0  0  0  0  0  0  0  0  0  0
    1.4263    0.2578    0.0000 C   0  0  0  0  0  0  0  0  0  0  0  0
   -3.8322    0.5947    0.0000 C   0  0  0  0  0  0  0  0  0  0  0  0
   -3.7761    2.0937    0.0000 O   0  0  0  0  0  0  0  0  0  0  0  0
   -5.1584   -0.1061    0.0000 O   0  0  0  0  0  0  0  0  0  0  0  0
  2  1  1  1
  2  3  1  0
  3  4  1  0
  4  5  2  0
  5  6  1  0
  6  7  1  0
  7  8  1  0
  8  9  2  0
  9 10  1  0
 10 11  2  0
 11 12  1  0
  2 13  1  0
 13 14  2  0
 13 15  1  0
 12  4  1  0
 12  7  2  0
M  END
>  <rName>  (1504) 
D-Trp_5Aza

>  <PQ_SYMBOL>  (1504) 
D-Trp_5Aza

>  <FULL_NAME>  (1504) 
(2R)-2-amino-3-(1H-pyrrolo[3,2-c]pyridin-3-yl)propanoic acid

>  <IUPAC_CONDENSED>  (1504) 
D-Trp(5-Aza)

>  <IUPAC>  (1504) 
(2R)-2-amino-3-(1H-pyrrolo[3,2-c]pyridin-3-yl)propanoic acid

>  <TYPE>  (1504) 
Backbone

>  <CLASS>  (1504) 
alpha

>  <ANALOG>  (1504) 
Phe

>  <MOL_WT>  (1504) 
205.21699999999996

>  <LOGP>  (1504) 
0.5172999999999999

>  <TPSA>  (1504) 
92.00000000000001

>  <POPULARITY>  (1504) 
2.2

>  <PROTECTED>  (1504) 
TRUE

>  <SMILES>  (1504) 
N[C@H](Cc1(c[nH]c2(ccncc12)))C(=O)O

>  <INCHIKEY>  (1504) 
ANQYIRMPOYWSSM-MRVPVSSYSA-N

$$$$
D-Trp_5Br
     RDKit          2D

 16 17  0  0  0  0  0  0  0  0999 V2000
   -3.0564   -1.5854    0.0000 N   0  0  0  0  0  0  0  0  0  0  0  0
   -2.8364   -0.1016    0.0000 C   0  0  0  0  0  0  0  0  0  0  0  0
   -1.4415    0.4499    0.0000 C   0  0  0  0  0  0  0  0  0  0  0  0
   -0.2664   -0.4825    0.0000 C   0  0  0  0  0  0  0  0  0  0  0  0
   -0.3301   -1.9811    0.0000 C   0  0  0  0  0  0  0  0  0  0  0  0
    1.0756   -2.5048    0.0000 N   0  0  0  0  0  0  0  0  0  0  0  0
    2.0079   -1.3297    0.0000 C   0  0  0  0  0  0  0  0  0  0  0  0
    3.5050   -1.2364    0.0000 C   0  0  0  0  0  0  0  0  0  0  0  0
    4.1727    0.1068    0.0000 C   0  0  0  0  0  0  0  0  0  0  0  0
    3.3433    1.3567    0.0000 C   0  0  0  0  0  0  0  0  0  0  0  0
    4.0110    2.6999    0.0000 Br  0  0  0  0  0  0  0  0  0  0  0  0
    1.8462    1.2633    0.0000 C   0  0  0  0  0  0  0  0  0  0  0  0
    1.1785   -0.0799    0.0000 C   0  0  0  0  0  0  0  0  0  0  0  0
   -4.0115    0.8308    0.0000 C   0  0  0  0  0  0  0  0  0  0  0  0
   -3.7915    2.3146    0.0000 O   0  0  0  0  0  0  0  0  0  0  0  0
   -5.4064    0.2794    0.0000 O   0  0  0  0  0  0  0  0  0  0  0  0
  2  1  1  1
  2  3  1  0
  3  4  1  0
  4  5  2  0
  5  6  1  0
  6  7  1  0
  7  8  1  0
  8  9  2  0
  9 10  1  0
 10 11  1  0
 10 12  2  0
 12 13  1  0
  2 14  1  0
 14 15  2  0
 14 16  1  0
 13  4  1  0
 13  7  2  0
M  END
>  <rName>  (1505) 
D-Trp_5Br

>  <PQ_SYMBOL>  (1505) 
D-Trp_5Br

>  <FULL_NAME>  (1505) 
5-bromo-D-tryptophan

>  <IUPAC_CONDENSED>  (1505) 
D-Trp(5-Br)

>  <IUPAC>  (1505) 
(2R)-2-amino-3-(5-bromo-1H-indol-3-yl)propanoic acid

>  <TYPE>  (1505) 
Backbone

>  <CLASS>  (1505) 
alpha

>  <ANALOG>  (1505) 
Trp

>  <MOL_WT>  (1505) 
283.125

>  <LOGP>  (1505) 
1.8848000000000003

>  <TPSA>  (1505) 
79.11

>  <POPULARITY>  (1505) 
6.9

>  <PROTECTED>  (1505) 
TRUE

>  <SMILES>  (1505) 
N[C@H](Cc1(c[nH]c2(ccc(Br)cc12)))C(=O)O

>  <INCHIKEY>  (1505) 
KZDNJQUJBMDHJW-SECBINFHSA-N

$$$$
D-Trp_5CN
     RDKit          2D

 17 18  0  0  0  0  0  0  0  0999 V2000
   -3.5618   -1.3180    0.0000 N   0  0  0  0  0  0  0  0  0  0  0  0
   -3.1279    0.1179    0.0000 C   0  0  0  0  0  0  0  0  0  0  0  0
   -1.6674    0.4601    0.0000 C   0  0  0  0  0  0  0  0  0  0  0  0
   -0.6409   -0.6337    0.0000 C   0  0  0  0  0  0  0  0  0  0  0  0
   -0.9223   -2.1070    0.0000 C   0  0  0  0  0  0  0  0  0  0  0  0
    0.3919   -2.8300    0.0000 N   0  0  0  0  0  0  0  0  0  0  0  0
    1.4857   -1.8034    0.0000 C   0  0  0  0  0  0  0  0  0  0  0  0
    2.9804   -1.9293    0.0000 C   0  0  0  0  0  0  0  0  0  0  0  0
    3.8367   -0.6978    0.0000 C   0  0  0  0  0  0  0  0  0  0  0  0
    3.1984    0.6596    0.0000 C   0  0  0  0  0  0  0  0  0  0  0  0
    4.0548    1.8911    0.0000 C   0  0  0  0  0  0  0  0  0  0  0  0
    4.9112    3.1226    0.0000 N   0  0  0  0  0  0  0  0  0  0  0  0
    1.7037    0.7855    0.0000 C   0  0  0  0  0  0  0  0  0  0  0  0
    0.8473   -0.4460    0.0000 C   0  0  0  0  0  0  0  0  0  0  0  0
   -4.1544    1.2116    0.0000 C   0  0  0  0  0  0  0  0  0  0  0  0
   -3.7205    2.6475    0.0000 O   0  0  0  0  0  0  0  0  0  0  0  0
   -5.6149    0.8695    0.0000 O   0  0  0  0  0  0  0  0  0  0  0  0
  2  1  1  1
  2  3  1  0
  3  4  1  0
  4  5  2  0
  5  6  1  0
  6  7  1  0
  7  8  1  0
  8  9  2  0
  9 10  1  0
 10 11  1  0
 11 12  3  0
 10 13  2  0
 13 14  1  0
  2 15  1  0
 15 16  2  0
 15 17  1  0
 14  4  1  0
 14  7  2  0
M  END
>  <rName>  (1506) 
D-Trp_5CN

>  <PQ_SYMBOL>  (1506) 
D-Trp_5CN

>  <FULL_NAME>  (1506) 
5-cyano-D-tryptophan

>  <IUPAC_CONDENSED>  (1506) 
D-Trp(5-CN)

>  <IUPAC>  (1506) 
(2R)-2-amino-3-(5-(nitrilomethyl)-1H-indol-3-yl)propanoic acid

>  <TYPE>  (1506) 
Backbone

>  <CLASS>  (1506) 
alpha

>  <ANALOG>  (1506) 
Trp

>  <MOL_WT>  (1506) 
229.23899999999998

>  <LOGP>  (1506) 
0.9939800000000003

>  <TPSA>  (1506) 
102.89999999999999

>  <POPULARITY>  (1506) 
3.1

>  <PROTECTED>  (1506) 
TRUE

>  <SMILES>  (1506) 
N[C@H](Cc1(c[nH]c2(ccc(C#N)cc12)))C(=O)O

>  <INCHIKEY>  (1506) 
RWUVZHFIVNNDBO-SNVBAGLBSA-N

$$$$
D-Trp_5CONH2
     RDKit          2D

 18 19  0  0  0  0  0  0  0  0999 V2000
   -3.8376   -1.2806    0.0000 N   0  0  0  0  0  0  0  0  0  0  0  0
   -3.3503    0.1381    0.0000 C   0  0  0  0  0  0  0  0  0  0  0  0
   -1.8781    0.4254    0.0000 C   0  0  0  0  0  0  0  0  0  0  0  0
   -0.8931   -0.7059    0.0000 C   0  0  0  0  0  0  0  0  0  0  0  0
   -1.2294   -2.1677    0.0000 C   0  0  0  0  0  0  0  0  0  0  0  0
    0.0569   -2.9392    0.0000 N   0  0  0  0  0  0  0  0  0  0  0  0
    1.1882   -1.9542    0.0000 C   0  0  0  0  0  0  0  0  0  0  0  0
    2.6772   -2.1359    0.0000 C   0  0  0  0  0  0  0  0  0  0  0  0
    3.5790   -0.9372    0.0000 C   0  0  0  0  0  0  0  0  0  0  0  0
    2.9918    0.4431    0.0000 C   0  0  0  0  0  0  0  0  0  0  0  0
    1.5028    0.6247    0.0000 C   0  0  0  0  0  0  0  0  0  0  0  0
    0.6010   -0.5739    0.0000 C   0  0  0  0  0  0  0  0  0  0  0  0
    3.8936    1.6418    0.0000 C   0  0  0  0  0  0  0  0  0  0  0  0
    3.3064    3.0221    0.0000 O   0  0  0  0  0  0  0  0  0  0  0  0
    5.3825    1.4601    0.0000 N   0  0  0  0  0  0  0  0  0  0  0  0
   -4.3353    1.2693    0.0000 C   0  0  0  0  0  0  0  0  0  0  0  0
   -3.8481    2.6880    0.0000 O   0  0  0  0  0  0  0  0  0  0  0  0
   -5.8075    0.9820    0.0000 O   0  0  0  0  0  0  0  0  0  0  0  0
  2  1  1  1
  2  3  1  0
  3  4  1  0
  4  5  2  0
  5  6  1  0
  6  7  1  0
  7  8  1  0
  8  9  2  0
  9 10  1  0
 10 11  2  0
 11 12  1  0
 10 13  1  0
 13 14  2  0
 13 15  1  0
  2 16  1  0
 16 17  2  0
 16 18  1  0
 12  4  1  0
 12  7  2  0
M  END
>  <rName>  (1507) 
D-Trp_5CONH2

>  <PQ_SYMBOL>  (1507) 
D-Trp_5CONH2

>  <FULL_NAME>  (1507) 
5-carbamoyl-D-tryptophan

>  <IUPAC_CONDENSED>  (1507) 
D-Trp(5-CONH2)

>  <IUPAC>  (1507) 
(2R)-2-amino-3-(5-carbamoyl-1H-indol-3-yl)propanoic acid

>  <TYPE>  (1507) 
Backbone

>  <CLASS>  (1507) 
alpha

>  <ANALOG>  (1507) 
Trp

>  <MOL_WT>  (1507) 
247.25399999999996

>  <LOGP>  (1507) 
0.2211999999999999

>  <TPSA>  (1507) 
122.2

>  <POPULARITY>  (1507) 
3.0

>  <PROTECTED>  (1507) 
TRUE

>  <SMILES>  (1507) 
N[C@H](Cc1(c[nH]c2(ccc(cc12)C(=O)N)))C(=O)O

>  <INCHIKEY>  (1507) 
PWWXNUGNXKNXSG-SECBINFHSA-N

$$$$
D-Trp_5Cl
     RDKit          2D

 16 17  0  0  0  0  0  0  0  0999 V2000
   -3.0564   -1.5854    0.0000 N   0  0  0  0  0  0  0  0  0  0  0  0
   -2.8364   -0.1016    0.0000 C   0  0  0  0  0  0  0  0  0  0  0  0
   -1.4415    0.4499    0.0000 C   0  0  0  0  0  0  0  0  0  0  0  0
   -0.2664   -0.4825    0.0000 C   0  0  0  0  0  0  0  0  0  0  0  0
   -0.3301   -1.9811    0.0000 C   0  0  0  0  0  0  0  0  0  0  0  0
    1.0756   -2.5048    0.0000 N   0  0  0  0  0  0  0  0  0  0  0  0
    2.0079   -1.3297    0.0000 C   0  0  0  0  0  0  0  0  0  0  0  0
    3.5050   -1.2364    0.0000 C   0  0  0  0  0  0  0  0  0  0  0  0
    4.1727    0.1068    0.0000 C   0  0  0  0  0  0  0  0  0  0  0  0
    3.3433    1.3567    0.0000 C   0  0  0  0  0  0  0  0  0  0  0  0
    4.0110    2.6999    0.0000 Cl  0  0  0  0  0  0  0  0  0  0  0  0
    1.8462    1.2633    0.0000 C   0  0  0  0  0  0  0  0  0  0  0  0
    1.1785   -0.0799    0.0000 C   0  0  0  0  0  0  0  0  0  0  0  0
   -4.0115    0.8308    0.0000 C   0  0  0  0  0  0  0  0  0  0  0  0
   -3.7915    2.3146    0.0000 O   0  0  0  0  0  0  0  0  0  0  0  0
   -5.4064    0.2794    0.0000 O   0  0  0  0  0  0  0  0  0  0  0  0
  2  1  1  1
  2  3  1  0
  3  4  1  0
  4  5  2  0
  5  6  1  0
  6  7  1  0
  7  8  1  0
  8  9  2  0
  9 10  1  0
 10 11  1  0
 10 12  2  0
 12 13  1  0
  2 14  1  0
 14 15  2  0
 14 16  1  0
 13  4  1  0
 13  7  2  0
M  END
>  <rName>  (1508) 
D-Trp_5Cl

>  <PQ_SYMBOL>  (1508) 
D-Trp_5Cl

>  <FULL_NAME>  (1508) 
5-chloro-D-tryptophan

>  <IUPAC_CONDENSED>  (1508) 
D-Trp(5-Cl)

>  <IUPAC>  (1508) 
(2R)-2-amino-3-(5-chloro-1H-indol-3-yl)propanoic acid

>  <TYPE>  (1508) 
Backbone

>  <CLASS>  (1508) 
alpha

>  <ANALOG>  (1508) 
Trp

>  <MOL_WT>  (1508) 
238.67399999999998

>  <LOGP>  (1508) 
1.7757000000000003

>  <TPSA>  (1508) 
79.11

>  <POPULARITY>  (1508) 
7.1

>  <PROTECTED>  (1508) 
TRUE

>  <SMILES>  (1508) 
N[C@H](Cc1(c[nH]c2(ccc(Cl)cc12)))C(=O)O

>  <INCHIKEY>  (1508) 
TUKKZLIDCNWKIN-SECBINFHSA-N

$$$$
D-Trp_5F
     RDKit          2D

 16 17  0  0  0  0  0  0  0  0999 V2000
   -3.0564   -1.5854    0.0000 N   0  0  0  0  0  0  0  0  0  0  0  0
   -2.8364   -0.1016    0.0000 C   0  0  0  0  0  0  0  0  0  0  0  0
   -1.4415    0.4499    0.0000 C   0  0  0  0  0  0  0  0  0  0  0  0
   -0.2664   -0.4825    0.0000 C   0  0  0  0  0  0  0  0  0  0  0  0
   -0.3301   -1.9811    0.0000 C   0  0  0  0  0  0  0  0  0  0  0  0
    1.0756   -2.5048    0.0000 N   0  0  0  0  0  0  0  0  0  0  0  0
    2.0079   -1.3297    0.0000 C   0  0  0  0  0  0  0  0  0  0  0  0
    3.5050   -1.2364    0.0000 C   0  0  0  0  0  0  0  0  0  0  0  0
    4.1727    0.1068    0.0000 C   0  0  0  0  0  0  0  0  0  0  0  0
    3.3433    1.3567    0.0000 C   0  0  0  0  0  0  0  0  0  0  0  0
    4.0110    2.6999    0.0000 F   0  0  0  0  0  0  0  0  0  0  0  0
    1.8462    1.2633    0.0000 C   0  0  0  0  0  0  0  0  0  0  0  0
    1.1785   -0.0799    0.0000 C   0  0  0  0  0  0  0  0  0  0  0  0
   -4.0115    0.8308    0.0000 C   0  0  0  0  0  0  0  0  0  0  0  0
   -3.7915    2.3146    0.0000 O   0  0  0  0  0  0  0  0  0  0  0  0
   -5.4064    0.2794    0.0000 O   0  0  0  0  0  0  0  0  0  0  0  0
  2  1  1  1
  2  3  1  0
  3  4  1  0
  4  5  2  0
  5  6  1  0
  6  7  1  0
  7  8  1  0
  8  9  2  0
  9 10  1  0
 10 11  1  0
 10 12  2  0
 12 13  1  0
  2 14  1  0
 14 15  2  0
 14 16  1  0
 13  4  1  0
 13  7  2  0
M  END
>  <rName>  (1509) 
D-Trp_5F

>  <PQ_SYMBOL>  (1509) 
D-Trp_5F

>  <FULL_NAME>  (1509) 
(2R)-2-amino-3-(5-fluoro-1H-indol-3-yl)propanoic acid

>  <IUPAC_CONDENSED>  (1509) 
D-Trp(5-F)

>  <IUPAC>  (1509) 
(2R)-2-amino-3-(5-fluoro-1H-indol-3-yl)propanoic acid

>  <TYPE>  (1509) 
Backbone

>  <CLASS>  (1509) 
alpha

>  <ANALOG>  (1509) 
Trp

>  <MOL_WT>  (1509) 
222.21899999999997

>  <LOGP>  (1509) 
1.2614000000000003

>  <TPSA>  (1509) 
79.11

>  <POPULARITY>  (1509) 
9.8

>  <PROTECTED>  (1509) 
TRUE

>  <SMILES>  (1509) 
N[C@H](Cc1(c[nH]c2(ccc(F)cc12)))C(=O)O

>  <INCHIKEY>  (1509) 
INPQIVHQSQUEAJ-SECBINFHSA-N

$$$$
D-Trp_5Me
     RDKit          2D

 16 17  0  0  0  0  0  0  0  0999 V2000
   -3.0564   -1.5854    0.0000 N   0  0  0  0  0  0  0  0  0  0  0  0
   -2.8364   -0.1016    0.0000 C   0  0  0  0  0  0  0  0  0  0  0  0
   -1.4415    0.4499    0.0000 C   0  0  0  0  0  0  0  0  0  0  0  0
   -0.2664   -0.4825    0.0000 C   0  0  0  0  0  0  0  0  0  0  0  0
   -0.3301   -1.9811    0.0000 C   0  0  0  0  0  0  0  0  0  0  0  0
    1.0756   -2.5048    0.0000 N   0  0  0  0  0  0  0  0  0  0  0  0
    2.0079   -1.3297    0.0000 C   0  0  0  0  0  0  0  0  0  0  0  0
    3.5050   -1.2364    0.0000 C   0  0  0  0  0  0  0  0  0  0  0  0
    4.1727    0.1068    0.0000 C   0  0  0  0  0  0  0  0  0  0  0  0
    3.3433    1.3567    0.0000 C   0  0  0  0  0  0  0  0  0  0  0  0
    4.0110    2.6999    0.0000 C   0  0  0  0  0  0  0  0  0  0  0  0
    1.8462    1.2633    0.0000 C   0  0  0  0  0  0  0  0  0  0  0  0
    1.1785   -0.0799    0.0000 C   0  0  0  0  0  0  0  0  0  0  0  0
   -4.0115    0.8308    0.0000 C   0  0  0  0  0  0  0  0  0  0  0  0
   -3.7915    2.3146    0.0000 O   0  0  0  0  0  0  0  0  0  0  0  0
   -5.4064    0.2794    0.0000 O   0  0  0  0  0  0  0  0  0  0  0  0
  2  1  1  1
  2  3  1  0
  3  4  1  0
  4  5  2  0
  5  6  1  0
  6  7  1  0
  7  8  1  0
  8  9  2  0
  9 10  1  0
 10 11  1  0
 10 12  2  0
 12 13  1  0
  2 14  1  0
 14 15  2  0
 14 16  1  0
 13  7  2  0
 13  4  1  0
M  END
>  <rName>  (1510) 
D-Trp_5Me

>  <PQ_SYMBOL>  (1510) 
D-Trp_5Me

>  <FULL_NAME>  (1510) 
5-Methyl-D-Tryptophan

>  <IUPAC_CONDENSED>  (1510) 
D-Trp(5-Me)

>  <IUPAC>  (1510) 
(2R)-2-amino-3-(5-methyl-1H-indol-3-yl)propanoic acid

>  <TYPE>  (1510) 
Backbone

>  <CLASS>  (1510) 
alpha

>  <ANALOG>  (1510) 
Trp

>  <MOL_WT>  (1510) 
218.25599999999997

>  <LOGP>  (1510) 
1.4307200000000002

>  <TPSA>  (1510) 
79.11

>  <POPULARITY>  (1510) 
6.3

>  <PROTECTED>  (1510) 
TRUE

>  <SMILES>  (1510) 
N[C@H](Cc2(c[nH]c1(ccc(C)cc12)))C(=O)O

>  <INCHIKEY>  (1510) 
HUNCSWANZMJLPM-SNVBAGLBSA-N

$$$$
D-Trp_5NO2
     RDKit          2D

 18 19  0  0  0  0  0  0  0  0999 V2000
   -3.8376   -1.2806    0.0000 N   0  0  0  0  0  0  0  0  0  0  0  0
   -3.3503    0.1381    0.0000 C   0  0  0  0  0  0  0  0  0  0  0  0
   -1.8781    0.4254    0.0000 C   0  0  0  0  0  0  0  0  0  0  0  0
   -0.8931   -0.7059    0.0000 C   0  0  0  0  0  0  0  0  0  0  0  0
   -1.2294   -2.1677    0.0000 C   0  0  0  0  0  0  0  0  0  0  0  0
    0.0569   -2.9392    0.0000 N   0  0  0  0  0  0  0  0  0  0  0  0
    1.1882   -1.9542    0.0000 C   0  0  0  0  0  0  0  0  0  0  0  0
    2.6772   -2.1359    0.0000 C   0  0  0  0  0  0  0  0  0  0  0  0
    3.5790   -0.9372    0.0000 C   0  0  0  0  0  0  0  0  0  0  0  0
    2.9918    0.4431    0.0000 C   0  0  0  0  0  0  0  0  0  0  0  0
    1.5028    0.6247    0.0000 C   0  0  0  0  0  0  0  0  0  0  0  0
    0.6010   -0.5739    0.0000 C   0  0  0  0  0  0  0  0  0  0  0  0
    3.8936    1.6418    0.0000 N   0  0  0  0  0  0  0  0  0  0  0  0
    3.3064    3.0221    0.0000 O   0  0  0  0  0  0  0  0  0  0  0  0
    5.3825    1.4601    0.0000 O   0  0  0  0  0  0  0  0  0  0  0  0
   -4.3353    1.2693    0.0000 C   0  0  0  0  0  0  0  0  0  0  0  0
   -3.8481    2.6880    0.0000 O   0  0  0  0  0  0  0  0  0  0  0  0
   -5.8075    0.9820    0.0000 O   0  0  0  0  0  0  0  0  0  0  0  0
  2  1  1  1
  2  3  1  0
  3  4  1  0
  4  5  2  0
  5  6  1  0
  6  7  1  0
  7  8  1  0
  8  9  2  0
  9 10  1  0
 10 11  2  0
 11 12  1  0
 10 13  1  0
 13 14  2  0
 13 15  1  0
  2 16  1  0
 16 17  2  0
 16 18  1  0
 12  4  1  0
 12  7  2  0
M  CHG  2  13   1  15  -1
M  END
>  <rName>  (1511) 
D-Trp_5NO2

>  <PQ_SYMBOL>  (1511) 
D-Trp_5NO2

>  <FULL_NAME>  (1511) 
5-nitro-D-tryptophan

>  <IUPAC_CONDENSED>  (1511) 
D-Trp(5-NO2)

>  <IUPAC>  (1511) 
(2R)-2-amino-3-(5-nitro-1H-indol-3-yl)propanoic acid

>  <TYPE>  (1511) 
Backbone

>  <CLASS>  (1511) 
alpha

>  <ANALOG>  (1511) 
Trp

>  <MOL_WT>  (1511) 
249.22599999999997

>  <LOGP>  (1511) 
1.0305

>  <TPSA>  (1511) 
122.25000000000001

>  <POPULARITY>  (1511) 
3.7

>  <PROTECTED>  (1511) 
TRUE

>  <SMILES>  (1511) 
N[C@H](Cc1(c[nH]c2(ccc(cc12)[N+](=O)[O-])))C(=O)O

>  <INCHIKEY>  (1511) 
XKDUODGOACYEEU-SECBINFHSA-N

$$$$
D-Trp_5OH
     RDKit          2D

 16 17  0  0  0  0  0  0  0  0999 V2000
   -3.0564   -1.5854    0.0000 N   0  0  0  0  0  0  0  0  0  0  0  0
   -2.8364   -0.1016    0.0000 C   0  0  0  0  0  0  0  0  0  0  0  0
   -1.4415    0.4499    0.0000 C   0  0  0  0  0  0  0  0  0  0  0  0
   -0.2664   -0.4825    0.0000 C   0  0  0  0  0  0  0  0  0  0  0  0
   -0.3301   -1.9811    0.0000 C   0  0  0  0  0  0  0  0  0  0  0  0
    1.0756   -2.5048    0.0000 N   0  0  0  0  0  0  0  0  0  0  0  0
    2.0079   -1.3297    0.0000 C   0  0  0  0  0  0  0  0  0  0  0  0
    3.5050   -1.2364    0.0000 C   0  0  0  0  0  0  0  0  0  0  0  0
    4.1727    0.1068    0.0000 C   0  0  0  0  0  0  0  0  0  0  0  0
    3.3433    1.3567    0.0000 C   0  0  0  0  0  0  0  0  0  0  0  0
    4.0110    2.6999    0.0000 O   0  0  0  0  0  0  0  0  0  0  0  0
    1.8462    1.2633    0.0000 C   0  0  0  0  0  0  0  0  0  0  0  0
    1.1785   -0.0799    0.0000 C   0  0  0  0  0  0  0  0  0  0  0  0
   -4.0115    0.8308    0.0000 C   0  0  0  0  0  0  0  0  0  0  0  0
   -3.7915    2.3146    0.0000 O   0  0  0  0  0  0  0  0  0  0  0  0
   -5.4064    0.2794    0.0000 O   0  0  0  0  0  0  0  0  0  0  0  0
  2  1  1  1
  2  3  1  0
  3  4  1  0
  4  5  2  0
  5  6  1  0
  6  7  1  0
  7  8  1  0
  8  9  2  0
  9 10  1  0
 10 11  1  0
 10 12  2  0
 12 13  1  0
  2 14  1  0
 14 15  2  0
 14 16  1  0
 13  7  2  0
 13  4  1  0
M  END
>  <rName>  (1512) 
D-Trp_5OH

>  <PQ_SYMBOL>  (1512) 
D-Trp_5OH

>  <FULL_NAME>  (1512) 
5-Hydroxy-D-Tryptophan

>  <IUPAC_CONDENSED>  (1512) 
D-Trp(5-OH)

>  <IUPAC>  (1512) 
(2R)-2-amino-3-(5-hydroxy-1H-indol-3-yl)propanoic acid

>  <TYPE>  (1512) 
Backbone

>  <CLASS>  (1512) 
alpha

>  <ANALOG>  (1512) 
Trp

>  <MOL_WT>  (1512) 
220.22799999999998

>  <LOGP>  (1512) 
0.8279000000000003

>  <TPSA>  (1512) 
99.34000000000002

>  <POPULARITY>  (1512) 
10.2

>  <PROTECTED>  (1512) 
TRUE

>  <SMILES>  (1512) 
N[C@H](Cc2(c[nH]c1(ccc(O)cc12)))C(=O)O

>  <INCHIKEY>  (1512) 
LDCYZAJDBXYCGN-SECBINFHSA-N

$$$$
D-Trp_5OMe
     RDKit          2D

 17 18  0  0  0  0  0  0  0  0999 V2000
   -3.5469   -1.3812    0.0000 N   0  0  0  0  0  0  0  0  0  0  0  0
   -3.1708    0.0709    0.0000 C   0  0  0  0  0  0  0  0  0  0  0  0
   -1.7252    0.4712    0.0000 C   0  0  0  0  0  0  0  0  0  0  0  0
   -0.6557   -0.5805    0.0000 C   0  0  0  0  0  0  0  0  0  0  0  0
   -0.8780   -2.0640    0.0000 C   0  0  0  0  0  0  0  0  0  0  0  0
    0.4642   -2.7337    0.0000 N   0  0  0  0  0  0  0  0  0  0  0  0
    1.5159   -1.6643    0.0000 C   0  0  0  0  0  0  0  0  0  0  0  0
    3.0145   -1.7302    0.0000 C   0  0  0  0  0  0  0  0  0  0  0  0
    3.8209   -0.4654    0.0000 C   0  0  0  0  0  0  0  0  0  0  0  0
    3.1288    0.8653    0.0000 C   0  0  0  0  0  0  0  0  0  0  0  0
    3.9352    2.1301    0.0000 O   0  0  0  0  0  0  0  0  0  0  0  0
    5.4337    2.0641    0.0000 C   0  0  0  0  0  0  0  0  0  0  0  0
    1.6302    0.9313    0.0000 C   0  0  0  0  0  0  0  0  0  0  0  0
    0.8238   -0.3335    0.0000 C   0  0  0  0  0  0  0  0  0  0  0  0
   -4.2403    1.1227    0.0000 C   0  0  0  0  0  0  0  0  0  0  0  0
   -3.8642    2.5748    0.0000 O   0  0  0  0  0  0  0  0  0  0  0  0
   -5.6859    0.7223    0.0000 O   0  0  0  0  0  0  0  0  0  0  0  0
  2  1  1  1
  2  3  1  0
  3  4  1  0
  4  5  2  0
  5  6  1  0
  6  7  1  0
  7  8  1  0
  8  9  2  0
  9 10  1  0
 10 11  1  0
 11 12  1  0
 10 13  2  0
 13 14  1  0
  2 15  1  0
 15 16  2  0
 15 17  1  0
 14  7  2  0
 14  4  1  0
M  END
>  <rName>  (1513) 
D-Trp_5OMe

>  <PQ_SYMBOL>  (1513) 
D-Trp_5OMe

>  <FULL_NAME>  (1513) 
5-Methoxy-D-Tryptophan

>  <IUPAC_CONDENSED>  (1513) 
D-Trp(5-OMe)

>  <IUPAC>  (1513) 
(2R)-2-amino-3-(5-methoxy-1H-indol-3-yl)propanoic acid

>  <TYPE>  (1513) 
Backbone

>  <CLASS>  (1513) 
alpha

>  <ANALOG>  (1513) 
Trp

>  <MOL_WT>  (1513) 
234.25499999999997

>  <LOGP>  (1513) 
1.1309

>  <TPSA>  (1513) 
88.34000000000002

>  <POPULARITY>  (1513) 
6.4

>  <PROTECTED>  (1513) 
TRUE

>  <SMILES>  (1513) 
N[C@H](Cc2(c[nH]c1(ccc(OC)cc12)))C(=O)O

>  <INCHIKEY>  (1513) 
KVNPSKDDJARYKK-SNVBAGLBSA-N

$$$$
D-Trp_6Aza
     RDKit          2D

 15 16  0  0  0  0  0  0  0  0999 V2000
   -2.6183   -1.7023    0.0000 N   0  0  0  0  0  0  0  0  0  0  0  0
   -2.5622   -0.2034    0.0000 C   0  0  0  0  0  0  0  0  0  0  0  0
   -1.2360    0.4975    0.0000 C   0  0  0  0  0  0  0  0  0  0  0  0
    0.0341   -0.3006    0.0000 C   0  0  0  0  0  0  0  0  0  0  0  0
    0.1349   -1.7972    0.0000 C   0  0  0  0  0  0  0  0  0  0  0  0
    1.5895   -2.1637    0.0000 N   0  0  0  0  0  0  0  0  0  0  0  0
    2.3875   -0.8937    0.0000 C   0  0  0  0  0  0  0  0  0  0  0  0
    3.8654   -0.6369    0.0000 C   0  0  0  0  0  0  0  0  0  0  0  0
    4.3820    0.7713    0.0000 N   0  0  0  0  0  0  0  0  0  0  0  0
    3.4207    1.9228    0.0000 C   0  0  0  0  0  0  0  0  0  0  0  0
    1.9429    1.6661    0.0000 C   0  0  0  0  0  0  0  0  0  0  0  0
    1.4263    0.2578    0.0000 C   0  0  0  0  0  0  0  0  0  0  0  0
   -3.8322    0.5947    0.0000 C   0  0  0  0  0  0  0  0  0  0  0  0
   -3.7761    2.0937    0.0000 O   0  0  0  0  0  0  0  0  0  0  0  0
   -5.1584   -0.1061    0.0000 O   0  0  0  0  0  0  0  0  0  0  0  0
  2  1  1  1
  2  3  1  0
  3  4  1  0
  4  5  2  0
  5  6  1  0
  6  7  1  0
  7  8  1  0
  8  9  2  0
  9 10  1  0
 10 11  2  0
 11 12  1  0
  2 13  1  0
 13 14  2  0
 13 15  1  0
 12  4  1  0
 12  7  2  0
M  END
>  <rName>  (1514) 
D-Trp_6Aza

>  <PQ_SYMBOL>  (1514) 
D-Trp_6Aza

>  <FULL_NAME>  (1514) 
(2R)-2-amino-3-{1H-pyrrolo[2,3-c]pyridin-3-yl}propanoic acid

>  <IUPAC_CONDENSED>  (1514) 
D-Trp(6-Aza)

>  <IUPAC>  (1514) 
(2R)-2-amino-3-(1H-pyrrolo[2,3-c]pyridin-3-yl)propanoic acid

>  <TYPE>  (1514) 
Backbone

>  <CLASS>  (1514) 
alpha

>  <ANALOG>  (1514) 
Phe

>  <MOL_WT>  (1514) 
205.21699999999998

>  <LOGP>  (1514) 
0.5172999999999999

>  <TPSA>  (1514) 
92.00000000000001

>  <POPULARITY>  (1514) 
2.2

>  <PROTECTED>  (1514) 
TRUE

>  <SMILES>  (1514) 
N[C@H](Cc1(c[nH]c2(cnccc12)))C(=O)O

>  <INCHIKEY>  (1514) 
IJMJEEWBYMCJQL-MRVPVSSYSA-N

$$$$
D-Trp_6Br
     RDKit          2D

 16 17  0  0  0  0  0  0  0  0999 V2000
   -3.0545   -1.6426    0.0000 N   0  0  0  0  0  0  0  0  0  0  0  0
   -2.9369   -0.1473    0.0000 C   0  0  0  0  0  0  0  0  0  0  0  0
   -1.5831    0.4986    0.0000 C   0  0  0  0  0  0  0  0  0  0  0  0
   -0.3468   -0.3509    0.0000 C   0  0  0  0  0  0  0  0  0  0  0  0
   -0.3075   -1.8504    0.0000 C   0  0  0  0  0  0  0  0  0  0  0  0
    1.1308   -2.2763    0.0000 N   0  0  0  0  0  0  0  0  0  0  0  0
    1.9803   -1.0400    0.0000 C   0  0  0  0  0  0  0  0  0  0  0  0
    3.4675   -0.8441    0.0000 C   0  0  0  0  0  0  0  0  0  0  0  0
    4.0414    0.5417    0.0000 C   0  0  0  0  0  0  0  0  0  0  0  0
    5.5285    0.7376    0.0000 Br  0  0  0  0  0  0  0  0  0  0  0  0
    3.1281    1.7317    0.0000 C   0  0  0  0  0  0  0  0  0  0  0  0
    1.6410    1.5358    0.0000 C   0  0  0  0  0  0  0  0  0  0  0  0
    1.0671    0.1499    0.0000 C   0  0  0  0  0  0  0  0  0  0  0  0
   -4.1732    0.7023    0.0000 C   0  0  0  0  0  0  0  0  0  0  0  0
   -4.0556    2.1976    0.0000 O   0  0  0  0  0  0  0  0  0  0  0  0
   -5.5270    0.0564    0.0000 O   0  0  0  0  0  0  0  0  0  0  0  0
  2  1  1  1
  2  3  1  0
  3  4  1  0
  4  5  2  0
  5  6  1  0
  6  7  1  0
  7  8  1  0
  8  9  2  0
  9 10  1  0
  9 11  1  0
 11 12  2  0
 12 13  1  0
  2 14  1  0
 14 15  2  0
 14 16  1  0
 13  4  1  0
 13  7  2  0
M  END
>  <rName>  (1515) 
D-Trp_6Br

>  <PQ_SYMBOL>  (1515) 
D-Trp_6Br

>  <FULL_NAME>  (1515) 
6-bromo-D-tryptophan

>  <IUPAC_CONDENSED>  (1515) 
D-Trp(6-Br)

>  <IUPAC>  (1515) 
(2R)-2-amino-3-(6-bromo-1H-indol-3-yl)propanoic acid

>  <TYPE>  (1515) 
Backbone

>  <CLASS>  (1515) 
alpha

>  <ANALOG>  (1515) 
Trp

>  <MOL_WT>  (1515) 
283.125

>  <LOGP>  (1515) 
1.8848000000000003

>  <TPSA>  (1515) 
79.11

>  <POPULARITY>  (1515) 
6.9

>  <PROTECTED>  (1515) 
TRUE

>  <SMILES>  (1515) 
N[C@H](Cc1(c[nH]c2(cc(Br)ccc12)))C(=O)O

>  <INCHIKEY>  (1515) 
OAORYCZPERQARS-SECBINFHSA-N

$$$$
D-Trp_6CF3
     RDKit          2D

 19 20  0  0  0  0  0  0  0  0999 V2000
   -4.0929   -1.5572    0.0000 N   0  0  0  0  0  0  0  0  0  0  0  0
   -3.8971   -0.0700    0.0000 C   0  0  0  0  0  0  0  0  0  0  0  0
   -2.5113    0.5041    0.0000 C   0  0  0  0  0  0  0  0  0  0  0  0
   -1.3213   -0.4090    0.0000 C   0  0  0  0  0  0  0  0  0  0  0  0
   -1.3605   -1.9085    0.0000 C   0  0  0  0  0  0  0  0  0  0  0  0
    0.0535   -2.4092    0.0000 N   0  0  0  0  0  0  0  0  0  0  0  0
    0.9666   -1.2191    0.0000 C   0  0  0  0  0  0  0  0  0  0  0  0
    2.4620   -1.1014    0.0000 C   0  0  0  0  0  0  0  0  0  0  0  0
    3.1077    0.2525    0.0000 C   0  0  0  0  0  0  0  0  0  0  0  0
    2.2580    1.4887    0.0000 C   0  0  0  0  0  0  0  0  0  0  0  0
    0.7627    1.3709    0.0000 C   0  0  0  0  0  0  0  0  0  0  0  0
    0.1169    0.0170    0.0000 C   0  0  0  0  0  0  0  0  0  0  0  0
    4.6030    0.3703    0.0000 C   0  0  0  0  0  0  0  0  0  0  0  0
    6.0984    0.4880    0.0000 F   0  0  0  0  0  0  0  0  0  0  0  0
    4.7208   -1.1251    0.0000 F   0  0  0  0  0  0  0  0  0  0  0  0
    4.4853    1.8656    0.0000 F   0  0  0  0  0  0  0  0  0  0  0  0
   -5.0872    0.8431    0.0000 C   0  0  0  0  0  0  0  0  0  0  0  0
   -4.8915    2.3303    0.0000 O   0  0  0  0  0  0  0  0  0  0  0  0
   -6.4730    0.2690    0.0000 O   0  0  0  0  0  0  0  0  0  0  0  0
  2  1  1  1
  2  3  1  0
  3  4  1  0
  4  5  2  0
  5  6  1  0
  6  7  1  0
  7  8  1  0
  8  9  2  0
  9 10  1  0
 10 11  2  0
 11 12  1  0
  9 13  1  0
 13 14  1  0
 13 15  1  0
 13 16  1  0
  2 17  1  0
 17 18  2  0
 17 19  1  0
 12  4  1  0
 12  7  2  0
M  END
>  <rName>  (1516) 
D-Trp_6CF3

>  <PQ_SYMBOL>  (1516) 
D-Trp_6CF3

>  <FULL_NAME>  (1516) 
6-(trifluoromethyl)-D-tryptophan

>  <IUPAC_CONDENSED>  (1516) 
D-Trp(6-CF3)

>  <IUPAC>  (1516) 
(2R)-2-amino-3-(6-(trifluoromethyl)-1H-indol-3-yl)propanoic acid

>  <TYPE>  (1516) 
Backbone

>  <CLASS>  (1516) 
alpha

>  <ANALOG>  (1516) 
Trp

>  <MOL_WT>  (1516) 
272.22599999999994

>  <LOGP>  (1516) 
2.1411000000000002

>  <TPSA>  (1516) 
79.11

>  <POPULARITY>  (1516) 
3.0

>  <PROTECTED>  (1516) 
TRUE

>  <SMILES>  (1516) 
N[C@H](Cc1(c[nH]c2(cc(ccc12)C(F)(F)F)))C(=O)O

>  <INCHIKEY>  (1516) 
JXLKNMYKLNHNNN-SECBINFHSA-N

$$$$
D-Trp_6CN
     RDKit          2D

 17 18  0  0  0  0  0  0  0  0999 V2000
   -3.5222   -1.5802    0.0000 N   0  0  0  0  0  0  0  0  0  0  0  0
   -3.3545   -0.0896    0.0000 C   0  0  0  0  0  0  0  0  0  0  0  0
   -1.9798    0.5105    0.0000 C   0  0  0  0  0  0  0  0  0  0  0  0
   -0.7727   -0.3801    0.0000 C   0  0  0  0  0  0  0  0  0  0  0  0
   -0.7837   -1.8800    0.0000 C   0  0  0  0  0  0  0  0  0  0  0  0
    0.6394   -2.3540    0.0000 N   0  0  0  0  0  0  0  0  0  0  0  0
    1.5300   -1.1470    0.0000 C   0  0  0  0  0  0  0  0  0  0  0  0
    3.0229   -1.0011    0.0000 C   0  0  0  0  0  0  0  0  0  0  0  0
    3.6430    0.3647    0.0000 C   0  0  0  0  0  0  0  0  0  0  0  0
    5.1359    0.5106    0.0000 C   0  0  0  0  0  0  0  0  0  0  0  0
    6.6288    0.6564    0.0000 N   0  0  0  0  0  0  0  0  0  0  0  0
    2.7702    1.5847    0.0000 C   0  0  0  0  0  0  0  0  0  0  0  0
    1.2773    1.4388    0.0000 C   0  0  0  0  0  0  0  0  0  0  0  0
    0.6572    0.0730    0.0000 C   0  0  0  0  0  0  0  0  0  0  0  0
   -4.5616    0.8009    0.0000 C   0  0  0  0  0  0  0  0  0  0  0  0
   -4.3938    2.2915    0.0000 O   0  0  0  0  0  0  0  0  0  0  0  0
   -5.9363    0.2009    0.0000 O   0  0  0  0  0  0  0  0  0  0  0  0
  2  1  1  1
  2  3  1  0
  3  4  1  0
  4  5  2  0
  5  6  1  0
  6  7  1  0
  7  8  1  0
  8  9  2  0
  9 10  1  0
 10 11  3  0
  9 12  1  0
 12 13  2  0
 13 14  1  0
  2 15  1  0
 15 16  2  0
 15 17  1  0
 14  4  1  0
 14  7  2  0
M  END
>  <rName>  (1517) 
D-Trp_6CN

>  <PQ_SYMBOL>  (1517) 
D-Trp_6CN

>  <FULL_NAME>  (1517) 
6-cyano-D-tryptophan

>  <IUPAC_CONDENSED>  (1517) 
D-Trp(6-CN)

>  <IUPAC>  (1517) 
(2R)-2-amino-3-(6-(nitrilomethyl)-1H-indol-3-yl)propanoic acid

>  <TYPE>  (1517) 
Backbone

>  <CLASS>  (1517) 
alpha

>  <ANALOG>  (1517) 
Trp

>  <MOL_WT>  (1517) 
229.23899999999998

>  <LOGP>  (1517) 
0.9939800000000003

>  <TPSA>  (1517) 
102.89999999999999

>  <POPULARITY>  (1517) 
3.0

>  <PROTECTED>  (1517) 
TRUE

>  <SMILES>  (1517) 
N[C@H](Cc1(c[nH]c2(cc(C#N)ccc12)))C(=O)O

>  <INCHIKEY>  (1517) 
QFVPXIGESRCWHK-SNVBAGLBSA-N

$$$$
D-Trp_6Cl
     RDKit          2D

 16 17  0  0  0  0  0  0  0  0999 V2000
   -3.0545   -1.6426    0.0000 N   0  0  0  0  0  0  0  0  0  0  0  0
   -2.9369   -0.1473    0.0000 C   0  0  0  0  0  0  0  0  0  0  0  0
   -1.5831    0.4986    0.0000 C   0  0  0  0  0  0  0  0  0  0  0  0
   -0.3468   -0.3509    0.0000 C   0  0  0  0  0  0  0  0  0  0  0  0
   -0.3075   -1.8504    0.0000 C   0  0  0  0  0  0  0  0  0  0  0  0
    1.1308   -2.2763    0.0000 N   0  0  0  0  0  0  0  0  0  0  0  0
    1.9803   -1.0400    0.0000 C   0  0  0  0  0  0  0  0  0  0  0  0
    3.4675   -0.8441    0.0000 C   0  0  0  0  0  0  0  0  0  0  0  0
    4.0414    0.5417    0.0000 C   0  0  0  0  0  0  0  0  0  0  0  0
    5.5285    0.7376    0.0000 Cl  0  0  0  0  0  0  0  0  0  0  0  0
    3.1281    1.7317    0.0000 C   0  0  0  0  0  0  0  0  0  0  0  0
    1.6410    1.5358    0.0000 C   0  0  0  0  0  0  0  0  0  0  0  0
    1.0671    0.1499    0.0000 C   0  0  0  0  0  0  0  0  0  0  0  0
   -4.1732    0.7023    0.0000 C   0  0  0  0  0  0  0  0  0  0  0  0
   -4.0556    2.1976    0.0000 O   0  0  0  0  0  0  0  0  0  0  0  0
   -5.5270    0.0564    0.0000 O   0  0  0  0  0  0  0  0  0  0  0  0
  2  1  1  1
  2  3  1  0
  3  4  1  0
  4  5  2  0
  5  6  1  0
  6  7  1  0
  7  8  1  0
  8  9  2  0
  9 10  1  0
  9 11  1  0
 11 12  2  0
 12 13  1  0
  2 14  1  0
 14 15  2  0
 14 16  1  0
 13  4  1  0
 13  7  2  0
M  END
>  <rName>  (1518) 
D-Trp_6Cl

>  <PQ_SYMBOL>  (1518) 
D-Trp_6Cl

>  <FULL_NAME>  (1518) 
6-chloro-D-tryptophan

>  <IUPAC_CONDENSED>  (1518) 
D-Trp(6-Cl)

>  <IUPAC>  (1518) 
(2R)-2-amino-3-(6-chloro-1H-indol-3-yl)propanoic acid

>  <TYPE>  (1518) 
Backbone

>  <CLASS>  (1518) 
alpha

>  <ANALOG>  (1518) 
Trp

>  <MOL_WT>  (1518) 
238.67399999999998

>  <LOGP>  (1518) 
1.7757

>  <TPSA>  (1518) 
79.11

>  <POPULARITY>  (1518) 
5.9

>  <PROTECTED>  (1518) 
TRUE

>  <SMILES>  (1518) 
N[C@H](Cc1(c[nH]c2(cc(Cl)ccc12)))C(=O)O

>  <INCHIKEY>  (1518) 
FICLVQOYKYBXFN-SECBINFHSA-N

$$$$
D-Trp_6F
     RDKit          2D

 16 17  0  0  0  0  0  0  0  0999 V2000
   -3.0545   -1.6426    0.0000 N   0  0  0  0  0  0  0  0  0  0  0  0
   -2.9369   -0.1473    0.0000 C   0  0  0  0  0  0  0  0  0  0  0  0
   -1.5831    0.4986    0.0000 C   0  0  0  0  0  0  0  0  0  0  0  0
   -0.3468   -0.3509    0.0000 C   0  0  0  0  0  0  0  0  0  0  0  0
   -0.3075   -1.8504    0.0000 C   0  0  0  0  0  0  0  0  0  0  0  0
    1.1308   -2.2763    0.0000 N   0  0  0  0  0  0  0  0  0  0  0  0
    1.9803   -1.0400    0.0000 C   0  0  0  0  0  0  0  0  0  0  0  0
    3.4675   -0.8441    0.0000 C   0  0  0  0  0  0  0  0  0  0  0  0
    4.0414    0.5417    0.0000 C   0  0  0  0  0  0  0  0  0  0  0  0
    5.5285    0.7376    0.0000 F   0  0  0  0  0  0  0  0  0  0  0  0
    3.1281    1.7317    0.0000 C   0  0  0  0  0  0  0  0  0  0  0  0
    1.6410    1.5358    0.0000 C   0  0  0  0  0  0  0  0  0  0  0  0
    1.0671    0.1499    0.0000 C   0  0  0  0  0  0  0  0  0  0  0  0
   -4.1732    0.7023    0.0000 C   0  0  0  0  0  0  0  0  0  0  0  0
   -4.0556    2.1976    0.0000 O   0  0  0  0  0  0  0  0  0  0  0  0
   -5.5270    0.0564    0.0000 O   0  0  0  0  0  0  0  0  0  0  0  0
  2  1  1  1
  2  3  1  0
  3  4  1  0
  4  5  2  0
  5  6  1  0
  6  7  1  0
  7  8  1  0
  8  9  2  0
  9 10  1  0
  9 11  1  0
 11 12  2  0
 12 13  1  0
  2 14  1  0
 14 15  2  0
 14 16  1  0
 13  4  1  0
 13  7  2  0
M  END
>  <rName>  (1519) 
D-Trp_6F

>  <PQ_SYMBOL>  (1519) 
D-Trp_6F

>  <FULL_NAME>  (1519) 
6-Fluoro-D-Tryptophan

>  <IUPAC_CONDENSED>  (1519) 
D-Trp(6-F)

>  <IUPAC>  (1519) 
(2R)-2-amino-3-(6-fluoro-1H-indol-3-yl)propanoic acid

>  <TYPE>  (1519) 
Backbone

>  <CLASS>  (1519) 
alpha

>  <ANALOG>  (1519) 
Trp

>  <MOL_WT>  (1519) 
222.21899999999997

>  <LOGP>  (1519) 
1.2614000000000003

>  <TPSA>  (1519) 
79.11

>  <POPULARITY>  (1519) 
13.5

>  <PROTECTED>  (1519) 
TRUE

>  <SMILES>  (1519) 
N[C@H](Cc1(c[nH]c2(cc(F)ccc12)))C(=O)O

>  <INCHIKEY>  (1519) 
YMEXGEAJNZRQEH-SECBINFHSA-N

$$$$
D-Trp_6Me
     RDKit          2D

 16 17  0  0  0  0  0  0  0  0999 V2000
   -3.0545   -1.6426    0.0000 N   0  0  0  0  0  0  0  0  0  0  0  0
   -2.9369   -0.1473    0.0000 C   0  0  0  0  0  0  0  0  0  0  0  0
   -1.5831    0.4986    0.0000 C   0  0  0  0  0  0  0  0  0  0  0  0
   -0.3468   -0.3509    0.0000 C   0  0  0  0  0  0  0  0  0  0  0  0
   -0.3075   -1.8504    0.0000 C   0  0  0  0  0  0  0  0  0  0  0  0
    1.1308   -2.2763    0.0000 N   0  0  0  0  0  0  0  0  0  0  0  0
    1.9803   -1.0400    0.0000 C   0  0  0  0  0  0  0  0  0  0  0  0
    3.4675   -0.8441    0.0000 C   0  0  0  0  0  0  0  0  0  0  0  0
    4.0414    0.5417    0.0000 C   0  0  0  0  0  0  0  0  0  0  0  0
    5.5285    0.7376    0.0000 C   0  0  0  0  0  0  0  0  0  0  0  0
    3.1281    1.7317    0.0000 C   0  0  0  0  0  0  0  0  0  0  0  0
    1.6410    1.5358    0.0000 C   0  0  0  0  0  0  0  0  0  0  0  0
    1.0671    0.1499    0.0000 C   0  0  0  0  0  0  0  0  0  0  0  0
   -4.1732    0.7023    0.0000 C   0  0  0  0  0  0  0  0  0  0  0  0
   -4.0556    2.1976    0.0000 O   0  0  0  0  0  0  0  0  0  0  0  0
   -5.5270    0.0564    0.0000 O   0  0  0  0  0  0  0  0  0  0  0  0
  2  1  1  1
  2  3  1  0
  3  4  1  0
  4  5  2  0
  5  6  1  0
  6  7  1  0
  7  8  1  0
  8  9  2  0
  9 10  1  0
  9 11  1  0
 11 12  2  0
 12 13  1  0
  2 14  1  0
 14 15  2  0
 14 16  1  0
 13  7  2  0
 13  4  1  0
M  END
>  <rName>  (1520) 
D-Trp_6Me

>  <PQ_SYMBOL>  (1520) 
D-Trp_6Me

>  <FULL_NAME>  (1520) 
6-Methyl-D-Tryptophan

>  <IUPAC_CONDENSED>  (1520) 
D-Trp(6-Me)

>  <IUPAC>  (1520) 
(2R)-2-amino-3-(6-methyl-1H-indol-3-yl)propanoic acid

>  <TYPE>  (1520) 
Backbone

>  <CLASS>  (1520) 
alpha

>  <ANALOG>  (1520) 
Trp

>  <MOL_WT>  (1520) 
218.25599999999997

>  <LOGP>  (1520) 
1.4307200000000002

>  <TPSA>  (1520) 
79.11

>  <POPULARITY>  (1520) 
4.4

>  <PROTECTED>  (1520) 
TRUE

>  <SMILES>  (1520) 
N[C@H](Cc2(c[nH]c1(cc(C)ccc12)))C(=O)O

>  <INCHIKEY>  (1520) 
GDMRVYIFGPMUCG-SNVBAGLBSA-N

$$$$
D-Trp_6NO2
     RDKit          2D

 18 19  0  0  0  0  0  0  0  0999 V2000
   -3.8235   -1.5704    0.0000 N   0  0  0  0  0  0  0  0  0  0  0  0
   -3.6408   -0.0815    0.0000 C   0  0  0  0  0  0  0  0  0  0  0  0
   -2.2602    0.5047    0.0000 C   0  0  0  0  0  0  0  0  0  0  0  0
   -1.0621   -0.3978    0.0000 C   0  0  0  0  0  0  0  0  0  0  0  0
   -1.0881   -1.8976    0.0000 C   0  0  0  0  0  0  0  0  0  0  0  0
    0.3303   -2.3858    0.0000 N   0  0  0  0  0  0  0  0  0  0  0  0
    1.2328   -1.1877    0.0000 C   0  0  0  0  0  0  0  0  0  0  0  0
    2.7271   -1.0568    0.0000 C   0  0  0  0  0  0  0  0  0  0  0  0
    3.3609    0.3027    0.0000 C   0  0  0  0  0  0  0  0  0  0  0  0
    2.5003    1.5314    0.0000 C   0  0  0  0  0  0  0  0  0  0  0  0
    1.0061    1.4004    0.0000 C   0  0  0  0  0  0  0  0  0  0  0  0
    0.3723    0.0409    0.0000 C   0  0  0  0  0  0  0  0  0  0  0  0
    4.8551    0.4337    0.0000 N   0  0  0  0  0  0  0  0  0  0  0  0
    5.4889    1.7932    0.0000 O   0  0  0  0  0  0  0  0  0  0  0  0
    5.7157   -0.7950    0.0000 O   0  0  0  0  0  0  0  0  0  0  0  0
   -4.8389    0.8210    0.0000 C   0  0  0  0  0  0  0  0  0  0  0  0
   -4.6563    2.3099    0.0000 O   0  0  0  0  0  0  0  0  0  0  0  0
   -6.2196    0.2348    0.0000 O   0  0  0  0  0  0  0  0  0  0  0  0
  2  1  1  1
  2  3  1  0
  3  4  1  0
  4  5  2  0
  5  6  1  0
  6  7  1  0
  7  8  1  0
  8  9  2  0
  9 10  1  0
 10 11  2  0
 11 12  1  0
  9 13  1  0
 13 14  2  0
 13 15  1  0
  2 16  1  0
 16 17  2  0
 16 18  1  0
 12  4  1  0
 12  7  2  0
M  CHG  2  13   1  15  -1
M  END
>  <rName>  (1521) 
D-Trp_6NO2

>  <PQ_SYMBOL>  (1521) 
D-Trp_6NO2

>  <FULL_NAME>  (1521) 
(2R)-2-amino-3-(6-nitro-1H-indol-3-yl)propanoic acid

>  <IUPAC_CONDENSED>  (1521) 
D-Trp(6-NO2)

>  <IUPAC>  (1521) 
(2R)-2-amino-3-(6-nitro-1H-indol-3-yl)propanoic acid

>  <TYPE>  (1521) 
Backbone

>  <CLASS>  (1521) 
alpha

>  <ANALOG>  (1521) 
Trp

>  <MOL_WT>  (1521) 
249.22599999999997

>  <LOGP>  (1521) 
1.0305

>  <TPSA>  (1521) 
122.25000000000001

>  <POPULARITY>  (1521) 
5.1

>  <PROTECTED>  (1521) 
TRUE

>  <SMILES>  (1521) 
N[C@H](Cc1(c[nH]c2(cc(ccc12)[N+](=O)[O-])))C(=O)O

>  <INCHIKEY>  (1521) 
AWLWPSSHYJQPCH-SECBINFHSA-N

$$$$
D-Trp_6OH
     RDKit          2D

 16 17  0  0  0  0  0  0  0  0999 V2000
   -3.0545   -1.6426    0.0000 N   0  0  0  0  0  0  0  0  0  0  0  0
   -2.9369   -0.1473    0.0000 C   0  0  0  0  0  0  0  0  0  0  0  0
   -1.5831    0.4986    0.0000 C   0  0  0  0  0  0  0  0  0  0  0  0
   -0.3468   -0.3509    0.0000 C   0  0  0  0  0  0  0  0  0  0  0  0
   -0.3075   -1.8504    0.0000 C   0  0  0  0  0  0  0  0  0  0  0  0
    1.1308   -2.2763    0.0000 N   0  0  0  0  0  0  0  0  0  0  0  0
    1.9803   -1.0400    0.0000 C   0  0  0  0  0  0  0  0  0  0  0  0
    3.4675   -0.8441    0.0000 C   0  0  0  0  0  0  0  0  0  0  0  0
    4.0414    0.5417    0.0000 C   0  0  0  0  0  0  0  0  0  0  0  0
    5.5285    0.7376    0.0000 O   0  0  0  0  0  0  0  0  0  0  0  0
    3.1281    1.7317    0.0000 C   0  0  0  0  0  0  0  0  0  0  0  0
    1.6410    1.5358    0.0000 C   0  0  0  0  0  0  0  0  0  0  0  0
    1.0671    0.1499    0.0000 C   0  0  0  0  0  0  0  0  0  0  0  0
   -4.1732    0.7023    0.0000 C   0  0  0  0  0  0  0  0  0  0  0  0
   -4.0556    2.1976    0.0000 O   0  0  0  0  0  0  0  0  0  0  0  0
   -5.5270    0.0564    0.0000 O   0  0  0  0  0  0  0  0  0  0  0  0
  2  1  1  1
  2  3  1  0
  3  4  1  0
  4  5  2  0
  5  6  1  0
  6  7  1  0
  7  8  1  0
  8  9  2  0
  9 10  1  0
  9 11  1  0
 11 12  2  0
 12 13  1  0
  2 14  1  0
 14 15  2  0
 14 16  1  0
 13  7  2  0
 13  4  1  0
M  END
>  <rName>  (1522) 
D-Trp_6OH

>  <PQ_SYMBOL>  (1522) 
D-Trp_6OH

>  <FULL_NAME>  (1522) 
6-Hydroxy-D-Tryptophan

>  <IUPAC_CONDENSED>  (1522) 
D-Trp(6-OH)

>  <IUPAC>  (1522) 
(2R)-2-amino-3-(6-hydroxy-1H-indol-3-yl)propanoic acid

>  <TYPE>  (1522) 
Backbone

>  <CLASS>  (1522) 
alpha

>  <ANALOG>  (1522) 
Trp

>  <MOL_WT>  (1522) 
220.22799999999998

>  <LOGP>  (1522) 
0.8279000000000003

>  <TPSA>  (1522) 
99.34000000000002

>  <POPULARITY>  (1522) 
5.6

>  <PROTECTED>  (1522) 
TRUE

>  <SMILES>  (1522) 
N[C@H](Cc2(c[nH]c1(cc(O)ccc12)))C(=O)O

>  <INCHIKEY>  (1522) 
NXANGIZFHQQBCC-SECBINFHSA-N

$$$$
D-Trp_6OMe
     RDKit          2D

 17 18  0  0  0  0  0  0  0  0999 V2000
   -3.4079   -1.6691    0.0000 N   0  0  0  0  0  0  0  0  0  0  0  0
   -3.3136   -0.1721    0.0000 C   0  0  0  0  0  0  0  0  0  0  0  0
   -1.9699    0.4947    0.0000 C   0  0  0  0  0  0  0  0  0  0  0  0
   -0.7207   -0.3355    0.0000 C   0  0  0  0  0  0  0  0  0  0  0  0
   -0.6580   -1.8342    0.0000 C   0  0  0  0  0  0  0  0  0  0  0  0
    0.7867   -2.2377    0.0000 N   0  0  0  0  0  0  0  0  0  0  0  0
    1.6169   -0.9885    0.0000 C   0  0  0  0  0  0  0  0  0  0  0  0
    3.1008   -0.7695    0.0000 C   0  0  0  0  0  0  0  0  0  0  0  0
    3.6532    0.6251    0.0000 C   0  0  0  0  0  0  0  0  0  0  0  0
    5.1371    0.8441    0.0000 O   0  0  0  0  0  0  0  0  0  0  0  0
    6.0687   -0.3316    0.0000 C   0  0  0  0  0  0  0  0  0  0  0  0
    2.7216    1.8007    0.0000 C   0  0  0  0  0  0  0  0  0  0  0  0
    1.2377    1.5818    0.0000 C   0  0  0  0  0  0  0  0  0  0  0  0
    0.6853    0.1872    0.0000 C   0  0  0  0  0  0  0  0  0  0  0  0
   -4.5629    0.6581    0.0000 C   0  0  0  0  0  0  0  0  0  0  0  0
   -4.4685    2.1552    0.0000 O   0  0  0  0  0  0  0  0  0  0  0  0
   -5.9065   -0.0087    0.0000 O   0  0  0  0  0  0  0  0  0  0  0  0
  2  1  1  1
  2  3  1  0
  3  4  1  0
  4  5  2  0
  5  6  1  0
  6  7  1  0
  7  8  1  0
  8  9  2  0
  9 10  1  0
 10 11  1  0
  9 12  1  0
 12 13  2  0
 13 14  1  0
  2 15  1  0
 15 16  2  0
 15 17  1  0
 14  4  1  0
 14  7  2  0
M  END
>  <rName>  (1523) 
D-Trp_6OMe

>  <PQ_SYMBOL>  (1523) 
D-Trp_6OMe

>  <FULL_NAME>  (1523) 
6-methoxy-D-tryptophan

>  <IUPAC_CONDENSED>  (1523) 
D-Trp(6-OMe)

>  <IUPAC>  (1523) 
(2R)-2-amino-3-(6-methoxy-1H-indol-3-yl)propanoic acid

>  <TYPE>  (1523) 
Backbone

>  <CLASS>  (1523) 
alpha

>  <ANALOG>  (1523) 
Trp

>  <MOL_WT>  (1523) 
234.25499999999997

>  <LOGP>  (1523) 
1.1309

>  <TPSA>  (1523) 
88.34000000000002

>  <POPULARITY>  (1523) 
5.5

>  <PROTECTED>  (1523) 
TRUE

>  <SMILES>  (1523) 
N[C@H](Cc1(c[nH]c2(cc(OC)ccc12)))C(=O)O

>  <INCHIKEY>  (1523) 
ASMBUJRMSWTSLE-SNVBAGLBSA-N

$$$$
D-Trp_7Aza
     RDKit          2D

 15 16  0  0  0  0  0  0  0  0999 V2000
   -2.6183   -1.7023    0.0000 N   0  0  0  0  0  0  0  0  0  0  0  0
   -2.5622   -0.2034    0.0000 C   0  0  0  0  0  0  0  0  0  0  0  0
   -1.2360    0.4975    0.0000 C   0  0  0  0  0  0  0  0  0  0  0  0
    0.0341   -0.3006    0.0000 C   0  0  0  0  0  0  0  0  0  0  0  0
    0.1349   -1.7972    0.0000 C   0  0  0  0  0  0  0  0  0  0  0  0
    1.5895   -2.1637    0.0000 N   0  0  0  0  0  0  0  0  0  0  0  0
    2.3875   -0.8937    0.0000 C   0  0  0  0  0  0  0  0  0  0  0  0
    3.8654   -0.6369    0.0000 N   0  0  0  0  0  0  0  0  0  0  0  0
    4.3820    0.7713    0.0000 C   0  0  0  0  0  0  0  0  0  0  0  0
    3.4207    1.9228    0.0000 C   0  0  0  0  0  0  0  0  0  0  0  0
    1.9429    1.6661    0.0000 C   0  0  0  0  0  0  0  0  0  0  0  0
    1.4263    0.2578    0.0000 C   0  0  0  0  0  0  0  0  0  0  0  0
   -3.8322    0.5947    0.0000 C   0  0  0  0  0  0  0  0  0  0  0  0
   -3.7761    2.0937    0.0000 O   0  0  0  0  0  0  0  0  0  0  0  0
   -5.1584   -0.1061    0.0000 O   0  0  0  0  0  0  0  0  0  0  0  0
  2  1  1  1
  2  3  1  0
  3  4  1  0
  4  5  2  0
  5  6  1  0
  6  7  1  0
  7  8  2  0
  8  9  1  0
  9 10  2  0
 10 11  1  0
 11 12  2  0
  2 13  1  0
 13 14  2  0
 13 15  1  0
 12  4  1  0
 12  7  1  0
M  END
>  <rName>  (1524) 
D-Trp_7Aza

>  <PQ_SYMBOL>  (1524) 
D-Trp_7Aza

>  <FULL_NAME>  (1524) 
7-Aza-D-Tryptophan

>  <IUPAC_CONDENSED>  (1524) 
D-Trp(7-Aza)

>  <IUPAC>  (1524) 
(2R)-2-amino-3-(2,9-diazabicyclo[4.3.0]nona-1,3,5,7-tetraen-7-yl)propanoic acid

>  <TYPE>  (1524) 
Backbone

>  <CLASS>  (1524) 
alpha

>  <ANALOG>  (1524) 
Phe

>  <MOL_WT>  (1524) 
205.21699999999998

>  <LOGP>  (1524) 
0.5172999999999999

>  <TPSA>  (1524) 
92.00000000000001

>  <POPULARITY>  (1524) 
6.1

>  <PROTECTED>  (1524) 
TRUE

>  <SMILES>  (1524) 
N[C@H](Cc1(c[nH]c2(ncccc12)))C(=O)O

>  <INCHIKEY>  (1524) 
SNLOIIPRZGMRAB-MRVPVSSYSA-N

$$$$
D-Trp_7Br
     RDKit          2D

 16 17  0  0  0  0  0  0  0  0999 V2000
   -2.8116   -1.7751    0.0000 N   0  0  0  0  0  0  0  0  0  0  0  0
   -2.8520   -0.2757    0.0000 C   0  0  0  0  0  0  0  0  0  0  0  0
   -1.5737    0.5091    0.0000 C   0  0  0  0  0  0  0  0  0  0  0  0
   -0.2549   -0.2056    0.0000 C   0  0  0  0  0  0  0  0  0  0  0  0
   -0.0579   -1.6926    0.0000 C   0  0  0  0  0  0  0  0  0  0  0  0
    1.4172   -1.9648    0.0000 N   0  0  0  0  0  0  0  0  0  0  0  0
    2.1319   -0.6460    0.0000 C   0  0  0  0  0  0  0  0  0  0  0  0
    3.5902   -0.2947    0.0000 C   0  0  0  0  0  0  0  0  0  0  0  0
    4.6235   -1.3820    0.0000 Br  0  0  0  0  0  0  0  0  0  0  0  0
    4.0150    1.1438    0.0000 C   0  0  0  0  0  0  0  0  0  0  0  0
    2.9816    2.2311    0.0000 C   0  0  0  0  0  0  0  0  0  0  0  0
    1.5234    1.8798    0.0000 C   0  0  0  0  0  0  0  0  0  0  0  0
    1.0985    0.4412    0.0000 C   0  0  0  0  0  0  0  0  0  0  0  0
   -4.1708    0.4390    0.0000 C   0  0  0  0  0  0  0  0  0  0  0  0
   -4.2113    1.9385    0.0000 O   0  0  0  0  0  0  0  0  0  0  0  0
   -5.4491   -0.3458    0.0000 O   0  0  0  0  0  0  0  0  0  0  0  0
  2  1  1  1
  2  3  1  0
  3  4  1  0
  4  5  2  0
  5  6  1  0
  6  7  1  0
  7  8  2  0
  8  9  1  0
  8 10  1  0
 10 11  2  0
 11 12  1  0
 12 13  2  0
  2 14  1  0
 14 15  2  0
 14 16  1  0
 13  4  1  0
 13  7  1  0
M  END
>  <rName>  (1525) 
D-Trp_7Br

>  <PQ_SYMBOL>  (1525) 
D-Trp_7Br

>  <FULL_NAME>  (1525) 
7-bromo-D-tryptophan

>  <IUPAC_CONDENSED>  (1525) 
D-Trp(7-Br)

>  <IUPAC>  (1525) 
(2R)-2-amino-3-(7-bromo-1H-indol-3-yl)propanoic acid

>  <TYPE>  (1525) 
Backbone

>  <CLASS>  (1525) 
alpha

>  <ANALOG>  (1525) 
Trp

>  <MOL_WT>  (1525) 
283.125

>  <LOGP>  (1525) 
1.8848

>  <TPSA>  (1525) 
79.11

>  <POPULARITY>  (1525) 
6.5

>  <PROTECTED>  (1525) 
TRUE

>  <SMILES>  (1525) 
N[C@H](Cc1(c[nH]c2(c(Br)cccc12)))C(=O)O

>  <INCHIKEY>  (1525) 
VMMOOBBCGTVDGP-SECBINFHSA-N

$$$$
D-Trp_7CN
     RDKit          2D

 17 18  0  0  0  0  0  0  0  0999 V2000
   -2.9917   -1.8956    0.0000 N   0  0  0  0  0  0  0  0  0  0  0  0
   -3.1616   -0.4052    0.0000 C   0  0  0  0  0  0  0  0  0  0  0  0
   -1.9559    0.4871    0.0000 C   0  0  0  0  0  0  0  0  0  0  0  0
   -0.5802   -0.1109    0.0000 C   0  0  0  0  0  0  0  0  0  0  0  0
   -0.2555   -1.5754    0.0000 C   0  0  0  0  0  0  0  0  0  0  0  0
    1.2376   -1.7190    0.0000 N   0  0  0  0  0  0  0  0  0  0  0  0
    1.8357   -0.3434    0.0000 C   0  0  0  0  0  0  0  0  0  0  0  0
    3.2581    0.1326    0.0000 C   0  0  0  0  0  0  0  0  0  0  0  0
    4.3816   -0.8612    0.0000 C   0  0  0  0  0  0  0  0  0  0  0  0
    5.5051   -1.8551    0.0000 N   0  0  0  0  0  0  0  0  0  0  0  0
    3.5571    1.6025    0.0000 C   0  0  0  0  0  0  0  0  0  0  0  0
    2.4336    2.5964    0.0000 C   0  0  0  0  0  0  0  0  0  0  0  0
    1.0111    2.1203    0.0000 C   0  0  0  0  0  0  0  0  0  0  0  0
    0.7122    0.6504    0.0000 C   0  0  0  0  0  0  0  0  0  0  0  0
   -4.5372    0.1928    0.0000 C   0  0  0  0  0  0  0  0  0  0  0  0
   -4.7071    1.6832    0.0000 O   0  0  0  0  0  0  0  0  0  0  0  0
   -5.7429   -0.6995    0.0000 O   0  0  0  0  0  0  0  0  0  0  0  0
  2  1  1  1
  2  3  1  0
  3  4  1  0
  4  5  2  0
  5  6  1  0
  6  7  1  0
  7  8  2  0
  8  9  1  0
  9 10  3  0
  8 11  1  0
 11 12  2  0
 12 13  1  0
 13 14  2  0
  2 15  1  0
 15 16  2  0
 15 17  1  0
 14  4  1  0
 14  7  1  0
M  END
>  <rName>  (1526) 
D-Trp_7CN

>  <PQ_SYMBOL>  (1526) 
D-Trp_7CN

>  <FULL_NAME>  (1526) 
7-cyano-D-tryptophan

>  <IUPAC_CONDENSED>  (1526) 
D-Trp(7-CN)

>  <IUPAC>  (1526) 
(2R)-2-amino-3-(7-(nitrilomethyl)-1H-indol-3-yl)propanoic acid

>  <TYPE>  (1526) 
Backbone

>  <CLASS>  (1526) 
alpha

>  <ANALOG>  (1526) 
Trp

>  <MOL_WT>  (1526) 
229.23899999999998

>  <LOGP>  (1526) 
0.9939800000000003

>  <TPSA>  (1526) 
102.89999999999999

>  <POPULARITY>  (1526) 
3.0

>  <PROTECTED>  (1526) 
TRUE

>  <SMILES>  (1526) 
N[C@H](Cc1(c[nH]c2(c(C#N)cccc12)))C(=O)O

>  <INCHIKEY>  (1526) 
FJGPUTWOJHMELC-SNVBAGLBSA-N

$$$$
D-Trp_7Cl
     RDKit          2D

 16 17  0  0  0  0  0  0  0  0999 V2000
   -2.8116   -1.7751    0.0000 N   0  0  0  0  0  0  0  0  0  0  0  0
   -2.8520   -0.2757    0.0000 C   0  0  0  0  0  0  0  0  0  0  0  0
   -1.5737    0.5091    0.0000 C   0  0  0  0  0  0  0  0  0  0  0  0
   -0.2549   -0.2056    0.0000 C   0  0  0  0  0  0  0  0  0  0  0  0
   -0.0579   -1.6926    0.0000 C   0  0  0  0  0  0  0  0  0  0  0  0
    1.4172   -1.9648    0.0000 N   0  0  0  0  0  0  0  0  0  0  0  0
    2.1319   -0.6460    0.0000 C   0  0  0  0  0  0  0  0  0  0  0  0
    3.5902   -0.2947    0.0000 C   0  0  0  0  0  0  0  0  0  0  0  0
    4.6235   -1.3820    0.0000 Cl  0  0  0  0  0  0  0  0  0  0  0  0
    4.0150    1.1438    0.0000 C   0  0  0  0  0  0  0  0  0  0  0  0
    2.9816    2.2311    0.0000 C   0  0  0  0  0  0  0  0  0  0  0  0
    1.5234    1.8798    0.0000 C   0  0  0  0  0  0  0  0  0  0  0  0
    1.0985    0.4412    0.0000 C   0  0  0  0  0  0  0  0  0  0  0  0
   -4.1708    0.4390    0.0000 C   0  0  0  0  0  0  0  0  0  0  0  0
   -4.2113    1.9385    0.0000 O   0  0  0  0  0  0  0  0  0  0  0  0
   -5.4491   -0.3458    0.0000 O   0  0  0  0  0  0  0  0  0  0  0  0
  2  1  1  1
  2  3  1  0
  3  4  1  0
  4  5  2  0
  5  6  1  0
  6  7  1  0
  7  8  2  0
  8  9  1  0
  8 10  1  0
 10 11  2  0
 11 12  1  0
 12 13  2  0
  2 14  1  0
 14 15  2  0
 14 16  1  0
 13  4  1  0
 13  7  1  0
M  END
>  <rName>  (1527) 
D-Trp_7Cl

>  <PQ_SYMBOL>  (1527) 
D-Trp_7Cl

>  <FULL_NAME>  (1527) 
7-chloro-D-tryptophan

>  <IUPAC_CONDENSED>  (1527) 
D-Trp(7-Cl)

>  <IUPAC>  (1527) 
(2R)-2-amino-3-(7-chloro-1H-indol-3-yl)propanoic acid

>  <TYPE>  (1527) 
Backbone

>  <CLASS>  (1527) 
alpha

>  <ANALOG>  (1527) 
Trp

>  <MOL_WT>  (1527) 
238.674

>  <LOGP>  (1527) 
1.7757

>  <TPSA>  (1527) 
79.11

>  <POPULARITY>  (1527) 
4.6

>  <PROTECTED>  (1527) 
TRUE

>  <SMILES>  (1527) 
N[C@H](Cc1(c[nH]c2(c(Cl)cccc12)))C(=O)O

>  <INCHIKEY>  (1527) 
DMQFGLHRDFQKNR-SECBINFHSA-N

$$$$
D-Trp_7F
     RDKit          2D

 16 17  0  0  0  0  0  0  0  0999 V2000
   -2.8116   -1.7751    0.0000 N   0  0  0  0  0  0  0  0  0  0  0  0
   -2.8520   -0.2757    0.0000 C   0  0  0  0  0  0  0  0  0  0  0  0
   -1.5737    0.5091    0.0000 C   0  0  0  0  0  0  0  0  0  0  0  0
   -0.2549   -0.2056    0.0000 C   0  0  0  0  0  0  0  0  0  0  0  0
   -0.0579   -1.6926    0.0000 C   0  0  0  0  0  0  0  0  0  0  0  0
    1.4172   -1.9648    0.0000 N   0  0  0  0  0  0  0  0  0  0  0  0
    2.1319   -0.6460    0.0000 C   0  0  0  0  0  0  0  0  0  0  0  0
    3.5902   -0.2947    0.0000 C   0  0  0  0  0  0  0  0  0  0  0  0
    4.6235   -1.3820    0.0000 F   0  0  0  0  0  0  0  0  0  0  0  0
    4.0150    1.1438    0.0000 C   0  0  0  0  0  0  0  0  0  0  0  0
    2.9816    2.2311    0.0000 C   0  0  0  0  0  0  0  0  0  0  0  0
    1.5234    1.8798    0.0000 C   0  0  0  0  0  0  0  0  0  0  0  0
    1.0985    0.4412    0.0000 C   0  0  0  0  0  0  0  0  0  0  0  0
   -4.1708    0.4390    0.0000 C   0  0  0  0  0  0  0  0  0  0  0  0
   -4.2113    1.9385    0.0000 O   0  0  0  0  0  0  0  0  0  0  0  0
   -5.4491   -0.3458    0.0000 O   0  0  0  0  0  0  0  0  0  0  0  0
  2  1  1  1
  2  3  1  0
  3  4  1  0
  4  5  2  0
  5  6  1  0
  6  7  1  0
  7  8  2  0
  8  9  1  0
  8 10  1  0
 10 11  2  0
 11 12  1  0
 12 13  2  0
  2 14  1  0
 14 15  2  0
 14 16  1  0
 13  4  1  0
 13  7  1  0
M  END
>  <rName>  (1528) 
D-Trp_7F

>  <PQ_SYMBOL>  (1528) 
D-Trp_7F

>  <FULL_NAME>  (1528) 
7-fluoro-D-tryptophan

>  <IUPAC_CONDENSED>  (1528) 
D-Trp(7-F)

>  <IUPAC>  (1528) 
(2R)-2-amino-3-(7-fluoro-1H-indol-3-yl)propanoic acid

>  <TYPE>  (1528) 
Backbone

>  <CLASS>  (1528) 
alpha

>  <ANALOG>  (1528) 
Trp

>  <MOL_WT>  (1528) 
222.219

>  <LOGP>  (1528) 
1.2614000000000003

>  <TPSA>  (1528) 
79.11

>  <POPULARITY>  (1528) 
5.8

>  <PROTECTED>  (1528) 
TRUE

>  <SMILES>  (1528) 
N[C@H](Cc1(c[nH]c2(c(F)cccc12)))C(=O)O

>  <INCHIKEY>  (1528) 
ADMHYWIKJSPIGJ-SECBINFHSA-N

$$$$
D-Trp_7I
     RDKit          2D

 16 17  0  0  0  0  0  0  0  0999 V2000
   -2.8116   -1.7751    0.0000 N   0  0  0  0  0  0  0  0  0  0  0  0
   -2.8520   -0.2757    0.0000 C   0  0  0  0  0  0  0  0  0  0  0  0
   -1.5737    0.5091    0.0000 C   0  0  0  0  0  0  0  0  0  0  0  0
   -0.2549   -0.2056    0.0000 C   0  0  0  0  0  0  0  0  0  0  0  0
   -0.0579   -1.6926    0.0000 C   0  0  0  0  0  0  0  0  0  0  0  0
    1.4172   -1.9648    0.0000 N   0  0  0  0  0  0  0  0  0  0  0  0
    2.1319   -0.6460    0.0000 C   0  0  0  0  0  0  0  0  0  0  0  0
    3.5902   -0.2947    0.0000 C   0  0  0  0  0  0  0  0  0  0  0  0
    4.6235   -1.3820    0.0000 I   0  0  0  0  0  0  0  0  0  0  0  0
    4.0150    1.1438    0.0000 C   0  0  0  0  0  0  0  0  0  0  0  0
    2.9816    2.2311    0.0000 C   0  0  0  0  0  0  0  0  0  0  0  0
    1.5234    1.8798    0.0000 C   0  0  0  0  0  0  0  0  0  0  0  0
    1.0985    0.4412    0.0000 C   0  0  0  0  0  0  0  0  0  0  0  0
   -4.1708    0.4390    0.0000 C   0  0  0  0  0  0  0  0  0  0  0  0
   -4.2113    1.9385    0.0000 O   0  0  0  0  0  0  0  0  0  0  0  0
   -5.4491   -0.3458    0.0000 O   0  0  0  0  0  0  0  0  0  0  0  0
  2  1  1  1
  2  3  1  0
  3  4  1  0
  4  5  2  0
  5  6  1  0
  6  7  1  0
  7  8  2  0
  8  9  1  0
  8 10  1  0
 10 11  2  0
 11 12  1  0
 12 13  2  0
  2 14  1  0
 14 15  2  0
 14 16  1  0
 13  4  1  0
 13  7  1  0
M  END
>  <rName>  (1529) 
D-Trp_7I

>  <PQ_SYMBOL>  (1529) 
D-Trp_7I

>  <FULL_NAME>  (1529) 
7-iodo-D-tryptophan

>  <IUPAC_CONDENSED>  (1529) 
D-Trp(7-I)

>  <IUPAC>  (1529) 
(2R)-2-amino-3-(7-iodo-1H-indol-3-yl)propanoic acid

>  <TYPE>  (1529) 
Backbone

>  <CLASS>  (1529) 
alpha

>  <ANALOG>  (1529) 
Trp

>  <MOL_WT>  (1529) 
330.12500000000006

>  <LOGP>  (1529) 
1.7269

>  <TPSA>  (1529) 
79.11

>  <POPULARITY>  (1529) 
3.5

>  <PROTECTED>  (1529) 
TRUE

>  <SMILES>  (1529) 
N[C@H](Cc1(c[nH]c2(c(I)cccc12)))C(=O)O

>  <INCHIKEY>  (1529) 
VOMLUUOHUWEUIZ-SECBINFHSA-N

$$$$
D-Trp_7Me
     RDKit          2D

 16 17  0  0  0  0  0  0  0  0999 V2000
   -2.8116   -1.7751    0.0000 N   0  0  0  0  0  0  0  0  0  0  0  0
   -2.8520   -0.2757    0.0000 C   0  0  0  0  0  0  0  0  0  0  0  0
   -1.5737    0.5091    0.0000 C   0  0  0  0  0  0  0  0  0  0  0  0
   -0.2549   -0.2056    0.0000 C   0  0  0  0  0  0  0  0  0  0  0  0
   -0.0579   -1.6926    0.0000 C   0  0  0  0  0  0  0  0  0  0  0  0
    1.4172   -1.9648    0.0000 N   0  0  0  0  0  0  0  0  0  0  0  0
    2.1319   -0.6460    0.0000 C   0  0  0  0  0  0  0  0  0  0  0  0
    3.5902   -0.2947    0.0000 C   0  0  0  0  0  0  0  0  0  0  0  0
    4.6235   -1.3820    0.0000 C   0  0  0  0  0  0  0  0  0  0  0  0
    4.0150    1.1438    0.0000 C   0  0  0  0  0  0  0  0  0  0  0  0
    2.9816    2.2311    0.0000 C   0  0  0  0  0  0  0  0  0  0  0  0
    1.5234    1.8798    0.0000 C   0  0  0  0  0  0  0  0  0  0  0  0
    1.0985    0.4412    0.0000 C   0  0  0  0  0  0  0  0  0  0  0  0
   -4.1708    0.4390    0.0000 C   0  0  0  0  0  0  0  0  0  0  0  0
   -4.2113    1.9385    0.0000 O   0  0  0  0  0  0  0  0  0  0  0  0
   -5.4491   -0.3458    0.0000 O   0  0  0  0  0  0  0  0  0  0  0  0
  2  1  1  1
  2  3  1  0
  3  4  1  0
  4  5  2  0
  5  6  1  0
  6  7  1  0
  7  8  2  0
  8  9  1  0
  8 10  1  0
 10 11  2  0
 11 12  1  0
 12 13  2  0
  2 14  1  0
 14 15  2  0
 14 16  1  0
 13  4  1  0
 13  7  1  0
M  END
>  <rName>  (1530) 
D-Trp_7Me

>  <PQ_SYMBOL>  (1530) 
D-Trp_7Me

>  <FULL_NAME>  (1530) 
7-methyl-D-tryptophan

>  <IUPAC_CONDENSED>  (1530) 
D-Trp(7-Me)

>  <IUPAC>  (1530) 
(2R)-2-amino-3-(7-methyl-1H-indol-3-yl)propanoic acid

>  <TYPE>  (1530) 
Backbone

>  <CLASS>  (1530) 
alpha

>  <ANALOG>  (1530) 
Trp

>  <MOL_WT>  (1530) 
218.256

>  <LOGP>  (1530) 
1.4307200000000002

>  <TPSA>  (1530) 
79.11

>  <POPULARITY>  (1530) 
7.1

>  <PROTECTED>  (1530) 
TRUE

>  <SMILES>  (1530) 
N[C@H](Cc1(c[nH]c2(c(C)cccc12)))C(=O)O

>  <INCHIKEY>  (1530) 
KBOZNJNHBBROHM-SNVBAGLBSA-N

$$$$
D-Trp_7NO2
     RDKit          2D

 18 19  0  0  0  0  0  0  0  0999 V2000
   -3.2205   -1.8731    0.0000 N   0  0  0  0  0  0  0  0  0  0  0  0
   -3.4021   -0.3841    0.0000 C   0  0  0  0  0  0  0  0  0  0  0  0
   -2.2034    0.5177    0.0000 C   0  0  0  0  0  0  0  0  0  0  0  0
   -0.8231   -0.0696    0.0000 C   0  0  0  0  0  0  0  0  0  0  0  0
   -0.4869   -1.5314    0.0000 C   0  0  0  0  0  0  0  0  0  0  0  0
    1.0073   -1.6633    0.0000 N   0  0  0  0  0  0  0  0  0  0  0  0
    1.5945   -0.2831    0.0000 C   0  0  0  0  0  0  0  0  0  0  0  0
    3.0132    0.2041    0.0000 C   0  0  0  0  0  0  0  0  0  0  0  0
    3.3006    1.6763    0.0000 C   0  0  0  0  0  0  0  0  0  0  0  0
    2.1693    2.6613    0.0000 C   0  0  0  0  0  0  0  0  0  0  0  0
    0.7507    2.1742    0.0000 C   0  0  0  0  0  0  0  0  0  0  0  0
    0.4632    0.7019    0.0000 C   0  0  0  0  0  0  0  0  0  0  0  0
    4.1444   -0.7809    0.0000 N   0  0  0  0  0  0  0  0  0  0  0  0
    3.8570   -2.2531    0.0000 O   0  0  0  0  0  0  0  0  0  0  0  0
    5.5631   -0.2937    0.0000 O   0  0  0  0  0  0  0  0  0  0  0  0
   -4.7824    0.2031    0.0000 C   0  0  0  0  0  0  0  0  0  0  0  0
   -4.9640    1.6921    0.0000 O   0  0  0  0  0  0  0  0  0  0  0  0
   -5.9811   -0.6986    0.0000 O   0  0  0  0  0  0  0  0  0  0  0  0
  2  1  1  1
  2  3  1  0
  3  4  1  0
  4  5  2  0
  5  6  1  0
  6  7  1  0
  7  8  2  0
  8  9  1  0
  9 10  2  0
 10 11  1  0
 11 12  2  0
  8 13  1  0
 13 14  2  0
 13 15  1  0
  2 16  1  0
 16 17  2  0
 16 18  1  0
 12  4  1  0
 12  7  1  0
M  CHG  2  13   1  15  -1
M  END
>  <rName>  (1531) 
D-Trp_7NO2

>  <PQ_SYMBOL>  (1531) 
D-Trp_7NO2

>  <FULL_NAME>  (1531) 
7-nitro-D-tryptophan

>  <IUPAC_CONDENSED>  (1531) 
D-Trp(7-NO2)

>  <IUPAC>  (1531) 
(2R)-2-amino-3-(7-nitro-1H-indol-3-yl)propanoic acid

>  <TYPE>  (1531) 
Backbone

>  <CLASS>  (1531) 
alpha

>  <ANALOG>  (1531) 
Trp

>  <MOL_WT>  (1531) 
249.22599999999997

>  <LOGP>  (1531) 
1.0305

>  <TPSA>  (1531) 
122.25000000000001

>  <POPULARITY>  (1531) 
3.3

>  <PROTECTED>  (1531) 
TRUE

>  <SMILES>  (1531) 
N[C@H](Cc1(c[nH]c2(c(cccc12)[N+](=O)[O-])))C(=O)O

>  <INCHIKEY>  (1531) 
BAAGPHWSKFTJTK-MRVPVSSYSA-N

$$$$
D-Trp_7OH
     RDKit          2D

 16 17  0  0  0  0  0  0  0  0999 V2000
   -2.8116   -1.7751    0.0000 N   0  0  0  0  0  0  0  0  0  0  0  0
   -2.8520   -0.2757    0.0000 C   0  0  0  0  0  0  0  0  0  0  0  0
   -1.5737    0.5091    0.0000 C   0  0  0  0  0  0  0  0  0  0  0  0
   -0.2549   -0.2056    0.0000 C   0  0  0  0  0  0  0  0  0  0  0  0
   -0.0579   -1.6926    0.0000 C   0  0  0  0  0  0  0  0  0  0  0  0
    1.4172   -1.9648    0.0000 N   0  0  0  0  0  0  0  0  0  0  0  0
    2.1319   -0.6460    0.0000 C   0  0  0  0  0  0  0  0  0  0  0  0
    3.5902   -0.2947    0.0000 C   0  0  0  0  0  0  0  0  0  0  0  0
    4.6235   -1.3820    0.0000 O   0  0  0  0  0  0  0  0  0  0  0  0
    4.0150    1.1438    0.0000 C   0  0  0  0  0  0  0  0  0  0  0  0
    2.9816    2.2311    0.0000 C   0  0  0  0  0  0  0  0  0  0  0  0
    1.5234    1.8798    0.0000 C   0  0  0  0  0  0  0  0  0  0  0  0
    1.0985    0.4412    0.0000 C   0  0  0  0  0  0  0  0  0  0  0  0
   -4.1708    0.4390    0.0000 C   0  0  0  0  0  0  0  0  0  0  0  0
   -4.2113    1.9385    0.0000 O   0  0  0  0  0  0  0  0  0  0  0  0
   -5.4491   -0.3458    0.0000 O   0  0  0  0  0  0  0  0  0  0  0  0
  2  1  1  1
  2  3  1  0
  3  4  1  0
  4  5  2  0
  5  6  1  0
  6  7  1  0
  7  8  2  0
  8  9  1  0
  8 10  1  0
 10 11  2  0
 11 12  1  0
 12 13  2  0
  2 14  1  0
 14 15  2  0
 14 16  1  0
 13  7  1  0
 13  4  1  0
M  END
>  <rName>  (1532) 
D-Trp_7OH

>  <PQ_SYMBOL>  (1532) 
D-Trp_7OH

>  <FULL_NAME>  (1532) 
7-Hydroxy-D-Tryptophan

>  <IUPAC_CONDENSED>  (1532) 
D-Trp(7-OH)

>  <IUPAC>  (1532) 
(2R)-2-amino-3-(7-hydroxy-1H-indol-3-yl)propanoic acid

>  <TYPE>  (1532) 
Backbone

>  <CLASS>  (1532) 
alpha

>  <ANALOG>  (1532) 
Trp

>  <MOL_WT>  (1532) 
220.22799999999998

>  <LOGP>  (1532) 
0.8279000000000003

>  <TPSA>  (1532) 
99.34000000000002

>  <POPULARITY>  (1532) 
3.4

>  <PROTECTED>  (1532) 
TRUE

>  <SMILES>  (1532) 
N[C@H](Cc2(c[nH]c1(c(O)cccc12)))C(=O)O

>  <INCHIKEY>  (1532) 
VQSRKJZICBNQJG-MRVPVSSYSA-N

$$$$
D-Trp_7OMe
     RDKit          2D

 17 18  0  0  0  0  0  0  0  0999 V2000
   -3.1040   -1.8301    0.0000 N   0  0  0  0  0  0  0  0  0  0  0  0
   -3.1997   -0.3332    0.0000 C   0  0  0  0  0  0  0  0  0  0  0  0
   -1.9511    0.4982    0.0000 C   0  0  0  0  0  0  0  0  0  0  0  0
   -0.6069   -0.1675    0.0000 C   0  0  0  0  0  0  0  0  0  0  0  0
   -0.3553   -1.6462    0.0000 C   0  0  0  0  0  0  0  0  0  0  0  0
    1.1288   -1.8639    0.0000 N   0  0  0  0  0  0  0  0  0  0  0  0
    1.7945   -0.5197    0.0000 C   0  0  0  0  0  0  0  0  0  0  0  0
    3.2388   -0.1149    0.0000 C   0  0  0  0  0  0  0  0  0  0  0  0
    4.3116   -1.1633    0.0000 O   0  0  0  0  0  0  0  0  0  0  0  0
    5.7559   -0.7585    0.0000 C   0  0  0  0  0  0  0  0  0  0  0  0
    3.6104    1.3384    0.0000 C   0  0  0  0  0  0  0  0  0  0  0  0
    2.5377    2.3868    0.0000 C   0  0  0  0  0  0  0  0  0  0  0  0
    1.0933    1.9820    0.0000 C   0  0  0  0  0  0  0  0  0  0  0  0
    0.7217    0.5288    0.0000 C   0  0  0  0  0  0  0  0  0  0  0  0
   -4.5439    0.3325    0.0000 C   0  0  0  0  0  0  0  0  0  0  0  0
   -4.6396    1.8294    0.0000 O   0  0  0  0  0  0  0  0  0  0  0  0
   -5.7925   -0.4988    0.0000 O   0  0  0  0  0  0  0  0  0  0  0  0
  2  1  1  1
  2  3  1  0
  3  4  1  0
  4  5  2  0
  5  6  1  0
  6  7  1  0
  7  8  2  0
  8  9  1  0
  9 10  1  0
  8 11  1  0
 11 12  2  0
 12 13  1  0
 13 14  2  0
  2 15  1  0
 15 16  2  0
 15 17  1  0
 14  4  1  0
 14  7  1  0
M  END
>  <rName>  (1533) 
D-Trp_7OMe

>  <PQ_SYMBOL>  (1533) 
D-Trp_7OMe

>  <FULL_NAME>  (1533) 
7-methoxy-D-tryptophan

>  <IUPAC_CONDENSED>  (1533) 
D-Trp(7-OMe)

>  <IUPAC>  (1533) 
(2R)-2-amino-3-(7-methoxy-1H-indol-3-yl)propanoic acid

>  <TYPE>  (1533) 
Backbone

>  <CLASS>  (1533) 
alpha

>  <ANALOG>  (1533) 
Trp

>  <MOL_WT>  (1533) 
234.255

>  <LOGP>  (1533) 
1.1309

>  <TPSA>  (1533) 
88.34000000000002

>  <POPULARITY>  (1533) 
3.4

>  <PROTECTED>  (1533) 
TRUE

>  <SMILES>  (1533) 
N[C@H](Cc1(c[nH]c2(c(OC)cccc12)))C(=O)O

>  <INCHIKEY>  (1533) 
MUZROTSTMQSBFK-SECBINFHSA-N

$$$$
D-Trp_EtO2H
     RDKit          2D

 19 20  0  0  0  0  0  0  0  0999 V2000
   -2.4259   -1.6973    0.0000 N   0  0  0  0  0  0  0  0  0  0  0  0
   -2.9155   -0.2794    0.0000 C   0  0  0  0  0  0  0  0  0  0  0  0
   -1.9324    0.8535    0.0000 C   0  0  0  0  0  0  0  0  0  0  0  0
   -0.4598    0.5686    0.0000 C   0  0  0  0  0  0  0  0  0  0  0  0
    0.1754   -0.7903    0.0000 C   0  0  0  0  0  0  0  0  0  0  0  0
    1.6640   -0.6061    0.0000 N   0  0  0  0  0  0  0  0  0  0  0  0
    2.6880   -1.7022    0.0000 C   0  0  0  0  0  0  0  0  0  0  0  0
    2.2507   -3.1371    0.0000 C   0  0  0  0  0  0  0  0  0  0  0  0
    0.7895   -3.4758    0.0000 O   0  0  0  0  0  0  0  0  0  0  0  0
    3.2747   -4.2332    0.0000 O   0  0  0  0  0  0  0  0  0  0  0  0
    1.9489    0.8666    0.0000 C   0  0  0  0  0  0  0  0  0  0  0  0
    3.2340    1.6403    0.0000 C   0  0  0  0  0  0  0  0  0  0  0  0
    3.2065    3.1400    0.0000 C   0  0  0  0  0  0  0  0  0  0  0  0
    1.8939    3.8661    0.0000 C   0  0  0  0  0  0  0  0  0  0  0  0
    0.6088    3.0924    0.0000 C   0  0  0  0  0  0  0  0  0  0  0  0
    0.6364    1.5926    0.0000 C   0  0  0  0  0  0  0  0  0  0  0  0
   -4.3882    0.0055    0.0000 C   0  0  0  0  0  0  0  0  0  0  0  0
   -4.8778    1.4233    0.0000 O   0  0  0  0  0  0  0  0  0  0  0  0
   -5.3713   -1.1275    0.0000 O   0  0  0  0  0  0  0  0  0  0  0  0
  2  1  1  1
  2  3  1  0
  3  4  1  0
  4  5  2  0
  5  6  1  0
  6  7  1  0
  7  8  1  0
  8  9  2  0
  8 10  1  0
  6 11  1  0
 11 12  2  0
 12 13  1  0
 13 14  2  0
 14 15  1  0
 15 16  2  0
  2 17  1  0
 17 18  2  0
 17 19  1  0
 16  4  1  0
 16 11  1  0
M  END
>  <rName>  (1534) 
D-Trp_EtO2H

>  <PQ_SYMBOL>  (1534) 
D-Trp_EtO2H

>  <FULL_NAME>  (1534) 
D-Trp(EtO2H)

>  <IUPAC_CONDENSED>  (1534) 
D-Trp(EtO2H)

>  <IUPAC>  (1534) 
(2R)-2-amino-3-(1-(2-hydroxy-2-oxoethyl)-1H-indol-3-yl)propanoic acid

>  <TYPE>  (1534) 
Backbone

>  <CLASS>  (1534) 
alpha

>  <ANALOG>  (1534) 
Trp

>  <MOL_WT>  (1534) 
262.265

>  <LOGP>  (1534) 
0.6802999999999993

>  <TPSA>  (1534) 
105.55

>  <POPULARITY>  (1534) 
2.2

>  <PROTECTED>  (1534) 
TRUE

>  <SMILES>  (1534) 
N[C@H](Cc1(cn(CC(=O)O)c2(ccccc12)))C(=O)O

>  <INCHIKEY>  (1534) 
NUIINCMATQEUSS-SNVBAGLBSA-N

$$$$
D-Trp_For
     RDKit          2D

 17 18  0  0  0  0  0  0  0  0999 V2000
   -2.6158   -1.6017    0.0000 N   0  0  0  0  0  0  0  0  0  0  0  0
   -2.7728   -0.1099    0.0000 C   0  0  0  0  0  0  0  0  0  0  0  0
   -1.5594    0.7719    0.0000 C   0  0  0  0  0  0  0  0  0  0  0  0
   -0.1890    0.1620    0.0000 C   0  0  0  0  0  0  0  0  0  0  0  0
    0.1231   -1.3052    0.0000 C   0  0  0  0  0  0  0  0  0  0  0  0
    1.6149   -1.4618    0.0000 N   0  0  0  0  0  0  0  0  0  0  0  0
    2.3650   -2.7607    0.0000 C   0  0  0  0  0  0  0  0  0  0  0  0
    1.6152   -4.0599    0.0000 O   0  0  0  0  0  0  0  0  0  0  0  0
    2.2248   -0.0914    0.0000 C   0  0  0  0  0  0  0  0  0  0  0  0
    3.6513    0.3723    0.0000 C   0  0  0  0  0  0  0  0  0  0  0  0
    3.9630    1.8396    0.0000 C   0  0  0  0  0  0  0  0  0  0  0  0
    2.8481    2.8431    0.0000 C   0  0  0  0  0  0  0  0  0  0  0  0
    1.4216    2.3794    0.0000 C   0  0  0  0  0  0  0  0  0  0  0  0
    1.1099    0.9122    0.0000 C   0  0  0  0  0  0  0  0  0  0  0  0
   -4.1432    0.5000    0.0000 C   0  0  0  0  0  0  0  0  0  0  0  0
   -4.3002    1.9918    0.0000 O   0  0  0  0  0  0  0  0  0  0  0  0
   -5.3566   -0.3818    0.0000 O   0  0  0  0  0  0  0  0  0  0  0  0
  2  1  1  1
  2  3  1  0
  3  4  1  0
  4  5  2  0
  5  6  1  0
  6  7  1  0
  7  8  2  0
  6  9  1  0
  9 10  2  0
 10 11  1  0
 11 12  2  0
 12 13  1  0
 13 14  2  0
  2 15  1  0
 15 16  2  0
 15 17  1  0
 14  4  1  0
 14  9  1  0
M  END
>  <rName>  (1535) 
D-Trp_For

>  <PQ_SYMBOL>  (1535) 
D-Trp_For

>  <FULL_NAME>  (1535) 
(2R)-2-amino-3-(1-formyl-1H-indol-3-yl)propanoic acid

>  <IUPAC_CONDENSED>  (1535) 
D-Trp(For)

>  <IUPAC>  (1535) 
(2R)-2-amino-3-(1-(formyl)-1H-indol-3-yl)propanoic acid

>  <TYPE>  (1535) 
Backbone

>  <CLASS>  (1535) 
alpha

>  <ANALOG>  (1535) 
Trp

>  <MOL_WT>  (1535) 
232.239

>  <LOGP>  (1535) 
0.6340000000000001

>  <TPSA>  (1535) 
85.32000000000001

>  <POPULARITY>  (1535) 
5.1

>  <PROTECTED>  (1535) 
FALSE

>  <SMILES>  (1535) 
N[C@H](Cc1(cn(C=O)c2(ccccc12)))C(=O)O

>  <INCHIKEY>  (1535) 
KRUDZOGZZBVSHD-SNVBAGLBSA-N

$$$$
D-Trp_Me
     RDKit          2D

 16 17  0  0  0  0  0  0  0  0999 V2000
   -2.6387   -1.6746    0.0000 N   0  0  0  0  0  0  0  0  0  0  0  0
   -2.6908   -0.1755    0.0000 C   0  0  0  0  0  0  0  0  0  0  0  0
   -1.4185    0.6191    0.0000 C   0  0  0  0  0  0  0  0  0  0  0  0
   -0.0943   -0.0853    0.0000 C   0  0  0  0  0  0  0  0  0  0  0  0
    0.1142   -1.5708    0.0000 C   0  0  0  0  0  0  0  0  0  0  0  0
    1.5913   -1.8316    0.0000 N   0  0  0  0  0  0  0  0  0  0  0  0
    2.2486   -3.1799    0.0000 C   0  0  0  0  0  0  0  0  0  0  0  0
    2.2958   -0.5073    0.0000 C   0  0  0  0  0  0  0  0  0  0  0  0
    3.7514   -0.1448    0.0000 C   0  0  0  0  0  0  0  0  0  0  0  0
    4.1651    1.2970    0.0000 C   0  0  0  0  0  0  0  0  0  0  0  0
    3.1234    2.3763    0.0000 C   0  0  0  0  0  0  0  0  0  0  0  0
    1.6678    2.0137    0.0000 C   0  0  0  0  0  0  0  0  0  0  0  0
    1.2541    0.5719    0.0000 C   0  0  0  0  0  0  0  0  0  0  0  0
   -4.0150    0.5290    0.0000 C   0  0  0  0  0  0  0  0  0  0  0  0
   -4.0671    2.0281    0.0000 O   0  0  0  0  0  0  0  0  0  0  0  0
   -5.2873   -0.2656    0.0000 O   0  0  0  0  0  0  0  0  0  0  0  0
  2  1  1  1
  2  3  1  0
  3  4  1  0
  4  5  2  0
  5  6  1  0
  6  7  1  0
  6  8  1  0
  8  9  2  0
  9 10  1  0
 10 11  2  0
 11 12  1  0
 12 13  2  0
  2 14  1  0
 14 15  2  0
 14 16  1  0
 13  4  1  0
 13  8  1  0
M  END
>  <rName>  (1536) 
D-Trp_Me

>  <PQ_SYMBOL>  (1536) 
D-Trp_Me

>  <FULL_NAME>  (1536) 
N1-methyl-D-tryptophan

>  <IUPAC_CONDENSED>  (1536) 
D-Trp(Me)

>  <IUPAC>  (1536) 
(2R)-2-amino-3-(1-methyl-1H-indol-3-yl)propanoic acid

>  <TYPE>  (1536) 
Backbone

>  <CLASS>  (1536) 
alpha

>  <ANALOG>  (1536) 
Trp

>  <MOL_WT>  (1536) 
218.256

>  <LOGP>  (1536) 
1.1327000000000003

>  <TPSA>  (1536) 
68.25

>  <POPULARITY>  (1536) 
17.7

>  <PROTECTED>  (1536) 
TRUE

>  <SMILES>  (1536) 
N[C@H](Cc1(cn(C)c2(ccccc12)))C(=O)O

>  <INCHIKEY>  (1536) 
ZADWXFSZEAPBJS-SNVBAGLBSA-N

$$$$
D-Tyr_26diMe
     RDKit          2D

 15 15  0  0  0  0  0  0  0  0999 V2000
   -1.7110    1.6830    0.0000 N   0  0  0  0  0  0  0  0  0  0  0  0
   -2.0873    0.2310    0.0000 C   0  0  0  0  0  0  0  0  0  0  0  0
   -1.0179   -0.8209    0.0000 C   0  0  0  0  0  0  0  0  0  0  0  0
    0.4277   -0.4208    0.0000 C   0  0  0  0  0  0  0  0  0  0  0  0
    0.8040    1.0313    0.0000 C   0  0  0  0  0  0  0  0  0  0  0  0
   -0.2654    2.0832    0.0000 C   0  0  0  0  0  0  0  0  0  0  0  0
    2.2497    1.4315    0.0000 C   0  0  0  0  0  0  0  0  0  0  0  0
    3.3190    0.3796    0.0000 C   0  0  0  0  0  0  0  0  0  0  0  0
    4.7647    0.7797    0.0000 O   0  0  0  0  0  0  0  0  0  0  0  0
    2.9428   -1.0725    0.0000 C   0  0  0  0  0  0  0  0  0  0  0  0
    1.4971   -1.4726    0.0000 C   0  0  0  0  0  0  0  0  0  0  0  0
    1.1209   -2.9247    0.0000 C   0  0  0  0  0  0  0  0  0  0  0  0
   -3.5329   -0.1692    0.0000 C   0  0  0  0  0  0  0  0  0  0  0  0
   -3.9092   -1.6212    0.0000 O   0  0  0  0  0  0  0  0  0  0  0  0
   -4.6023    0.8827    0.0000 O   0  0  0  0  0  0  0  0  0  0  0  0
  2  1  1  6
  2  3  1  0
  3  4  1  0
  4  5  2  0
  5  6  1  0
  5  7  1  0
  7  8  2  0
  8  9  1  0
  8 10  1  0
 10 11  2  0
 11 12  1  0
  2 13  1  0
 13 14  2  0
 13 15  1  0
 11  4  1  0
M  END
>  <rName>  (1537) 
D-Tyr_26diMe

>  <PQ_SYMBOL>  (1537) 
D-Tyr_26diMe

>  <FULL_NAME>  (1537) 
(R)-2-amino-3-(4-hydroxy-2,6-dimethylphenyl)propanoic acid

>  <IUPAC_CONDENSED>  (1537) 
D-Tyr(2,6-diMe)

>  <IUPAC>  (1537) 
(2R)-2-amino-3-(4-hydroxy-2,6-dimethylphenyl)propanoic acid

>  <TYPE>  (1537) 
Backbone

>  <CLASS>  (1537) 
alpha

>  <ANALOG>  (1537) 
Tyr

>  <MOL_WT>  (1537) 
209.24499999999998

>  <LOGP>  (1537) 
0.9634400000000001

>  <TPSA>  (1537) 
83.55

>  <POPULARITY>  (1537) 
7.8

>  <PROTECTED>  (1537) 
TRUE

>  <SMILES>  (1537) 
N[C@H](Cc1(c(C)cc(O)cc1C))C(=O)O

>  <INCHIKEY>  (1537) 
LSNDLIKCFHLFKO-SNVBAGLBSA-N

$$$$
D-Tyr_26diMe-
     RDKit          2D

 15 15  0  0  0  0  0  0  0  0999 V2000
   -1.7110    1.6830    0.0000 N   0  0  0  0  0  0  0  0  0  0  0  0
   -2.0873    0.2310    0.0000 C   0  0  0  0  0  0  0  0  0  0  0  0
   -1.0179   -0.8209    0.0000 C   0  0  0  0  0  0  0  0  0  0  0  0
    0.4277   -0.4208    0.0000 C   0  0  0  0  0  0  0  0  0  0  0  0
    0.8040    1.0313    0.0000 C   0  0  0  0  0  0  0  0  0  0  0  0
   -0.2654    2.0832    0.0000 C   0  0  0  0  0  0  0  0  0  0  0  0
    2.2497    1.4315    0.0000 C   0  0  0  0  0  0  0  0  0  0  0  0
    3.3190    0.3796    0.0000 C   0  0  0  0  0  0  0  0  0  0  0  0
    4.7647    0.7797    0.0000 O   0  0  0  0  0  0  0  0  0  0  0  0
    2.9428   -1.0725    0.0000 C   0  0  0  0  0  0  0  0  0  0  0  0
    1.4971   -1.4726    0.0000 C   0  0  0  0  0  0  0  0  0  0  0  0
    1.1209   -2.9247    0.0000 C   0  0  0  0  0  0  0  0  0  0  0  0
   -3.5329   -0.1692    0.0000 C   0  0  0  0  0  0  0  0  0  0  0  0
   -3.9092   -1.6212    0.0000 O   0  0  0  0  0  0  0  0  0  0  0  0
   -4.6023    0.8827    0.0000 O   0  0  0  0  0  0  0  0  0  0  0  0
  2  1  1  6
  2  3  1  0
  3  4  1  0
  4  5  2  0
  5  6  1  0
  5  7  1  0
  7  8  2  0
  8  9  1  0
  8 10  1  0
 10 11  2  0
 11 12  1  0
  2 13  1  0
 13 14  2  0
 13 15  1  0
 11  4  1  0
M  END
>  <rName>  (1538) 
D-Tyr_26diMe-

>  <PQ_SYMBOL>  (1538) 
D-Tyr_26diMe-

>  <FULL_NAME>  (1538) 
(2R)-2-amino-3-(4-hydroxy-2,6-dimethylphenyl)propanoic acid

>  <IUPAC_CONDENSED>  (1538) 
D-Tyr(2,6-diMe)-

>  <IUPAC>  (1538) 
(2R)-2-amino-3-(4-hydroxy-2,6-dimethylphenyl)propanoic acid

>  <TYPE>  (1538) 
N-term cap

>  <CLASS>  (1538) 
n_cap

>  <ANALOG>  (1538) 
X

>  <MOL_WT>  (1538) 
209.24499999999998

>  <LOGP>  (1538) 
0.9634400000000001

>  <TPSA>  (1538) 
83.55

>  <POPULARITY>  (1538) 
8.4

>  <PROTECTED>  (1538) 
TRUE

>  <SMILES>  (1538) 
N[C@H](Cc1(c(C)cc(O)cc1C))C(=O)O

>  <INCHIKEY>  (1538) 
LSNDLIKCFHLFKO-SNVBAGLBSA-N

$$$$
D-Tyr_2F
     RDKit          2D

 14 14  0  0  0  0  0  0  0  0999 V2000
   -1.7174    1.8436    0.0000 N   0  0  0  0  0  0  0  0  0  0  0  0
   -2.1036    0.3942    0.0000 C   0  0  0  0  0  0  0  0  0  0  0  0
   -1.0414   -0.6650    0.0000 C   0  0  0  0  0  0  0  0  0  0  0  0
    0.4069   -0.2747    0.0000 C   0  0  0  0  0  0  0  0  0  0  0  0
    0.7931    1.1747    0.0000 C   0  0  0  0  0  0  0  0  0  0  0  0
    2.2415    1.5649    0.0000 C   0  0  0  0  0  0  0  0  0  0  0  0
    3.3036    0.5057    0.0000 C   0  0  0  0  0  0  0  0  0  0  0  0
    4.7520    0.8960    0.0000 O   0  0  0  0  0  0  0  0  0  0  0  0
    2.9174   -0.9437    0.0000 C   0  0  0  0  0  0  0  0  0  0  0  0
    1.4691   -1.3339    0.0000 C   0  0  0  0  0  0  0  0  0  0  0  0
    1.0829   -2.7834    0.0000 F   0  0  0  0  0  0  0  0  0  0  0  0
   -3.5519    0.0039    0.0000 C   0  0  0  0  0  0  0  0  0  0  0  0
   -3.9381   -1.4455    0.0000 O   0  0  0  0  0  0  0  0  0  0  0  0
   -4.6140    1.0631    0.0000 O   0  0  0  0  0  0  0  0  0  0  0  0
  2  1  1  6
  2  3  1  0
  3  4  1  0
  4  5  1  0
  5  6  2  0
  6  7  1  0
  7  8  1  0
  7  9  2  0
  9 10  1  0
 10 11  1  0
  2 12  1  0
 12 13  2  0
 12 14  1  0
 10  4  2  0
M  END
>  <rName>  (1539) 
D-Tyr_2F

>  <PQ_SYMBOL>  (1539) 
D-Tyr_2F

>  <FULL_NAME>  (1539) 
(2R)-2-amino-3-(2-fluoro-4-hydroxyphenyl)propanoic acid

>  <IUPAC_CONDENSED>  (1539) 
D-Tyr(2-F)

>  <IUPAC>  (1539) 
(2R)-2-amino-3-(2-fluoro-4-hydroxyphenyl)propanoic acid

>  <TYPE>  (1539) 
Backbone

>  <CLASS>  (1539) 
alpha

>  <ANALOG>  (1539) 
Tyr

>  <MOL_WT>  (1539) 
199.18099999999995

>  <LOGP>  (1539) 
0.48570000000000013

>  <TPSA>  (1539) 
83.55

>  <POPULARITY>  (1539) 
2.2

>  <PROTECTED>  (1539) 
TRUE

>  <SMILES>  (1539) 
N[C@H](Cc1(ccc(O)cc1F))C(=O)O

>  <INCHIKEY>  (1539) 
WEJIXBMNLWITCR-MRVPVSSYSA-N

$$$$
D-Tyr_2I
     RDKit          2D

 14 14  0  0  0  0  0  0  0  0999 V2000
   -1.7174    1.8436    0.0000 N   0  0  0  0  0  0  0  0  0  0  0  0
   -2.1036    0.3942    0.0000 C   0  0  0  0  0  0  0  0  0  0  0  0
   -1.0414   -0.6650    0.0000 C   0  0  0  0  0  0  0  0  0  0  0  0
    0.4069   -0.2747    0.0000 C   0  0  0  0  0  0  0  0  0  0  0  0
    0.7931    1.1747    0.0000 C   0  0  0  0  0  0  0  0  0  0  0  0
    2.2415    1.5649    0.0000 C   0  0  0  0  0  0  0  0  0  0  0  0
    3.3036    0.5057    0.0000 C   0  0  0  0  0  0  0  0  0  0  0  0
    4.7520    0.8960    0.0000 O   0  0  0  0  0  0  0  0  0  0  0  0
    2.9174   -0.9437    0.0000 C   0  0  0  0  0  0  0  0  0  0  0  0
    1.4691   -1.3339    0.0000 C   0  0  0  0  0  0  0  0  0  0  0  0
    1.0829   -2.7834    0.0000 I   0  0  0  0  0  0  0  0  0  0  0  0
   -3.5519    0.0039    0.0000 C   0  0  0  0  0  0  0  0  0  0  0  0
   -3.9381   -1.4455    0.0000 O   0  0  0  0  0  0  0  0  0  0  0  0
   -4.6140    1.0631    0.0000 O   0  0  0  0  0  0  0  0  0  0  0  0
  2  1  1  6
  2  3  1  0
  3  4  1  0
  4  5  1  0
  5  6  2  0
  6  7  1  0
  7  8  1  0
  7  9  2  0
  9 10  1  0
 10 11  1  0
  2 12  1  0
 12 13  2  0
 12 14  1  0
 10  4  2  0
M  END
>  <rName>  (1540) 
D-Tyr_2I

>  <PQ_SYMBOL>  (1540) 
D-Tyr_2I

>  <FULL_NAME>  (1540) 
(R)-2-amino-3-(4-hydroxy-2-iodophenyl)propanoic acid

>  <IUPAC_CONDENSED>  (1540) 
D-Tyr(2-I)

>  <IUPAC>  (1540) 
(2R)-2-amino-3-(4-hydroxy-2-iodophenyl)propanoic acid

>  <TYPE>  (1540) 
Backbone

>  <CLASS>  (1540) 
alpha

>  <ANALOG>  (1540) 
Tyr

>  <MOL_WT>  (1540) 
307.087

>  <LOGP>  (1540) 
0.9512

>  <TPSA>  (1540) 
83.55

>  <POPULARITY>  (1540) 
3.1

>  <PROTECTED>  (1540) 
TRUE

>  <SMILES>  (1540) 
N[C@H](Cc1(ccc(O)cc1I))C(=O)O

>  <INCHIKEY>  (1540) 
BMBZSHPNHVPCNG-MRVPVSSYSA-N

$$$$
D-Tyr_35diBr
     RDKit          2D

 15 15  0  0  0  0  0  0  0  0999 V2000
   -2.0609    1.6226    0.0000 N   0  0  0  0  0  0  0  0  0  0  0  0
   -2.4694    0.1793    0.0000 C   0  0  0  0  0  0  0  0  0  0  0  0
   -1.4237   -0.8961    0.0000 C   0  0  0  0  0  0  0  0  0  0  0  0
    0.0305   -0.5283    0.0000 C   0  0  0  0  0  0  0  0  0  0  0  0
    0.4390    0.9150    0.0000 C   0  0  0  0  0  0  0  0  0  0  0  0
    1.8932    1.2829    0.0000 C   0  0  0  0  0  0  0  0  0  0  0  0
    2.3017    2.7262    0.0000 Br  0  0  0  0  0  0  0  0  0  0  0  0
    2.9389    0.2075    0.0000 C   0  0  0  0  0  0  0  0  0  0  0  0
    4.3931    0.5753    0.0000 O   0  0  0  0  0  0  0  0  0  0  0  0
    2.5304   -1.2358    0.0000 C   0  0  0  0  0  0  0  0  0  0  0  0
    3.5760   -2.3113    0.0000 Br  0  0  0  0  0  0  0  0  0  0  0  0
    1.0762   -1.6037    0.0000 C   0  0  0  0  0  0  0  0  0  0  0  0
   -3.9236   -0.1886    0.0000 C   0  0  0  0  0  0  0  0  0  0  0  0
   -4.3321   -1.6319    0.0000 O   0  0  0  0  0  0  0  0  0  0  0  0
   -4.9693    0.8868    0.0000 O   0  0  0  0  0  0  0  0  0  0  0  0
  2  1  1  6
  2  3  1  0
  3  4  1  0
  4  5  2  0
  5  6  1  0
  6  7  1  0
  6  8  2  0
  8  9  1  0
  8 10  1  0
 10 11  1  0
 10 12  2  0
  2 13  1  0
 13 14  2  0
 13 15  1  0
 12  4  1  0
M  END
>  <rName>  (1541) 
D-Tyr_35diBr

>  <PQ_SYMBOL>  (1541) 
D-Tyr_35diBr

>  <FULL_NAME>  (1541) 
(R)-2-amino-3-(3,5-dibromo-4-hydroxyphenyl)propanoic acid

>  <IUPAC_CONDENSED>  (1541) 
D-Tyr(3,5-diBr)

>  <IUPAC>  (1541) 
(2R)-2-amino-3-(3,5-dibromo-4-hydroxyphenyl)propanoic acid

>  <TYPE>  (1541) 
Backbone

>  <CLASS>  (1541) 
alpha

>  <ANALOG>  (1541) 
Tyr

>  <MOL_WT>  (1541) 
338.98300000000006

>  <LOGP>  (1541) 
1.8716000000000002

>  <TPSA>  (1541) 
83.55

>  <POPULARITY>  (1541) 
8.1

>  <PROTECTED>  (1541) 
TRUE

>  <SMILES>  (1541) 
N[C@H](Cc1(cc(Br)c(O)c(Br)c1))C(=O)O

>  <INCHIKEY>  (1541) 
COESHZUDRKCEPA-SSDOTTSWSA-N

$$$$
D-Tyr_35diF
     RDKit          2D

 15 15  0  0  0  0  0  0  0  0999 V2000
   -2.0609    1.6226    0.0000 N   0  0  0  0  0  0  0  0  0  0  0  0
   -2.4694    0.1793    0.0000 C   0  0  0  0  0  0  0  0  0  0  0  0
   -1.4237   -0.8961    0.0000 C   0  0  0  0  0  0  0  0  0  0  0  0
    0.0305   -0.5283    0.0000 C   0  0  0  0  0  0  0  0  0  0  0  0
    0.4390    0.9150    0.0000 C   0  0  0  0  0  0  0  0  0  0  0  0
    1.8932    1.2829    0.0000 C   0  0  0  0  0  0  0  0  0  0  0  0
    2.3017    2.7262    0.0000 F   0  0  0  0  0  0  0  0  0  0  0  0
    2.9389    0.2075    0.0000 C   0  0  0  0  0  0  0  0  0  0  0  0
    4.3931    0.5753    0.0000 O   0  0  0  0  0  0  0  0  0  0  0  0
    2.5304   -1.2358    0.0000 C   0  0  0  0  0  0  0  0  0  0  0  0
    3.5760   -2.3113    0.0000 F   0  0  0  0  0  0  0  0  0  0  0  0
    1.0762   -1.6037    0.0000 C   0  0  0  0  0  0  0  0  0  0  0  0
   -3.9236   -0.1886    0.0000 C   0  0  0  0  0  0  0  0  0  0  0  0
   -4.3321   -1.6319    0.0000 O   0  0  0  0  0  0  0  0  0  0  0  0
   -4.9693    0.8868    0.0000 O   0  0  0  0  0  0  0  0  0  0  0  0
  2  1  1  6
  2  3  1  0
  3  4  1  0
  4  5  2  0
  5  6  1  0
  6  7  1  0
  6  8  2  0
  8  9  1  0
  8 10  1  0
 10 11  1  0
 10 12  2  0
  2 13  1  0
 13 14  2  0
 13 15  1  0
 12  4  1  0
M  END
>  <rName>  (1542) 
D-Tyr_35diF

>  <PQ_SYMBOL>  (1542) 
D-Tyr_35diF

>  <FULL_NAME>  (1542) 
(R)-2-amino-3-(3,5-difluoro-4-hydroxyphenyl)propanoic acid

>  <IUPAC_CONDENSED>  (1542) 
D-Tyr(3,5-diF)

>  <IUPAC>  (1542) 
(2R)-2-amino-3-(3,5-difluoro-4-hydroxyphenyl)propanoic acid

>  <TYPE>  (1542) 
Backbone

>  <CLASS>  (1542) 
alpha

>  <ANALOG>  (1542) 
Tyr

>  <MOL_WT>  (1542) 
217.17099999999996

>  <LOGP>  (1542) 
0.6248

>  <TPSA>  (1542) 
83.55

>  <POPULARITY>  (1542) 
4.4

>  <PROTECTED>  (1542) 
TRUE

>  <SMILES>  (1542) 
N[C@H](Cc1(cc(F)c(O)c(F)c1))C(=O)O

>  <INCHIKEY>  (1542) 
KPKMCRFCNWVLDA-SSDOTTSWSA-N

$$$$
D-Tyr_35diI
     RDKit          2D

 15 15  0  0  0  0  0  0  0  0999 V2000
   -2.0609    1.6226    0.0000 N   0  0  0  0  0  0  0  0  0  0  0  0
   -2.4694    0.1793    0.0000 C   0  0  0  0  0  0  0  0  0  0  0  0
   -1.4237   -0.8961    0.0000 C   0  0  0  0  0  0  0  0  0  0  0  0
    0.0305   -0.5283    0.0000 C   0  0  0  0  0  0  0  0  0  0  0  0
    0.4390    0.9150    0.0000 C   0  0  0  0  0  0  0  0  0  0  0  0
    1.8932    1.2829    0.0000 C   0  0  0  0  0  0  0  0  0  0  0  0
    2.3017    2.7262    0.0000 I   0  0  0  0  0  0  0  0  0  0  0  0
    2.9389    0.2075    0.0000 C   0  0  0  0  0  0  0  0  0  0  0  0
    4.3931    0.5753    0.0000 O   0  0  0  0  0  0  0  0  0  0  0  0
    2.5304   -1.2358    0.0000 C   0  0  0  0  0  0  0  0  0  0  0  0
    3.5760   -2.3113    0.0000 I   0  0  0  0  0  0  0  0  0  0  0  0
    1.0762   -1.6037    0.0000 C   0  0  0  0  0  0  0  0  0  0  0  0
   -3.9236   -0.1886    0.0000 C   0  0  0  0  0  0  0  0  0  0  0  0
   -4.3321   -1.6319    0.0000 O   0  0  0  0  0  0  0  0  0  0  0  0
   -4.9693    0.8868    0.0000 O   0  0  0  0  0  0  0  0  0  0  0  0
  2  1  1  6
  2  3  1  0
  3  4  1  0
  4  5  2  0
  5  6  1  0
  6  7  1  0
  6  8  2  0
  8  9  1  0
  8 10  1  0
 10 11  1  0
 10 12  2  0
  2 13  1  0
 13 14  2  0
 13 15  1  0
 12  4  1  0
M  END
>  <rName>  (1543) 
D-Tyr_35diI

>  <PQ_SYMBOL>  (1543) 
D-Tyr_35diI

>  <FULL_NAME>  (1543) 
(2R)-2-amino-3-(4-hydroxy-3,5-diiodophenyl)propanoic acid

>  <IUPAC_CONDENSED>  (1543) 
D-Tyr(3,5-diI)

>  <IUPAC>  (1543) 
(2R)-2-amino-3-(4-hydroxy-3,5-diiodophenyl)propanoic acid

>  <TYPE>  (1543) 
Backbone

>  <CLASS>  (1543) 
alpha

>  <ANALOG>  (1543) 
Tyr

>  <MOL_WT>  (1543) 
432.98300000000006

>  <LOGP>  (1543) 
1.5557999999999998

>  <TPSA>  (1543) 
83.55

>  <POPULARITY>  (1543) 
11.1

>  <PROTECTED>  (1543) 
TRUE

>  <SMILES>  (1543) 
N[C@H](Cc1(cc(I)c(O)c(I)c1))C(=O)O

>  <INCHIKEY>  (1543) 
NYPYHUZRZVSYKL-SSDOTTSWSA-N

$$$$
D-Tyr_3Br
     RDKit          2D

 14 14  0  0  0  0  0  0  0  0999 V2000
   -2.0094    1.6916    0.0000 N   0  0  0  0  0  0  0  0  0  0  0  0
   -2.3243    0.2250    0.0000 C   0  0  0  0  0  0  0  0  0  0  0  0
   -1.2116   -0.7809    0.0000 C   0  0  0  0  0  0  0  0  0  0  0  0
    0.2159   -0.3203    0.0000 C   0  0  0  0  0  0  0  0  0  0  0  0
    0.5308    1.1463    0.0000 C   0  0  0  0  0  0  0  0  0  0  0  0
    1.9583    1.6069    0.0000 C   0  0  0  0  0  0  0  0  0  0  0  0
    3.0710    0.6009    0.0000 C   0  0  0  0  0  0  0  0  0  0  0  0
    4.4985    1.0615    0.0000 O   0  0  0  0  0  0  0  0  0  0  0  0
    2.7561   -0.8657    0.0000 C   0  0  0  0  0  0  0  0  0  0  0  0
    3.8688   -1.8716    0.0000 Br  0  0  0  0  0  0  0  0  0  0  0  0
    1.3286   -1.3263    0.0000 C   0  0  0  0  0  0  0  0  0  0  0  0
   -3.7518   -0.2356    0.0000 C   0  0  0  0  0  0  0  0  0  0  0  0
   -4.0666   -1.7022    0.0000 O   0  0  0  0  0  0  0  0  0  0  0  0
   -4.8644    0.7704    0.0000 O   0  0  0  0  0  0  0  0  0  0  0  0
  2  1  1  6
  2  3  1  0
  3  4  1  0
  4  5  1  0
  5  6  2  0
  6  7  1  0
  7  8  1  0
  7  9  2  0
  9 10  1  0
  9 11  1  0
  2 12  1  0
 12 13  2  0
 12 14  1  0
 11  4  2  0
M  END
>  <rName>  (1544) 
D-Tyr_3Br

>  <PQ_SYMBOL>  (1544) 
D-Tyr_3Br

>  <FULL_NAME>  (1544) 
3-bromo-D-tyrosine

>  <IUPAC_CONDENSED>  (1544) 
D-Tyr(3-Br)

>  <IUPAC>  (1544) 
(2R)-2-amino-3-(3-bromo-4-hydroxyphenyl)propanoic acid

>  <TYPE>  (1544) 
Backbone

>  <CLASS>  (1544) 
alpha

>  <ANALOG>  (1544) 
Tyr

>  <MOL_WT>  (1544) 
260.08699999999993

>  <LOGP>  (1544) 
1.1091

>  <TPSA>  (1544) 
83.55

>  <POPULARITY>  (1544) 
6.5

>  <PROTECTED>  (1544) 
TRUE

>  <SMILES>  (1544) 
N[C@H](Cc1(ccc(O)c(Br)c1))C(=O)O

>  <INCHIKEY>  (1544) 
HGWOSUKIFQMEIF-SSDOTTSWSA-N

$$$$
D-Tyr_3Cl
     RDKit          2D

 14 14  0  0  0  0  0  0  0  0999 V2000
   -2.0094    1.6916    0.0000 N   0  0  0  0  0  0  0  0  0  0  0  0
   -2.3243    0.2250    0.0000 C   0  0  0  0  0  0  0  0  0  0  0  0
   -1.2116   -0.7809    0.0000 C   0  0  0  0  0  0  0  0  0  0  0  0
    0.2159   -0.3203    0.0000 C   0  0  0  0  0  0  0  0  0  0  0  0
    0.5308    1.1463    0.0000 C   0  0  0  0  0  0  0  0  0  0  0  0
    1.9583    1.6069    0.0000 C   0  0  0  0  0  0  0  0  0  0  0  0
    3.0710    0.6009    0.0000 C   0  0  0  0  0  0  0  0  0  0  0  0
    4.4985    1.0615    0.0000 O   0  0  0  0  0  0  0  0  0  0  0  0
    2.7561   -0.8657    0.0000 C   0  0  0  0  0  0  0  0  0  0  0  0
    3.8688   -1.8716    0.0000 Cl  0  0  0  0  0  0  0  0  0  0  0  0
    1.3286   -1.3263    0.0000 C   0  0  0  0  0  0  0  0  0  0  0  0
   -3.7518   -0.2356    0.0000 C   0  0  0  0  0  0  0  0  0  0  0  0
   -4.0666   -1.7022    0.0000 O   0  0  0  0  0  0  0  0  0  0  0  0
   -4.8644    0.7704    0.0000 O   0  0  0  0  0  0  0  0  0  0  0  0
  2  1  1  6
  2  3  1  0
  3  4  1  0
  4  5  1  0
  5  6  2  0
  6  7  1  0
  7  8  1  0
  7  9  2  0
  9 10  1  0
  9 11  1  0
  2 12  1  0
 12 13  2  0
 12 14  1  0
 11  4  2  0
M  END
>  <rName>  (1545) 
D-Tyr_3Cl

>  <PQ_SYMBOL>  (1545) 
D-Tyr_3Cl

>  <FULL_NAME>  (1545) 
3-chloro-D-tyrosine

>  <IUPAC_CONDENSED>  (1545) 
D-Tyr(3-Cl)

>  <IUPAC>  (1545) 
(2R)-2-amino-3-(3-chloro-4-hydroxyphenyl)propanoic acid

>  <TYPE>  (1545) 
Backbone

>  <CLASS>  (1545) 
alpha

>  <ANALOG>  (1545) 
Tyr

>  <MOL_WT>  (1545) 
215.63599999999997

>  <LOGP>  (1545) 
1.0

>  <TPSA>  (1545) 
83.55

>  <POPULARITY>  (1545) 
20.7

>  <PROTECTED>  (1545) 
TRUE

>  <SMILES>  (1545) 
N[C@H](Cc1(ccc(O)c(Cl)c1))C(=O)O

>  <INCHIKEY>  (1545) 
ACWBBAGYTKWBCD-SSDOTTSWSA-N

$$$$
D-Tyr_3F
     RDKit          2D

 14 14  0  0  0  0  0  0  0  0999 V2000
   -2.0094    1.6916    0.0000 N   0  0  0  0  0  0  0  0  0  0  0  0
   -2.3243    0.2250    0.0000 C   0  0  0  0  0  0  0  0  0  0  0  0
   -1.2116   -0.7809    0.0000 C   0  0  0  0  0  0  0  0  0  0  0  0
    0.2159   -0.3203    0.0000 C   0  0  0  0  0  0  0  0  0  0  0  0
    0.5308    1.1463    0.0000 C   0  0  0  0  0  0  0  0  0  0  0  0
    1.9583    1.6069    0.0000 C   0  0  0  0  0  0  0  0  0  0  0  0
    3.0710    0.6009    0.0000 C   0  0  0  0  0  0  0  0  0  0  0  0
    4.4985    1.0615    0.0000 O   0  0  0  0  0  0  0  0  0  0  0  0
    2.7561   -0.8657    0.0000 C   0  0  0  0  0  0  0  0  0  0  0  0
    3.8688   -1.8716    0.0000 F   0  0  0  0  0  0  0  0  0  0  0  0
    1.3286   -1.3263    0.0000 C   0  0  0  0  0  0  0  0  0  0  0  0
   -3.7518   -0.2356    0.0000 C   0  0  0  0  0  0  0  0  0  0  0  0
   -4.0666   -1.7022    0.0000 O   0  0  0  0  0  0  0  0  0  0  0  0
   -4.8644    0.7704    0.0000 O   0  0  0  0  0  0  0  0  0  0  0  0
  2  1  1  6
  2  3  1  0
  3  4  1  0
  4  5  1  0
  5  6  2  0
  6  7  1  0
  7  8  1  0
  7  9  2  0
  9 10  1  0
  9 11  1  0
  2 12  1  0
 12 13  2  0
 12 14  1  0
 11  4  2  0
M  END
>  <rName>  (1546) 
D-Tyr_3F

>  <PQ_SYMBOL>  (1546) 
D-Tyr_3F

>  <FULL_NAME>  (1546) 
(R)-2-amino-3-(3-fluoro-4-hydroxyphenyl)propanoic acid

>  <IUPAC_CONDENSED>  (1546) 
D-Tyr(3-F)

>  <IUPAC>  (1546) 
(2R)-2-amino-3-(3-fluoro-4-hydroxyphenyl)propanoic acid

>  <TYPE>  (1546) 
Backbone

>  <CLASS>  (1546) 
alpha

>  <ANALOG>  (1546) 
Tyr

>  <MOL_WT>  (1546) 
199.18099999999995

>  <LOGP>  (1546) 
0.48570000000000013

>  <TPSA>  (1546) 
83.55

>  <POPULARITY>  (1546) 
5.1

>  <PROTECTED>  (1546) 
TRUE

>  <SMILES>  (1546) 
N[C@H](Cc1(ccc(O)c(F)c1))C(=O)O

>  <INCHIKEY>  (1546) 
VIIAUOZUUGXERI-SSDOTTSWSA-N

$$$$
D-Tyr_3F_5Me
     RDKit          2D

 15 15  0  0  0  0  0  0  0  0999 V2000
   -2.0609    1.6226    0.0000 N   0  0  0  0  0  0  0  0  0  0  0  0
   -2.4694    0.1793    0.0000 C   0  0  0  0  0  0  0  0  0  0  0  0
   -1.4237   -0.8961    0.0000 C   0  0  0  0  0  0  0  0  0  0  0  0
    0.0305   -0.5283    0.0000 C   0  0  0  0  0  0  0  0  0  0  0  0
    0.4390    0.9150    0.0000 C   0  0  0  0  0  0  0  0  0  0  0  0
    1.8932    1.2829    0.0000 C   0  0  0  0  0  0  0  0  0  0  0  0
    2.3017    2.7262    0.0000 C   0  0  0  0  0  0  0  0  0  0  0  0
    2.9389    0.2075    0.0000 C   0  0  0  0  0  0  0  0  0  0  0  0
    4.3931    0.5753    0.0000 O   0  0  0  0  0  0  0  0  0  0  0  0
    2.5304   -1.2358    0.0000 C   0  0  0  0  0  0  0  0  0  0  0  0
    3.5760   -2.3113    0.0000 F   0  0  0  0  0  0  0  0  0  0  0  0
    1.0762   -1.6037    0.0000 C   0  0  0  0  0  0  0  0  0  0  0  0
   -3.9236   -0.1886    0.0000 C   0  0  0  0  0  0  0  0  0  0  0  0
   -4.3321   -1.6319    0.0000 O   0  0  0  0  0  0  0  0  0  0  0  0
   -4.9693    0.8868    0.0000 O   0  0  0  0  0  0  0  0  0  0  0  0
  2  1  1  6
  2  3  1  0
  3  4  1  0
  4  5  2  0
  5  6  1  0
  6  7  1  0
  6  8  2  0
  8  9  1  0
  8 10  1  0
 10 11  1  0
 10 12  2  0
  2 13  1  0
 13 14  2  0
 13 15  1  0
 12  4  1  0
M  END
>  <rName>  (1547) 
D-Tyr_3F_5Me

>  <PQ_SYMBOL>  (1547) 
D-Tyr_3F_5Me

>  <FULL_NAME>  (1547) 
(R)-2-amino-3-(3-fluoro-4-hydroxy-5-methylphenyl)propanoic acid

>  <IUPAC_CONDENSED>  (1547) 
D-Tyr(3-F,5-Me)

>  <IUPAC>  (1547) 
(2R)-2-amino-3-(3-fluoro-4-hydroxy-5-methylphenyl)propanoic acid

>  <TYPE>  (1547) 
Backbone

>  <CLASS>  (1547) 
alpha

>  <ANALOG>  (1547) 
Tyr

>  <MOL_WT>  (1547) 
213.20799999999997

>  <LOGP>  (1547) 
0.79412

>  <TPSA>  (1547) 
83.55

>  <POPULARITY>  (1547) 
2.9

>  <PROTECTED>  (1547) 
TRUE

>  <SMILES>  (1547) 
N[C@H](Cc1(cc(C)c(O)c(F)c1))C(=O)O

>  <INCHIKEY>  (1547) 
FPZCEHPJOPQTQD-MRVPVSSYSA-N

$$$$
D-Tyr_3I
     RDKit          2D

 14 14  0  0  0  0  0  0  0  0999 V2000
   -2.0094    1.6916    0.0000 N   0  0  0  0  0  0  0  0  0  0  0  0
   -2.3243    0.2250    0.0000 C   0  0  0  0  0  0  0  0  0  0  0  0
   -1.2116   -0.7809    0.0000 C   0  0  0  0  0  0  0  0  0  0  0  0
    0.2159   -0.3203    0.0000 C   0  0  0  0  0  0  0  0  0  0  0  0
    0.5308    1.1463    0.0000 C   0  0  0  0  0  0  0  0  0  0  0  0
    1.9583    1.6069    0.0000 C   0  0  0  0  0  0  0  0  0  0  0  0
    3.0710    0.6009    0.0000 C   0  0  0  0  0  0  0  0  0  0  0  0
    4.4985    1.0615    0.0000 O   0  0  0  0  0  0  0  0  0  0  0  0
    2.7561   -0.8657    0.0000 C   0  0  0  0  0  0  0  0  0  0  0  0
    3.8688   -1.8716    0.0000 I   0  0  0  0  0  0  0  0  0  0  0  0
    1.3286   -1.3263    0.0000 C   0  0  0  0  0  0  0  0  0  0  0  0
   -3.7518   -0.2356    0.0000 C   0  0  0  0  0  0  0  0  0  0  0  0
   -4.0666   -1.7022    0.0000 O   0  0  0  0  0  0  0  0  0  0  0  0
   -4.8644    0.7704    0.0000 O   0  0  0  0  0  0  0  0  0  0  0  0
  2  1  1  6
  2  3  1  0
  3  4  1  0
  4  5  1  0
  5  6  2  0
  6  7  1  0
  7  8  1  0
  7  9  2  0
  9 10  1  0
  9 11  1  0
  2 12  1  0
 12 13  2  0
 12 14  1  0
 11  4  2  0
M  END
>  <rName>  (1548) 
D-Tyr_3I

>  <PQ_SYMBOL>  (1548) 
D-Tyr_3I

>  <FULL_NAME>  (1548) 
(2R)-2-amino-3-(4-hydroxy-3-iodophenyl)propanoic acid

>  <IUPAC_CONDENSED>  (1548) 
D-Tyr(3-I)

>  <IUPAC>  (1548) 
(2R)-2-amino-3-(4-hydroxy-3-iodophenyl)propanoic acid

>  <TYPE>  (1548) 
Backbone

>  <CLASS>  (1548) 
alpha

>  <ANALOG>  (1548) 
Tyr

>  <MOL_WT>  (1548) 
307.087

>  <LOGP>  (1548) 
0.9512

>  <TPSA>  (1548) 
83.55

>  <POPULARITY>  (1548) 
12.9

>  <PROTECTED>  (1548) 
TRUE

>  <SMILES>  (1548) 
N[C@H](Cc1(ccc(O)c(I)c1))C(=O)O

>  <INCHIKEY>  (1548) 
UQTZMGFTRHFAAM-SSDOTTSWSA-N

$$$$
D-Tyr_3NO2
     RDKit          2D

 16 16  0  0  0  0  0  0  0  0999 V2000
   -2.7936    1.6481    0.0000 N   0  0  0  0  0  0  0  0  0  0  0  0
   -2.9203    0.1535    0.0000 C   0  0  0  0  0  0  0  0  0  0  0  0
   -1.6893   -0.7036    0.0000 C   0  0  0  0  0  0  0  0  0  0  0  0
   -0.3315   -0.0660    0.0000 C   0  0  0  0  0  0  0  0  0  0  0  0
   -0.2048    1.4287    0.0000 C   0  0  0  0  0  0  0  0  0  0  0  0
    1.1530    2.0662    0.0000 C   0  0  0  0  0  0  0  0  0  0  0  0
    2.3840    1.2092    0.0000 C   0  0  0  0  0  0  0  0  0  0  0  0
    3.7417    1.8468    0.0000 O   0  0  0  0  0  0  0  0  0  0  0  0
    2.2573   -0.2855    0.0000 C   0  0  0  0  0  0  0  0  0  0  0  0
    0.8995   -0.9230    0.0000 C   0  0  0  0  0  0  0  0  0  0  0  0
    3.4883   -1.1425    0.0000 N   0  0  0  0  0  0  0  0  0  0  0  0
    4.8461   -0.5049    0.0000 O   0  0  0  0  0  0  0  0  0  0  0  0
    3.3616   -2.6372    0.0000 O   0  0  0  0  0  0  0  0  0  0  0  0
   -4.2781   -0.4841    0.0000 C   0  0  0  0  0  0  0  0  0  0  0  0
   -4.4048   -1.9787    0.0000 O   0  0  0  0  0  0  0  0  0  0  0  0
   -5.5091    0.3730    0.0000 O   0  0  0  0  0  0  0  0  0  0  0  0
  2  1  1  6
  2  3  1  0
  3  4  1  0
  4  5  1  0
  5  6  2  0
  6  7  1  0
  7  8  1  0
  7  9  2  0
  9 10  1  0
  9 11  1  0
 11 12  2  0
 11 13  1  0
  2 14  1  0
 14 15  2  0
 14 16  1  0
 10  4  2  0
M  CHG  2  11   1  13  -1
M  END
>  <rName>  (1549) 
D-Tyr_3NO2

>  <PQ_SYMBOL>  (1549) 
D-Tyr_3NO2

>  <FULL_NAME>  (1549) 
3-Nitro-D-Tyrosine

>  <IUPAC_CONDENSED>  (1549) 
D-Tyr(3-NO2)

>  <IUPAC>  (1549) 
(2R)-2-amino-3-(4-hydroxy-3-nitrophenyl)propanoic acid

>  <TYPE>  (1549) 
Backbone

>  <CLASS>  (1549) 
alpha

>  <ANALOG>  (1549) 
Tyr

>  <MOL_WT>  (1549) 
226.18799999999996

>  <LOGP>  (1549) 
0.2547999999999999

>  <TPSA>  (1549) 
126.69000000000001

>  <POPULARITY>  (1549) 
7.8

>  <PROTECTED>  (1549) 
TRUE

>  <SMILES>  (1549) 
N[C@H](Cc1(ccc(O)c(c1)[N+](=O)[O-]))C(=O)O

>  <INCHIKEY>  (1549) 
FBTSQILOGYXGMD-ZCFIWIBFSA-N

$$$$
D-Tyr_CF3
     RDKit          2D

 17 17  0  0  0  0  0  0  0  0999 V2000
   -3.1457    1.6694    0.0000 N   0  0  0  0  0  0  0  0  0  0  0  0
   -3.4800    0.2071    0.0000 C   0  0  0  0  0  0  0  0  0  0  0  0
   -2.3807   -0.8135    0.0000 C   0  0  0  0  0  0  0  0  0  0  0  0
   -0.9472   -0.3718    0.0000 C   0  0  0  0  0  0  0  0  0  0  0  0
   -0.6130    1.0905    0.0000 C   0  0  0  0  0  0  0  0  0  0  0  0
    0.8205    1.5322    0.0000 C   0  0  0  0  0  0  0  0  0  0  0  0
    1.9198    0.5116    0.0000 C   0  0  0  0  0  0  0  0  0  0  0  0
    3.3533    0.9532    0.0000 O   0  0  0  0  0  0  0  0  0  0  0  0
    4.4525   -0.0674    0.0000 C   0  0  0  0  0  0  0  0  0  0  0  0
    5.5518   -1.0880    0.0000 F   0  0  0  0  0  0  0  0  0  0  0  0
    5.4731    1.0319    0.0000 F   0  0  0  0  0  0  0  0  0  0  0  0
    3.4319   -1.1666    0.0000 F   0  0  0  0  0  0  0  0  0  0  0  0
    1.5855   -0.9507    0.0000 C   0  0  0  0  0  0  0  0  0  0  0  0
    0.1520   -1.3924    0.0000 C   0  0  0  0  0  0  0  0  0  0  0  0
   -4.9135   -0.2346    0.0000 C   0  0  0  0  0  0  0  0  0  0  0  0
   -5.2477   -1.6969    0.0000 O   0  0  0  0  0  0  0  0  0  0  0  0
   -6.0127    0.7860    0.0000 O   0  0  0  0  0  0  0  0  0  0  0  0
  2  1  1  6
  2  3  1  0
  3  4  1  0
  4  5  1  0
  5  6  2  0
  6  7  1  0
  7  8  1  0
  8  9  1  0
  9 10  1  0
  9 11  1  0
  9 12  1  0
  7 13  2  0
 13 14  1  0
  2 15  1  0
 15 16  2  0
 15 17  1  0
 14  4  2  0
M  END
>  <rName>  (1550) 
D-Tyr_CF3

>  <PQ_SYMBOL>  (1550) 
D-Tyr_CF3

>  <FULL_NAME>  (1550) 
(R)-2-amino-3-(4-(trifluoromethoxy)phenyl)propanoic acid

>  <IUPAC_CONDENSED>  (1550) 
D-Tyr(CF3)

>  <IUPAC>  (1550) 
(2R)-2-amino-3-(4-((trifluoromethyl)oxy)phenyl)propanoic acid

>  <TYPE>  (1550) 
Backbone

>  <CLASS>  (1550) 
alpha

>  <ANALOG>  (1550) 
Tyr

>  <MOL_WT>  (1550) 
249.18799999999996

>  <LOGP>  (1550) 
1.5396000000000003

>  <TPSA>  (1550) 
72.55

>  <POPULARITY>  (1550) 
4.5

>  <PROTECTED>  (1550) 
TRUE

>  <SMILES>  (1550) 
N[C@H](Cc1(ccc(OC(F)(F)F)cc1))C(=O)O

>  <INCHIKEY>  (1550) 
YZXUCQCJZKJMIR-MRVPVSSYSA-N

$$$$
D-Tyr_Et
     RDKit          2D

 15 15  0  0  0  0  0  0  0  0999 V2000
   -2.5029    1.6750    0.0000 N   0  0  0  0  0  0  0  0  0  0  0  0
   -2.9013    0.2288    0.0000 C   0  0  0  0  0  0  0  0  0  0  0  0
   -1.8481   -0.8393    0.0000 C   0  0  0  0  0  0  0  0  0  0  0  0
   -0.3966   -0.4612    0.0000 C   0  0  0  0  0  0  0  0  0  0  0  0
    0.0019    0.9849    0.0000 C   0  0  0  0  0  0  0  0  0  0  0  0
    1.4534    1.3629    0.0000 C   0  0  0  0  0  0  0  0  0  0  0  0
    2.5066    0.2948    0.0000 C   0  0  0  0  0  0  0  0  0  0  0  0
    3.9582    0.6728    0.0000 O   0  0  0  0  0  0  0  0  0  0  0  0
    5.0114   -0.3953    0.0000 C   0  0  0  0  0  0  0  0  0  0  0  0
    6.4629   -0.0173    0.0000 C   0  0  0  0  0  0  0  0  0  0  0  0
    2.1082   -1.1513    0.0000 C   0  0  0  0  0  0  0  0  0  0  0  0
    0.6566   -1.5293    0.0000 C   0  0  0  0  0  0  0  0  0  0  0  0
   -4.3529   -0.1492    0.0000 C   0  0  0  0  0  0  0  0  0  0  0  0
   -4.7513   -1.5953    0.0000 O   0  0  0  0  0  0  0  0  0  0  0  0
   -5.4061    0.9189    0.0000 O   0  0  0  0  0  0  0  0  0  0  0  0
  2  1  1  6
  2  3  1  0
  3  4  1  0
  4  5  1  0
  5  6  2  0
  6  7  1  0
  7  8  1  0
  8  9  1  0
  9 10  1  0
  7 11  2  0
 11 12  1  0
  2 13  1  0
 13 14  2  0
 13 15  1  0
 12  4  2  0
M  END
>  <rName>  (1551) 
D-Tyr_Et

>  <PQ_SYMBOL>  (1551) 
D-Tyr_Et

>  <FULL_NAME>  (1551) 
O4-ethyl-D-tyrosine

>  <IUPAC_CONDENSED>  (1551) 
D-Tyr(Et)

>  <IUPAC>  (1551) 
(2R)-2-amino-3-(4-ethoxyphenyl)propanoic acid

>  <TYPE>  (1551) 
Backbone

>  <CLASS>  (1551) 
alpha

>  <ANALOG>  (1551) 
Tyr

>  <MOL_WT>  (1551) 
209.24499999999998

>  <LOGP>  (1551) 
1.0396999999999998

>  <TPSA>  (1551) 
72.55

>  <POPULARITY>  (1551) 
14.9

>  <PROTECTED>  (1551) 
TRUE

>  <SMILES>  (1551) 
N[C@H](Cc1(ccc(OCC)cc1))C(=O)O

>  <INCHIKEY>  (1551) 
RMYPEYHEPIZYDJ-SNVBAGLBSA-N

$$$$
D-Tyr_EtN3
     RDKit          2D

 18 18  0  0  0  0  0  0  0  0999 V2000
   -4.0650    1.6341    0.0000 N   0  0  0  0  0  0  0  0  0  0  0  0
   -4.4062    0.1735    0.0000 C   0  0  0  0  0  0  0  0  0  0  0  0
   -3.3118   -0.8524    0.0000 C   0  0  0  0  0  0  0  0  0  0  0  0
   -1.8762   -0.4175    0.0000 C   0  0  0  0  0  0  0  0  0  0  0  0
   -1.5350    1.0432    0.0000 C   0  0  0  0  0  0  0  0  0  0  0  0
   -0.0994    1.4780    0.0000 C   0  0  0  0  0  0  0  0  0  0  0  0
    0.9950    0.4522    0.0000 C   0  0  0  0  0  0  0  0  0  0  0  0
    2.4306    0.8871    0.0000 O   0  0  0  0  0  0  0  0  0  0  0  0
    3.5249   -0.1388    0.0000 C   0  0  0  0  0  0  0  0  0  0  0  0
    4.9605    0.2961    0.0000 C   0  0  0  0  0  0  0  0  0  0  0  0
    6.0549   -0.7297    0.0000 N   0  0  0  0  0  0  0  0  0  0  0  0
    7.4905   -0.2949    0.0000 N   0  0  0  0  0  0  0  0  0  0  0  0
    8.9261    0.1400    0.0000 N   0  0  0  0  0  0  0  0  0  0  0  0
    0.6538   -1.0085    0.0000 C   0  0  0  0  0  0  0  0  0  0  0  0
   -0.7818   -1.4433    0.0000 C   0  0  0  0  0  0  0  0  0  0  0  0
   -5.8418   -0.2614    0.0000 C   0  0  0  0  0  0  0  0  0  0  0  0
   -6.1830   -1.7221    0.0000 O   0  0  0  0  0  0  0  0  0  0  0  0
   -6.9361    0.7644    0.0000 O   0  0  0  0  0  0  0  0  0  0  0  0
  2  1  1  6
  2  3  1  0
  3  4  1  0
  4  5  1  0
  5  6  2  0
  6  7  1  0
  7  8  1  0
  8  9  1  0
  9 10  1  0
 10 11  1  0
 11 12  2  0
 12 13  2  0
  7 14  2  0
 14 15  1  0
  2 16  1  0
 16 17  2  0
 16 18  1  0
 15  4  2  0
M  CHG  2  12   1  13  -1
M  END
>  <rName>  (1552) 
D-Tyr_EtN3

>  <PQ_SYMBOL>  (1552) 
D-Tyr_EtN3

>  <FULL_NAME>  (1552) 
D-Tyr(EtN3)

>  <IUPAC_CONDENSED>  (1552) 
D-Tyr(EtN3)

>  <IUPAC>  (1552) 
(2R)-2-amino-3-(4-((2-azidoethyl)oxy)phenyl)propanoic acid

>  <TYPE>  (1552) 
Backbone

>  <CLASS>  (1552) 
alpha

>  <ANALOG>  (1552) 
Tyr

>  <MOL_WT>  (1552) 
250.25799999999998

>  <LOGP>  (1552) 
1.3301

>  <TPSA>  (1552) 
121.31000000000002

>  <POPULARITY>  (1552) 
2.2

>  <PROTECTED>  (1552) 
TRUE

>  <SMILES>  (1552) 
N[C@H](Cc1(ccc(OCCN=[N+]=[N-])cc1))C(=O)O

>  <INCHIKEY>  (1552) 
AFRGRMSRGXONSC-SNVBAGLBSA-N

$$$$
D-Tyr_EtNH2
     RDKit          2D

 16 16  0  0  0  0  0  0  0  0999 V2000
   -3.0307    1.6397    0.0000 N   0  0  0  0  0  0  0  0  0  0  0  0
   -3.3793    0.1807    0.0000 C   0  0  0  0  0  0  0  0  0  0  0  0
   -2.2900   -0.8506    0.0000 C   0  0  0  0  0  0  0  0  0  0  0  0
   -0.8523   -0.4229    0.0000 C   0  0  0  0  0  0  0  0  0  0  0  0
   -0.5038    1.0360    0.0000 C   0  0  0  0  0  0  0  0  0  0  0  0
    0.9340    1.4637    0.0000 C   0  0  0  0  0  0  0  0  0  0  0  0
    2.0232    0.4324    0.0000 C   0  0  0  0  0  0  0  0  0  0  0  0
    3.4609    0.8600    0.0000 O   0  0  0  0  0  0  0  0  0  0  0  0
    4.5502   -0.1713    0.0000 C   0  0  0  0  0  0  0  0  0  0  0  0
    5.9879    0.2564    0.0000 C   0  0  0  0  0  0  0  0  0  0  0  0
    7.0771   -0.7749    0.0000 N   0  0  0  0  0  0  0  0  0  0  0  0
    1.6747   -1.0266    0.0000 C   0  0  0  0  0  0  0  0  0  0  0  0
    0.2369   -1.4542    0.0000 C   0  0  0  0  0  0  0  0  0  0  0  0
   -4.8170   -0.2469    0.0000 C   0  0  0  0  0  0  0  0  0  0  0  0
   -5.1655   -1.7059    0.0000 O   0  0  0  0  0  0  0  0  0  0  0  0
   -5.9062    0.7844    0.0000 O   0  0  0  0  0  0  0  0  0  0  0  0
  2  1  1  6
  2  3  1  0
  3  4  1  0
  4  5  1  0
  5  6  2  0
  6  7  1  0
  7  8  1  0
  8  9  1  0
  9 10  1  0
 10 11  1  0
  7 12  2  0
 12 13  1  0
  2 14  1  0
 14 15  2  0
 14 16  1  0
 13  4  2  0
M  END
>  <rName>  (1553) 
D-Tyr_EtNH2

>  <PQ_SYMBOL>  (1553) 
D-Tyr_EtNH2

>  <FULL_NAME>  (1553) 
(R)-2-amino-3-(4-(2-aminoethoxy)phenyl)propanoic acid

>  <IUPAC_CONDENSED>  (1553) 
D-Tyr(EtNH2)

>  <IUPAC>  (1553) 
(2R)-2-amino-3-(4-((2-aminoethyl)oxy)phenyl)propanoic acid

>  <TYPE>  (1553) 
Backbone

>  <CLASS>  (1553) 
alpha

>  <ANALOG>  (1553) 
Tyr

>  <MOL_WT>  (1553) 
224.25999999999996

>  <LOGP>  (1553) 
-0.021499999999999908

>  <TPSA>  (1553) 
98.57000000000001

>  <POPULARITY>  (1553) 
4.9

>  <PROTECTED>  (1553) 
TRUE

>  <SMILES>  (1553) 
N[C@H](Cc1(ccc(OCCN)cc1))C(=O)O

>  <INCHIKEY>  (1553) 
YTTSZNIZRJUSDN-SNVBAGLBSA-N

$$$$
D-Tyr_Me
     RDKit          2D

 14 14  0  0  0  0  0  0  0  0999 V2000
   -2.0397    1.6757    0.0000 N   0  0  0  0  0  0  0  0  0  0  0  0
   -2.4395    0.2299    0.0000 C   0  0  0  0  0  0  0  0  0  0  0  0
   -1.3873   -0.8392    0.0000 C   0  0  0  0  0  0  0  0  0  0  0  0
    0.0646   -0.4625    0.0000 C   0  0  0  0  0  0  0  0  0  0  0  0
    0.4644    0.9832    0.0000 C   0  0  0  0  0  0  0  0  0  0  0  0
    1.9164    1.3598    0.0000 C   0  0  0  0  0  0  0  0  0  0  0  0
    2.9685    0.2907    0.0000 C   0  0  0  0  0  0  0  0  0  0  0  0
    4.4205    0.6674    0.0000 O   0  0  0  0  0  0  0  0  0  0  0  0
    5.4726   -0.4017    0.0000 C   0  0  0  0  0  0  0  0  0  0  0  0
    2.5687   -1.1550    0.0000 C   0  0  0  0  0  0  0  0  0  0  0  0
    1.1168   -1.5316    0.0000 C   0  0  0  0  0  0  0  0  0  0  0  0
   -3.8914   -0.1467    0.0000 C   0  0  0  0  0  0  0  0  0  0  0  0
   -4.2912   -1.5924    0.0000 O   0  0  0  0  0  0  0  0  0  0  0  0
   -4.9436    0.9224    0.0000 O   0  0  0  0  0  0  0  0  0  0  0  0
  2  1  1  6
  2  3  1  0
  3  4  1  0
  4  5  1  0
  5  6  2  0
  6  7  1  0
  7  8  1  0
  8  9  1  0
  7 10  2  0
 10 11  1  0
  2 12  1  0
 12 13  2  0
 12 14  1  0
 11  4  2  0
M  END
>  <rName>  (1554) 
D-Tyr_Me

>  <PQ_SYMBOL>  (1554) 
D-Tyr_Me

>  <FULL_NAME>  (1554) 
O-Methyl-D-Tyrosine

>  <IUPAC_CONDENSED>  (1554) 
D-Tyr(Me)

>  <IUPAC>  (1554) 
(2R)-2-amino-3-(4-methoxyphenyl)propanoic acid

>  <TYPE>  (1554) 
Backbone

>  <CLASS>  (1554) 
alpha

>  <ANALOG>  (1554) 
Tyr

>  <MOL_WT>  (1554) 
195.218

>  <LOGP>  (1554) 
0.6496

>  <TPSA>  (1554) 
72.55

>  <POPULARITY>  (1554) 
21.3

>  <PROTECTED>  (1554) 
TRUE

>  <SMILES>  (1554) 
N[C@H](Cc1(ccc(OC)cc1))C(=O)O

>  <INCHIKEY>  (1554) 
GEYBMYRBIABFTA-SECBINFHSA-N

$$$$
D-Tyr_PO3H2
     RDKit          2D

 17 17  0  0  0  0  0  0  0  0999 V2000
   -3.1457    1.6694    0.0000 N   0  0  0  0  0  0  0  0  0  0  0  0
   -3.4800    0.2071    0.0000 C   0  0  0  0  0  0  0  0  0  0  0  0
   -2.3807   -0.8135    0.0000 C   0  0  0  0  0  0  0  0  0  0  0  0
   -0.9472   -0.3718    0.0000 C   0  0  0  0  0  0  0  0  0  0  0  0
   -0.6130    1.0905    0.0000 C   0  0  0  0  0  0  0  0  0  0  0  0
    0.8205    1.5322    0.0000 C   0  0  0  0  0  0  0  0  0  0  0  0
    1.9198    0.5116    0.0000 C   0  0  0  0  0  0  0  0  0  0  0  0
    3.3533    0.9532    0.0000 O   0  0  0  0  0  0  0  0  0  0  0  0
    4.4525   -0.0674    0.0000 P   0  0  0  0  0  0  0  0  0  0  0  0
    5.4731    1.0319    0.0000 O   0  0  0  0  0  0  0  0  0  0  0  0
    3.4319   -1.1666    0.0000 O   0  0  0  0  0  0  0  0  0  0  0  0
    5.5518   -1.0880    0.0000 O   0  0  0  0  0  0  0  0  0  0  0  0
    1.5855   -0.9507    0.0000 C   0  0  0  0  0  0  0  0  0  0  0  0
    0.1520   -1.3924    0.0000 C   0  0  0  0  0  0  0  0  0  0  0  0
   -4.9135   -0.2346    0.0000 C   0  0  0  0  0  0  0  0  0  0  0  0
   -5.2477   -1.6969    0.0000 O   0  0  0  0  0  0  0  0  0  0  0  0
   -6.0127    0.7860    0.0000 O   0  0  0  0  0  0  0  0  0  0  0  0
  2  1  1  6
  2  3  1  0
  3  4  1  0
  4  5  1  0
  5  6  2  0
  6  7  1  0
  7  8  1  0
  8  9  1  0
  9 10  2  0
  9 11  1  0
  9 12  1  0
  7 13  2  0
 13 14  1  0
  2 15  1  0
 15 16  2  0
 15 17  1  0
 14  4  2  0
M  END
>  <rName>  (1555) 
D-Tyr_PO3H2

>  <PQ_SYMBOL>  (1555) 
D-Tyr_PO3H2

>  <FULL_NAME>  (1555) 
O-Phospho-D-Tyrosine

>  <IUPAC_CONDENSED>  (1555) 
D-Tyr(PO3H2)

>  <IUPAC>  (1555) 
4-((2R)-2-amino-3-hydroxy-3-oxopropyl)phenyl dihydrogen phosphate

>  <TYPE>  (1555) 
Backbone

>  <CLASS>  (1555) 
alpha

>  <ANALOG>  (1555) 
Tyr

>  <MOL_WT>  (1555) 
261.16999999999996

>  <LOGP>  (1555) 
0.1125000000000001

>  <TPSA>  (1555) 
130.07999999999998

>  <POPULARITY>  (1555) 
17.7

>  <PROTECTED>  (1555) 
TRUE

>  <SMILES>  (1555) 
N[C@H](Cc1(ccc(OP(=O)(O)O)cc1))C(=O)O

>  <INCHIKEY>  (1555) 
DCWXELXMIBXGTH-MRVPVSSYSA-N

$$$$
D-Tza
     RDKit          2D

 11 11  0  0  0  0  0  0  0  0999 V2000
   -0.9461    1.6947    0.0000 N   0  0  0  0  0  0  0  0  0  0  0  0
   -1.3100    0.2395    0.0000 C   0  0  0  0  0  0  0  0  0  0  0  0
   -0.2317   -0.8032    0.0000 C   0  0  0  0  0  0  0  0  0  0  0  0
    1.2105   -0.3908    0.0000 C   0  0  0  0  0  0  0  0  0  0  0  0
    2.3919   -1.3151    0.0000 C   0  0  0  0  0  0  0  0  0  0  0  0
    3.6360   -0.4772    0.0000 S   0  0  0  0  0  0  0  0  0  0  0  0
    3.2236    0.9650    0.0000 C   0  0  0  0  0  0  0  0  0  0  0  0
    1.7245    1.0184    0.0000 N   0  0  0  0  0  0  0  0  0  0  0  0
   -2.7522   -0.1729    0.0000 C   0  0  0  0  0  0  0  0  0  0  0  0
   -3.1161   -1.6281    0.0000 O   0  0  0  0  0  0  0  0  0  0  0  0
   -3.8304    0.8698    0.0000 O   0  0  0  0  0  0  0  0  0  0  0  0
  2  1  1  6
  2  3  1  0
  3  4  1  0
  4  5  2  0
  5  6  1  0
  6  7  1  0
  7  8  2  0
  2  9  1  0
  9 10  2  0
  9 11  1  0
  8  4  1  0
M  END
>  <rName>  (1556) 
D-Tza

>  <PQ_SYMBOL>  (1556) 
D-Tza

>  <FULL_NAME>  (1556) 
3-(4-Thiazoyl)-D-Alanine

>  <IUPAC_CONDENSED>  (1556) 
D-Tza

>  <IUPAC>  (1556) 
(2R)-2-amino-3-(thiazol-4-yl)propanoic acid

>  <TYPE>  (1556) 
Backbone

>  <CLASS>  (1556) 
alpha

>  <ANALOG>  (1556) 
Phe

>  <MOL_WT>  (1556) 
172.209

>  <LOGP>  (1556) 
0.09749999999999986

>  <TPSA>  (1556) 
76.21

>  <POPULARITY>  (1556) 
7.9

>  <PROTECTED>  (1556) 
TRUE

>  <SMILES>  (1556) 
N[C@H](Cc1(cscn1))C(=O)O

>  <INCHIKEY>  (1556) 
WBZIGVCQRXJYQD-RXMQYKEDSA-N

$$$$
D-Val_3Me
     RDKit          2D

  9  8  0  0  0  0  0  0  0  0999 V2000
    0.1862    2.0800    0.0000 N   0  0  0  0  0  0  0  0  0  0  0  0
    0.1560    0.5803    0.0000 C   0  0  0  0  0  0  0  0  0  0  0  0
   -1.1578   -0.1434    0.0000 C   0  0  0  0  0  0  0  0  0  0  0  0
   -1.8815    1.1705    0.0000 C   0  0  0  0  0  0  0  0  0  0  0  0
   -0.4341   -1.4573    0.0000 C   0  0  0  0  0  0  0  0  0  0  0  0
   -2.4717   -0.8671    0.0000 C   0  0  0  0  0  0  0  0  0  0  0  0
    1.4397   -0.1957    0.0000 C   0  0  0  0  0  0  0  0  0  0  0  0
    1.4095   -1.6954    0.0000 O   0  0  0  0  0  0  0  0  0  0  0  0
    2.7536    0.5280    0.0000 O   0  0  0  0  0  0  0  0  0  0  0  0
  2  1  1  1
  2  3  1  0
  3  4  1  0
  3  5  1  0
  3  6  1  0
  2  7  1  0
  7  8  2  0
  7  9  1  0
M  END
>  <rName>  (1557) 
D-Val_3Me

>  <PQ_SYMBOL>  (1557) 
D-Val_3Me

>  <FULL_NAME>  (1557) 
3-Methyl-D-Valine

>  <IUPAC_CONDENSED>  (1557) 
D-Val(3-Me)

>  <IUPAC>  (1557) 
(2R)-2-amino-3,3-dimethylbutanoic acid

>  <TYPE>  (1557) 
Backbone

>  <CLASS>  (1557) 
alpha

>  <ANALOG>  (1557) 
Val

>  <MOL_WT>  (1557) 
131.17499999999998

>  <LOGP>  (1557) 
0.44439999999999985

>  <TPSA>  (1557) 
63.32000000000001

>  <POPULARITY>  (1557) 
19.6

>  <PROTECTED>  (1557) 
TRUE

>  <SMILES>  (1557) 
N[C@H](C(C)(C)C)C(=O)O

>  <INCHIKEY>  (1557) 
NPDBDJFLKKQMCM-BYPYZUCNSA-N

$$$$
D-Val_3OH
     RDKit          2D

  9  8  0  0  0  0  0  0  0  0999 V2000
   -0.1862    2.0800    0.0000 N   0  0  0  0  0  0  0  0  0  0  0  0
   -0.1560    0.5803    0.0000 C   0  0  0  0  0  0  0  0  0  0  0  0
    1.1578   -0.1434    0.0000 C   0  0  0  0  0  0  0  0  0  0  0  0
    2.4717   -0.8671    0.0000 O   0  0  0  0  0  0  0  0  0  0  0  0
    1.8815    1.1705    0.0000 C   0  0  0  0  0  0  0  0  0  0  0  0
    0.4341   -1.4573    0.0000 C   0  0  0  0  0  0  0  0  0  0  0  0
   -1.4397   -0.1957    0.0000 C   0  0  0  0  0  0  0  0  0  0  0  0
   -1.4095   -1.6954    0.0000 O   0  0  0  0  0  0  0  0  0  0  0  0
   -2.7536    0.5280    0.0000 O   0  0  0  0  0  0  0  0  0  0  0  0
  2  1  1  6
  2  3  1  0
  3  4  1  0
  3  5  1  0
  3  6  1  0
  2  7  1  0
  7  8  2  0
  7  9  1  0
M  END
>  <rName>  (1558) 
D-Val_3OH

>  <PQ_SYMBOL>  (1558) 
D-Val_3OH

>  <FULL_NAME>  (1558) 
3-Hydroxy-D-Valine

>  <IUPAC_CONDENSED>  (1558) 
D-Val(3-OH)

>  <IUPAC>  (1558) 
(2R)-2-amino-3-hydroxy-3-methylbutanoic acid

>  <TYPE>  (1558) 
Backbone

>  <CLASS>  (1558) 
alpha

>  <ANALOG>  (1558) 
Val

>  <MOL_WT>  (1558) 
133.147

>  <LOGP>  (1558) 
-0.8308000000000006

>  <TPSA>  (1558) 
83.55

>  <POPULARITY>  (1558) 
17.0

>  <PROTECTED>  (1558) 
TRUE

>  <SMILES>  (1558) 
N[C@H](C(O)(C)C)C(=O)O

>  <INCHIKEY>  (1558) 
LDRFQSZFVGJGGP-VKHMYHEASA-N

$$$$
D-Val_NH2
     RDKit          2D

  9  8  0  0  0  0  0  0  0  0999 V2000
   -0.1862    2.0800    0.0000 N   0  0  0  0  0  0  0  0  0  0  0  0
   -0.1560    0.5803    0.0000 C   0  0  0  0  0  0  0  0  0  0  0  0
    1.1578   -0.1434    0.0000 C   0  0  0  0  0  0  0  0  0  0  0  0
    1.8815    1.1705    0.0000 C   0  0  0  0  0  0  0  0  0  0  0  0
    0.4341   -1.4573    0.0000 C   0  0  0  0  0  0  0  0  0  0  0  0
    2.4717   -0.8671    0.0000 N   0  0  0  0  0  0  0  0  0  0  0  0
   -1.4397   -0.1957    0.0000 C   0  0  0  0  0  0  0  0  0  0  0  0
   -1.4095   -1.6954    0.0000 O   0  0  0  0  0  0  0  0  0  0  0  0
   -2.7536    0.5280    0.0000 O   0  0  0  0  0  0  0  0  0  0  0  0
  2  1  1  6
  2  3  1  0
  3  4  1  0
  3  5  1  0
  3  6  1  0
  2  7  1  0
  7  8  2  0
  7  9  1  0
M  END
>  <rName>  (1559) 
D-Val_NH2

>  <PQ_SYMBOL>  (1559) 
D-Val_NH2

>  <FULL_NAME>  (1559) 
(2R)-2,3-diamino-3-methylbutanoic acid

>  <IUPAC_CONDENSED>  (1559) 
D-Val(NH2)

>  <IUPAC>  (1559) 
(2R)-2,3-diamino-3-methylbutanoic acid

>  <TYPE>  (1559) 
Backbone

>  <CLASS>  (1559) 
alpha

>  <ANALOG>  (1559) 
Val

>  <MOL_WT>  (1559) 
132.163

>  <LOGP>  (1559) 
-0.8643999999999998

>  <TPSA>  (1559) 
89.34

>  <POPULARITY>  (1559) 
2.2

>  <PROTECTED>  (1559) 
TRUE

>  <SMILES>  (1559) 
N[C@H](C(C)(C)N)C(=O)O

>  <INCHIKEY>  (1559) 
KAWLHBPCRLENDL-VKHMYHEASA-N

$$$$
D-Val_vinyl
     RDKit          2D

 10  9  0  0  0  0  0  0  0  0999 V2000
    1.2586    1.9934    0.0000 N   0  0  0  0  0  0  0  0  0  0  0  0
    0.6785    0.6101    0.0000 C   0  0  0  0  0  0  0  0  0  0  0  0
   -0.8096    0.4209    0.0000 C   0  0  0  0  0  0  0  0  0  0  0  0
   -0.9988    1.9089    0.0000 C   0  0  0  0  0  0  0  0  0  0  0  0
   -0.6203   -1.0672    0.0000 C   0  0  0  0  0  0  0  0  0  0  0  0
   -2.2976    0.2316    0.0000 C   0  0  0  0  0  0  0  0  0  0  0  0
   -2.8777   -1.1516    0.0000 C   0  0  0  0  0  0  0  0  0  0  0  0
    1.5863   -0.5840    0.0000 C   0  0  0  0  0  0  0  0  0  0  0  0
    1.0062   -1.9672    0.0000 O   0  0  0  0  0  0  0  0  0  0  0  0
    3.0744   -0.3947    0.0000 O   0  0  0  0  0  0  0  0  0  0  0  0
  2  1  1  1
  2  3  1  0
  3  4  1  0
  3  5  1  0
  3  6  1  0
  6  7  2  0
  2  8  1  0
  8  9  2  0
  8 10  1  0
M  END
>  <rName>  (1560) 
D-Val_vinyl

>  <PQ_SYMBOL>  (1560) 
D-Val_vinyl

>  <FULL_NAME>  (1560) 
(2R)-2-amino-3,3-dimethylpent-4-enoic acid

>  <IUPAC_CONDENSED>  (1560) 
D-Val(vinyl)

>  <IUPAC>  (1560) 
(2R)-2-amino-3,3-dimethylpent-4-enoic acid

>  <TYPE>  (1560) 
Backbone

>  <CLASS>  (1560) 
alpha

>  <ANALOG>  (1560) 
Val

>  <MOL_WT>  (1560) 
143.18599999999998

>  <LOGP>  (1560) 
0.6105

>  <TPSA>  (1560) 
63.32000000000001

>  <POPULARITY>  (1560) 
3.5

>  <PROTECTED>  (1560) 
TRUE

>  <SMILES>  (1560) 
N[C@H](C(C)(C)C=C)C(=O)O

>  <INCHIKEY>  (1560) 
WRAGCAJADTYGOO-YFKPBYRVSA-N

$$$$
D-a2-carboxyethylGaba
     RDKit          2D

 12 11  0  0  0  0  0  0  0  0999 V2000
    0.0000    2.0000    0.0000 N   0  0  0  0  0  0  0  0  0  0  0  0
    0.0000    0.5000    0.0000 C   0  0  0  0  0  0  0  0  0  0  0  0
    1.2990   -0.2500    0.0000 C   0  0  0  0  0  0  0  0  0  0  0  0
    2.5981    0.5000    0.0000 C   0  0  0  0  0  0  0  0  0  0  0  0
    3.8971   -0.2500    0.0000 C   0  0  0  0  0  0  0  0  0  0  0  0
    3.8971   -1.7500    0.0000 O   0  0  0  0  0  0  0  0  0  0  0  0
    5.1962    0.5000    0.0000 O   0  0  0  0  0  0  0  0  0  0  0  0
   -1.2990   -0.2500    0.0000 C   0  0  0  0  0  0  0  0  0  0  0  0
   -2.5981    0.5000    0.0000 C   0  0  0  0  0  0  0  0  0  0  0  0
   -3.8971   -0.2500    0.0000 C   0  0  0  0  0  0  0  0  0  0  0  0
   -3.8971   -1.7500    0.0000 O   0  0  0  0  0  0  0  0  0  0  0  0
   -5.1962    0.5000    0.0000 O   0  0  0  0  0  0  0  0  0  0  0  0
  1  2  1  0
  2  3  1  0
  3  4  1  0
  4  5  1  0
  5  6  2  0
  5  7  1  0
  2  8  1  0
  8  9  1  0
  9 10  1  0
 10 11  2  0
 10 12  1  0
M  END
>  <rName>  (1561) 
D-a2-carboxyethylGaba

>  <PQ_SYMBOL>  (1561) 
D-a2-carboxyethylGaba

>  <FULL_NAME>  (1561) 
D-4-Aminoheptanedioic acid

>  <IUPAC_CONDENSED>  (1561) 
D-a2-carboxyethylGaba

>  <IUPAC>  (1561) 
4-aminoheptanedioic acid

>  <TYPE>  (1561) 
Backbone

>  <CLASS>  (1561) 
gamma

>  <ANALOG>  (1561) 
Glu

>  <MOL_WT>  (1561) 
175.18399999999997

>  <LOGP>  (1561) 
0.04329999999999962

>  <TPSA>  (1561) 
100.62000000000002

>  <POPULARITY>  (1561) 
4.7

>  <PROTECTED>  (1561) 
FALSE

>  <SMILES>  (1561) 
NC(CCC(=O)O)CCC(=O)O

>  <INCHIKEY>  (1561) 
DMAJAXIBHLWSQM-UHFFFAOYSA-N

$$$$
D-aAllocGaba
     RDKit          2D

 13 12  0  0  0  0  0  0  0  0999 V2000
   -0.2587   -2.0249    0.0000 N   0  0  0  0  0  0  0  0  0  0  0  0
   -0.2892   -0.5252    0.0000 C   0  0  0  0  0  0  0  0  0  0  0  0
    0.9944    0.2510    0.0000 C   0  0  0  0  0  0  0  0  0  0  0  0
    0.9639    1.7507    0.0000 O   0  0  0  0  0  0  0  0  0  0  0  0
    2.3084   -0.4724    0.0000 O   0  0  0  0  0  0  0  0  0  0  0  0
    3.5919    0.3038    0.0000 C   0  0  0  0  0  0  0  0  0  0  0  0
    4.9059   -0.4196    0.0000 C   0  0  0  0  0  0  0  0  0  0  0  0
    6.1894    0.3566    0.0000 C   0  0  0  0  0  0  0  0  0  0  0  0
   -1.6032    0.1982    0.0000 C   0  0  0  0  0  0  0  0  0  0  0  0
   -2.8867   -0.5780    0.0000 C   0  0  0  0  0  0  0  0  0  0  0  0
   -4.2007    0.1455    0.0000 C   0  0  0  0  0  0  0  0  0  0  0  0
   -4.2312    1.6451    0.0000 O   0  0  0  0  0  0  0  0  0  0  0  0
   -5.4842   -0.6308    0.0000 O   0  0  0  0  0  0  0  0  0  0  0  0
  2  1  1  6
  2  3  1  0
  3  4  2  0
  3  5  1  0
  5  6  1  0
  6  7  1  0
  7  8  2  0
  2  9  1  0
  9 10  1  0
 10 11  1  0
 11 12  2  0
 11 13  1  0
M  END
>  <rName>  (1562) 
D-aAllocGaba

>  <PQ_SYMBOL>  (1562) 
D-aAllocGaba

>  <FULL_NAME>  (1562) 
(R)-5-(allyloxy)-4-amino-5-oxopentanoic acid

>  <IUPAC_CONDENSED>  (1562) 
D-aAllocGaba

>  <IUPAC>  (1562) 
(4R)-4-amino-4-(((prop-2-en-1-yl)oxy)carbonyl)butanoic acid

>  <TYPE>  (1562) 
Backbone

>  <CLASS>  (1562) 
gamma

>  <ANALOG>  (1562) 
X

>  <MOL_WT>  (1562) 
187.19499999999996

>  <LOGP>  (1562) 
-0.09230000000000033

>  <TPSA>  (1562) 
89.62000000000002

>  <POPULARITY>  (1562) 
3.6

>  <PROTECTED>  (1562) 
TRUE

>  <SMILES>  (1562) 
N[C@@H](C(=O)OCC=C)CCC(=O)O

>  <INCHIKEY>  (1562) 
RMYWMXHQMALKJA-ZCFIWIBFSA-N

$$$$
D-aBn4-IPro
     RDKit          2D

 16 17  0  0  0  0  0  0  0  0999 V2000
   -2.9757   -0.8685    0.0000 N   0  0  0  0  0  0  0  0  0  0  0  0
   -1.7221   -0.0447    0.0000 C   0  0  0  0  0  0  0  0  0  0  0  0
   -0.5513   -0.9823    0.0000 C   0  0  0  0  0  0  0  0  0  0  0  0
   -1.0813   -2.3856    0.0000 C   0  0  0  0  0  0  0  0  0  0  0  0
   -2.5796   -2.3152    0.0000 C   0  0  0  0  0  0  0  0  0  0  0  0
   -0.6673    1.0217    0.0000 C   0  0  0  0  0  0  0  0  0  0  0  0
    0.7837    0.6414    0.0000 C   0  0  0  0  0  0  0  0  0  0  0  0
    1.8386    1.7078    0.0000 C   0  0  0  0  0  0  0  0  0  0  0  0
    3.2896    1.3274    0.0000 C   0  0  0  0  0  0  0  0  0  0  0  0
    3.6857   -0.1194    0.0000 C   0  0  0  0  0  0  0  0  0  0  0  0
    5.1366   -0.4997    0.0000 I   0  0  0  0  0  0  0  0  0  0  0  0
    2.6308   -1.1858    0.0000 C   0  0  0  0  0  0  0  0  0  0  0  0
    1.1798   -0.8054    0.0000 C   0  0  0  0  0  0  0  0  0  0  0  0
   -2.6724    1.1159    0.0000 C   0  0  0  0  0  0  0  0  0  0  0  0
   -2.1425    2.5192    0.0000 O   0  0  0  0  0  0  0  0  0  0  0  0
   -4.1527    0.8732    0.0000 O   0  0  0  0  0  0  0  0  0  0  0  0
  1  2  1  0
  2  3  1  0
  3  4  1  0
  4  5  1  0
  2  6  1  1
  6  7  1  0
  7  8  1  0
  8  9  2  0
  9 10  1  0
 10 11  1  0
 10 12  2  0
 12 13  1  0
  2 14  1  0
 14 15  2  0
 14 16  1  0
  5  1  1  0
 13  7  2  0
M  END
>  <rName>  (1563) 
D-aBn4-IPro

>  <PQ_SYMBOL>  (1563) 
D-aBn4-IPro

>  <FULL_NAME>  (1563) 
(2R)-2-[(4-iodophenyl)methyl]pyrrolidine-2-carboxylic acid

>  <IUPAC_CONDENSED>  (1563) 
D-aBn(4-I)Pro

>  <IUPAC>  (1563) 
(2R)-2-((4-iodophenyl)methyl)pyrrolidine-2-carboxylic acid

>  <TYPE>  (1563) 
Backbone

>  <CLASS>  (1563) 
alpha

>  <ANALOG>  (1563) 
Pro

>  <MOL_WT>  (1563) 
331.153

>  <LOGP>  (1563) 
2.0405

>  <TPSA>  (1563) 
49.33

>  <POPULARITY>  (1563) 
2.6

>  <PROTECTED>  (1563) 
TRUE

>  <SMILES>  (1563) 
N1[C@](CCC1)(Cc2(ccc(I)cc2))C(=O)O

>  <INCHIKEY>  (1563) 
CLNWOXRWDCFVOR-GFCCVEGCSA-N

$$$$
D-aBn4-OHGaba
     RDKit          2D

 15 15  0  0  0  0  0  0  0  0999 V2000
   -0.6563    1.4280    0.0000 N   0  0  0  0  0  0  0  0  0  0  0  0
   -0.9842   -0.0357    0.0000 C   0  0  0  0  0  0  0  0  0  0  0  0
    0.1194   -1.0515    0.0000 C   0  0  0  0  0  0  0  0  0  0  0  0
    1.5510   -0.6037    0.0000 C   0  0  0  0  0  0  0  0  0  0  0  0
    1.8789    0.8600    0.0000 C   0  0  0  0  0  0  0  0  0  0  0  0
    3.3105    1.3078    0.0000 C   0  0  0  0  0  0  0  0  0  0  0  0
    4.4142    0.2919    0.0000 C   0  0  0  0  0  0  0  0  0  0  0  0
    5.8457    0.7397    0.0000 O   0  0  0  0  0  0  0  0  0  0  0  0
    4.0862   -1.1718    0.0000 C   0  0  0  0  0  0  0  0  0  0  0  0
    2.6546   -1.6196    0.0000 C   0  0  0  0  0  0  0  0  0  0  0  0
   -2.4158   -0.4835    0.0000 C   0  0  0  0  0  0  0  0  0  0  0  0
   -3.5195    0.5324    0.0000 C   0  0  0  0  0  0  0  0  0  0  0  0
   -4.9510    0.0846    0.0000 C   0  0  0  0  0  0  0  0  0  0  0  0
   -5.2790   -1.3791    0.0000 O   0  0  0  0  0  0  0  0  0  0  0  0
   -6.0547    1.1005    0.0000 O   0  0  0  0  0  0  0  0  0  0  0  0
  2  1  1  1
  2  3  1  0
  3  4  1  0
  4  5  1  0
  5  6  2  0
  6  7  1  0
  7  8  1  0
  7  9  2  0
  9 10  1  0
  2 11  1  0
 11 12  1  0
 12 13  1  0
 13 14  2  0
 13 15  1  0
 10  4  2  0
M  END
>  <rName>  (1564) 
D-aBn4-OHGaba

>  <PQ_SYMBOL>  (1564) 
D-aBn4-OHGaba

>  <FULL_NAME>  (1564) 
(R)-4-amino-5-(4-hydroxyphenyl)pentanoic acid

>  <IUPAC_CONDENSED>  (1564) 
D-aBn(4-OH)Gaba

>  <IUPAC>  (1564) 
(4R)-4-amino-5-(4-hydroxyphenyl)pentanoic acid

>  <TYPE>  (1564) 
Backbone

>  <CLASS>  (1564) 
gamma

>  <ANALOG>  (1564) 
Tyr

>  <MOL_WT>  (1564) 
209.24499999999995

>  <LOGP>  (1564) 
1.1268000000000002

>  <TPSA>  (1564) 
83.55

>  <POPULARITY>  (1564) 
8.0

>  <PROTECTED>  (1564) 
TRUE

>  <SMILES>  (1564) 
N[C@@H](Cc1(ccc(O)cc1))CCC(=O)O

>  <INCHIKEY>  (1564) 
VHWBYQPKMIHOSS-SECBINFHSA-N

$$$$
D-aBn4-OMeGaba
     RDKit          2D

 16 16  0  0  0  0  0  0  0  0999 V2000
   -1.1017    1.4369    0.0000 N   0  0  0  0  0  0  0  0  0  0  0  0
   -1.4184   -0.0293    0.0000 C   0  0  0  0  0  0  0  0  0  0  0  0
   -0.3070   -1.0367    0.0000 C   0  0  0  0  0  0  0  0  0  0  0  0
    1.1211   -0.5779    0.0000 C   0  0  0  0  0  0  0  0  0  0  0  0
    1.4378    0.8883    0.0000 C   0  0  0  0  0  0  0  0  0  0  0  0
    2.8659    1.3471    0.0000 C   0  0  0  0  0  0  0  0  0  0  0  0
    3.9773    0.3398    0.0000 C   0  0  0  0  0  0  0  0  0  0  0  0
    5.4054    0.7986    0.0000 O   0  0  0  0  0  0  0  0  0  0  0  0
    6.5168   -0.2088    0.0000 C   0  0  0  0  0  0  0  0  0  0  0  0
    3.6606   -1.1264    0.0000 C   0  0  0  0  0  0  0  0  0  0  0  0
    2.2325   -1.5852    0.0000 C   0  0  0  0  0  0  0  0  0  0  0  0
   -2.8465   -0.4881    0.0000 C   0  0  0  0  0  0  0  0  0  0  0  0
   -3.9579    0.5192    0.0000 C   0  0  0  0  0  0  0  0  0  0  0  0
   -5.3860    0.0604    0.0000 C   0  0  0  0  0  0  0  0  0  0  0  0
   -5.7027   -1.4058    0.0000 O   0  0  0  0  0  0  0  0  0  0  0  0
   -6.4974    1.0678    0.0000 O   0  0  0  0  0  0  0  0  0  0  0  0
  2  1  1  1
  2  3  1  0
  3  4  1  0
  4  5  1  0
  5  6  2  0
  6  7  1  0
  7  8  1  0
  8  9  1  0
  7 10  2  0
 10 11  1  0
  2 12  1  0
 12 13  1  0
 13 14  1  0
 14 15  2  0
 14 16  1  0
 11  4  2  0
M  END
>  <rName>  (1565) 
D-aBn4-OMeGaba

>  <PQ_SYMBOL>  (1565) 
D-aBn4-OMeGaba

>  <FULL_NAME>  (1565) 
(R)-4-amino-5-(4-methoxyphenyl)pentanoic acid

>  <IUPAC_CONDENSED>  (1565) 
D-aBn(4-OMe)Gaba

>  <IUPAC>  (1565) 
(4R)-4-amino-5-(4-methoxyphenyl)pentanoic acid

>  <TYPE>  (1565) 
Backbone

>  <CLASS>  (1565) 
gamma

>  <ANALOG>  (1565) 
Tyr

>  <MOL_WT>  (1565) 
223.27199999999996

>  <LOGP>  (1565) 
1.4298000000000002

>  <TPSA>  (1565) 
72.55

>  <POPULARITY>  (1565) 
6.4

>  <PROTECTED>  (1565) 
TRUE

>  <SMILES>  (1565) 
N[C@@H](Cc1(ccc(OC)cc1))CCC(=O)O

>  <INCHIKEY>  (1565) 
XXPONAYSCHUORW-SNVBAGLBSA-N

$$$$
D-aBnGaba
     RDKit          2D

 14 14  0  0  0  0  0  0  0  0999 V2000
   -0.2835    1.4730    0.0000 N   0  0  0  0  0  0  0  0  0  0  0  0
   -0.5669    0.0000    0.0000 C   0  0  0  0  0  0  0  0  0  0  0  0
    0.5669   -0.9820    0.0000 C   0  0  0  0  0  0  0  0  0  0  0  0
    1.9843   -0.4910    0.0000 C   0  0  0  0  0  0  0  0  0  0  0  0
    2.2678    0.9820    0.0000 C   0  0  0  0  0  0  0  0  0  0  0  0
    3.6852    1.4730    0.0000 C   0  0  0  0  0  0  0  0  0  0  0  0
    4.8190    0.4910    0.0000 C   0  0  0  0  0  0  0  0  0  0  0  0
    4.5356   -0.9820    0.0000 C   0  0  0  0  0  0  0  0  0  0  0  0
    3.1182   -1.4730    0.0000 C   0  0  0  0  0  0  0  0  0  0  0  0
   -1.9843   -0.4910    0.0000 C   0  0  0  0  0  0  0  0  0  0  0  0
   -3.1182    0.4910    0.0000 C   0  0  0  0  0  0  0  0  0  0  0  0
   -4.5356    0.0000    0.0000 C   0  0  0  0  0  0  0  0  0  0  0  0
   -4.8190   -1.4730    0.0000 O   0  0  0  0  0  0  0  0  0  0  0  0
   -5.6695    0.9820    0.0000 O   0  0  0  0  0  0  0  0  0  0  0  0
  2  1  1  1
  2  3  1  0
  3  4  1  0
  4  5  2  0
  5  6  1  0
  6  7  2  0
  7  8  1  0
  8  9  2  0
  2 10  1  0
 10 11  1  0
 11 12  1  0
 12 13  2  0
 12 14  1  0
  9  4  1  0
M  END
>  <rName>  (1566) 
D-aBnGaba

>  <PQ_SYMBOL>  (1566) 
D-aBnGaba

>  <FULL_NAME>  (1566) 
(4R)-4-amino-5-phenylpentanoic acid

>  <IUPAC_CONDENSED>  (1566) 
D-aBnGaba

>  <IUPAC>  (1566) 
(4R)-4-amino-5-phenylpentanoic acid

>  <TYPE>  (1566) 
Backbone

>  <CLASS>  (1566) 
gamma

>  <ANALOG>  (1566) 
Phe

>  <MOL_WT>  (1566) 
193.24599999999992

>  <LOGP>  (1566) 
1.4212

>  <TPSA>  (1566) 
63.32000000000001

>  <POPULARITY>  (1566) 
10.3

>  <PROTECTED>  (1566) 
TRUE

>  <SMILES>  (1566) 
N[C@@H](Cc1(ccccc1))CCC(=O)O

>  <INCHIKEY>  (1566) 
URBAOHLJWLYLQE-SNVBAGLBSA-N

$$$$
D-aBuGaba
     RDKit          2D

 11 10  0  0  0  0  0  0  0  0999 V2000
   -1.0628    2.2500    0.0000 N   0  0  0  0  0  0  0  0  0  0  0  0
   -1.0628    0.7500    0.0000 C   0  0  0  0  0  0  0  0  0  0  0  0
   -2.3619    0.0000    0.0000 C   0  0  0  0  0  0  0  0  0  0  0  0
   -3.6609    0.7500    0.0000 C   0  0  0  0  0  0  0  0  0  0  0  0
   -2.3619   -1.5000    0.0000 C   0  0  0  0  0  0  0  0  0  0  0  0
   -1.0628   -2.2500    0.0000 C   0  0  0  0  0  0  0  0  0  0  0  0
    0.2362    0.0000    0.0000 C   0  0  0  0  0  0  0  0  0  0  0  0
    1.5352    0.7500    0.0000 C   0  0  0  0  0  0  0  0  0  0  0  0
    2.8343    0.0000    0.0000 C   0  0  0  0  0  0  0  0  0  0  0  0
    2.8343   -1.5000    0.0000 O   0  0  0  0  0  0  0  0  0  0  0  0
    4.1333    0.7500    0.0000 O   0  0  0  0  0  0  0  0  0  0  0  0
  2  1  1  6
  2  3  1  0
  3  4  1  6
  3  5  1  0
  5  6  1  0
  2  7  1  0
  7  8  1  0
  8  9  1  0
  9 10  2  0
  9 11  1  0
M  END
>  <rName>  (1567) 
D-aBuGaba

>  <PQ_SYMBOL>  (1567) 
D-aBuGaba

>  <FULL_NAME>  (1567) 
(4R,5S)-4-amino-5-methylheptanoic acid

>  <IUPAC_CONDENSED>  (1567) 
D-aBuGaba

>  <IUPAC>  (1567) 
(4R,5S)-4-amino-5-methylheptanoic acid

>  <TYPE>  (1567) 
Backbone

>  <CLASS>  (1567) 
gamma

>  <ANALOG>  (1567) 
Ile

>  <MOL_WT>  (1567) 
159.229

>  <LOGP>  (1567) 
1.2245999999999997

>  <TPSA>  (1567) 
63.32000000000001

>  <POPULARITY>  (1567) 
10.6

>  <PROTECTED>  (1567) 
TRUE

>  <SMILES>  (1567) 
N[C@@H]([C@@H](C)CC)CCC(=O)O

>  <INCHIKEY>  (1567) 
DVEQYBXCFNPUGR-NKWVEPMBSA-N

$$$$
D-aCF3Gaba3S-OH-OMe
     RDKit          2D

 13 12  0  0  0  0  0  0  0  0999 V2000
    1.4780    2.1398    0.0000 N   0  0  0  0  0  0  0  0  0  0  0  0
    1.4233    0.6408    0.0000 C   0  0  0  0  0  0  0  0  0  0  0  0
    2.6941   -0.1560    0.0000 C   0  0  0  0  0  0  0  0  0  0  0  0
    3.9649   -0.9529    0.0000 F   0  0  0  0  0  0  0  0  0  0  0  0
    3.4910    1.1148    0.0000 F   0  0  0  0  0  0  0  0  0  0  0  0
    1.8972   -1.4269    0.0000 F   0  0  0  0  0  0  0  0  0  0  0  0
    0.0978   -0.0613    0.0000 C   0  0  0  0  0  0  0  0  0  0  0  0
    0.0431   -1.5603    0.0000 O   0  0  0  0  0  0  0  0  0  0  0  0
   -1.1731    0.7356    0.0000 C   0  0  0  0  0  0  0  0  0  0  0  0
   -2.4986    0.0334    0.0000 C   0  0  0  0  0  0  0  0  0  0  0  0
   -2.5533   -1.4656    0.0000 O   0  0  0  0  0  0  0  0  0  0  0  0
   -3.7694    0.8303    0.0000 O   0  0  0  0  0  0  0  0  0  0  0  0
   -5.0949    0.1282    0.0000 C   0  0  0  0  0  0  0  0  0  0  0  0
  2  1  1  1
  2  3  1  0
  3  4  1  0
  3  5  1  0
  3  6  1  0
  2  7  1  0
  7  8  1  1
  7  9  1  0
  9 10  1  0
 10 11  2  0
 10 12  1  0
 12 13  1  0
M  END
>  <rName>  (1568) 
D-aCF3Gaba3S-OH-OMe

>  <PQ_SYMBOL>  (1568) 
D-aCF3Gaba3S-OH-OMe

>  <FULL_NAME>  (1568) 
methyl 4-amino-2,4,5-trideoxy-5,5,5-trifluoro-L-threo-pentonate

>  <IUPAC_CONDENSED>  (1568) 
D-aCF3Gaba(3S-OH)-OMe

>  <IUPAC>  (1568) 
methyl (3S,4R)-4-amino-5,5,5-trifluoro-3-hydroxypentanoate

>  <TYPE>  (1568) 
C-term cap

>  <CLASS>  (1568) 
c_cap

>  <ANALOG>  (1568) 
X

>  <MOL_WT>  (1568) 
201.14399999999998

>  <LOGP>  (1568) 
-0.19999999999999996

>  <TPSA>  (1568) 
72.55

>  <POPULARITY>  (1568) 
0.3

>  <PROTECTED>  (1568) 
FALSE

>  <SMILES>  (1568) 
N[C@@H](C(F)(F)F)[C@@H](O)CC(=O)OC

>  <INCHIKEY>  (1568) 
ZVARBPCHAKEWAX-WVZVXSGGSA-N

$$$$
D-aCH2CH2SMeGaba
     RDKit          2D

 11 10  0  0  0  0  0  0  0  0999 V2000
   -0.4808   -1.8120    0.0000 N   0  0  0  0  0  0  0  0  0  0  0  0
   -0.3770   -0.3156    0.0000 C   0  0  0  0  0  0  0  0  0  0  0  0
   -1.6211    0.5225    0.0000 C   0  0  0  0  0  0  0  0  0  0  0  0
   -2.9689   -0.1359    0.0000 C   0  0  0  0  0  0  0  0  0  0  0  0
   -4.2129    0.7022    0.0000 S   0  0  0  0  0  0  0  0  0  0  0  0
   -5.5607    0.0439    0.0000 C   0  0  0  0  0  0  0  0  0  0  0  0
    0.9708    0.3428    0.0000 C   0  0  0  0  0  0  0  0  0  0  0  0
    2.2148   -0.4953    0.0000 C   0  0  0  0  0  0  0  0  0  0  0  0
    3.5626    0.1630    0.0000 C   0  0  0  0  0  0  0  0  0  0  0  0
    3.6664    1.6594    0.0000 O   0  0  0  0  0  0  0  0  0  0  0  0
    4.8067   -0.6750    0.0000 O   0  0  0  0  0  0  0  0  0  0  0  0
  2  1  1  1
  2  3  1  0
  3  4  1  0
  4  5  1  0
  5  6  1  0
  2  7  1  0
  7  8  1  0
  8  9  1  0
  9 10  2  0
  9 11  1  0
M  END
>  <rName>  (1569) 
D-aCH2CH2SMeGaba

>  <PQ_SYMBOL>  (1569) 
D-aCH2CH2SMeGaba

>  <FULL_NAME>  (1569) 
(4R)-4-amino-6-methylsulfanylhexanoic acid

>  <IUPAC_CONDENSED>  (1569) 
D-aCH2CH2SMeGaba

>  <IUPAC>  (1569) 
(4R)-4-amino-6-methylsulfanylhexanoic acid

>  <TYPE>  (1569) 
Backbone

>  <CLASS>  (1569) 
gamma

>  <ANALOG>  (1569) 
Met

>  <MOL_WT>  (1569) 
177.26899999999998

>  <LOGP>  (1569) 
0.9316

>  <TPSA>  (1569) 
63.32000000000001

>  <POPULARITY>  (1569) 
2.2

>  <PROTECTED>  (1569) 
TRUE

>  <SMILES>  (1569) 
N[C@@H](CCSC)CCC(=O)O

>  <INCHIKEY>  (1569) 
DHLZRSINQWCGQE-ZCFIWIBFSA-N

$$$$
D-aCHOHMeGaba
     RDKit          2D

 10  9  0  0  0  0  0  0  0  0999 V2000
   -1.2717   -1.9622    0.0000 N   0  0  0  0  0  0  0  0  0  0  0  0
   -1.1946   -0.4642    0.0000 C   0  0  0  0  0  0  0  0  0  0  0  0
   -2.4533    0.3516    0.0000 C   0  0  0  0  0  0  0  0  0  0  0  0
   -2.3762    1.8496    0.0000 O   0  0  0  0  0  0  0  0  0  0  0  0
   -3.7892   -0.3306    0.0000 C   0  0  0  0  0  0  0  0  0  0  0  0
    0.1413    0.2180    0.0000 C   0  0  0  0  0  0  0  0  0  0  0  0
    1.4001   -0.5978    0.0000 C   0  0  0  0  0  0  0  0  0  0  0  0
    2.7359    0.0845    0.0000 C   0  0  0  0  0  0  0  0  0  0  0  0
    2.8131    1.5825    0.0000 O   0  0  0  0  0  0  0  0  0  0  0  0
    3.9947   -0.7313    0.0000 O   0  0  0  0  0  0  0  0  0  0  0  0
  2  1  1  1
  2  3  1  0
  3  4  1  0
  3  5  1  1
  2  6  1  0
  6  7  1  0
  7  8  1  0
  8  9  2  0
  8 10  1  0
M  END
>  <rName>  (1570) 
D-aCHOHMeGaba

>  <PQ_SYMBOL>  (1570) 
D-aCHOHMeGaba

>  <FULL_NAME>  (1570) 
(4R,5R)-4-amino-5-hydroxyhexanoic acid

>  <IUPAC_CONDENSED>  (1570) 
D-aCH(OH)MeGaba

>  <IUPAC>  (1570) 
(4R,5R)-4-amino-5-hydroxyhexanoic acid

>  <TYPE>  (1570) 
Backbone

>  <CLASS>  (1570) 
gamma

>  <ANALOG>  (1570) 
Thr

>  <MOL_WT>  (1570) 
147.174

>  <LOGP>  (1570) 
-0.4407000000000008

>  <TPSA>  (1570) 
83.55

>  <POPULARITY>  (1570) 
2.2

>  <PROTECTED>  (1570) 
TRUE

>  <SMILES>  (1570) 
N[C@@H]([C@H](O)C)CCC(=O)O

>  <INCHIKEY>  (1570) 
KQVZQZMTPOUJTI-RFZPGFLSSA-N

$$$$
D-aCbzGaba
     RDKit          2D

 33 34  0  0  0  0  0  0  0  0999 V2000
   -6.6934    1.9374    0.0000 N   0  0  0  0  0  0  0  0  0  0  0  0
   -6.9899    0.4670    0.0000 C   0  0  0  0  0  0  0  0  0  0  0  0
   -5.8648   -0.5250    0.0000 C   0  0  0  0  0  0  0  0  0  0  0  0
   -6.1613   -1.9954    0.0000 O   0  0  0  0  0  0  0  0  0  0  0  0
   -4.4431   -0.0466    0.0000 O   0  0  0  0  0  0  0  0  0  0  0  0
   -3.3180   -1.0386    0.0000 C   0  0  0  0  0  0  0  0  0  0  0  0
   -1.8963   -0.5602    0.0000 C   0  0  0  0  0  0  0  0  0  0  0  0
   -1.5998    0.9102    0.0000 C   0  0  0  0  0  0  0  0  0  0  0  0
   -0.1781    1.3886    0.0000 C   0  0  0  0  0  0  0  0  0  0  0  0
    0.9470    0.3967    0.0000 C   0  0  0  0  0  0  0  0  0  0  0  0
    2.3687    0.8751    0.0000 N   0  0  0  0  0  0  0  0  0  0  0  0
    3.4938   -0.1169    0.0000 C   0  0  0  0  0  0  0  0  0  0  0  0
    3.1973   -1.5873    0.0000 C   0  0  0  0  0  0  0  0  0  0  0  0
    4.3224   -2.5793    0.0000 C   0  0  0  0  0  0  0  0  0  0  0  0
    4.0259   -4.0497    0.0000 C   0  0  0  0  0  0  0  0  0  0  0  0
    5.3936   -2.3595    0.0000 C   0  0  0  0  0  0  0  0  0  0  0  0
    4.9155    0.3615    0.0000 C   0  0  0  0  0  0  0  0  0  0  0  0
    6.0406   -0.6305    0.0000 C   0  0  0  0  0  0  0  0  0  0  0  0
    5.9567   -1.7208    0.0000 O   0  0  0  0  0  0  0  0  0  0  0  0
    7.4623   -0.1521    0.0000 C   0  0  0  0  0  0  0  0  0  0  0  0
    7.7588    1.3183    0.0000 C   0  0  0  0  0  0  0  0  0  0  0  0
    8.5403    2.5986    0.0000 C   0  0  0  0  0  0  0  0  0  0  0  0
    9.1554    0.7710    0.0000 C   0  0  0  0  0  0  0  0  0  0  0  0
    6.6336    2.3103    0.0000 C   0  0  0  0  0  0  0  0  0  0  0  0
    5.2120    1.8319    0.0000 C   0  0  0  0  0  0  0  0  0  0  0  0
    4.0868    2.8239    0.0000 O   0  0  0  0  0  0  0  0  0  0  0  0
    0.6505   -1.0737    0.0000 C   0  0  0  0  0  0  0  0  0  0  0  0
   -0.7712   -1.5522    0.0000 C   0  0  0  0  0  0  0  0  0  0  0  0
   -8.4116   -0.0114    0.0000 C   0  0  0  0  0  0  0  0  0  0  0  0
   -9.5368    0.9806    0.0000 C   0  0  0  0  0  0  0  0  0  0  0  0
  -10.9584    0.5022    0.0000 C   0  0  0  0  0  0  0  0  0  0  0  0
  -11.2549   -0.9682    0.0000 O   0  0  0  0  0  0  0  0  0  0  0  0
  -12.0836    1.4941    0.0000 O   0  0  0  0  0  0  0  0  0  0  0  0
  2  1  1  1
  2  3  1  0
  3  4  2  0
  3  5  1  0
  5  6  1  0
  6  7  1  0
  7  8  1  0
  8  9  2  0
  9 10  1  0
 10 11  1  0
 11 12  2  0
 12 13  1  0
 13 14  1  0
 14 15  1  0
 14 16  1  0
 12 17  1  0
 17 18  2  0
 18 19  1  0
 18 20  1  0
 20 21  1  0
 21 22  1  0
 21 23  1  0
 21 24  1  0
 24 25  1  0
 25 26  2  0
 10 27  2  0
 27 28  1  0
  2 29  1  0
 29 30  1  0
 30 31  1  0
 31 32  2  0
 31 33  1  0
 28  7  2  0
 25 17  1  0
M  END
>  <rName>  (1571) 
D-aCbzGaba

>  <PQ_SYMBOL>  (1571) 
D-aCbzGaba

>  <FULL_NAME>  (1571) 
(R,E)-4-amino-5-((4-((1-(2-hydroxy-4,4-dimethyl-6-oxocyclohex-1-en-1-yl)-3-methylbutylidene)amino)benzyl)oxy)-5-oxopentanoic acid

>  <IUPAC_CONDENSED>  (1571) 
D-aCbzGaba

>  <IUPAC>  (1571) 
(4R)-4-amino-4-(((4-(((1E)-1-(2-hydroxy-4,4-dimethyl-6-oxocyclohex-1-en-1-yl)-3-methylbutylidene)amino)phenyl)methoxy)carbonyl)butanoic acid

>  <TYPE>  (1571) 
Backbone

>  <CLASS>  (1571) 
gamma

>  <ANALOG>  (1571) 
X

>  <MOL_WT>  (1571) 
458.5550000000003

>  <LOGP>  (1571) 
4.2417000000000025

>  <TPSA>  (1571) 
139.28

>  <POPULARITY>  (1571) 
2.5

>  <PROTECTED>  (1571) 
TRUE

>  <SMILES>  (1571) 
N[C@@H](C(=O)OCc1ccc(/N=C(\CC(C)C)C2=C(O)CC(C)(C)CC2=O)cc1)CCC(=O)O

>  <INCHIKEY>  (1571) 
KWWLZERSYBBUCA-QPMDJBEASA-N

$$$$
D-aHyp
     RDKit          2D

  9  9  0  0  0  0  0  0  0  0999 V2000
   -0.1792   -1.4541    0.0000 N   0  0  0  0  0  0  0  0  0  0  0  0
    0.4598   -0.0969    0.0000 C   0  0  0  0  0  0  0  0  0  0  0  0
   -0.6334    0.9301    0.0000 C   0  0  0  0  0  0  0  0  0  0  0  0
   -1.9481    0.2077    0.0000 C   0  0  0  0  0  0  0  0  0  0  0  0
   -3.3052    0.8467    0.0000 O   0  0  0  0  0  0  0  0  0  0  0  0
   -1.6673   -1.2657    0.0000 C   0  0  0  0  0  0  0  0  0  0  0  0
    1.9333    0.1838    0.0000 C   0  0  0  0  0  0  0  0  0  0  0  0
    2.4269    1.6003    0.0000 O   0  0  0  0  0  0  0  0  0  0  0  0
    2.9132   -0.9519    0.0000 O   0  0  0  0  0  0  0  0  0  0  0  0
  1  2  1  0
  2  3  1  0
  3  4  1  0
  4  5  1  6
  4  6  1  0
  2  7  1  6
  7  8  2  0
  7  9  1  0
  6  1  1  0
M  END
>  <rName>  (1572) 
D-aHyp

>  <PQ_SYMBOL>  (1572) 
D-aHyp

>  <FULL_NAME>  (1572) 
cis-4-Hydroxy-D-proline

>  <IUPAC_CONDENSED>  (1572) 
D-aHyp

>  <IUPAC>  (1572) 
(2R,4R)-4-hydroxypyrrolidine-2-carboxylic acid

>  <TYPE>  (1572) 
Backbone

>  <CLASS>  (1572) 
alpha

>  <ANALOG>  (1572) 
Pro

>  <MOL_WT>  (1572) 
131.131

>  <LOGP>  (1572) 
-1.2062000000000004

>  <TPSA>  (1572) 
69.56

>  <POPULARITY>  (1572) 
18.8

>  <PROTECTED>  (1572) 
TRUE

>  <SMILES>  (1572) 
N1[C@H](C[C@@H](O)C1)C(=O)O

>  <INCHIKEY>  (1572) 
PMMYEEVYMWASQN-QWWZWVQMSA-N

$$$$
D-aHyp_3SOH
     RDKit          2D

 10 10  0  0  0  0  0  0  0  0999 V2000
   -0.0611   -1.7001    0.0000 N   0  0  0  0  0  0  0  0  0  0  0  0
    0.5185   -0.3166    0.0000 C   0  0  0  0  0  0  0  0  0  0  0  0
   -0.6182    0.6621    0.0000 C   0  0  0  0  0  0  0  0  0  0  0  0
   -0.4944    2.1570    0.0000 O   0  0  0  0  0  0  0  0  0  0  0  0
   -1.9003   -0.1164    0.0000 C   0  0  0  0  0  0  0  0  0  0  0  0
   -3.2838    0.4632    0.0000 O   0  0  0  0  0  0  0  0  0  0  0  0
   -1.5560   -1.5764    0.0000 C   0  0  0  0  0  0  0  0  0  0  0  0
    1.9785    0.0276    0.0000 C   0  0  0  0  0  0  0  0  0  0  0  0
    2.4103    1.4641    0.0000 O   0  0  0  0  0  0  0  0  0  0  0  0
    3.0066   -1.0646    0.0000 O   0  0  0  0  0  0  0  0  0  0  0  0
  1  2  1  0
  2  3  1  0
  3  4  1  1
  3  5  1  0
  5  6  1  1
  5  7  1  0
  2  8  1  6
  8  9  2  0
  8 10  1  0
  7  1  1  0
M  END
>  <rName>  (1573) 
D-aHyp_3SOH

>  <PQ_SYMBOL>  (1573) 
D-aHyp_3SOH

>  <FULL_NAME>  (1573) 
(2R,3S,4R)-3,4-Dihydroxypyrrolidine-2-carboxylic acid

>  <IUPAC_CONDENSED>  (1573) 
D-aHyp(3S-OH)

>  <IUPAC>  (1573) 
(2R,3S,4R)-3,4-dihydroxypyrrolidine-2-carboxylic acid

>  <TYPE>  (1573) 
Backbone

>  <CLASS>  (1573) 
alpha

>  <ANALOG>  (1573) 
Pro

>  <MOL_WT>  (1573) 
147.13

>  <LOGP>  (1573) 
-2.2354000000000003

>  <TPSA>  (1573) 
89.79

>  <POPULARITY>  (1573) 
4.4

>  <PROTECTED>  (1573) 
TRUE

>  <SMILES>  (1573) 
N1[C@H]([C@H](O)[C@H](O)C1)C(=O)O

>  <INCHIKEY>  (1573) 
HWNGLKPRXKKTPK-BXXZVTAOSA-N

$$$$
D-aHyp_CHF2
     RDKit          2D

 12 12  0  0  0  0  0  0  0  0999 V2000
    1.5111   -1.6952    0.0000 N   0  0  0  0  0  0  0  0  0  0  0  0
    1.5414   -0.1955    0.0000 C   0  0  0  0  0  0  0  0  0  0  0  0
    0.1245    0.2967    0.0000 C   0  0  0  0  0  0  0  0  0  0  0  0
   -0.7815   -0.8988    0.0000 C   0  0  0  0  0  0  0  0  0  0  0  0
   -2.2812   -0.8686    0.0000 O   0  0  0  0  0  0  0  0  0  0  0  0
   -3.0049    0.4453    0.0000 C   0  0  0  0  0  0  0  0  0  0  0  0
   -4.5046    0.4756    0.0000 F   0  0  0  0  0  0  0  0  0  0  0  0
   -2.2288    1.7290    0.0000 F   0  0  0  0  0  0  0  0  0  0  0  0
    0.0755   -2.1299    0.0000 C   0  0  0  0  0  0  0  0  0  0  0  0
    2.7725    0.6615    0.0000 C   0  0  0  0  0  0  0  0  0  0  0  0
    2.6458    2.1561    0.0000 O   0  0  0  0  0  0  0  0  0  0  0  0
    4.1302    0.0239    0.0000 O   0  0  0  0  0  0  0  0  0  0  0  0
  1  2  1  0
  2  3  1  0
  3  4  1  0
  4  5  1  6
  5  6  1  0
  6  7  1  0
  6  8  1  0
  4  9  1  0
  2 10  1  6
 10 11  2  0
 10 12  1  0
  9  1  1  0
M  END
>  <rName>  (1574) 
D-aHyp_CHF2

>  <PQ_SYMBOL>  (1574) 
D-aHyp_CHF2

>  <FULL_NAME>  (1574) 
(2R,4R)-4-(difluoromethoxy)pyrrolidine-2-carboxylic acid

>  <IUPAC_CONDENSED>  (1574) 
D-aHyp(CHF2)

>  <IUPAC>  (1574) 
(2R,4R)-4-((difluoromethyl)oxy)pyrrolidine-2-carboxylic acid

>  <TYPE>  (1574) 
Backbone

>  <CLASS>  (1574) 
alpha

>  <ANALOG>  (1574) 
Pro

>  <MOL_WT>  (1574) 
181.138

>  <LOGP>  (1574) 
0.0406999999999999

>  <TPSA>  (1574) 
58.56

>  <POPULARITY>  (1574) 
3.2

>  <PROTECTED>  (1574) 
TRUE

>  <SMILES>  (1574) 
N1[C@H](C[C@@H](OC(F)F)C1)C(=O)O

>  <INCHIKEY>  (1574) 
YYWVQGXOBZCIRD-QWWZWVQMSA-N

$$$$
D-aHyp_Me
     RDKit          2D

 10 10  0  0  0  0  0  0  0  0999 V2000
    0.5059   -1.6189    0.0000 N   0  0  0  0  0  0  0  0  0  0  0  0
    0.8536   -0.1598    0.0000 C   0  0  0  0  0  0  0  0  0  0  0  0
   -0.4267    0.6218    0.0000 C   0  0  0  0  0  0  0  0  0  0  0  0
   -1.5656   -0.3543    0.0000 C   0  0  0  0  0  0  0  0  0  0  0  0
   -3.0248   -0.0066    0.0000 O   0  0  0  0  0  0  0  0  0  0  0  0
   -3.4533    1.4309    0.0000 C   0  0  0  0  0  0  0  0  0  0  0  0
   -0.9893   -1.7392    0.0000 C   0  0  0  0  0  0  0  0  0  0  0  0
    2.2384    0.4166    0.0000 C   0  0  0  0  0  0  0  0  0  0  0  0
    2.4317    1.9041    0.0000 O   0  0  0  0  0  0  0  0  0  0  0  0
    3.4300   -0.4945    0.0000 O   0  0  0  0  0  0  0  0  0  0  0  0
  1  2  1  0
  2  3  1  0
  3  4  1  0
  4  5  1  6
  5  6  1  0
  4  7  1  0
  2  8  1  6
  8  9  2  0
  8 10  1  0
  7  1  1  0
M  END
>  <rName>  (1575) 
D-aHyp_Me

>  <PQ_SYMBOL>  (1575) 
D-aHyp_Me

>  <FULL_NAME>  (1575) 
(2R,4R)-4-Methoxypyrrolidine-2-carboxylic acid

>  <IUPAC_CONDENSED>  (1575) 
D-aHyp(Me)

>  <IUPAC>  (1575) 
(2R,4R)-4-methoxypyrrolidine-2-carboxylic acid

>  <TYPE>  (1575) 
Backbone

>  <CLASS>  (1575) 
alpha

>  <ANALOG>  (1575) 
Pro

>  <MOL_WT>  (1575) 
145.15800000000002

>  <LOGP>  (1575) 
-0.5521

>  <TPSA>  (1575) 
58.56

>  <POPULARITY>  (1575) 
9.0

>  <PROTECTED>  (1575) 
TRUE

>  <SMILES>  (1575) 
N1[C@H](C[C@@H](OC)C1)C(=O)O

>  <INCHIKEY>  (1575) 
RNXKXUOGQKYKTH-RFZPGFLSSA-N

$$$$
D-aHyp_prop2ynyl
     RDKit          2D

 12 12  0  0  0  0  0  0  0  0999 V2000
    1.8182   -1.6019    0.0000 N   0  0  0  0  0  0  0  0  0  0  0  0
    1.8556   -0.1023    0.0000 C   0  0  0  0  0  0  0  0  0  0  0  0
    0.4409    0.3965    0.0000 C   0  0  0  0  0  0  0  0  0  0  0  0
   -0.4706   -0.7947    0.0000 C   0  0  0  0  0  0  0  0  0  0  0  0
   -1.9702   -0.7574    0.0000 O   0  0  0  0  0  0  0  0  0  0  0  0
   -2.6876    0.5599    0.0000 C   0  0  0  0  0  0  0  0  0  0  0  0
   -4.1872    0.5972    0.0000 C   0  0  0  0  0  0  0  0  0  0  0  0
   -5.6867    0.6345    0.0000 C   0  0  0  0  0  0  0  0  0  0  0  0
    0.3806   -2.0298    0.0000 C   0  0  0  0  0  0  0  0  0  0  0  0
    3.0906    0.7489    0.0000 C   0  0  0  0  0  0  0  0  0  0  0  0
    2.9710    2.2441    0.0000 O   0  0  0  0  0  0  0  0  0  0  0  0
    4.4454    0.1049    0.0000 O   0  0  0  0  0  0  0  0  0  0  0  0
  1  2  1  0
  2  3  1  0
  3  4  1  0
  4  5  1  6
  5  6  1  0
  6  7  1  0
  7  8  3  0
  4  9  1  0
  2 10  1  6
 10 11  2  0
 10 12  1  0
  9  1  1  0
M  END
>  <rName>  (1576) 
D-aHyp_prop2ynyl

>  <PQ_SYMBOL>  (1576) 
D-aHyp_prop2ynyl

>  <FULL_NAME>  (1576) 
D-aHyp(prop-2-ynyl)

>  <IUPAC_CONDENSED>  (1576) 
D-aHyp(prop-2-ynyl)

>  <IUPAC>  (1576) 
(2R,4R)-4-((prop-2-yn-1-yl)oxy)pyrrolidine-2-carboxylic acid

>  <TYPE>  (1576) 
Backbone

>  <CLASS>  (1576) 
alpha

>  <ANALOG>  (1576) 
Pro

>  <MOL_WT>  (1576) 
169.18

>  <LOGP>  (1576) 
-0.5487

>  <TPSA>  (1576) 
58.56

>  <POPULARITY>  (1576) 
2.2

>  <PROTECTED>  (1576) 
TRUE

>  <SMILES>  (1576) 
N1[C@H](C[C@@H](OCC#C)C1)C(=O)O

>  <INCHIKEY>  (1576) 
ZXFXGGZFTHVWKF-RNFRBKRXSA-N

$$$$
D-aIle
     RDKit          2D

  9  8  0  0  0  0  0  0  0  0999 V2000
    0.0000    2.3333    0.0000 N   0  0  0  0  0  0  0  0  0  0  0  0
    0.0000    0.8333    0.0000 C   0  0  0  0  0  0  0  0  0  0  0  0
   -1.2990    0.0833    0.0000 C   0  0  0  0  0  0  0  0  0  0  0  0
   -2.5981    0.8333    0.0000 C   0  0  0  0  0  0  0  0  0  0  0  0
   -1.2990   -1.4167    0.0000 C   0  0  0  0  0  0  0  0  0  0  0  0
   -0.0000   -2.1667    0.0000 C   0  0  0  0  0  0  0  0  0  0  0  0
    1.2990    0.0833    0.0000 C   0  0  0  0  0  0  0  0  0  0  0  0
    1.2990   -1.4167    0.0000 O   0  0  0  0  0  0  0  0  0  0  0  0
    2.5981    0.8333    0.0000 O   0  0  0  0  0  0  0  0  0  0  0  0
  2  1  1  1
  2  3  1  0
  3  4  1  6
  3  5  1  0
  5  6  1  0
  2  7  1  0
  7  8  2  0
  7  9  1  0
M  END
>  <rName>  (1577) 
D-aIle

>  <PQ_SYMBOL>  (1577) 
D-aIle

>  <FULL_NAME>  (1577) 
Allo-D-Isoleucine

>  <IUPAC_CONDENSED>  (1577) 
D-aIle

>  <IUPAC>  (1577) 
(2R,3S)-2-amino-3-methylpentanoic acid

>  <TYPE>  (1577) 
Backbone

>  <CLASS>  (1577) 
alpha

>  <ANALOG>  (1577) 
Ile

>  <MOL_WT>  (1577) 
131.175

>  <LOGP>  (1577) 
0.44439999999999985

>  <TPSA>  (1577) 
63.32000000000001

>  <POPULARITY>  (1577) 
40.7

>  <PROTECTED>  (1577) 
TRUE

>  <SMILES>  (1577) 
N[C@H]([C@@H](C)CC)C(=O)O

>  <INCHIKEY>  (1577) 
AGPKZVBTJJNPAG-CRCLSJGQSA-N

$$$$
D-aIle_3Me
     RDKit          2D

 10  9  0  0  0  0  0  0  0  0999 V2000
    1.2586    1.9934    0.0000 N   0  0  0  0  0  0  0  0  0  0  0  0
    0.6785    0.6101    0.0000 C   0  0  0  0  0  0  0  0  0  0  0  0
   -0.8096    0.4209    0.0000 C   0  0  0  0  0  0  0  0  0  0  0  0
   -0.9988    1.9089    0.0000 C   0  0  0  0  0  0  0  0  0  0  0  0
   -0.6203   -1.0672    0.0000 C   0  0  0  0  0  0  0  0  0  0  0  0
   -2.2976    0.2316    0.0000 C   0  0  0  0  0  0  0  0  0  0  0  0
   -2.8777   -1.1516    0.0000 C   0  0  0  0  0  0  0  0  0  0  0  0
    1.5863   -0.5840    0.0000 C   0  0  0  0  0  0  0  0  0  0  0  0
    1.0062   -1.9672    0.0000 O   0  0  0  0  0  0  0  0  0  0  0  0
    3.0744   -0.3947    0.0000 O   0  0  0  0  0  0  0  0  0  0  0  0
  2  1  1  1
  2  3  1  0
  3  4  1  0
  3  5  1  0
  3  6  1  0
  6  7  1  0
  2  8  1  0
  8  9  2  0
  8 10  1  0
M  END
>  <rName>  (1578) 
D-aIle_3Me

>  <PQ_SYMBOL>  (1578) 
D-aIle_3Me

>  <FULL_NAME>  (1578) 
3-Methyl-D-Alloisoleucine

>  <IUPAC_CONDENSED>  (1578) 
D-aIle(3-Me)

>  <IUPAC>  (1578) 
(2R)-2-amino-3,3-dimethylpentanoic acid

>  <TYPE>  (1578) 
Backbone

>  <CLASS>  (1578) 
alpha

>  <ANALOG>  (1578) 
Val

>  <MOL_WT>  (1578) 
145.202

>  <LOGP>  (1578) 
0.8344999999999998

>  <TPSA>  (1578) 
63.32000000000001

>  <POPULARITY>  (1578) 
10.1

>  <PROTECTED>  (1578) 
TRUE

>  <SMILES>  (1578) 
N[C@H](C(C)(C)CC)C(=O)O

>  <INCHIKEY>  (1578) 
AQIFZAKDNFZWND-YFKPBYRVSA-N

$$$$
D-aMeAbu_vinyl
     RDKit          2D

 10  9  0  0  0  0  0  0  0  0999 V2000
    0.0056    1.7744    0.0000 N   0  0  0  0  0  0  0  0  0  0  0  0
   -0.8858    0.5680    0.0000 C   0  0  0  0  0  0  0  0  0  0  0  0
   -2.0922    1.4594    0.0000 C   0  0  0  0  0  0  0  0  0  0  0  0
    0.3205   -0.3234    0.0000 C   0  0  0  0  0  0  0  0  0  0  0  0
    1.6957    0.2756    0.0000 C   0  0  0  0  0  0  0  0  0  0  0  0
    2.9021   -0.6158    0.0000 C   0  0  0  0  0  0  0  0  0  0  0  0
    4.2773   -0.0167    0.0000 C   0  0  0  0  0  0  0  0  0  0  0  0
   -1.7773   -0.6384    0.0000 C   0  0  0  0  0  0  0  0  0  0  0  0
   -3.2677   -0.4696    0.0000 O   0  0  0  0  0  0  0  0  0  0  0  0
   -1.1782   -2.0136    0.0000 O   0  0  0  0  0  0  0  0  0  0  0  0
  1  2  1  0
  2  3  1  1
  2  4  1  0
  4  5  1  0
  5  6  1  0
  6  7  2  0
  2  8  1  0
  8  9  2  0
  8 10  1  0
M  END
>  <rName>  (1579) 
D-aMeAbu_vinyl

>  <PQ_SYMBOL>  (1579) 
D-aMeAbu_vinyl

>  <FULL_NAME>  (1579) 
(R)-2-amino-2-methylhex-5-enoic acid

>  <IUPAC_CONDENSED>  (1579) 
D-aMeAbu(vinyl)

>  <IUPAC>  (1579) 
(2R)-2-amino-2-methylhex-5-enoic acid

>  <TYPE>  (1579) 
Backbone

>  <CLASS>  (1579) 
alpha

>  <ANALOG>  (1579) 
Leu

>  <MOL_WT>  (1579) 
143.186

>  <LOGP>  (1579) 
0.7545999999999999

>  <TPSA>  (1579) 
63.32000000000001

>  <POPULARITY>  (1579) 
8.7

>  <PROTECTED>  (1579) 
TRUE

>  <SMILES>  (1579) 
N[C@](C)(CCC=C)C(=O)O

>  <INCHIKEY>  (1579) 
OQVMALDNOMXRAP-SSDOTTSWSA-N

$$$$
D-aMeAsn
     RDKit          2D

 10  9  0  0  0  0  0  0  0  0999 V2000
    0.5181    1.5297    0.0000 N   0  0  0  0  0  0  0  0  0  0  0  0
   -0.5678    0.4949    0.0000 C   0  0  0  0  0  0  0  0  0  0  0  0
   -1.6026    1.5808    0.0000 C   0  0  0  0  0  0  0  0  0  0  0  0
    0.4670   -0.5910    0.0000 C   0  0  0  0  0  0  0  0  0  0  0  0
    1.9248   -0.2377    0.0000 C   0  0  0  0  0  0  0  0  0  0  0  0
    2.3478    1.2014    0.0000 O   0  0  0  0  0  0  0  0  0  0  0  0
    2.9596   -1.3236    0.0000 N   0  0  0  0  0  0  0  0  0  0  0  0
   -1.6537   -0.5399    0.0000 C   0  0  0  0  0  0  0  0  0  0  0  0
   -3.0928   -0.1169    0.0000 O   0  0  0  0  0  0  0  0  0  0  0  0
   -1.3005   -1.9977    0.0000 O   0  0  0  0  0  0  0  0  0  0  0  0
  1  2  1  0
  2  3  1  1
  2  4  1  0
  4  5  1  0
  5  6  2  0
  5  7  1  0
  2  8  1  0
  8  9  2  0
  8 10  1  0
M  END
>  <rName>  (1580) 
D-aMeAsn

>  <PQ_SYMBOL>  (1580) 
D-aMeAsn

>  <FULL_NAME>  (1580) 
alpha-methyl-D-asparagine

>  <IUPAC_CONDENSED>  (1580) 
D-aMeAsn

>  <IUPAC>  (1580) 
(2R)-2-amino-2-(2-amino-2-oxoethyl)propanoic acid

>  <TYPE>  (1580) 
Backbone

>  <CLASS>  (1580) 
alpha

>  <ANALOG>  (1580) 
Asn

>  <MOL_WT>  (1580) 
146.14600000000002

>  <LOGP>  (1580) 
-1.336199999999999

>  <TPSA>  (1580) 
106.41000000000001

>  <POPULARITY>  (1580) 
11.3

>  <PROTECTED>  (1580) 
TRUE

>  <SMILES>  (1580) 
N[C@](C)(CC(=O)N)C(=O)O

>  <INCHIKEY>  (1580) 
XGKIMQBEEPDCSR-RXMQYKEDSA-N

$$$$
D-aMeAsp
     RDKit          2D

 10  9  0  0  0  0  0  0  0  0999 V2000
    0.5181    1.5297    0.0000 N   0  0  0  0  0  0  0  0  0  0  0  0
   -0.5678    0.4949    0.0000 C   0  0  0  0  0  0  0  0  0  0  0  0
   -1.6026    1.5808    0.0000 C   0  0  0  0  0  0  0  0  0  0  0  0
    0.4670   -0.5910    0.0000 C   0  0  0  0  0  0  0  0  0  0  0  0
    1.9248   -0.2377    0.0000 C   0  0  0  0  0  0  0  0  0  0  0  0
    2.3478    1.2014    0.0000 O   0  0  0  0  0  0  0  0  0  0  0  0
    2.9596   -1.3236    0.0000 O   0  0  0  0  0  0  0  0  0  0  0  0
   -1.6537   -0.5399    0.0000 C   0  0  0  0  0  0  0  0  0  0  0  0
   -3.0928   -0.1169    0.0000 O   0  0  0  0  0  0  0  0  0  0  0  0
   -1.3005   -1.9977    0.0000 O   0  0  0  0  0  0  0  0  0  0  0  0
  1  2  1  0
  2  3  1  1
  2  4  1  0
  4  5  1  0
  5  6  2  0
  5  7  1  0
  2  8  1  0
  8  9  2  0
  8 10  1  0
M  END
>  <rName>  (1581) 
D-aMeAsp

>  <PQ_SYMBOL>  (1581) 
D-aMeAsp

>  <FULL_NAME>  (1581) 
alpha-methyl-D-aspartic acid

>  <IUPAC_CONDENSED>  (1581) 
D-aMeAsp

>  <IUPAC>  (1581) 
(2R)-2-amino-2-methylbutanedioic acid

>  <TYPE>  (1581) 
Backbone

>  <CLASS>  (1581) 
alpha

>  <ANALOG>  (1581) 
Asp

>  <MOL_WT>  (1581) 
147.13

>  <LOGP>  (1581) 
-0.7368999999999997

>  <TPSA>  (1581) 
100.62000000000002

>  <POPULARITY>  (1581) 
9.1

>  <PROTECTED>  (1581) 
TRUE

>  <SMILES>  (1581) 
N[C@](C)(CC(=O)O)C(=O)O

>  <INCHIKEY>  (1581) 
CWAYDJFPMMUKOI-RXMQYKEDSA-N

$$$$
D-aMeAze
     RDKit          2D

  8  8  0  0  0  0  0  0  0  0999 V2000
    1.6713   -0.8704    0.0000 N   0  0  0  0  0  0  0  0  0  0  0  0
    0.2785   -0.3134    0.0000 C   0  0  0  0  0  0  0  0  0  0  0  0
   -0.2785   -1.7061    0.0000 C   0  0  0  0  0  0  0  0  0  0  0  0
    0.8356    1.0794    0.0000 C   0  0  0  0  0  0  0  0  0  0  0  0
    2.2283    0.5223    0.0000 C   0  0  0  0  0  0  0  0  0  0  0  0
   -1.1142    0.2437    0.0000 C   0  0  0  0  0  0  0  0  0  0  0  0
   -2.2930   -0.6839    0.0000 O   0  0  0  0  0  0  0  0  0  0  0  0
   -1.3281    1.7284    0.0000 O   0  0  0  0  0  0  0  0  0  0  0  0
  1  2  1  0
  2  3  1  6
  2  4  1  0
  4  5  1  0
  2  6  1  0
  6  7  2  0
  6  8  1  0
  5  1  1  0
M  END
>  <rName>  (1582) 
D-aMeAze

>  <PQ_SYMBOL>  (1582) 
D-aMeAze

>  <FULL_NAME>  (1582) 
(2R)-2-methylazetidine-2-carboxylic acid

>  <IUPAC_CONDENSED>  (1582) 
D-aMeAze

>  <IUPAC>  (1582) 
(2R)-2-methylazetidine-2-carboxylic acid

>  <TYPE>  (1582) 
Backbone

>  <CLASS>  (1582) 
alpha

>  <ANALOG>  (1582) 
Pro

>  <MOL_WT>  (1582) 
115.13199999999999

>  <LOGP>  (1582) 
-0.17700000000000032

>  <TPSA>  (1582) 
49.33

>  <POPULARITY>  (1582) 
10.5

>  <PROTECTED>  (1582) 
TRUE

>  <SMILES>  (1582) 
N1[C@](C)(CC1)C(=O)O

>  <INCHIKEY>  (1582) 
ADTSDDJGGMQTIE-RXMQYKEDSA-N

$$$$
D-aMeCys
     RDKit          2D

  8  7  0  0  0  0  0  0  0  0999 V2000
    1.7991   -0.6794    0.0000 N   0  0  0  0  0  0  0  0  0  0  0  0
    0.6991    0.3404    0.0000 C   0  0  0  0  0  0  0  0  0  0  0  0
    1.7189    1.4404    0.0000 C   0  0  0  0  0  0  0  0  0  0  0  0
   -0.4009    1.3602    0.0000 C   0  0  0  0  0  0  0  0  0  0  0  0
   -1.8341    0.9174    0.0000 S   0  0  0  0  0  0  0  0  0  0  0  0
   -0.3207   -0.7596    0.0000 C   0  0  0  0  0  0  0  0  0  0  0  0
   -1.7833   -0.4265    0.0000 O   0  0  0  0  0  0  0  0  0  0  0  0
    0.1220   -2.1928    0.0000 O   0  0  0  0  0  0  0  0  0  0  0  0
  1  2  1  0
  2  3  1  6
  2  4  1  0
  4  5  1  0
  2  6  1  0
  6  7  2  0
  6  8  1  0
M  END
>  <rName>  (1583) 
D-aMeCys

>  <PQ_SYMBOL>  (1583) 
D-aMeCys

>  <FULL_NAME>  (1583) 
(S)-Alpha-methylcysteine

>  <IUPAC_CONDENSED>  (1583) 
D-aMeCys

>  <IUPAC>  (1583) 
(2S)-2-amino-2-methyl-3-sulfanylpropanoic acid

>  <TYPE>  (1583) 
Backbone

>  <CLASS>  (1583) 
alpha

>  <ANALOG>  (1583) 
Cys

>  <MOL_WT>  (1583) 
135.188

>  <LOGP>  (1583) 
-0.28180000000000033

>  <TPSA>  (1583) 
63.32000000000001

>  <POPULARITY>  (1583) 
3.5

>  <PROTECTED>  (1583) 
TRUE

>  <SMILES>  (1583) 
N[C@](C)(CS)C(=O)O

>  <INCHIKEY>  (1583) 
NZBONMFLYFGTAC-SCSAIBSYSA-N

$$$$
D-aMeDap
     RDKit          2D

  8  7  0  0  0  0  0  0  0  0999 V2000
    1.3909    1.3248    0.0000 N   0  0  0  0  0  0  0  0  0  0  0  0
    0.1650    0.4604    0.0000 C   0  0  0  0  0  0  0  0  0  0  0  0
   -0.6994    1.6864    0.0000 C   0  0  0  0  0  0  0  0  0  0  0  0
    1.0293   -0.7655    0.0000 C   0  0  0  0  0  0  0  0  0  0  0  0
    2.5232   -0.6299    0.0000 N   0  0  0  0  0  0  0  0  0  0  0  0
   -1.0610   -0.4039    0.0000 C   0  0  0  0  0  0  0  0  0  0  0  0
   -2.4225    0.2256    0.0000 O   0  0  0  0  0  0  0  0  0  0  0  0
   -0.9254   -1.8978    0.0000 O   0  0  0  0  0  0  0  0  0  0  0  0
  1  2  1  0
  2  3  1  1
  2  4  1  0
  4  5  1  0
  2  6  1  0
  6  7  2  0
  6  8  1  0
M  END
>  <rName>  (1584) 
D-aMeDap

>  <PQ_SYMBOL>  (1584) 
D-aMeDap

>  <FULL_NAME>  (1584) 
(R)-2,3-diamino-2-methylpropanoic acid

>  <IUPAC_CONDENSED>  (1584) 
D-aMeDap

>  <IUPAC>  (1584) 
(2R)-2-amino-2-(aminomethyl)propanoic acid

>  <TYPE>  (1584) 
Backbone

>  <CLASS>  (1584) 
alpha

>  <ANALOG>  (1584) 
X

>  <MOL_WT>  (1584) 
118.13599999999998

>  <LOGP>  (1584) 
-1.2528999999999997

>  <TPSA>  (1584) 
89.34

>  <POPULARITY>  (1584) 
9.9

>  <PROTECTED>  (1584) 
TRUE

>  <SMILES>  (1584) 
N[C@](C)(CN)C(=O)O

>  <INCHIKEY>  (1584) 
BJVNVLORPOBATD-SCSAIBSYSA-N

$$$$
D-aMeDap_N3
     RDKit          2D

 10  9  0  0  0  0  0  0  0  0999 V2000
   -0.2947    1.9009    0.0000 N   0  0  0  0  0  0  0  0  0  0  0  0
   -0.9752    0.5641    0.0000 C   0  0  0  0  0  0  0  0  0  0  0  0
   -2.3120    1.2446    0.0000 C   0  0  0  0  0  0  0  0  0  0  0  0
    0.3615   -0.1164    0.0000 C   0  0  0  0  0  0  0  0  0  0  0  0
    1.6192    0.7010    0.0000 N   0  0  0  0  0  0  0  0  0  0  0  0
    2.9560    0.0205    0.0000 N   0  0  0  0  0  0  0  0  0  0  0  0
    4.2928   -0.6600    0.0000 N   0  0  0  0  0  0  0  0  0  0  0  0
   -1.6557   -0.7727    0.0000 C   0  0  0  0  0  0  0  0  0  0  0  0
   -3.1536   -0.8517    0.0000 O   0  0  0  0  0  0  0  0  0  0  0  0
   -0.8383   -2.0304    0.0000 O   0  0  0  0  0  0  0  0  0  0  0  0
  1  2  1  0
  2  3  1  1
  2  4  1  0
  4  5  1  0
  5  6  2  0
  6  7  2  0
  2  8  1  0
  8  9  2  0
  8 10  1  0
M  CHG  2   6   1   7  -1
M  END
>  <rName>  (1585) 
D-aMeDap_N3

>  <PQ_SYMBOL>  (1585) 
D-aMeDap_N3

>  <FULL_NAME>  (1585) 
(2R)-2-amino-3-azido-2-methylpropanoic acid

>  <IUPAC_CONDENSED>  (1585) 
D-aMeDap(N3)

>  <IUPAC>  (1585) 
(2R)-2-amino-3-azido-2-methylpropanoic acid

>  <TYPE>  (1585) 
Backbone

>  <CLASS>  (1585) 
alpha

>  <ANALOG>  (1585) 
X

>  <MOL_WT>  (1585) 
144.13400000000001

>  <LOGP>  (1585) 
0.09869999999999973

>  <TPSA>  (1585) 
112.08

>  <POPULARITY>  (1585) 
2.2

>  <PROTECTED>  (1585) 
TRUE

>  <SMILES>  (1585) 
N[C@](C)(CN=[N+]=[N-])C(=O)O

>  <INCHIKEY>  (1585) 
WDJUCIRNDRCXTL-SCSAIBSYSA-N

$$$$
D-aMeDip
     RDKit          2D

 19 20  0  0  0  0  0  0  0  0999 V2000
    1.3285   -2.1709    0.0000 N   0  0  0  0  0  0  0  0  0  0  0  0
   -0.1416   -1.8728    0.0000 C   0  0  0  0  0  0  0  0  0  0  0  0
   -0.4396   -3.3429    0.0000 C   0  0  0  0  0  0  0  0  0  0  0  0
    0.1565   -0.4027    0.0000 C   0  0  0  0  0  0  0  0  0  0  0  0
    1.5786    0.0742    0.0000 C   0  0  0  0  0  0  0  0  0  0  0  0
    2.7027   -0.9189    0.0000 C   0  0  0  0  0  0  0  0  0  0  0  0
    4.1249   -0.4420    0.0000 C   0  0  0  0  0  0  0  0  0  0  0  0
    4.4229    1.0281    0.0000 C   0  0  0  0  0  0  0  0  0  0  0  0
    3.2988    2.0213    0.0000 C   0  0  0  0  0  0  0  0  0  0  0  0
    1.8766    1.5443    0.0000 C   0  0  0  0  0  0  0  0  0  0  0  0
   -0.9677    0.5904    0.0000 C   0  0  0  0  0  0  0  0  0  0  0  0
   -2.3898    0.1135    0.0000 C   0  0  0  0  0  0  0  0  0  0  0  0
   -3.5140    1.1066    0.0000 C   0  0  0  0  0  0  0  0  0  0  0  0
   -3.2159    2.5767    0.0000 C   0  0  0  0  0  0  0  0  0  0  0  0
   -1.7938    3.0536    0.0000 C   0  0  0  0  0  0  0  0  0  0  0  0
   -0.6696    2.0605    0.0000 C   0  0  0  0  0  0  0  0  0  0  0  0
   -1.6117   -1.5748    0.0000 C   0  0  0  0  0  0  0  0  0  0  0  0
   -2.1411   -0.7452    0.0000 O   0  0  0  0  0  0  0  0  0  0  0  0
   -2.6048   -2.6989    0.0000 O   0  0  0  0  0  0  0  0  0  0  0  0
  1  2  1  0
  2  3  1  6
  2  4  1  0
  4  5  1  0
  5  6  2  0
  6  7  1  0
  7  8  2  0
  8  9  1  0
  9 10  2  0
  4 11  1  0
 11 12  2  0
 12 13  1  0
 13 14  2  0
 14 15  1  0
 15 16  2  0
  2 17  1  0
 17 18  2  0
 17 19  1  0
 10  5  1  0
 16 11  1  0
M  END
>  <rName>  (1586) 
D-aMeDip

>  <PQ_SYMBOL>  (1586) 
D-aMeDip

>  <FULL_NAME>  (1586) 
(R)-2-amino-2-methyl-3,3-diphenylpropanoic acid

>  <IUPAC_CONDENSED>  (1586) 
D-aMeDip

>  <IUPAC>  (1586) 
(2R)-2-amino-2-(diphenylmethyl)propanoic acid

>  <TYPE>  (1586) 
Backbone

>  <CLASS>  (1586) 
alpha

>  <ANALOG>  (1586) 
Phe

>  <MOL_WT>  (1586) 
255.317

>  <LOGP>  (1586) 
2.6205000000000007

>  <TPSA>  (1586) 
63.32000000000001

>  <POPULARITY>  (1586) 
3.3

>  <PROTECTED>  (1586) 
TRUE

>  <SMILES>  (1586) 
N[C@](C)(C(c1(ccccc1))c2(ccccc2))C(=O)O

>  <INCHIKEY>  (1586) 
ASPQQADBNNQZME-MRXNPFEDSA-N

$$$$
D-aMeGaba
     RDKit          2D

  8  7  0  0  0  0  0  0  0  0999 V2000
    2.2678   -1.4730    0.0000 N   0  0  0  0  0  0  0  0  0  0  0  0
    1.9843   -0.0000    0.0000 C   0  0  0  0  0  0  0  0  0  0  0  0
    3.1182    0.9820    0.0000 C   0  0  0  0  0  0  0  0  0  0  0  0
    0.5669    0.4910    0.0000 C   0  0  0  0  0  0  0  0  0  0  0  0
   -0.5669   -0.4910    0.0000 C   0  0  0  0  0  0  0  0  0  0  0  0
   -1.9843    0.0000    0.0000 C   0  0  0  0  0  0  0  0  0  0  0  0
   -2.2678    1.4730    0.0000 O   0  0  0  0  0  0  0  0  0  0  0  0
   -3.1182   -0.9820    0.0000 O   0  0  0  0  0  0  0  0  0  0  0  0
  1  2  1  0
  2  3  1  1
  2  4  1  0
  4  5  1  0
  5  6  1  0
  6  7  2  0
  6  8  1  0
M  END
>  <rName>  (1587) 
D-aMeGaba

>  <PQ_SYMBOL>  (1587) 
D-aMeGaba

>  <FULL_NAME>  (1587) 
4-Aminovaleric acid, (R)-

>  <IUPAC_CONDENSED>  (1587) 
D-aMeGaba

>  <IUPAC>  (1587) 
(4R)-4-aminopentanoic acid

>  <TYPE>  (1587) 
Backbone

>  <CLASS>  (1587) 
gamma

>  <ANALOG>  (1587) 
Ala

>  <MOL_WT>  (1587) 
117.14799999999998

>  <LOGP>  (1587) 
0.19839999999999985

>  <TPSA>  (1587) 
63.32000000000001

>  <POPULARITY>  (1587) 
18.1

>  <PROTECTED>  (1587) 
TRUE

>  <SMILES>  (1587) 
N[C@H](C)CCC(=O)O

>  <INCHIKEY>  (1587) 
ABSTXSZPGHDTAF-SCSAIBSYSA-N

$$$$
D-aMeGaba_3ROH
     RDKit          2D

  9  8  0  0  0  0  0  0  0  0999 V2000
    2.2062   -1.7302    0.0000 N   0  0  0  0  0  0  0  0  0  0  0  0
    1.9487   -0.2525    0.0000 C   0  0  0  0  0  0  0  0  0  0  0  0
    3.0997    0.7094    0.0000 C   0  0  0  0  0  0  0  0  0  0  0  0
    0.5402    0.2633    0.0000 C   0  0  0  0  0  0  0  0  0  0  0  0
    0.2826    1.7410    0.0000 O   0  0  0  0  0  0  0  0  0  0  0  0
   -0.6108   -0.6986    0.0000 C   0  0  0  0  0  0  0  0  0  0  0  0
   -2.0193   -0.1828    0.0000 C   0  0  0  0  0  0  0  0  0  0  0  0
   -2.2769    1.2950    0.0000 O   0  0  0  0  0  0  0  0  0  0  0  0
   -3.1703   -1.1447    0.0000 O   0  0  0  0  0  0  0  0  0  0  0  0
  1  2  1  0
  2  3  1  1
  2  4  1  0
  4  5  1  1
  4  6  1  0
  6  7  1  0
  7  8  2  0
  7  9  1  0
M  END
>  <rName>  (1588) 
D-aMeGaba_3ROH

>  <PQ_SYMBOL>  (1588) 
D-aMeGaba_3ROH

>  <FULL_NAME>  (1588) 
D-aMeGaba(3R-OH)

>  <IUPAC_CONDENSED>  (1588) 
D-aMeGaba(3R-OH)

>  <IUPAC>  (1588) 
(3R,4R)-4-amino-3-hydroxypentanoic acid

>  <TYPE>  (1588) 
Backbone

>  <CLASS>  (1588) 
gamma

>  <ANALOG>  (1588) 
Ala

>  <MOL_WT>  (1588) 
133.147

>  <LOGP>  (1588) 
-0.8308000000000006

>  <TPSA>  (1588) 
83.55

>  <POPULARITY>  (1588) 
3.5

>  <PROTECTED>  (1588) 
TRUE

>  <SMILES>  (1588) 
N[C@H](C)[C@H](O)CC(=O)O

>  <INCHIKEY>  (1588) 
KYYLCNHXZCPNBW-QWWZWVQMSA-N

$$$$
D-aMeGln
     RDKit          2D

 11 10  0  0  0  0  0  0  0  0999 V2000
   -0.4806    1.9216    0.0000 N   0  0  0  0  0  0  0  0  0  0  0  0
   -1.2184    0.6156    0.0000 C   0  0  0  0  0  0  0  0  0  0  0  0
   -2.5244    1.3534    0.0000 C   0  0  0  0  0  0  0  0  0  0  0  0
    0.0876   -0.1222    0.0000 C   0  0  0  0  0  0  0  0  0  0  0  0
    1.3796    0.6400    0.0000 C   0  0  0  0  0  0  0  0  0  0  0  0
    2.6856   -0.0979    0.0000 C   0  0  0  0  0  0  0  0  0  0  0  0
    2.6996   -1.5978    0.0000 O   0  0  0  0  0  0  0  0  0  0  0  0
    3.9775    0.6643    0.0000 N   0  0  0  0  0  0  0  0  0  0  0  0
   -1.9562   -0.6904    0.0000 C   0  0  0  0  0  0  0  0  0  0  0  0
   -3.4561   -0.7044    0.0000 O   0  0  0  0  0  0  0  0  0  0  0  0
   -1.1941   -1.9823    0.0000 O   0  0  0  0  0  0  0  0  0  0  0  0
  1  2  1  0
  2  3  1  1
  2  4  1  0
  4  5  1  0
  5  6  1  0
  6  7  2  0
  6  8  1  0
  2  9  1  0
  9 10  2  0
  9 11  1  0
M  END
>  <rName>  (1589) 
D-aMeGln

>  <PQ_SYMBOL>  (1589) 
D-aMeGln

>  <FULL_NAME>  (1589) 
alpha-methyl-D-glutamine

>  <IUPAC_CONDENSED>  (1589) 
D-aMeGln

>  <IUPAC>  (1589) 
(2R)-2-amino-4-carbamoyl-2-methylbutanoic acid

>  <TYPE>  (1589) 
Backbone

>  <CLASS>  (1589) 
alpha

>  <ANALOG>  (1589) 
Gln

>  <MOL_WT>  (1589) 
160.173

>  <LOGP>  (1589) 
-0.9460999999999993

>  <TPSA>  (1589) 
106.41000000000001

>  <POPULARITY>  (1589) 
10.9

>  <PROTECTED>  (1589) 
TRUE

>  <SMILES>  (1589) 
N[C@](C)(CCC(=O)N)C(=O)O

>  <INCHIKEY>  (1589) 
YLTNWAQTQJRBKR-ZCFIWIBFSA-N

$$$$
D-aMeGly_allyl
     RDKit          2D

  9  8  0  0  0  0  0  0  0  0999 V2000
    0.4883    1.7705    0.0000 N   0  0  0  0  0  0  0  0  0  0  0  0
   -0.4082    0.5679    0.0000 C   0  0  0  0  0  0  0  0  0  0  0  0
   -1.6108    1.4643    0.0000 C   0  0  0  0  0  0  0  0  0  0  0  0
    0.7944   -0.3286    0.0000 C   0  0  0  0  0  0  0  0  0  0  0  0
    2.1721    0.2647    0.0000 C   0  0  0  0  0  0  0  0  0  0  0  0
    3.3748   -0.6318    0.0000 C   0  0  0  0  0  0  0  0  0  0  0  0
   -1.3047   -0.6348    0.0000 C   0  0  0  0  0  0  0  0  0  0  0  0
   -2.7944   -0.4597    0.0000 O   0  0  0  0  0  0  0  0  0  0  0  0
   -0.7114   -2.0125    0.0000 O   0  0  0  0  0  0  0  0  0  0  0  0
  1  2  1  0
  2  3  1  1
  2  4  1  0
  4  5  1  0
  5  6  2  0
  2  7  1  0
  7  8  2  0
  7  9  1  0
M  END
>  <rName>  (1590) 
D-aMeGly_allyl

>  <PQ_SYMBOL>  (1590) 
D-aMeGly_allyl

>  <FULL_NAME>  (1590) 
(R)-2-amino-2-methylpent-4-enoic acid

>  <IUPAC_CONDENSED>  (1590) 
D-aMeGly(allyl)

>  <IUPAC>  (1590) 
(2R)-2-amino-2-methylpent-4-enoic acid

>  <TYPE>  (1590) 
Backbone

>  <CLASS>  (1590) 
alpha

>  <ANALOG>  (1590) 
Leu

>  <MOL_WT>  (1590) 
129.159

>  <LOGP>  (1590) 
0.3645

>  <TPSA>  (1590) 
63.32000000000001

>  <POPULARITY>  (1590) 
14.1

>  <PROTECTED>  (1590) 
TRUE

>  <SMILES>  (1590) 
N[C@](C)(CC=C)C(=O)O

>  <INCHIKEY>  (1590) 
QMBTZYHBJFPEJB-ZCFIWIBFSA-N

$$$$
D-aMeLeu
     RDKit          2D

 10  9  0  0  0  0  0  0  0  0999 V2000
    0.5181    1.5297    0.0000 N   0  0  0  0  0  0  0  0  0  0  0  0
   -0.5678    0.4949    0.0000 C   0  0  0  0  0  0  0  0  0  0  0  0
   -1.6026    1.5808    0.0000 C   0  0  0  0  0  0  0  0  0  0  0  0
    0.4670   -0.5910    0.0000 C   0  0  0  0  0  0  0  0  0  0  0  0
    1.9248   -0.2377    0.0000 C   0  0  0  0  0  0  0  0  0  0  0  0
    2.9596   -1.3236    0.0000 C   0  0  0  0  0  0  0  0  0  0  0  0
    2.3478    1.2014    0.0000 C   0  0  0  0  0  0  0  0  0  0  0  0
   -1.6537   -0.5399    0.0000 C   0  0  0  0  0  0  0  0  0  0  0  0
   -3.0928   -0.1169    0.0000 O   0  0  0  0  0  0  0  0  0  0  0  0
   -1.3005   -1.9977    0.0000 O   0  0  0  0  0  0  0  0  0  0  0  0
  1  2  1  0
  2  3  1  1
  2  4  1  0
  4  5  1  0
  5  6  1  0
  5  7  1  0
  2  8  1  0
  8  9  2  0
  8 10  1  0
M  END
>  <rName>  (1591) 
D-aMeLeu

>  <PQ_SYMBOL>  (1591) 
D-aMeLeu

>  <FULL_NAME>  (1591) 
alpha-methyl-D-Leucine

>  <IUPAC_CONDENSED>  (1591) 
D-aMeLeu

>  <IUPAC>  (1591) 
(2R)-2-amino-2,4-dimethylpentanoic acid

>  <TYPE>  (1591) 
Backbone

>  <CLASS>  (1591) 
alpha

>  <ANALOG>  (1591) 
Leu

>  <MOL_WT>  (1591) 
145.202

>  <LOGP>  (1591) 
0.8344999999999998

>  <TPSA>  (1591) 
63.32000000000001

>  <POPULARITY>  (1591) 
18.9

>  <PROTECTED>  (1591) 
TRUE

>  <SMILES>  (1591) 
N[C@](C)(CC(C)C)C(=O)O

>  <INCHIKEY>  (1591) 
ARSWQPLPYROOBG-SSDOTTSWSA-N

$$$$
D-aMeLys
     RDKit          2D

 11 10  0  0  0  0  0  0  0  0999 V2000
   -0.6186    1.8190    0.0000 N   0  0  0  0  0  0  0  0  0  0  0  0
   -1.4256    0.5545    0.0000 C   0  0  0  0  0  0  0  0  0  0  0  0
   -2.6900    1.3614    0.0000 C   0  0  0  0  0  0  0  0  0  0  0  0
   -0.1611   -0.2524    0.0000 C   0  0  0  0  0  0  0  0  0  0  0  0
    1.1700    0.4391    0.0000 C   0  0  0  0  0  0  0  0  0  0  0  0
    2.4344   -0.3678    0.0000 C   0  0  0  0  0  0  0  0  0  0  0  0
    3.7655    0.3238    0.0000 C   0  0  0  0  0  0  0  0  0  0  0  0
    5.0299   -0.4832    0.0000 N   0  0  0  0  0  0  0  0  0  0  0  0
   -2.2325   -0.7100    0.0000 C   0  0  0  0  0  0  0  0  0  0  0  0
   -3.7310   -0.6433    0.0000 O   0  0  0  0  0  0  0  0  0  0  0  0
   -1.5409   -2.0410    0.0000 O   0  0  0  0  0  0  0  0  0  0  0  0
  1  2  1  0
  2  3  1  1
  2  4  1  0
  4  5  1  0
  5  6  1  0
  6  7  1  0
  7  8  1  0
  2  9  1  0
  9 10  2  0
  9 11  1  0
M  END
>  <rName>  (1592) 
D-aMeLys

>  <PQ_SYMBOL>  (1592) 
D-aMeLys

>  <FULL_NAME>  (1592) 
2-methyl-D-lysine

>  <IUPAC_CONDENSED>  (1592) 
D-aMeLys

>  <IUPAC>  (1592) 
(2R)-2,6-diamino-2-methylhexanoic acid

>  <TYPE>  (1592) 
Backbone

>  <CLASS>  (1592) 
alpha

>  <ANALOG>  (1592) 
Lys

>  <MOL_WT>  (1592) 
160.217

>  <LOGP>  (1592) 
-0.08260000000000067

>  <TPSA>  (1592) 
89.34

>  <POPULARITY>  (1592) 
13.2

>  <PROTECTED>  (1592) 
TRUE

>  <SMILES>  (1592) 
N[C@](C)(CCCCN)C(=O)O

>  <INCHIKEY>  (1592) 
CPUSCHYXEUZMSV-SSDOTTSWSA-N

$$$$
D-aMeMet
     RDKit          2D

 10  9  0  0  0  0  0  0  0  0999 V2000
    0.0056    1.7744    0.0000 N   0  0  0  0  0  0  0  0  0  0  0  0
   -0.8858    0.5680    0.0000 C   0  0  0  0  0  0  0  0  0  0  0  0
   -2.0922    1.4594    0.0000 C   0  0  0  0  0  0  0  0  0  0  0  0
    0.3205   -0.3234    0.0000 C   0  0  0  0  0  0  0  0  0  0  0  0
    1.6957    0.2756    0.0000 C   0  0  0  0  0  0  0  0  0  0  0  0
    2.9021   -0.6158    0.0000 S   0  0  0  0  0  0  0  0  0  0  0  0
    4.2773   -0.0167    0.0000 C   0  0  0  0  0  0  0  0  0  0  0  0
   -1.7773   -0.6384    0.0000 C   0  0  0  0  0  0  0  0  0  0  0  0
   -3.2677   -0.4696    0.0000 O   0  0  0  0  0  0  0  0  0  0  0  0
   -1.1782   -2.0136    0.0000 O   0  0  0  0  0  0  0  0  0  0  0  0
  1  2  1  0
  2  3  1  1
  2  4  1  0
  4  5  1  0
  5  6  1  0
  6  7  1  0
  2  8  1  0
  8  9  2  0
  8 10  1  0
M  END
>  <rName>  (1593) 
D-aMeMet

>  <PQ_SYMBOL>  (1593) 
D-aMeMet

>  <FULL_NAME>  (1593) 
(R)-2-amino-2-methyl-4-(methylthio)butanoic acid

>  <IUPAC_CONDENSED>  (1593) 
D-aMeMet

>  <IUPAC>  (1593) 
(2R)-2-amino-2-methyl-4-(methylsulfanyl)butanoic acid

>  <TYPE>  (1593) 
Backbone

>  <CLASS>  (1593) 
alpha

>  <ANALOG>  (1593) 
Met

>  <MOL_WT>  (1593) 
163.242

>  <LOGP>  (1593) 
0.5415000000000001

>  <TPSA>  (1593) 
63.32000000000001

>  <POPULARITY>  (1593) 
6.3

>  <PROTECTED>  (1593) 
TRUE

>  <SMILES>  (1593) 
N[C@](C)(CCSC)C(=O)O

>  <INCHIKEY>  (1593) 
ZYVMPHJZWXIFDQ-ZCFIWIBFSA-N

$$$$
D-aMeNip
     RDKit          2D

 10 10  0  0  0  0  0  0  0  0999 V2000
    1.8956   -1.1355    0.0000 N   0  0  0  0  0  0  0  0  0  0  0  0
    0.3975   -1.0604    0.0000 C   0  0  0  0  0  0  0  0  0  0  0  0
   -0.4166   -2.3203    0.0000 C   0  0  0  0  0  0  0  0  0  0  0  0
   -0.2866    0.2745    0.0000 C   0  0  0  0  0  0  0  0  0  0  0  0
    0.5274    1.5344    0.0000 C   0  0  0  0  0  0  0  0  0  0  0  0
    2.0255    1.4594    0.0000 C   0  0  0  0  0  0  0  0  0  0  0  0
    2.7096    0.1244    0.0000 C   0  0  0  0  0  0  0  0  0  0  0  0
   -1.7848    0.3495    0.0000 C   0  0  0  0  0  0  0  0  0  0  0  0
   -2.5988   -0.9104    0.0000 O   0  0  0  0  0  0  0  0  0  0  0  0
   -2.4688    1.6844    0.0000 O   0  0  0  0  0  0  0  0  0  0  0  0
  1  2  1  0
  2  3  1  6
  2  4  1  0
  4  5  1  0
  5  6  1  0
  6  7  1  0
  4  8  1  6
  8  9  2  0
  8 10  1  0
  7  1  1  0
M  END
>  <rName>  (1594) 
D-aMeNip

>  <PQ_SYMBOL>  (1594) 
D-aMeNip

>  <FULL_NAME>  (1594) 
(2R,3R)-2-methylpiperidine-3-carboxylic acid

>  <IUPAC_CONDENSED>  (1594) 
D-aMeNip

>  <IUPAC>  (1594) 
(2R,3R)-2-methylpiperidine-3-carboxylic acid

>  <TYPE>  (1594) 
Backbone

>  <CLASS>  (1594) 
beta

>  <ANALOG>  (1594) 
Pro

>  <MOL_WT>  (1594) 
143.186

>  <LOGP>  (1594) 
0.4591

>  <TPSA>  (1594) 
49.33

>  <POPULARITY>  (1594) 
2.2

>  <PROTECTED>  (1594) 
TRUE

>  <SMILES>  (1594) 
N1[C@H](C)[C@@H](CCC1)C(=O)O

>  <INCHIKEY>  (1594) 
LAWPBIIDJCWFFN-PHDIDXHHSA-N

$$$$
D-aMeNle_EtN3
     RDKit          2D

 15 14  0  0  0  0  0  0  0  0999 V2000
   -2.8040    1.8332    0.0000 N   0  0  0  0  0  0  0  0  0  0  0  0
   -3.6318    0.5823    0.0000 C   0  0  0  0  0  0  0  0  0  0  0  0
   -4.8827    1.4101    0.0000 C   0  0  0  0  0  0  0  0  0  0  0  0
   -2.3809   -0.2455    0.0000 C   0  0  0  0  0  0  0  0  0  0  0  0
   -1.0385    0.4239    0.0000 C   0  0  0  0  0  0  0  0  0  0  0  0
    0.2124   -0.4039    0.0000 C   0  0  0  0  0  0  0  0  0  0  0  0
    1.5547    0.2655    0.0000 C   0  0  0  0  0  0  0  0  0  0  0  0
    2.8056   -0.5623    0.0000 C   0  0  0  0  0  0  0  0  0  0  0  0
    4.1480    0.1071    0.0000 C   0  0  0  0  0  0  0  0  0  0  0  0
    5.3989   -0.7207    0.0000 N   0  0  0  0  0  0  0  0  0  0  0  0
    6.7412   -0.0513    0.0000 N   0  0  0  0  0  0  0  0  0  0  0  0
    8.0836    0.6181    0.0000 N   0  0  0  0  0  0  0  0  0  0  0  0
   -4.4596   -0.6686    0.0000 C   0  0  0  0  0  0  0  0  0  0  0  0
   -5.9568   -0.5772    0.0000 O   0  0  0  0  0  0  0  0  0  0  0  0
   -3.7902   -2.0109    0.0000 O   0  0  0  0  0  0  0  0  0  0  0  0
  1  2  1  0
  2  3  1  1
  2  4  1  0
  4  5  1  0
  5  6  1  0
  6  7  1  0
  7  8  1  0
  8  9  1  0
  9 10  1  0
 10 11  2  0
 11 12  2  0
  2 13  1  0
 13 14  2  0
 13 15  1  0
M  CHG  2  11   1  12  -1
M  END
>  <rName>  (1595) 
D-aMeNle_EtN3

>  <PQ_SYMBOL>  (1595) 
D-aMeNle_EtN3

>  <FULL_NAME>  (1595) 
(R)-2-amino-8-azido-2-methyloctanoic acid

>  <IUPAC_CONDENSED>  (1595) 
D-aMeNle(EtN3)

>  <IUPAC>  (1595) 
(2R)-2-amino-8-azido-2-methyloctanoic acid

>  <TYPE>  (1595) 
Backbone

>  <CLASS>  (1595) 
alpha

>  <ANALOG>  (1595) 
X

>  <MOL_WT>  (1595) 
214.269

>  <LOGP>  (1595) 
2.0492

>  <TPSA>  (1595) 
112.08

>  <POPULARITY>  (1595) 
3.2

>  <PROTECTED>  (1595) 
TRUE

>  <SMILES>  (1595) 
N[C@](C)(CCCCCCN=[N+]=[N-])C(=O)O

>  <INCHIKEY>  (1595) 
DVEQXGJGDKTTJF-SECBINFHSA-N

$$$$
D-aMeNle_allyl
     RDKit          2D

 13 12  0  0  0  0  0  0  0  0999 V2000
   -1.7290    1.8167    0.0000 N   0  0  0  0  0  0  0  0  0  0  0  0
   -2.5120    0.5373    0.0000 C   0  0  0  0  0  0  0  0  0  0  0  0
   -3.7914    1.3203    0.0000 C   0  0  0  0  0  0  0  0  0  0  0  0
   -1.2326   -0.2457    0.0000 C   0  0  0  0  0  0  0  0  0  0  0  0
    0.0852    0.4708    0.0000 C   0  0  0  0  0  0  0  0  0  0  0  0
    1.3646   -0.3122    0.0000 C   0  0  0  0  0  0  0  0  0  0  0  0
    2.6825    0.4044    0.0000 C   0  0  0  0  0  0  0  0  0  0  0  0
    3.9619   -0.3786    0.0000 C   0  0  0  0  0  0  0  0  0  0  0  0
    5.2797    0.3379    0.0000 C   0  0  0  0  0  0  0  0  0  0  0  0
    6.5591   -0.4451    0.0000 C   0  0  0  0  0  0  0  0  0  0  0  0
   -3.2950   -0.7421    0.0000 C   0  0  0  0  0  0  0  0  0  0  0  0
   -4.7945   -0.7037    0.0000 O   0  0  0  0  0  0  0  0  0  0  0  0
   -2.5785   -2.0599    0.0000 O   0  0  0  0  0  0  0  0  0  0  0  0
  1  2  1  0
  2  3  1  1
  2  4  1  0
  4  5  1  0
  5  6  1  0
  6  7  1  0
  7  8  1  0
  8  9  1  0
  9 10  2  0
  2 11  1  0
 11 12  2  0
 11 13  1  0
M  END
>  <rName>  (1596) 
D-aMeNle_allyl

>  <PQ_SYMBOL>  (1596) 
D-aMeNle_allyl

>  <FULL_NAME>  (1596) 
(R)-2-Amino-2-methylnon-8-enoic acid

>  <IUPAC_CONDENSED>  (1596) 
D-aMeNle(allyl)

>  <IUPAC>  (1596) 
(2R)-2-amino-2-methylnon-8-enoic acid

>  <TYPE>  (1596) 
Backbone

>  <CLASS>  (1596) 
alpha

>  <ANALOG>  (1596) 
X

>  <MOL_WT>  (1596) 
185.267

>  <LOGP>  (1596) 
1.9248999999999998

>  <TPSA>  (1596) 
63.32000000000001

>  <POPULARITY>  (1596) 
2.2

>  <PROTECTED>  (1596) 
TRUE

>  <SMILES>  (1596) 
N[C@](C)(CCCCCC=C)C(=O)O

>  <INCHIKEY>  (1596) 
DRHBBJMAJLZSRN-SNVBAGLBSA-N

$$$$
D-aMeNle_but3enyl
     RDKit          2D

 14 13  0  0  0  0  0  0  0  0999 V2000
   -2.2743    1.8192    0.0000 N   0  0  0  0  0  0  0  0  0  0  0  0
   -3.0695    0.5473    0.0000 C   0  0  0  0  0  0  0  0  0  0  0  0
   -4.3414    1.3425    0.0000 C   0  0  0  0  0  0  0  0  0  0  0  0
   -1.7977   -0.2479    0.0000 C   0  0  0  0  0  0  0  0  0  0  0  0
   -0.4731    0.4560    0.0000 C   0  0  0  0  0  0  0  0  0  0  0  0
    0.7988   -0.3392    0.0000 C   0  0  0  0  0  0  0  0  0  0  0  0
    2.1234    0.3646    0.0000 C   0  0  0  0  0  0  0  0  0  0  0  0
    3.3953   -0.4306    0.0000 C   0  0  0  0  0  0  0  0  0  0  0  0
    4.7199    0.2733    0.0000 C   0  0  0  0  0  0  0  0  0  0  0  0
    5.9917   -0.5219    0.0000 C   0  0  0  0  0  0  0  0  0  0  0  0
    7.3163    0.1820    0.0000 C   0  0  0  0  0  0  0  0  0  0  0  0
   -3.8647   -0.7245    0.0000 C   0  0  0  0  0  0  0  0  0  0  0  0
   -5.3638   -0.6718    0.0000 O   0  0  0  0  0  0  0  0  0  0  0  0
   -3.1609   -2.0491    0.0000 O   0  0  0  0  0  0  0  0  0  0  0  0
  1  2  1  0
  2  3  1  1
  2  4  1  0
  4  5  1  0
  5  6  1  0
  6  7  1  0
  7  8  1  0
  8  9  1  0
  9 10  1  0
 10 11  2  0
  2 12  1  0
 12 13  2  0
 12 14  1  0
M  END
>  <rName>  (1597) 
D-aMeNle_but3enyl

>  <PQ_SYMBOL>  (1597) 
D-aMeNle_but3enyl

>  <FULL_NAME>  (1597) 
Fmoc-(R)-2-(7-octenyl)alanine

>  <IUPAC_CONDENSED>  (1597) 
D-aMeNle(but-3-enyl)

>  <IUPAC>  (1597) 
(2R)-2-amino-2-methyldec-9-enoic acid

>  <TYPE>  (1597) 
Backbone

>  <CLASS>  (1597) 
alpha

>  <ANALOG>  (1597) 
X

>  <MOL_WT>  (1597) 
199.294

>  <LOGP>  (1597) 
2.315

>  <TPSA>  (1597) 
63.32000000000001

>  <POPULARITY>  (1597) 
9.9

>  <PROTECTED>  (1597) 
TRUE

>  <SMILES>  (1597) 
N[C@](C)(CCCCCCC=C)C(=O)O

>  <INCHIKEY>  (1597) 
JWZFECWHKQLRGK-LLVKDONJSA-N

$$$$
D-aMeNle_ethynyl
     RDKit          2D

 12 11  0  0  0  0  0  0  0  0999 V2000
   -1.2806    1.8379    0.0000 N   0  0  0  0  0  0  0  0  0  0  0  0
   -1.9932    0.5180    0.0000 C   0  0  0  0  0  0  0  0  0  0  0  0
   -3.3131    1.2306    0.0000 C   0  0  0  0  0  0  0  0  0  0  0  0
   -0.6732   -0.1946    0.0000 C   0  0  0  0  0  0  0  0  0  0  0  0
    0.6038    0.5923    0.0000 C   0  0  0  0  0  0  0  0  0  0  0  0
    1.9238   -0.1203    0.0000 C   0  0  0  0  0  0  0  0  0  0  0  0
    3.2008    0.6665    0.0000 C   0  0  0  0  0  0  0  0  0  0  0  0
    4.5208   -0.0461    0.0000 C   0  0  0  0  0  0  0  0  0  0  0  0
    5.8407   -0.7586    0.0000 C   0  0  0  0  0  0  0  0  0  0  0  0
   -2.7057   -0.8019    0.0000 C   0  0  0  0  0  0  0  0  0  0  0  0
   -4.2051   -0.8448    0.0000 O   0  0  0  0  0  0  0  0  0  0  0  0
   -1.9189   -2.0790    0.0000 O   0  0  0  0  0  0  0  0  0  0  0  0
  1  2  1  0
  2  3  1  1
  2  4  1  0
  4  5  1  0
  5  6  1  0
  6  7  1  0
  7  8  1  0
  8  9  3  0
  2 10  1  0
 10 11  2  0
 10 12  1  0
M  END
>  <rName>  (1598) 
D-aMeNle_ethynyl

>  <PQ_SYMBOL>  (1598) 
D-aMeNle_ethynyl

>  <FULL_NAME>  (1598) 
(R)-2-amino-2-methyloct-7-ynoic acid

>  <IUPAC_CONDENSED>  (1598) 
D-aMeNle(ethynyl)

>  <IUPAC>  (1598) 
(2R)-2-amino-2-methyloct-7-ynoic acid

>  <TYPE>  (1598) 
Backbone

>  <CLASS>  (1598) 
alpha

>  <ANALOG>  (1598) 
X

>  <MOL_WT>  (1598) 
169.224

>  <LOGP>  (1598) 
0.9819999999999998

>  <TPSA>  (1598) 
63.32000000000001

>  <POPULARITY>  (1598) 
2.2

>  <PROTECTED>  (1598) 
TRUE

>  <SMILES>  (1598) 
N[C@](C)(CCCCC#C)C(=O)O

>  <INCHIKEY>  (1598) 
WTFKXZRWELKUFM-SECBINFHSA-N

$$$$
D-aMeNle_hex5enyl
     RDKit          2D

 16 15  0  0  0  0  0  0  0  0999 V2000
   -3.4499    1.8157    0.0000 N   0  0  0  0  0  0  0  0  0  0  0  0
   -4.2317    0.5355    0.0000 C   0  0  0  0  0  0  0  0  0  0  0  0
   -5.5119    1.3173    0.0000 C   0  0  0  0  0  0  0  0  0  0  0  0
   -2.9516   -0.2463    0.0000 C   0  0  0  0  0  0  0  0  0  0  0  0
   -1.6344    0.4715    0.0000 C   0  0  0  0  0  0  0  0  0  0  0  0
   -0.3543   -0.3103    0.0000 C   0  0  0  0  0  0  0  0  0  0  0  0
    0.9629    0.4075    0.0000 C   0  0  0  0  0  0  0  0  0  0  0  0
    2.2430   -0.3743    0.0000 C   0  0  0  0  0  0  0  0  0  0  0  0
    3.5601    0.3435    0.0000 C   0  0  0  0  0  0  0  0  0  0  0  0
    4.8403   -0.4383    0.0000 C   0  0  0  0  0  0  0  0  0  0  0  0
    6.1574    0.2794    0.0000 C   0  0  0  0  0  0  0  0  0  0  0  0
    7.4376   -0.5023    0.0000 C   0  0  0  0  0  0  0  0  0  0  0  0
    8.7547    0.2154    0.0000 C   0  0  0  0  0  0  0  0  0  0  0  0
   -5.0135   -0.7447    0.0000 C   0  0  0  0  0  0  0  0  0  0  0  0
   -6.5130   -0.7077    0.0000 O   0  0  0  0  0  0  0  0  0  0  0  0
   -4.2957   -2.0618    0.0000 O   0  0  0  0  0  0  0  0  0  0  0  0
  1  2  1  0
  2  3  1  1
  2  4  1  0
  4  5  1  0
  5  6  1  0
  6  7  1  0
  7  8  1  0
  8  9  1  0
  9 10  1  0
 10 11  1  0
 11 12  1  0
 12 13  2  0
  2 14  1  0
 14 15  2  0
 14 16  1  0
M  END
>  <rName>  (1599) 
D-aMeNle_hex5enyl

>  <PQ_SYMBOL>  (1599) 
D-aMeNle_hex5enyl

>  <FULL_NAME>  (1599) 
(R)-2-amino-2-methyldodec-11-enoic acid

>  <IUPAC_CONDENSED>  (1599) 
D-aMeNle(hex-5-enyl)

>  <IUPAC>  (1599) 
(2R)-2-amino-2-methyldodec-11-enoic acid

>  <TYPE>  (1599) 
Backbone

>  <CLASS>  (1599) 
alpha

>  <ANALOG>  (1599) 
X

>  <MOL_WT>  (1599) 
227.34799999999998

>  <LOGP>  (1599) 
3.095200000000001

>  <TPSA>  (1599) 
63.32000000000001

>  <POPULARITY>  (1599) 
6.4

>  <PROTECTED>  (1599) 
TRUE

>  <SMILES>  (1599) 
N[C@](C)(CCCCCCCCC=C)C(=O)O

>  <INCHIKEY>  (1599) 
NIZDOMFZGSADGL-CYBMUJFWSA-N

$$$$
D-aMeNle_vinyl
     RDKit          2D

 12 11  0  0  0  0  0  0  0  0999 V2000
   -1.1275    1.8149    0.0000 N   0  0  0  0  0  0  0  0  0  0  0  0
   -1.9492    0.5601    0.0000 C   0  0  0  0  0  0  0  0  0  0  0  0
   -3.2041    1.3818    0.0000 C   0  0  0  0  0  0  0  0  0  0  0  0
   -0.6943   -0.2617    0.0000 C   0  0  0  0  0  0  0  0  0  0  0  0
    0.6448    0.4142    0.0000 C   0  0  0  0  0  0  0  0  0  0  0  0
    1.8997   -0.4075    0.0000 C   0  0  0  0  0  0  0  0  0  0  0  0
    3.2388    0.2684    0.0000 C   0  0  0  0  0  0  0  0  0  0  0  0
    4.4937   -0.5533    0.0000 C   0  0  0  0  0  0  0  0  0  0  0  0
    5.8327    0.1226    0.0000 C   0  0  0  0  0  0  0  0  0  0  0  0
   -2.7709   -0.6948    0.0000 C   0  0  0  0  0  0  0  0  0  0  0  0
   -4.2686   -0.6106    0.0000 O   0  0  0  0  0  0  0  0  0  0  0  0
   -2.0950   -2.0339    0.0000 O   0  0  0  0  0  0  0  0  0  0  0  0
  1  2  1  0
  2  3  1  1
  2  4  1  0
  4  5  1  0
  5  6  1  0
  6  7  1  0
  7  8  1  0
  8  9  2  0
  2 10  1  0
 10 11  2  0
 10 12  1  0
M  END
>  <rName>  (1600) 
D-aMeNle_vinyl

>  <PQ_SYMBOL>  (1600) 
D-aMeNle_vinyl

>  <FULL_NAME>  (1600) 
(R)-2-amino-2-methyloct-7-enoic acid

>  <IUPAC_CONDENSED>  (1600) 
D-aMeNle(vinyl)

>  <IUPAC>  (1600) 
(2R)-2-amino-2-methyloct-7-enoic acid

>  <TYPE>  (1600) 
Backbone

>  <CLASS>  (1600) 
alpha

>  <ANALOG>  (1600) 
X

>  <MOL_WT>  (1600) 
171.24

>  <LOGP>  (1600) 
1.5348

>  <TPSA>  (1600) 
63.32000000000001

>  <POPULARITY>  (1600) 
8.4

>  <PROTECTED>  (1600) 
TRUE

>  <SMILES>  (1600) 
N[C@](C)(CCCCC=C)C(=O)O

>  <INCHIKEY>  (1600) 
LZZHLUIHALMSMF-SECBINFHSA-N

$$$$
D-aMeNva_vinyl
     RDKit          2D

 11 10  0  0  0  0  0  0  0  0999 V2000
   -0.6186    1.8190    0.0000 N   0  0  0  0  0  0  0  0  0  0  0  0
   -1.4256    0.5545    0.0000 C   0  0  0  0  0  0  0  0  0  0  0  0
   -2.6900    1.3614    0.0000 C   0  0  0  0  0  0  0  0  0  0  0  0
   -0.1611   -0.2524    0.0000 C   0  0  0  0  0  0  0  0  0  0  0  0
    1.1700    0.4391    0.0000 C   0  0  0  0  0  0  0  0  0  0  0  0
    2.4344   -0.3678    0.0000 C   0  0  0  0  0  0  0  0  0  0  0  0
    3.7655    0.3238    0.0000 C   0  0  0  0  0  0  0  0  0  0  0  0
    5.0299   -0.4832    0.0000 C   0  0  0  0  0  0  0  0  0  0  0  0
   -2.2325   -0.7100    0.0000 C   0  0  0  0  0  0  0  0  0  0  0  0
   -3.7310   -0.6433    0.0000 O   0  0  0  0  0  0  0  0  0  0  0  0
   -1.5409   -2.0410    0.0000 O   0  0  0  0  0  0  0  0  0  0  0  0
  1  2  1  0
  2  3  1  1
  2  4  1  0
  4  5  1  0
  5  6  1  0
  6  7  1  0
  7  8  2  0
  2  9  1  0
  9 10  2  0
  9 11  1  0
M  END
>  <rName>  (1601) 
D-aMeNva_vinyl

>  <PQ_SYMBOL>  (1601) 
D-aMeNva_vinyl

>  <FULL_NAME>  (1601) 
(R)-2-amino-2-methylhept-6-enoic acid

>  <IUPAC_CONDENSED>  (1601) 
D-aMeNva(vinyl)

>  <IUPAC>  (1601) 
(2R)-2-amino-2-methylhept-6-enoic acid

>  <TYPE>  (1601) 
Backbone

>  <CLASS>  (1601) 
alpha

>  <ANALOG>  (1601) 
Leu

>  <MOL_WT>  (1601) 
157.213

>  <LOGP>  (1601) 
1.1446999999999998

>  <TPSA>  (1601) 
63.32000000000001

>  <POPULARITY>  (1601) 
8.7

>  <PROTECTED>  (1601) 
TRUE

>  <SMILES>  (1601) 
N[C@](C)(CCCC=C)C(=O)O

>  <INCHIKEY>  (1601) 
AERCCJGORROTKW-MRVPVSSYSA-N

$$$$
D-aMeOHGaba
     RDKit          2D

  9  8  0  0  0  0  0  0  0  0999 V2000
    1.7016   -1.5966    0.0000 N   0  0  0  0  0  0  0  0  0  0  0  0
    1.4770   -0.1135    0.0000 C   0  0  0  0  0  0  0  0  0  0  0  0
    2.6491    0.8225    0.0000 C   0  0  0  0  0  0  0  0  0  0  0  0
    4.0458    0.2755    0.0000 O   0  0  0  0  0  0  0  0  0  0  0  0
    0.0803    0.4336    0.0000 C   0  0  0  0  0  0  0  0  0  0  0  0
   -1.0918   -0.5025    0.0000 C   0  0  0  0  0  0  0  0  0  0  0  0
   -2.4885    0.0446    0.0000 C   0  0  0  0  0  0  0  0  0  0  0  0
   -2.7130    1.5277    0.0000 O   0  0  0  0  0  0  0  0  0  0  0  0
   -3.6606   -0.8914    0.0000 O   0  0  0  0  0  0  0  0  0  0  0  0
  2  1  1  6
  2  3  1  0
  3  4  1  0
  2  5  1  0
  5  6  1  0
  6  7  1  0
  7  8  2  0
  7  9  1  0
M  END
>  <rName>  (1602) 
D-aMeOHGaba

>  <PQ_SYMBOL>  (1602) 
D-aMeOHGaba

>  <FULL_NAME>  (1602) 
(4R)-4-Amino-5-hydroxypentanoic acid

>  <IUPAC_CONDENSED>  (1602) 
D-aMeOHGaba

>  <IUPAC>  (1602) 
(4R)-4-amino-5-hydroxypentanoic acid

>  <TYPE>  (1602) 
Backbone

>  <CLASS>  (1602) 
gamma

>  <ANALOG>  (1602) 
Ser

>  <MOL_WT>  (1602) 
133.14700000000002

>  <LOGP>  (1602) 
-0.8292000000000004

>  <TPSA>  (1602) 
83.55

>  <POPULARITY>  (1602) 
2.4

>  <PROTECTED>  (1602) 
TRUE

>  <SMILES>  (1602) 
N[C@@H](CO)CCC(=O)O

>  <INCHIKEY>  (1602) 
JPYGFLFUDLRNKX-SCSAIBSYSA-N

$$$$
D-aMeOrn
     RDKit          2D

 10  9  0  0  0  0  0  0  0  0999 V2000
    0.0056    1.7744    0.0000 N   0  0  0  0  0  0  0  0  0  0  0  0
   -0.8858    0.5680    0.0000 C   0  0  0  0  0  0  0  0  0  0  0  0
   -2.0922    1.4594    0.0000 C   0  0  0  0  0  0  0  0  0  0  0  0
    0.3205   -0.3234    0.0000 C   0  0  0  0  0  0  0  0  0  0  0  0
    1.6957    0.2756    0.0000 C   0  0  0  0  0  0  0  0  0  0  0  0
    2.9021   -0.6158    0.0000 C   0  0  0  0  0  0  0  0  0  0  0  0
    4.2773   -0.0167    0.0000 N   0  0  0  0  0  0  0  0  0  0  0  0
   -1.7773   -0.6384    0.0000 C   0  0  0  0  0  0  0  0  0  0  0  0
   -3.2677   -0.4696    0.0000 O   0  0  0  0  0  0  0  0  0  0  0  0
   -1.1782   -2.0136    0.0000 O   0  0  0  0  0  0  0  0  0  0  0  0
  1  2  1  0
  2  3  1  1
  2  4  1  0
  4  5  1  0
  5  6  1  0
  6  7  1  0
  2  8  1  0
  8  9  2  0
  8 10  1  0
M  END
>  <rName>  (1603) 
D-aMeOrn

>  <PQ_SYMBOL>  (1603) 
D-aMeOrn

>  <FULL_NAME>  (1603) 
alpha-Methyl-D-Ornithine

>  <IUPAC_CONDENSED>  (1603) 
D-aMeOrn

>  <IUPAC>  (1603) 
(2R)-2,5-diamino-2-methylpentanoic acid

>  <TYPE>  (1603) 
Backbone

>  <CLASS>  (1603) 
alpha

>  <ANALOG>  (1603) 
Lys

>  <MOL_WT>  (1603) 
146.19000000000003

>  <LOGP>  (1603) 
-0.4727000000000004

>  <TPSA>  (1603) 
89.34

>  <POPULARITY>  (1603) 
12.1

>  <PROTECTED>  (1603) 
TRUE

>  <SMILES>  (1603) 
N[C@](C)(CCCN)C(=O)O

>  <INCHIKEY>  (1603) 
LNDPCYHWPSQBCA-ZCFIWIBFSA-N

$$$$
D-aMePhe
     RDKit          2D

 13 13  0  0  0  0  0  0  0  0999 V2000
   -0.4214    1.4691    0.0000 N   0  0  0  0  0  0  0  0  0  0  0  0
   -1.5526    0.4840    0.0000 C   0  0  0  0  0  0  0  0  0  0  0  0
   -2.5377    1.6152    0.0000 C   0  0  0  0  0  0  0  0  0  0  0  0
   -0.5675   -0.6472    0.0000 C   0  0  0  0  0  0  0  0  0  0  0  0
    0.9047   -0.3597    0.0000 C   0  0  0  0  0  0  0  0  0  0  0  0
    1.3918    1.0591    0.0000 C   0  0  0  0  0  0  0  0  0  0  0  0
    2.8640    1.3466    0.0000 C   0  0  0  0  0  0  0  0  0  0  0  0
    3.8491    0.2154    0.0000 C   0  0  0  0  0  0  0  0  0  0  0  0
    3.3620   -1.2033    0.0000 C   0  0  0  0  0  0  0  0  0  0  0  0
    1.8898   -1.4908    0.0000 C   0  0  0  0  0  0  0  0  0  0  0  0
   -2.6837   -0.5011    0.0000 C   0  0  0  0  0  0  0  0  0  0  0  0
   -2.3962   -1.9733    0.0000 O   0  0  0  0  0  0  0  0  0  0  0  0
   -4.1025   -0.0140    0.0000 O   0  0  0  0  0  0  0  0  0  0  0  0
  1  2  1  0
  2  3  1  1
  2  4  1  0
  4  5  1  0
  5  6  2  0
  6  7  1  0
  7  8  2  0
  8  9  1  0
  9 10  2  0
  2 11  1  0
 11 12  2  0
 11 13  1  0
 10  5  1  0
M  END
>  <rName>  (1604) 
D-aMePhe

>  <PQ_SYMBOL>  (1604) 
D-aMePhe

>  <FULL_NAME>  (1604) 
alpha-methyl-D-phenylalanine

>  <IUPAC_CONDENSED>  (1604) 
D-aMePhe

>  <IUPAC>  (1604) 
(2R)-2-amino-2-benzylpropanoic acid

>  <TYPE>  (1604) 
Backbone

>  <CLASS>  (1604) 
alpha

>  <ANALOG>  (1604) 
Phe

>  <MOL_WT>  (1604) 
179.21899999999997

>  <LOGP>  (1604) 
1.0311

>  <TPSA>  (1604) 
63.32000000000001

>  <POPULARITY>  (1604) 
18.1

>  <PROTECTED>  (1604) 
TRUE

>  <SMILES>  (1604) 
N[C@](C)(Cc1(ccccc1))C(=O)O

>  <INCHIKEY>  (1604) 
HYOWVAAEQCNGLE-SNVBAGLBSA-N

$$$$
D-aMePhe_25diF
     RDKit          2D

 15 15  0  0  0  0  0  0  0  0999 V2000
   -0.6059    1.5377    0.0000 N   0  0  0  0  0  0  0  0  0  0  0  0
   -1.8190    0.6555    0.0000 C   0  0  0  0  0  0  0  0  0  0  0  0
   -2.7012    1.8687    0.0000 C   0  0  0  0  0  0  0  0  0  0  0  0
   -0.9368   -0.5576    0.0000 C   0  0  0  0  0  0  0  0  0  0  0  0
    0.5549   -0.4002    0.0000 C   0  0  0  0  0  0  0  0  0  0  0  0
    1.1644    0.9704    0.0000 C   0  0  0  0  0  0  0  0  0  0  0  0
    2.6561    1.1278    0.0000 C   0  0  0  0  0  0  0  0  0  0  0  0
    3.2657    2.4984    0.0000 F   0  0  0  0  0  0  0  0  0  0  0  0
    3.5383   -0.0854    0.0000 C   0  0  0  0  0  0  0  0  0  0  0  0
    2.9288   -1.4559    0.0000 C   0  0  0  0  0  0  0  0  0  0  0  0
    1.4371   -1.6134    0.0000 C   0  0  0  0  0  0  0  0  0  0  0  0
    0.8275   -2.9839    0.0000 F   0  0  0  0  0  0  0  0  0  0  0  0
   -3.0322   -0.2266    0.0000 C   0  0  0  0  0  0  0  0  0  0  0  0
   -2.8748   -1.7184    0.0000 O   0  0  0  0  0  0  0  0  0  0  0  0
   -4.4028    0.3829    0.0000 O   0  0  0  0  0  0  0  0  0  0  0  0
  1  2  1  0
  2  3  1  1
  2  4  1  0
  4  5  1  0
  5  6  1  0
  6  7  2  0
  7  8  1  0
  7  9  1  0
  9 10  2  0
 10 11  1  0
 11 12  1  0
  2 13  1  0
 13 14  2  0
 13 15  1  0
 11  5  2  0
M  END
>  <rName>  (1605) 
D-aMePhe_25diF

>  <PQ_SYMBOL>  (1605) 
D-aMePhe_25diF

>  <FULL_NAME>  (1605) 
(R)-2-amino-3-(2,5-difluorophenyl)-2-methylpropanoic acid

>  <IUPAC_CONDENSED>  (1605) 
D-aMePhe(2,5-diF)

>  <IUPAC>  (1605) 
(2R)-2-amino-2-((2,5-difluorophenyl)methyl)propanoic acid

>  <TYPE>  (1605) 
Backbone

>  <CLASS>  (1605) 
alpha

>  <ANALOG>  (1605) 
Phe

>  <MOL_WT>  (1605) 
215.19899999999998

>  <LOGP>  (1605) 
1.3093

>  <TPSA>  (1605) 
63.32000000000001

>  <POPULARITY>  (1605) 
3.0

>  <PROTECTED>  (1605) 
TRUE

>  <SMILES>  (1605) 
N[C@](C)(Cc1(cc(F)ccc1F))C(=O)O

>  <INCHIKEY>  (1605) 
KVCNBKXHLOATHI-SNVBAGLBSA-N

$$$$
D-aMePhe_2F
     RDKit          2D

 14 14  0  0  0  0  0  0  0  0999 V2000
   -0.6305    1.6391    0.0000 N   0  0  0  0  0  0  0  0  0  0  0  0
   -1.6946    0.5819    0.0000 C   0  0  0  0  0  0  0  0  0  0  0  0
   -2.7518    1.6460    0.0000 C   0  0  0  0  0  0  0  0  0  0  0  0
   -0.6374   -0.4822    0.0000 C   0  0  0  0  0  0  0  0  0  0  0  0
    0.8128   -0.0987    0.0000 C   0  0  0  0  0  0  0  0  0  0  0  0
    1.2057    1.3489    0.0000 C   0  0  0  0  0  0  0  0  0  0  0  0
    2.6559    1.7324    0.0000 C   0  0  0  0  0  0  0  0  0  0  0  0
    3.7131    0.6683    0.0000 C   0  0  0  0  0  0  0  0  0  0  0  0
    3.3201   -0.7793    0.0000 C   0  0  0  0  0  0  0  0  0  0  0  0
    1.8699   -1.1628    0.0000 C   0  0  0  0  0  0  0  0  0  0  0  0
    1.4770   -2.6105    0.0000 F   0  0  0  0  0  0  0  0  0  0  0  0
   -2.7587   -0.4753    0.0000 C   0  0  0  0  0  0  0  0  0  0  0  0
   -2.3752   -1.9254    0.0000 O   0  0  0  0  0  0  0  0  0  0  0  0
   -4.2063   -0.0823    0.0000 O   0  0  0  0  0  0  0  0  0  0  0  0
  1  2  1  0
  2  3  1  1
  2  4  1  0
  4  5  1  0
  5  6  2  0
  6  7  1  0
  7  8  2  0
  8  9  1  0
  9 10  2  0
 10 11  1  0
  2 12  1  0
 12 13  2  0
 12 14  1  0
 10  5  1  0
M  END
>  <rName>  (1606) 
D-aMePhe_2F

>  <PQ_SYMBOL>  (1606) 
D-aMePhe_2F

>  <FULL_NAME>  (1606) 
alpha-methyl-D-2-Fluorophe

>  <IUPAC_CONDENSED>  (1606) 
D-aMePhe(2-F)

>  <IUPAC>  (1606) 
(2R)-2-amino-2-((2-fluorophenyl)methyl)propanoic acid

>  <TYPE>  (1606) 
Backbone

>  <CLASS>  (1606) 
alpha

>  <ANALOG>  (1606) 
Phe

>  <MOL_WT>  (1606) 
197.20899999999995

>  <LOGP>  (1606) 
1.1702

>  <TPSA>  (1606) 
63.32000000000001

>  <POPULARITY>  (1606) 
8.9

>  <PROTECTED>  (1606) 
TRUE

>  <SMILES>  (1606) 
N[C@](C)(Cc1(ccccc1F))C(=O)O

>  <INCHIKEY>  (1606) 
MXECDVKIKUSSNC-SNVBAGLBSA-N

$$$$
D-aMePhe_3F
     RDKit          2D

 14 14  0  0  0  0  0  0  0  0999 V2000
   -0.9250    1.5349    0.0000 N   0  0  0  0  0  0  0  0  0  0  0  0
   -1.9283    0.4198    0.0000 C   0  0  0  0  0  0  0  0  0  0  0  0
   -3.0434    1.4231    0.0000 C   0  0  0  0  0  0  0  0  0  0  0  0
   -0.8132   -0.5834    0.0000 C   0  0  0  0  0  0  0  0  0  0  0  0
    0.6132   -0.1194    0.0000 C   0  0  0  0  0  0  0  0  0  0  0  0
    0.9245    1.3480    0.0000 C   0  0  0  0  0  0  0  0  0  0  0  0
    2.3509    1.8121    0.0000 C   0  0  0  0  0  0  0  0  0  0  0  0
    3.4660    0.8088    0.0000 C   0  0  0  0  0  0  0  0  0  0  0  0
    3.1548   -0.6585    0.0000 C   0  0  0  0  0  0  0  0  0  0  0  0
    4.2699   -1.6618    0.0000 F   0  0  0  0  0  0  0  0  0  0  0  0
    1.7284   -1.1226    0.0000 C   0  0  0  0  0  0  0  0  0  0  0  0
   -2.9315   -0.6953    0.0000 C   0  0  0  0  0  0  0  0  0  0  0  0
   -4.3989   -0.3840    0.0000 O   0  0  0  0  0  0  0  0  0  0  0  0
   -2.4674   -2.1217    0.0000 O   0  0  0  0  0  0  0  0  0  0  0  0
  1  2  1  0
  2  3  1  1
  2  4  1  0
  4  5  1  0
  5  6  2  0
  6  7  1  0
  7  8  2  0
  8  9  1  0
  9 10  1  0
  9 11  2  0
  2 12  1  0
 12 13  2  0
 12 14  1  0
 11  5  1  0
M  END
>  <rName>  (1607) 
D-aMePhe_3F

>  <PQ_SYMBOL>  (1607) 
D-aMePhe_3F

>  <FULL_NAME>  (1607) 
(R)-2-amino-3-(3-fluorophenyl)-2-methylpropanoic acid

>  <IUPAC_CONDENSED>  (1607) 
D-aMePhe(3-F)

>  <IUPAC>  (1607) 
(2R)-2-amino-2-((3-fluorophenyl)methyl)propanoic acid

>  <TYPE>  (1607) 
Backbone

>  <CLASS>  (1607) 
alpha

>  <ANALOG>  (1607) 
Phe

>  <MOL_WT>  (1607) 
197.20899999999997

>  <LOGP>  (1607) 
1.1702

>  <TPSA>  (1607) 
63.32000000000001

>  <POPULARITY>  (1607) 
6.3

>  <PROTECTED>  (1607) 
TRUE

>  <SMILES>  (1607) 
N[C@](C)(Cc1(cccc(F)c1))C(=O)O

>  <INCHIKEY>  (1607) 
FQZGACCJFXQSCQ-SNVBAGLBSA-N

$$$$
D-aMePhe_4Br
     RDKit          2D

 14 14  0  0  0  0  0  0  0  0999 V2000
   -0.7614    1.4549    0.0000 N   0  0  0  0  0  0  0  0  0  0  0  0
   -1.9195    0.5015    0.0000 C   0  0  0  0  0  0  0  0  0  0  0  0
   -2.8728    1.6596    0.0000 C   0  0  0  0  0  0  0  0  0  0  0  0
   -0.9661   -0.6566    0.0000 C   0  0  0  0  0  0  0  0  0  0  0  0
    0.5135   -0.4100    0.0000 C   0  0  0  0  0  0  0  0  0  0  0  0
    1.0397    0.9947    0.0000 C   0  0  0  0  0  0  0  0  0  0  0  0
    2.5193    1.2413    0.0000 C   0  0  0  0  0  0  0  0  0  0  0  0
    3.4726    0.0832    0.0000 C   0  0  0  0  0  0  0  0  0  0  0  0
    4.9522    0.3298    0.0000 Br  0  0  0  0  0  0  0  0  0  0  0  0
    2.9464   -1.3215    0.0000 C   0  0  0  0  0  0  0  0  0  0  0  0
    1.4668   -1.5681    0.0000 C   0  0  0  0  0  0  0  0  0  0  0  0
   -3.0776   -0.4518    0.0000 C   0  0  0  0  0  0  0  0  0  0  0  0
   -4.4822    0.0744    0.0000 O   0  0  0  0  0  0  0  0  0  0  0  0
   -2.8310   -1.9314    0.0000 O   0  0  0  0  0  0  0  0  0  0  0  0
  1  2  1  0
  2  3  1  1
  2  4  1  0
  4  5  1  0
  5  6  1  0
  6  7  2  0
  7  8  1  0
  8  9  1  0
  8 10  2  0
 10 11  1  0
  2 12  1  0
 12 13  2  0
 12 14  1  0
 11  5  2  0
M  END
>  <rName>  (1608) 
D-aMePhe_4Br

>  <PQ_SYMBOL>  (1608) 
D-aMePhe_4Br

>  <FULL_NAME>  (1608) 
(R)-2-Amino-3-(4-bromo-phenyl)-2-methyl-propionic acid

>  <IUPAC_CONDENSED>  (1608) 
D-aMePhe(4-Br)

>  <IUPAC>  (1608) 
(2R)-2-amino-3-(4-bromophenyl)-2-methylpropanoic acid

>  <TYPE>  (1608) 
Backbone

>  <CLASS>  (1608) 
alpha

>  <ANALOG>  (1608) 
Phe

>  <MOL_WT>  (1608) 
258.11499999999995

>  <LOGP>  (1608) 
1.7935999999999999

>  <TPSA>  (1608) 
63.32000000000001

>  <POPULARITY>  (1608) 
2.2

>  <PROTECTED>  (1608) 
TRUE

>  <SMILES>  (1608) 
N[C@](C)(Cc1(ccc(Br)cc1))C(=O)O

>  <INCHIKEY>  (1608) 
PEGRPUVDOKWERK-SNVBAGLBSA-N

$$$$
D-aMePhe_4F
     RDKit          2D

 14 14  0  0  0  0  0  0  0  0999 V2000
   -0.7614    1.4549    0.0000 N   0  0  0  0  0  0  0  0  0  0  0  0
   -1.9195    0.5015    0.0000 C   0  0  0  0  0  0  0  0  0  0  0  0
   -2.8728    1.6596    0.0000 C   0  0  0  0  0  0  0  0  0  0  0  0
   -0.9661   -0.6566    0.0000 C   0  0  0  0  0  0  0  0  0  0  0  0
    0.5135   -0.4100    0.0000 C   0  0  0  0  0  0  0  0  0  0  0  0
    1.0397    0.9947    0.0000 C   0  0  0  0  0  0  0  0  0  0  0  0
    2.5193    1.2413    0.0000 C   0  0  0  0  0  0  0  0  0  0  0  0
    3.4726    0.0832    0.0000 C   0  0  0  0  0  0  0  0  0  0  0  0
    4.9522    0.3298    0.0000 F   0  0  0  0  0  0  0  0  0  0  0  0
    2.9464   -1.3215    0.0000 C   0  0  0  0  0  0  0  0  0  0  0  0
    1.4668   -1.5681    0.0000 C   0  0  0  0  0  0  0  0  0  0  0  0
   -3.0776   -0.4518    0.0000 C   0  0  0  0  0  0  0  0  0  0  0  0
   -4.4822    0.0744    0.0000 O   0  0  0  0  0  0  0  0  0  0  0  0
   -2.8310   -1.9314    0.0000 O   0  0  0  0  0  0  0  0  0  0  0  0
  1  2  1  0
  2  3  1  1
  2  4  1  0
  4  5  1  0
  5  6  1  0
  6  7  2  0
  7  8  1  0
  8  9  1  0
  8 10  2  0
 10 11  1  0
  2 12  1  0
 12 13  2  0
 12 14  1  0
 11  5  2  0
M  END
>  <rName>  (1609) 
D-aMePhe_4F

>  <PQ_SYMBOL>  (1609) 
D-aMePhe_4F

>  <FULL_NAME>  (1609) 
(R)-2-amino-3-(4-fluorophenyl)-2-methylpropanoic acid

>  <IUPAC_CONDENSED>  (1609) 
D-aMePhe(4-F)

>  <IUPAC>  (1609) 
(2R)-2-amino-2-((4-fluorophenyl)methyl)propanoic acid

>  <TYPE>  (1609) 
Backbone

>  <CLASS>  (1609) 
alpha

>  <ANALOG>  (1609) 
Phe

>  <MOL_WT>  (1609) 
197.209

>  <LOGP>  (1609) 
1.1702

>  <TPSA>  (1609) 
63.32000000000001

>  <POPULARITY>  (1609) 
7.8

>  <PROTECTED>  (1609) 
TRUE

>  <SMILES>  (1609) 
N[C@](C)(Cc1(ccc(F)cc1))C(=O)O

>  <INCHIKEY>  (1609) 
BBRMBENCQBOTHY-SNVBAGLBSA-N

$$$$
D-aMePhg
     RDKit          2D

 12 12  0  0  0  0  0  0  0  0999 V2000
    0.8941   -2.1463    0.0000 N   0  0  0  0  0  0  0  0  0  0  0  0
    1.2478   -0.6886    0.0000 C   0  0  0  0  0  0  0  0  0  0  0  0
    2.7055   -1.0423    0.0000 C   0  0  0  0  0  0  0  0  0  0  0  0
   -0.2099   -0.3350    0.0000 C   0  0  0  0  0  0  0  0  0  0  0  0
   -1.2451   -1.4205    0.0000 C   0  0  0  0  0  0  0  0  0  0  0  0
   -2.7028   -1.0668    0.0000 C   0  0  0  0  0  0  0  0  0  0  0  0
   -3.1253    0.3724    0.0000 C   0  0  0  0  0  0  0  0  0  0  0  0
   -2.0902    1.4580    0.0000 C   0  0  0  0  0  0  0  0  0  0  0  0
   -0.6324    1.1043    0.0000 C   0  0  0  0  0  0  0  0  0  0  0  0
    1.6015    0.7691    0.0000 C   0  0  0  0  0  0  0  0  0  0  0  0
    0.5159    1.8042    0.0000 O   0  0  0  0  0  0  0  0  0  0  0  0
    3.0408    1.1916    0.0000 O   0  0  0  0  0  0  0  0  0  0  0  0
  1  2  1  0
  2  3  1  1
  2  4  1  0
  4  5  2  0
  5  6  1  0
  6  7  2  0
  7  8  1  0
  8  9  2  0
  2 10  1  0
 10 11  2  0
 10 12  1  0
  9  4  1  0
M  END
>  <rName>  (1610) 
D-aMePhg

>  <PQ_SYMBOL>  (1610) 
D-aMePhg

>  <FULL_NAME>  (1610) 
alpha-methyl-D-Phenylglycine

>  <IUPAC_CONDENSED>  (1610) 
D-aMePhg

>  <IUPAC>  (1610) 
(2R)-2-amino-2-phenylpropanoic acid

>  <TYPE>  (1610) 
Backbone

>  <CLASS>  (1610) 
alpha

>  <ANALOG>  (1610) 
X

>  <MOL_WT>  (1610) 
165.19199999999995

>  <LOGP>  (1610) 
0.9451

>  <TPSA>  (1610) 
63.32000000000001

>  <POPULARITY>  (1610) 
12.5

>  <PROTECTED>  (1610) 
TRUE

>  <SMILES>  (1610) 
N[C@](C)(c1(ccccc1))C(=O)O

>  <INCHIKEY>  (1610) 
HTCSFFGLRQDZDE-SECBINFHSA-N

$$$$
D-aMePra
     RDKit          2D

  9  8  0  0  0  0  0  0  0  0999 V2000
    0.8332    1.4497    0.0000 N   0  0  0  0  0  0  0  0  0  0  0  0
   -0.3210    0.4916    0.0000 C   0  0  0  0  0  0  0  0  0  0  0  0
   -1.2791    1.6458    0.0000 C   0  0  0  0  0  0  0  0  0  0  0  0
    0.6370   -0.6626    0.0000 C   0  0  0  0  0  0  0  0  0  0  0  0
    2.1156   -0.4100    0.0000 C   0  0  0  0  0  0  0  0  0  0  0  0
    3.5942   -0.1574    0.0000 C   0  0  0  0  0  0  0  0  0  0  0  0
   -1.4752   -0.4664    0.0000 C   0  0  0  0  0  0  0  0  0  0  0  0
   -2.8820    0.0541    0.0000 O   0  0  0  0  0  0  0  0  0  0  0  0
   -1.2226   -1.9450    0.0000 O   0  0  0  0  0  0  0  0  0  0  0  0
  1  2  1  0
  2  3  1  1
  2  4  1  0
  4  5  1  0
  5  6  3  0
  2  7  1  0
  7  8  2  0
  7  9  1  0
M  END
>  <rName>  (1611) 
D-aMePra

>  <PQ_SYMBOL>  (1611) 
D-aMePra

>  <FULL_NAME>  (1611) 
(R)-2-amino-2-methylpent-4-ynoic acid

>  <IUPAC_CONDENSED>  (1611) 
D-aMePra

>  <IUPAC>  (1611) 
(2R)-2-amino-2-methylpent-4-ynoic acid

>  <TYPE>  (1611) 
Backbone

>  <CLASS>  (1611) 
alpha

>  <ANALOG>  (1611) 
Leu

>  <MOL_WT>  (1611) 
127.14299999999997

>  <LOGP>  (1611) 
-0.18829999999999997

>  <TPSA>  (1611) 
63.32000000000001

>  <POPULARITY>  (1611) 
7.2

>  <PROTECTED>  (1611) 
TRUE

>  <SMILES>  (1611) 
N[C@](C)(CC#C)C(=O)O

>  <INCHIKEY>  (1611) 
FSBNDYYRTZBHAN-ZCFIWIBFSA-N

$$$$
D-aMePro
     RDKit          2D

  9  9  0  0  0  0  0  0  0  0999 V2000
   -0.4885   -1.0777    0.0000 N   0  0  0  0  0  0  0  0  0  0  0  0
   -0.0160    0.3460    0.0000 C   0  0  0  0  0  0  0  0  0  0  0  0
    0.7422    1.6403    0.0000 C   0  0  0  0  0  0  0  0  0  0  0  0
   -1.2239    1.2353    0.0000 C   0  0  0  0  0  0  0  0  0  0  0  0
   -2.4430    0.3613    0.0000 C   0  0  0  0  0  0  0  0  0  0  0  0
   -1.9885   -1.0682    0.0000 C   0  0  0  0  0  0  0  0  0  0  0  0
    1.3504   -0.2728    0.0000 C   0  0  0  0  0  0  0  0  0  0  0  0
    2.5695    0.6013    0.0000 O   0  0  0  0  0  0  0  0  0  0  0  0
    1.4978   -1.7655    0.0000 O   0  0  0  0  0  0  0  0  0  0  0  0
  1  2  1  0
  2  3  1  1
  2  4  1  0
  4  5  1  0
  5  6  1  0
  2  7  1  0
  7  8  2  0
  7  9  1  0
  6  1  1  0
M  END
>  <rName>  (1612) 
D-aMePro

>  <PQ_SYMBOL>  (1612) 
D-aMePro

>  <FULL_NAME>  (1612) 
(R)-2-methylpyrrolidine-2-carboxylic acid

>  <IUPAC_CONDENSED>  (1612) 
D-aMePro

>  <IUPAC>  (1612) 
(2R)-2-methylpyrrolidine-2-carboxylic acid

>  <TYPE>  (1612) 
Backbone

>  <CLASS>  (1612) 
alpha

>  <ANALOG>  (1612) 
Pro

>  <MOL_WT>  (1612) 
129.15900000000002

>  <LOGP>  (1612) 
0.2131

>  <TPSA>  (1612) 
49.33

>  <POPULARITY>  (1612) 
13.1

>  <PROTECTED>  (1612) 
TRUE

>  <SMILES>  (1612) 
N1[C@](C)(CCC1)C(=O)O

>  <INCHIKEY>  (1612) 
LWHHAVWYGIBIEU-ZCFIWIBFSA-N

$$$$
D-aMeSer
     RDKit          2D

  8  7  0  0  0  0  0  0  0  0999 V2000
    1.3909    1.3248    0.0000 N   0  0  0  0  0  0  0  0  0  0  0  0
    0.1650    0.4604    0.0000 C   0  0  0  0  0  0  0  0  0  0  0  0
   -0.6994    1.6864    0.0000 C   0  0  0  0  0  0  0  0  0  0  0  0
    1.0293   -0.7655    0.0000 C   0  0  0  0  0  0  0  0  0  0  0  0
    2.5232   -0.6299    0.0000 O   0  0  0  0  0  0  0  0  0  0  0  0
   -1.0610   -0.4039    0.0000 C   0  0  0  0  0  0  0  0  0  0  0  0
   -2.4225    0.2256    0.0000 O   0  0  0  0  0  0  0  0  0  0  0  0
   -0.9254   -1.8978    0.0000 O   0  0  0  0  0  0  0  0  0  0  0  0
  1  2  1  0
  2  3  1  1
  2  4  1  0
  4  5  1  0
  2  6  1  0
  6  7  2  0
  6  8  1  0
M  END
>  <rName>  (1613) 
D-aMeSer

>  <PQ_SYMBOL>  (1613) 
D-aMeSer

>  <FULL_NAME>  (1613) 
alpha-methyl-D-serine

>  <IUPAC_CONDENSED>  (1613) 
D-aMeSer

>  <IUPAC>  (1613) 
(2R)-2-amino-2-(hydroxymethyl)propanoic acid

>  <TYPE>  (1613) 
Backbone

>  <CLASS>  (1613) 
alpha

>  <ANALOG>  (1613) 
Ser

>  <MOL_WT>  (1613) 
119.11999999999998

>  <LOGP>  (1613) 
-1.2192999999999998

>  <TPSA>  (1613) 
83.55

>  <POPULARITY>  (1613) 
13.2

>  <PROTECTED>  (1613) 
TRUE

>  <SMILES>  (1613) 
N[C@](C)(CO)C(=O)O

>  <INCHIKEY>  (1613) 
CDUUKBXTEOFITR-SCSAIBSYSA-N

$$$$
D-aMeTrp
     RDKit          2D

 16 17  0  0  0  0  0  0  0  0999 V2000
   -1.7481   -1.6804    0.0000 N   0  0  0  0  0  0  0  0  0  0  0  0
   -2.4966   -0.3805    0.0000 C   0  0  0  0  0  0  0  0  0  0  0  0
   -3.7965   -1.1291    0.0000 C   0  0  0  0  0  0  0  0  0  0  0  0
   -1.1967    0.3680    0.0000 C   0  0  0  0  0  0  0  0  0  0  0  0
    0.1015   -0.3835    0.0000 C   0  0  0  0  0  0  0  0  0  0  0  0
    0.2566   -1.8754    0.0000 C   0  0  0  0  0  0  0  0  0  0  0  0
    1.7234   -2.1889    0.0000 N   0  0  0  0  0  0  0  0  0  0  0  0
    2.4749   -0.8908    0.0000 C   0  0  0  0  0  0  0  0  0  0  0  0
    3.9425   -0.5805    0.0000 C   0  0  0  0  0  0  0  0  0  0  0  0
    4.4076    0.8455    0.0000 C   0  0  0  0  0  0  0  0  0  0  0  0
    3.4052    1.9614    0.0000 C   0  0  0  0  0  0  0  0  0  0  0  0
    1.9376    1.6512    0.0000 C   0  0  0  0  0  0  0  0  0  0  0  0
    1.4725    0.2251    0.0000 C   0  0  0  0  0  0  0  0  0  0  0  0
   -3.2451    0.9194    0.0000 C   0  0  0  0  0  0  0  0  0  0  0  0
   -4.7451    0.9211    0.0000 O   0  0  0  0  0  0  0  0  0  0  0  0
   -2.4937    2.2176    0.0000 O   0  0  0  0  0  0  0  0  0  0  0  0
  1  2  1  0
  2  3  1  6
  2  4  1  0
  4  5  1  0
  5  6  2  0
  6  7  1  0
  7  8  1  0
  8  9  2  0
  9 10  1  0
 10 11  2  0
 11 12  1  0
 12 13  2  0
  2 14  1  0
 14 15  2  0
 14 16  1  0
 13  8  1  0
 13  5  1  0
M  END
>  <rName>  (1614) 
D-aMeTrp

>  <PQ_SYMBOL>  (1614) 
D-aMeTrp

>  <FULL_NAME>  (1614) 
(R)-2-amino-3-(1H-indol-3-yl)-2-methylpropanoic acid

>  <IUPAC_CONDENSED>  (1614) 
D-aMeTrp

>  <IUPAC>  (1614) 
(2R)-2-amino-2-((1H-indol-3-yl)methyl)propanoic acid

>  <TYPE>  (1614) 
Backbone

>  <CLASS>  (1614) 
alpha

>  <ANALOG>  (1614) 
Trp

>  <MOL_WT>  (1614) 
218.256

>  <LOGP>  (1614) 
1.5123999999999997

>  <TPSA>  (1614) 
79.11

>  <POPULARITY>  (1614) 
8.2

>  <PROTECTED>  (1614) 
TRUE

>  <SMILES>  (1614) 
N[C@](C)(Cc2(c[nH]c1(ccccc12)))C(=O)O

>  <INCHIKEY>  (1614) 
ZTTWHZHBPDYSQB-GFCCVEGCSA-N

$$$$
D-aMeTyr
     RDKit          2D

 14 14  0  0  0  0  0  0  0  0999 V2000
   -0.7614    1.4549    0.0000 N   0  0  0  0  0  0  0  0  0  0  0  0
   -1.9195    0.5015    0.0000 C   0  0  0  0  0  0  0  0  0  0  0  0
   -2.8728    1.6596    0.0000 C   0  0  0  0  0  0  0  0  0  0  0  0
   -0.9661   -0.6566    0.0000 C   0  0  0  0  0  0  0  0  0  0  0  0
    0.5135   -0.4100    0.0000 C   0  0  0  0  0  0  0  0  0  0  0  0
    1.0397    0.9947    0.0000 C   0  0  0  0  0  0  0  0  0  0  0  0
    2.5193    1.2413    0.0000 C   0  0  0  0  0  0  0  0  0  0  0  0
    3.4726    0.0832    0.0000 C   0  0  0  0  0  0  0  0  0  0  0  0
    4.9522    0.3298    0.0000 O   0  0  0  0  0  0  0  0  0  0  0  0
    2.9464   -1.3215    0.0000 C   0  0  0  0  0  0  0  0  0  0  0  0
    1.4668   -1.5681    0.0000 C   0  0  0  0  0  0  0  0  0  0  0  0
   -3.0776   -0.4518    0.0000 C   0  0  0  0  0  0  0  0  0  0  0  0
   -4.4822    0.0744    0.0000 O   0  0  0  0  0  0  0  0  0  0  0  0
   -2.8310   -1.9314    0.0000 O   0  0  0  0  0  0  0  0  0  0  0  0
  1  2  1  0
  2  3  1  1
  2  4  1  0
  4  5  1  0
  5  6  1  0
  6  7  2  0
  7  8  1  0
  8  9  1  0
  8 10  2  0
 10 11  1  0
  2 12  1  0
 12 13  2  0
 12 14  1  0
 11  5  2  0
M  END
>  <rName>  (1615) 
D-aMeTyr

>  <PQ_SYMBOL>  (1615) 
D-aMeTyr

>  <FULL_NAME>  (1615) 
(2R)-2-amino-3-(4-hydroxyphenyl)-2-methylpropanoic acid

>  <IUPAC_CONDENSED>  (1615) 
D-aMeTyr

>  <IUPAC>  (1615) 
(2R)-2-amino-2-((4-hydroxyphenyl)methyl)propanoic acid

>  <TYPE>  (1615) 
Backbone

>  <CLASS>  (1615) 
alpha

>  <ANALOG>  (1615) 
Tyr

>  <MOL_WT>  (1615) 
195.218

>  <LOGP>  (1615) 
0.7366999999999999

>  <TPSA>  (1615) 
83.55

>  <POPULARITY>  (1615) 
11.2

>  <PROTECTED>  (1615) 
TRUE

>  <SMILES>  (1615) 
N[C@](C)(Cc1(ccc(O)cc1))C(=O)O

>  <INCHIKEY>  (1615) 
NHTGHBARYWONDQ-SNVBAGLBSA-N

$$$$
D-aMeTyr_3OMe_Me
     RDKit          2D

 17 17  0  0  0  0  0  0  0  0999 V2000
   -1.8381    1.5840    0.0000 N   0  0  0  0  0  0  0  0  0  0  0  0
   -2.8140    0.4449    0.0000 C   0  0  0  0  0  0  0  0  0  0  0  0
   -3.9531    1.4207    0.0000 C   0  0  0  0  0  0  0  0  0  0  0  0
   -1.6748   -0.5310    0.0000 C   0  0  0  0  0  0  0  0  0  0  0  0
   -0.2601   -0.0324    0.0000 C   0  0  0  0  0  0  0  0  0  0  0  0
    0.0154    1.4421    0.0000 C   0  0  0  0  0  0  0  0  0  0  0  0
    1.4301    1.9407    0.0000 C   0  0  0  0  0  0  0  0  0  0  0  0
    2.5693    0.9649    0.0000 C   0  0  0  0  0  0  0  0  0  0  0  0
    3.9840    1.4635    0.0000 O   0  0  0  0  0  0  0  0  0  0  0  0
    5.1232    0.4876    0.0000 C   0  0  0  0  0  0  0  0  0  0  0  0
    2.2938   -0.5096    0.0000 C   0  0  0  0  0  0  0  0  0  0  0  0
    3.4330   -1.4855    0.0000 O   0  0  0  0  0  0  0  0  0  0  0  0
    3.1574   -2.9599    0.0000 C   0  0  0  0  0  0  0  0  0  0  0  0
    0.8791   -1.0082    0.0000 C   0  0  0  0  0  0  0  0  0  0  0  0
   -3.7898   -0.6943    0.0000 C   0  0  0  0  0  0  0  0  0  0  0  0
   -3.2912   -2.1090    0.0000 O   0  0  0  0  0  0  0  0  0  0  0  0
   -5.2643   -0.4188    0.0000 O   0  0  0  0  0  0  0  0  0  0  0  0
  1  2  1  0
  2  3  1  1
  2  4  1  0
  4  5  1  0
  5  6  1  0
  6  7  2  0
  7  8  1  0
  8  9  1  0
  9 10  1  0
  8 11  2  0
 11 12  1  0
 12 13  1  0
 11 14  1  0
  2 15  1  0
 15 16  2  0
 15 17  1  0
 14  5  2  0
M  END
>  <rName>  (1616) 
D-aMeTyr_3OMe_Me

>  <PQ_SYMBOL>  (1616) 
D-aMeTyr_3OMe_Me

>  <FULL_NAME>  (1616) 
(2R)-2-amino-3-(3,4-dimethoxyphenyl)-2-methylpropanoic acid

>  <IUPAC_CONDENSED>  (1616) 
D-aMeTyr(3-OMe,Me)

>  <IUPAC>  (1616) 
(2R)-2-amino-3-(3,4-dimethoxyphenyl)-2-methylpropanoic acid

>  <TYPE>  (1616) 
Backbone

>  <CLASS>  (1616) 
alpha

>  <ANALOG>  (1616) 
Tyr

>  <MOL_WT>  (1616) 
239.27099999999996

>  <LOGP>  (1616) 
1.0482999999999998

>  <TPSA>  (1616) 
81.78

>  <POPULARITY>  (1616) 
2.2

>  <PROTECTED>  (1616) 
TRUE

>  <SMILES>  (1616) 
N[C@](C)(Cc1(ccc(OC)c(OC)c1))C(=O)O

>  <INCHIKEY>  (1616) 
QCCQWLWXLUTSAK-GFCCVEGCSA-N

$$$$
D-aMeVal
     RDKit          2D

  9  8  0  0  0  0  0  0  0  0999 V2000
    1.0607    1.7678    0.0000 N   0  0  0  0  0  0  0  0  0  0  0  0
    0.0000    0.7071    0.0000 C   0  0  0  0  0  0  0  0  0  0  0  0
   -1.0607    1.7678    0.0000 C   0  0  0  0  0  0  0  0  0  0  0  0
    1.0607   -0.3536    0.0000 C   0  0  0  0  0  0  0  0  0  0  0  0
    2.5095    0.0347    0.0000 C   0  0  0  0  0  0  0  0  0  0  0  0
    0.6724   -1.8024    0.0000 C   0  0  0  0  0  0  0  0  0  0  0  0
   -1.0607   -0.3536    0.0000 C   0  0  0  0  0  0  0  0  0  0  0  0
   -2.5095    0.0347    0.0000 O   0  0  0  0  0  0  0  0  0  0  0  0
   -0.6724   -1.8024    0.0000 O   0  0  0  0  0  0  0  0  0  0  0  0
  1  2  1  0
  2  3  1  1
  2  4  1  0
  4  5  1  0
  4  6  1  0
  2  7  1  0
  7  8  2  0
  7  9  1  0
M  END
>  <rName>  (1617) 
D-aMeVal

>  <PQ_SYMBOL>  (1617) 
D-aMeVal

>  <FULL_NAME>  (1617) 
alpha-methyl-D-valine

>  <IUPAC_CONDENSED>  (1617) 
D-aMeVal

>  <IUPAC>  (1617) 
(2R)-2-amino-2,3-dimethylbutanoic acid

>  <TYPE>  (1617) 
Backbone

>  <CLASS>  (1617) 
alpha

>  <ANALOG>  (1617) 
Val

>  <MOL_WT>  (1617) 
131.175

>  <LOGP>  (1617) 
0.44439999999999985

>  <TPSA>  (1617) 
63.32000000000001

>  <POPULARITY>  (1617) 
12.4

>  <PROTECTED>  (1617) 
TRUE

>  <SMILES>  (1617) 
N[C@](C)(C(C)C)C(=O)O

>  <INCHIKEY>  (1617) 
GPYTYOMSQHBYTK-ZCFIWIBFSA-N

$$$$
D-aMeaHyp
     RDKit          2D

 10 10  0  0  0  0  0  0  0  0999 V2000
    0.0290   -1.1651    0.0000 N   0  0  0  0  0  0  0  0  0  0  0  0
    0.3389    0.3025    0.0000 C   0  0  0  0  0  0  0  0  0  0  0  0
    0.9472    1.6736    0.0000 C   0  0  0  0  0  0  0  0  0  0  0  0
   -0.9612    1.0508    0.0000 C   0  0  0  0  0  0  0  0  0  0  0  0
   -2.0745    0.0456    0.0000 C   0  0  0  0  0  0  0  0  0  0  0  0
   -3.5422    0.3555    0.0000 O   0  0  0  0  0  0  0  0  0  0  0  0
   -1.4626   -1.3239    0.0000 C   0  0  0  0  0  0  0  0  0  0  0  0
    1.7661   -0.1591    0.0000 C   0  0  0  0  0  0  0  0  0  0  0  0
    2.8795    0.8461    0.0000 O   0  0  0  0  0  0  0  0  0  0  0  0
    2.0799   -1.6259    0.0000 O   0  0  0  0  0  0  0  0  0  0  0  0
  1  2  1  0
  2  3  1  1
  2  4  1  0
  4  5  1  0
  5  6  1  6
  5  7  1  0
  2  8  1  0
  8  9  2  0
  8 10  1  0
  7  1  1  0
M  END
>  <rName>  (1618) 
D-aMeaHyp

>  <PQ_SYMBOL>  (1618) 
D-aMeaHyp

>  <FULL_NAME>  (1618) 
(2R,4R)-4-Hydroxy-2-methylpyrrolidine-2-carboxylic acid

>  <IUPAC_CONDENSED>  (1618) 
D-aMeaHyp

>  <IUPAC>  (1618) 
(2R,4R)-4-hydroxy-2-methylpyrrolidine-2-carboxylic acid

>  <TYPE>  (1618) 
Backbone

>  <CLASS>  (1618) 
alpha

>  <ANALOG>  (1618) 
Pro

>  <MOL_WT>  (1618) 
145.158

>  <LOGP>  (1618) 
-0.8161000000000005

>  <TPSA>  (1618) 
69.56

>  <POPULARITY>  (1618) 
2.2

>  <PROTECTED>  (1618) 
TRUE

>  <SMILES>  (1618) 
N1[C@](C)(C[C@@H](O)C1)C(=O)O

>  <INCHIKEY>  (1618) 
IWARIVJLIISIED-INEUFUBQSA-N

$$$$
D-aMehPhe
     RDKit          2D

 14 14  0  0  0  0  0  0  0  0999 V2000
   -2.7092    2.1394    0.0000 N   0  0  0  0  0  0  0  0  0  0  0  0
   -2.5158    0.6520    0.0000 C   0  0  0  0  0  0  0  0  0  0  0  0
   -4.0033    0.4585    0.0000 C   0  0  0  0  0  0  0  0  0  0  0  0
   -1.0283    0.8454    0.0000 C   0  0  0  0  0  0  0  0  0  0  0  0
   -0.1171   -0.3461    0.0000 C   0  0  0  0  0  0  0  0  0  0  0  0
    1.3704   -0.1526    0.0000 C   0  0  0  0  0  0  0  0  0  0  0  0
    1.9466    1.2323    0.0000 C   0  0  0  0  0  0  0  0  0  0  0  0
    3.4341    1.4257    0.0000 C   0  0  0  0  0  0  0  0  0  0  0  0
    4.3454    0.2342    0.0000 C   0  0  0  0  0  0  0  0  0  0  0  0
    3.7691   -1.1507    0.0000 C   0  0  0  0  0  0  0  0  0  0  0  0
    2.2817   -1.3441    0.0000 C   0  0  0  0  0  0  0  0  0  0  0  0
   -2.3224   -0.8355    0.0000 C   0  0  0  0  0  0  0  0  0  0  0  0
   -0.9375   -1.4117    0.0000 O   0  0  0  0  0  0  0  0  0  0  0  0
   -3.5138   -1.7468    0.0000 O   0  0  0  0  0  0  0  0  0  0  0  0
  1  2  1  0
  2  3  1  1
  2  4  1  0
  4  5  1  0
  5  6  1  0
  6  7  2  0
  7  8  1  0
  8  9  2  0
  9 10  1  0
 10 11  2  0
  2 12  1  0
 12 13  2  0
 12 14  1  0
 11  6  1  0
M  END
>  <rName>  (1619) 
D-aMehPhe

>  <PQ_SYMBOL>  (1619) 
D-aMehPhe

>  <FULL_NAME>  (1619) 
(R)-2-amino-2-methyl-4-phenylbutanoic acid

>  <IUPAC_CONDENSED>  (1619) 
D-aMehPhe

>  <IUPAC>  (1619) 
(2R)-2-amino-2-methyl-4-phenylbutanoic acid

>  <TYPE>  (1619) 
Backbone

>  <CLASS>  (1619) 
alpha

>  <ANALOG>  (1619) 
Phe

>  <MOL_WT>  (1619) 
193.24599999999998

>  <LOGP>  (1619) 
1.4212

>  <TPSA>  (1619) 
63.32000000000001

>  <POPULARITY>  (1619) 
7.5

>  <PROTECTED>  (1619) 
TRUE

>  <SMILES>  (1619) 
N[C@](C)(CCc1(ccccc1))C(=O)O

>  <INCHIKEY>  (1619) 
PHZKTNAAGCQMAO-LLVKDONJSA-N

$$$$
D-aNH2Apm
     RDKit          2D

 13 12  0  0  0  0  0  0  0  0999 V2000
    2.7138    1.6520    0.0000 N   0  0  0  0  0  0  0  0  0  0  0  0
    2.1874    0.2474    0.0000 C   0  0  0  0  0  0  0  0  0  0  0  0
    1.6611   -1.1572    0.0000 N   0  0  0  0  0  0  0  0  0  0  0  0
    0.7828    0.7738    0.0000 C   0  0  0  0  0  0  0  0  0  0  0  0
   -0.3753   -0.1795    0.0000 C   0  0  0  0  0  0  0  0  0  0  0  0
   -1.7799    0.3469    0.0000 C   0  0  0  0  0  0  0  0  0  0  0  0
   -2.9381   -0.6064    0.0000 C   0  0  0  0  0  0  0  0  0  0  0  0
   -4.3427   -0.0801    0.0000 C   0  0  0  0  0  0  0  0  0  0  0  0
   -4.5892    1.3995    0.0000 O   0  0  0  0  0  0  0  0  0  0  0  0
   -5.5008   -1.0333    0.0000 O   0  0  0  0  0  0  0  0  0  0  0  0
    3.5921   -0.2789    0.0000 C   0  0  0  0  0  0  0  0  0  0  0  0
    4.7502    0.6743    0.0000 O   0  0  0  0  0  0  0  0  0  0  0  0
    3.8386   -1.7585    0.0000 O   0  0  0  0  0  0  0  0  0  0  0  0
  1  2  1  0
  2  3  1  0
  2  4  1  0
  4  5  1  0
  5  6  1  0
  6  7  1  0
  7  8  1  0
  8  9  2  0
  8 10  1  0
  2 11  1  0
 11 12  2  0
 11 13  1  0
M  END
>  <rName>  (1620) 
D-aNH2Apm

>  <PQ_SYMBOL>  (1620) 
D-aNH2Apm

>  <FULL_NAME>  (1620) 
D-Diaminopimelic acid

>  <IUPAC_CONDENSED>  (1620) 
D-aNH2Apm

>  <IUPAC>  (1620) 
2,2-diaminoheptanedioic acid

>  <TYPE>  (1620) 
Backbone

>  <CLASS>  (1620) 
alpha

>  <ANALOG>  (1620) 
X

>  <MOL_WT>  (1620) 
190.199

>  <LOGP>  (1620) 
-0.6703000000000006

>  <TPSA>  (1620) 
126.64

>  <POPULARITY>  (1620) 
1.1

>  <PROTECTED>  (1620) 
FALSE

>  <SMILES>  (1620) 
NC(N)(CCCCC(=O)O)C(=O)O

>  <INCHIKEY>  (1620) 
HAWJUUUDZFZUKG-UHFFFAOYSA-N

$$$$
D-aPhGaba
     RDKit          2D

 13 13  0  0  0  0  0  0  0  0999 V2000
   -0.1920   -2.3597    0.0000 N   0  0  0  0  0  0  0  0  0  0  0  0
   -0.0074   -0.8711    0.0000 C   0  0  0  0  0  0  0  0  0  0  0  0
    1.3741   -0.2867    0.0000 C   0  0  0  0  0  0  0  0  0  0  0  0
    1.5588    1.2019    0.0000 C   0  0  0  0  0  0  0  0  0  0  0  0
    2.9403    1.7862    0.0000 C   0  0  0  0  0  0  0  0  0  0  0  0
    4.1371    0.8820    0.0000 C   0  0  0  0  0  0  0  0  0  0  0  0
    3.9524   -0.6066    0.0000 C   0  0  0  0  0  0  0  0  0  0  0  0
    2.5709   -1.1910    0.0000 C   0  0  0  0  0  0  0  0  0  0  0  0
   -1.2042    0.0331    0.0000 C   0  0  0  0  0  0  0  0  0  0  0  0
   -2.5857   -0.5512    0.0000 C   0  0  0  0  0  0  0  0  0  0  0  0
   -3.7825    0.3530    0.0000 C   0  0  0  0  0  0  0  0  0  0  0  0
   -3.5978    1.8416    0.0000 O   0  0  0  0  0  0  0  0  0  0  0  0
   -5.1640   -0.2314    0.0000 O   0  0  0  0  0  0  0  0  0  0  0  0
  2  1  1  6
  2  3  1  0
  3  4  2  0
  4  5  1  0
  5  6  2  0
  6  7  1  0
  7  8  2  0
  2  9  1  0
  9 10  1  0
 10 11  1  0
 11 12  2  0
 11 13  1  0
  8  3  1  0
M  END
>  <rName>  (1621) 
D-aPhGaba

>  <PQ_SYMBOL>  (1621) 
D-aPhGaba

>  <FULL_NAME>  (1621) 
(R)-4-Amino-4-phenylbutanoic acid

>  <IUPAC_CONDENSED>  (1621) 
D-aPhGaba

>  <IUPAC>  (1621) 
(4R)-4-amino-4-phenylbutanoic acid

>  <TYPE>  (1621) 
Backbone

>  <CLASS>  (1621) 
gamma

>  <ANALOG>  (1621) 
X

>  <MOL_WT>  (1621) 
179.21899999999997

>  <LOGP>  (1621) 
1.5512000000000001

>  <TPSA>  (1621) 
63.32000000000001

>  <POPULARITY>  (1621) 
2.2

>  <PROTECTED>  (1621) 
TRUE

>  <SMILES>  (1621) 
N[C@@H](c1(ccccc1))CCC(=O)O

>  <INCHIKEY>  (1621) 
QCHLDIVWWGHNQB-SECBINFHSA-N

$$$$
D-aPhS-Nip
     RDKit          2D

 15 16  0  0  0  0  0  0  0  0999 V2000
    1.1645   -2.0576    0.0000 N   0  0  0  0  0  0  0  0  0  0  0  0
    0.5736   -0.6789    0.0000 C   0  0  0  0  0  0  0  0  0  0  0  0
   -0.9158   -0.5013    0.0000 C   0  0  0  0  0  0  0  0  0  0  0  0
   -1.5067    0.8774    0.0000 C   0  0  0  0  0  0  0  0  0  0  0  0
   -2.9961    1.0551    0.0000 C   0  0  0  0  0  0  0  0  0  0  0  0
   -3.8947   -0.1460    0.0000 C   0  0  0  0  0  0  0  0  0  0  0  0
   -3.3038   -1.5247    0.0000 C   0  0  0  0  0  0  0  0  0  0  0  0
   -1.8144   -1.7024    0.0000 C   0  0  0  0  0  0  0  0  0  0  0  0
    1.4722    0.5221    0.0000 C   0  0  0  0  0  0  0  0  0  0  0  0
    2.9616    0.3445    0.0000 C   0  0  0  0  0  0  0  0  0  0  0  0
    3.5525   -1.0342    0.0000 C   0  0  0  0  0  0  0  0  0  0  0  0
    2.6540   -2.2353    0.0000 C   0  0  0  0  0  0  0  0  0  0  0  0
    0.8813    1.9009    0.0000 C   0  0  0  0  0  0  0  0  0  0  0  0
   -0.6081    2.0785    0.0000 O   0  0  0  0  0  0  0  0  0  0  0  0
    1.7799    3.1019    0.0000 O   0  0  0  0  0  0  0  0  0  0  0  0
  1  2  1  0
  2  3  1  1
  3  4  2  0
  4  5  1  0
  5  6  2  0
  6  7  1  0
  7  8  2  0
  2  9  1  0
  9 10  1  0
 10 11  1  0
 11 12  1  0
  9 13  1  1
 13 14  2  0
 13 15  1  0
 12  1  1  0
  8  3  1  0
M  END
>  <rName>  (1622) 
D-aPhS-Nip

>  <PQ_SYMBOL>  (1622) 
D-aPhS-Nip

>  <FULL_NAME>  (1622) 
O=C(O)[C@H]1CCCN[C@H]1c1ccccc1

>  <IUPAC_CONDENSED>  (1622) 
D-aPh(S)-Nip

>  <IUPAC>  (1622) 
(2R,3S)-2-phenylpiperidine-3-carboxylic acid

>  <TYPE>  (1622) 
Backbone

>  <CLASS>  (1622) 
beta

>  <ANALOG>  (1622) 
X

>  <MOL_WT>  (1622) 
205.25699999999992

>  <LOGP>  (1622) 
1.8119

>  <TPSA>  (1622) 
49.33

>  <POPULARITY>  (1622) 
5.8

>  <PROTECTED>  (1622) 
TRUE

>  <SMILES>  (1622) 
N1[C@@H](c2(ccccc2))[C@H](CCC1)C(=O)O

>  <INCHIKEY>  (1622) 
NNPMOXOUGYQLMG-QWRGUYRKSA-N

$$$$
D-aThr
     RDKit          2D

  8  7  0  0  0  0  0  0  0  0999 V2000
    0.0000   -2.0625    0.0000 N   0  0  0  0  0  0  0  0  0  0  0  0
    0.0000   -0.5625    0.0000 C   0  0  0  0  0  0  0  0  0  0  0  0
   -1.2990    0.1875    0.0000 C   0  0  0  0  0  0  0  0  0  0  0  0
   -1.2990    1.6875    0.0000 O   0  0  0  0  0  0  0  0  0  0  0  0
   -2.5981   -0.5625    0.0000 C   0  0  0  0  0  0  0  0  0  0  0  0
    1.2990    0.1875    0.0000 C   0  0  0  0  0  0  0  0  0  0  0  0
    1.2990    1.6875    0.0000 O   0  0  0  0  0  0  0  0  0  0  0  0
    2.5981   -0.5625    0.0000 O   0  0  0  0  0  0  0  0  0  0  0  0
  2  1  1  6
  2  3  1  0
  3  4  1  0
  3  5  1  1
  2  6  1  0
  6  7  2  0
  6  8  1  0
M  END
>  <rName>  (1623) 
D-aThr

>  <PQ_SYMBOL>  (1623) 
D-aThr

>  <FULL_NAME>  (1623) 
D-Allothreonine, (2R,3R)-Allothreonine

>  <IUPAC_CONDENSED>  (1623) 
D-aThr

>  <IUPAC>  (1623) 
(2R,3R)-2-amino-3-hydroxybutanoic acid

>  <TYPE>  (1623) 
Backbone

>  <CLASS>  (1623) 
alpha

>  <ANALOG>  (1623) 
Thr

>  <MOL_WT>  (1623) 
119.11999999999999

>  <LOGP>  (1623) 
-1.2209

>  <TPSA>  (1623) 
83.55

>  <POPULARITY>  (1623) 
42.1

>  <PROTECTED>  (1623) 
TRUE

>  <SMILES>  (1623) 
N[C@H]([C@H](O)C)C(=O)O

>  <INCHIKEY>  (1623) 
AYFVYJQAPQTCCC-PWNYCUMCSA-N

$$$$
D-aThr_Et
     RDKit          2D

 10  9  0  0  0  0  0  0  0  0999 V2000
   -0.1778    1.6944    0.0000 N   0  0  0  0  0  0  0  0  0  0  0  0
    0.5357    0.3749    0.0000 C   0  0  0  0  0  0  0  0  0  0  0  0
   -0.2503   -0.9027    0.0000 C   0  0  0  0  0  0  0  0  0  0  0  0
   -1.7497   -0.8608    0.0000 O   0  0  0  0  0  0  0  0  0  0  0  0
   -2.4632    0.4586    0.0000 C   0  0  0  0  0  0  0  0  0  0  0  0
   -3.9626    0.5005    0.0000 C   0  0  0  0  0  0  0  0  0  0  0  0
    0.4632   -2.2222    0.0000 C   0  0  0  0  0  0  0  0  0  0  0  0
    2.0351    0.3331    0.0000 C   0  0  0  0  0  0  0  0  0  0  0  0
    2.7485   -0.9864    0.0000 O   0  0  0  0  0  0  0  0  0  0  0  0
    2.8210    1.6107    0.0000 O   0  0  0  0  0  0  0  0  0  0  0  0
  2  1  1  1
  2  3  1  0
  3  4  1  0
  4  5  1  0
  5  6  1  0
  3  7  1  1
  2  8  1  0
  8  9  2  0
  8 10  1  0
M  END
>  <rName>  (1624) 
D-aThr_Et

>  <PQ_SYMBOL>  (1624) 
D-aThr_Et

>  <FULL_NAME>  (1624) 
Allo-O-Ethyl-D-Thr

>  <IUPAC_CONDENSED>  (1624) 
D-aThr(Et)

>  <IUPAC>  (1624) 
(2R,3R)-2-amino-3-ethoxybutanoic acid

>  <TYPE>  (1624) 
Backbone

>  <CLASS>  (1624) 
alpha

>  <ANALOG>  (1624) 
Thr

>  <MOL_WT>  (1624) 
147.174

>  <LOGP>  (1624) 
-0.17670000000000036

>  <TPSA>  (1624) 
72.55

>  <POPULARITY>  (1624) 
2.2

>  <PROTECTED>  (1624) 
TRUE

>  <SMILES>  (1624) 
N[C@H]([C@H](OCC)C)C(=O)O

>  <INCHIKEY>  (1624) 
LULHTUNPBBMNSJ-RFZPGFLSSA-N

$$$$
D-aallylPro
     RDKit          2D

 11 11  0  0  0  0  0  0  0  0999 V2000
   -1.5393   -0.8874    0.0000 N   0  0  0  0  0  0  0  0  0  0  0  0
   -0.4695    0.1640    0.0000 C   0  0  0  0  0  0  0  0  0  0  0  0
    0.7956    0.9700    0.0000 C   0  0  0  0  0  0  0  0  0  0  0  0
    2.1261    0.2773    0.0000 C   0  0  0  0  0  0  0  0  0  0  0  0
    3.3912    1.0833    0.0000 C   0  0  0  0  0  0  0  0  0  0  0  0
   -1.1388    1.5064    0.0000 C   0  0  0  0  0  0  0  0  0  0  0  0
   -2.6223    1.2847    0.0000 C   0  0  0  0  0  0  0  0  0  0  0  0
   -2.8699   -0.1947    0.0000 C   0  0  0  0  0  0  0  0  0  0  0  0
    0.4643   -1.0099    0.0000 C   0  0  0  0  0  0  0  0  0  0  0  0
    1.9478   -0.7882    0.0000 O   0  0  0  0  0  0  0  0  0  0  0  0
   -0.0854   -2.4055    0.0000 O   0  0  0  0  0  0  0  0  0  0  0  0
  1  2  1  0
  2  3  1  6
  3  4  1  0
  4  5  2  0
  2  6  1  0
  6  7  1  0
  7  8  1  0
  2  9  1  0
  9 10  2  0
  9 11  1  0
  8  1  1  0
M  END
>  <rName>  (1625) 
D-aallylPro

>  <PQ_SYMBOL>  (1625) 
D-aallylPro

>  <FULL_NAME>  (1625) 
(R)-2-allylpyrrolidine-2-carboxylic acid

>  <IUPAC_CONDENSED>  (1625) 
D-aallylPro

>  <IUPAC>  (1625) 
(2R)-2-(prop-2-en-1-yl)pyrrolidine-2-carboxylic acid

>  <TYPE>  (1625) 
Backbone

>  <CLASS>  (1625) 
alpha

>  <ANALOG>  (1625) 
Pro

>  <MOL_WT>  (1625) 
155.197

>  <LOGP>  (1625) 
0.7693000000000001

>  <TPSA>  (1625) 
49.33

>  <POPULARITY>  (1625) 
6.6

>  <PROTECTED>  (1625) 
TRUE

>  <SMILES>  (1625) 
N1[C@@](CC=C)(CCC1)C(=O)O

>  <INCHIKEY>  (1625) 
WRBBRKMXTLLAOB-QMMMGPOBSA-N

$$$$
D-acPrAla
     RDKit          2D

  9  9  0  0  0  0  0  0  0  0999 V2000
   -0.1081   -2.0917    0.0000 N   0  0  0  0  0  0  0  0  0  0  0  0
    0.4107   -0.6843    0.0000 C   0  0  0  0  0  0  0  0  0  0  0  0
    1.8181   -1.2030    0.0000 C   0  0  0  0  0  0  0  0  0  0  0  0
   -0.9967   -0.1655    0.0000 C   0  0  0  0  0  0  0  0  0  0  0  0
   -1.9562    0.9875    0.0000 C   0  0  0  0  0  0  0  0  0  0  0  0
   -2.4750   -0.4199    0.0000 C   0  0  0  0  0  0  0  0  0  0  0  0
    0.9295    0.7232    0.0000 C   0  0  0  0  0  0  0  0  0  0  0  0
   -0.0300    1.8762    0.0000 O   0  0  0  0  0  0  0  0  0  0  0  0
    2.4077    0.9776    0.0000 O   0  0  0  0  0  0  0  0  0  0  0  0
  1  2  1  0
  2  3  1  1
  2  4  1  0
  4  5  1  0
  5  6  1  0
  2  7  1  0
  7  8  2  0
  7  9  1  0
  6  4  1  0
M  END
>  <rName>  (1626) 
D-acPrAla

>  <PQ_SYMBOL>  (1626) 
D-acPrAla

>  <FULL_NAME>  (1626) 
(R)-2-amino-2-cyclopropylpropanoic acid hydrate

>  <IUPAC_CONDENSED>  (1626) 
D-acPrAla

>  <IUPAC>  (1626) 
(2R)-2-amino-2-cyclopropylpropanoic acid

>  <TYPE>  (1626) 
Backbone

>  <CLASS>  (1626) 
alpha

>  <ANALOG>  (1626) 
X

>  <MOL_WT>  (1626) 
129.15900000000002

>  <LOGP>  (1626) 
0.19839999999999985

>  <TPSA>  (1626) 
63.32000000000001

>  <POPULARITY>  (1626) 
7.8

>  <PROTECTED>  (1626) 
TRUE

>  <SMILES>  (1626) 
N[C@](C)(C1(CC1))C(=O)O

>  <INCHIKEY>  (1626) 
VRFYYCFVOBCXDL-ZCFIWIBFSA-N

$$$$
D-aiPrGaba
     RDKit          2D

 10  9  0  0  0  0  0  0  0  0999 V2000
   -1.2717    1.9622    0.0000 N   0  0  0  0  0  0  0  0  0  0  0  0
   -1.1946    0.4642    0.0000 C   0  0  0  0  0  0  0  0  0  0  0  0
   -2.4533   -0.3516    0.0000 C   0  0  0  0  0  0  0  0  0  0  0  0
   -3.7892    0.3306    0.0000 C   0  0  0  0  0  0  0  0  0  0  0  0
   -2.3762   -1.8496    0.0000 C   0  0  0  0  0  0  0  0  0  0  0  0
    0.1413   -0.2180    0.0000 C   0  0  0  0  0  0  0  0  0  0  0  0
    1.4001    0.5978    0.0000 C   0  0  0  0  0  0  0  0  0  0  0  0
    2.7359   -0.0845    0.0000 C   0  0  0  0  0  0  0  0  0  0  0  0
    2.8131   -1.5825    0.0000 O   0  0  0  0  0  0  0  0  0  0  0  0
    3.9947    0.7313    0.0000 O   0  0  0  0  0  0  0  0  0  0  0  0
  2  1  1  6
  2  3  1  0
  3  4  1  0
  3  5  1  0
  2  6  1  0
  6  7  1  0
  7  8  1  0
  8  9  2  0
  8 10  1  0
M  END
>  <rName>  (1627) 
D-aiPrGaba

>  <PQ_SYMBOL>  (1627) 
D-aiPrGaba

>  <FULL_NAME>  (1627) 
(4R)-4-amino-5-methylhexanoic acid

>  <IUPAC_CONDENSED>  (1627) 
D-aiPrGaba

>  <IUPAC>  (1627) 
(4R)-4-amino-5-methylhexanoic acid

>  <TYPE>  (1627) 
Backbone

>  <CLASS>  (1627) 
gamma

>  <ANALOG>  (1627) 
Val

>  <MOL_WT>  (1627) 
145.202

>  <LOGP>  (1627) 
0.8344999999999998

>  <TPSA>  (1627) 
63.32000000000001

>  <POPULARITY>  (1627) 
2.2

>  <PROTECTED>  (1627) 
TRUE

>  <SMILES>  (1627) 
N[C@@H](C(C)C)CCC(=O)O

>  <INCHIKEY>  (1627) 
HYYFSIISRIDZPM-ZCFIWIBFSA-N

$$$$
D-aindol-2-ylGaba
     RDKit          2D

 17 18  0  0  0  0  0  0  0  0999 V2000
   -1.5519   -1.8191    0.0000 N   0  0  0  0  0  0  0  0  0  0  0  0
   -1.5625   -0.3191    0.0000 C   0  0  0  0  0  0  0  0  0  0  0  0
   -0.2688    0.4401    0.0000 C   0  0  0  0  0  0  0  0  0  0  0  0
    1.0355   -0.3007    0.0000 C   0  0  0  0  0  0  0  0  0  0  0  0
    1.2029   -1.7913    0.0000 C   0  0  0  0  0  0  0  0  0  0  0  0
    2.6723   -2.0928    0.0000 N   0  0  0  0  0  0  0  0  0  0  0  0
    3.4130   -0.7885    0.0000 C   0  0  0  0  0  0  0  0  0  0  0  0
    4.8780   -0.4662    0.0000 C   0  0  0  0  0  0  0  0  0  0  0  0
    5.3314    0.9636    0.0000 C   0  0  0  0  0  0  0  0  0  0  0  0
    4.3198    2.0712    0.0000 C   0  0  0  0  0  0  0  0  0  0  0  0
    2.8549    1.7489    0.0000 C   0  0  0  0  0  0  0  0  0  0  0  0
    2.4015    0.3191    0.0000 C   0  0  0  0  0  0  0  0  0  0  0  0
   -2.8668    0.4217    0.0000 C   0  0  0  0  0  0  0  0  0  0  0  0
   -4.1605   -0.3375    0.0000 C   0  0  0  0  0  0  0  0  0  0  0  0
   -5.4648    0.4033    0.0000 C   0  0  0  0  0  0  0  0  0  0  0  0
   -5.4755    1.9032    0.0000 O   0  0  0  0  0  0  0  0  0  0  0  0
   -6.7585   -0.3559    0.0000 O   0  0  0  0  0  0  0  0  0  0  0  0
  2  1  1  6
  2  3  1  0
  3  4  1  0
  4  5  2  0
  5  6  1  0
  6  7  1  0
  7  8  2  0
  8  9  1  0
  9 10  2  0
 10 11  1  0
 11 12  2  0
  2 13  1  0
 13 14  1  0
 14 15  1  0
 15 16  2  0
 15 17  1  0
 12  7  1  0
 12  4  1  0
M  END
>  <rName>  (1628) 
D-aindol-2-ylGaba

>  <PQ_SYMBOL>  (1628) 
D-aindol-2-ylGaba

>  <FULL_NAME>  (1628) 
(4R)-4-amino-5-(1H-indol-3-yl)pentanoic acid

>  <IUPAC_CONDENSED>  (1628) 
D-aindol-2-ylGaba

>  <IUPAC>  (1628) 
(4R)-4-amino-5-(1H-indol-3-yl)pentanoic acid

>  <TYPE>  (1628) 
Backbone

>  <CLASS>  (1628) 
gamma

>  <ANALOG>  (1628) 
Trp

>  <MOL_WT>  (1628) 
232.28299999999996

>  <LOGP>  (1628) 
1.9025000000000003

>  <TPSA>  (1628) 
79.11

>  <POPULARITY>  (1628) 
8.6

>  <PROTECTED>  (1628) 
TRUE

>  <SMILES>  (1628) 
N[C@@H](Cc2(c[nH]c1(ccccc12)))CCC(=O)O

>  <INCHIKEY>  (1628) 
QJKGTQZAVYBRGG-SNVBAGLBSA-N

$$$$
D-bhArg
     RDKit          2D

 13 12  0  0  0  0  0  0  0  0999 V2000
    1.9669   -1.5369    0.0000 N   0  0  0  0  0  0  0  0  0  0  0  0
    1.8129   -0.0449    0.0000 C   0  0  0  0  0  0  0  0  0  0  0  0
    0.4437    0.5678    0.0000 C   0  0  0  0  0  0  0  0  0  0  0  0
   -0.7715   -0.3116    0.0000 C   0  0  0  0  0  0  0  0  0  0  0  0
   -2.1407    0.3010    0.0000 C   0  0  0  0  0  0  0  0  0  0  0  0
   -3.3558   -0.5784    0.0000 N   0  0  0  0  0  0  0  0  0  0  0  0
   -4.7250    0.0342    0.0000 C   0  0  0  0  0  0  0  0  0  0  0  0
   -4.8790    1.5263    0.0000 N   0  0  0  0  0  0  0  0  0  0  0  0
   -5.9402   -0.8452    0.0000 N   0  0  0  0  0  0  0  0  0  0  0  0
    3.0280    0.8346    0.0000 C   0  0  0  0  0  0  0  0  0  0  0  0
    4.3972    0.2219    0.0000 C   0  0  0  0  0  0  0  0  0  0  0  0
    4.5512   -1.2702    0.0000 O   0  0  0  0  0  0  0  0  0  0  0  0
    5.6124    1.1013    0.0000 O   0  0  0  0  0  0  0  0  0  0  0  0
  2  1  1  6
  2  3  1  0
  3  4  1  0
  4  5  1  0
  5  6  1  0
  6  7  1  0
  7  8  2  0
  7  9  1  0
  2 10  1  0
 10 11  1  0
 11 12  2  0
 11 13  1  0
M  END
>  <rName>  (1629) 
D-bhArg

>  <PQ_SYMBOL>  (1629) 
D-bhArg

>  <FULL_NAME>  (1629) 
(3R)-3-Amino-6-(diaminomethylideneamino)hexanoic acid, D-Beta-Homoarginine

>  <IUPAC_CONDENSED>  (1629) 
D-bhArg

>  <IUPAC>  (1629) 
(3R)-3-amino-6-(((amino)(imino)methyl)amino)hexanoic acid

>  <TYPE>  (1629) 
Backbone

>  <CLASS>  (1629) 
beta

>  <ANALOG>  (1629) 
Arg

>  <MOL_WT>  (1629) 
188.231

>  <LOGP>  (1629) 
-0.948329999999999

>  <TPSA>  (1629) 
125.22000000000001

>  <POPULARITY>  (1629) 
4.7

>  <PROTECTED>  (1629) 
TRUE

>  <SMILES>  (1629) 
N[C@H](CCCNC(=N)N)CC(=O)O

>  <INCHIKEY>  (1629) 
VNWXCGKMEWXYBP-RXMQYKEDSA-N

$$$$
D-bhTrp
     RDKit          2D

 16 17  0  0  0  0  0  0  0  0999 V2000
   -2.2204   -1.3731    0.0000 N   0  0  0  0  0  0  0  0  0  0  0  0
   -2.0671    0.1190    0.0000 C   0  0  0  0  0  0  0  0  0  0  0  0
   -0.6982    0.7323    0.0000 C   0  0  0  0  0  0  0  0  0  0  0  0
    0.5173   -0.1465    0.0000 C   0  0  0  0  0  0  0  0  0  0  0  0
    0.5208   -1.6465    0.0000 C   0  0  0  0  0  0  0  0  0  0  0  0
    1.9485   -2.1067    0.0000 N   0  0  0  0  0  0  0  0  0  0  0  0
    2.8273   -0.8912    0.0000 C   0  0  0  0  0  0  0  0  0  0  0  0
    4.3188   -0.7309    0.0000 C   0  0  0  0  0  0  0  0  0  0  0  0
    4.9257    0.6408    0.0000 C   0  0  0  0  0  0  0  0  0  0  0  0
    4.0412    1.8523    0.0000 C   0  0  0  0  0  0  0  0  0  0  0  0
    2.5498    1.6920    0.0000 C   0  0  0  0  0  0  0  0  0  0  0  0
    1.9428    0.3203    0.0000 C   0  0  0  0  0  0  0  0  0  0  0  0
   -3.2827    0.9979    0.0000 C   0  0  0  0  0  0  0  0  0  0  0  0
   -4.6516    0.3846    0.0000 C   0  0  0  0  0  0  0  0  0  0  0  0
   -4.8049   -1.1076    0.0000 O   0  0  0  0  0  0  0  0  0  0  0  0
   -5.8672    1.2634    0.0000 O   0  0  0  0  0  0  0  0  0  0  0  0
  2  1  1  1
  2  3  1  0
  3  4  1  0
  4  5  2  0
  5  6  1  0
  6  7  1  0
  7  8  2  0
  8  9  1  0
  9 10  2  0
 10 11  1  0
 11 12  2  0
  2 13  1  0
 13 14  1  0
 14 15  2  0
 14 16  1  0
 12  7  1  0
 12  4  1  0
M  END
>  <rName>  (1630) 
D-bhTrp

>  <PQ_SYMBOL>  (1630) 
D-bhTrp

>  <FULL_NAME>  (1630) 
(3~{R})-3-azanyl-4-(1~{H}-indol-3-yl)butanal

>  <IUPAC_CONDENSED>  (1630) 
D-bhTrp

>  <IUPAC>  (1630) 
(3R)-3-amino-4-(1H-indol-3-yl)butanoic acid

>  <TYPE>  (1630) 
Backbone

>  <CLASS>  (1630) 
beta

>  <ANALOG>  (1630) 
Trp

>  <MOL_WT>  (1630) 
218.25599999999997

>  <LOGP>  (1630) 
1.5124000000000004

>  <TPSA>  (1630) 
79.11

>  <POPULARITY>  (1630) 
10.2

>  <PROTECTED>  (1630) 
TRUE

>  <SMILES>  (1630) 
N[C@H](Cc2(c[nH]c1(ccccc12)))CC(=O)O

>  <INCHIKEY>  (1630) 
DUVVFMLAHWNDJD-SECBINFHSA-N

$$$$
D-bhaThr
     RDKit          2D

  9  8  0  0  0  0  0  0  0  0999 V2000
    0.2826    1.7410    0.0000 N   0  0  0  0  0  0  0  0  0  0  0  0
    0.5402    0.2633    0.0000 C   0  0  0  0  0  0  0  0  0  0  0  0
    1.9487   -0.2525    0.0000 C   0  0  0  0  0  0  0  0  0  0  0  0
    2.2062   -1.7302    0.0000 O   0  0  0  0  0  0  0  0  0  0  0  0
    3.0997    0.7094    0.0000 C   0  0  0  0  0  0  0  0  0  0  0  0
   -0.6108   -0.6986    0.0000 C   0  0  0  0  0  0  0  0  0  0  0  0
   -2.0193   -0.1828    0.0000 C   0  0  0  0  0  0  0  0  0  0  0  0
   -2.2769    1.2950    0.0000 O   0  0  0  0  0  0  0  0  0  0  0  0
   -3.1703   -1.1447    0.0000 O   0  0  0  0  0  0  0  0  0  0  0  0
  2  1  1  6
  2  3  1  0
  3  4  1  0
  3  5  1  6
  2  6  1  0
  6  7  1  0
  7  8  2  0
  7  9  1  0
M  END
>  <rName>  (1631) 
D-bhaThr

>  <PQ_SYMBOL>  (1631) 
D-bhaThr

>  <FULL_NAME>  (1631) 
D-Beta-Homoallothreonine, (3S,4S)-Beta-Homoallothreonine

>  <IUPAC_CONDENSED>  (1631) 
D-bhaThr

>  <IUPAC>  (1631) 
(3S,4S)-3-amino-4-hydroxypentanoic acid

>  <TYPE>  (1631) 
Backbone

>  <CLASS>  (1631) 
beta

>  <ANALOG>  (1631) 
Thr

>  <MOL_WT>  (1631) 
133.14700000000002

>  <LOGP>  (1631) 
-0.8308000000000006

>  <TPSA>  (1631) 
83.55

>  <POPULARITY>  (1631) 
10.1

>  <PROTECTED>  (1631) 
TRUE

>  <SMILES>  (1631) 
N[C@H]([C@@H](O)C)CC(=O)O

>  <INCHIKEY>  (1631) 
NIVRJEWVLMOZNV-IMJSIDKUSA-N

$$$$
D-gGlu
     RDKit          2D

 10  9  0  0  0  0  0  0  0  0999 V2000
    1.2717   -1.9622    0.0000 N   0  0  0  0  0  0  0  0  0  0  0  0
    1.1946   -0.4642    0.0000 C   0  0  0  0  0  0  0  0  0  0  0  0
    2.4533    0.3516    0.0000 C   0  0  0  0  0  0  0  0  0  0  0  0
    2.3762    1.8496    0.0000 O   0  0  0  0  0  0  0  0  0  0  0  0
    3.7892   -0.3306    0.0000 O   0  0  0  0  0  0  0  0  0  0  0  0
   -0.1413    0.2180    0.0000 C   0  0  0  0  0  0  0  0  0  0  0  0
   -1.4001   -0.5978    0.0000 C   0  0  0  0  0  0  0  0  0  0  0  0
   -2.7359    0.0845    0.0000 C   0  0  0  0  0  0  0  0  0  0  0  0
   -2.8131    1.5825    0.0000 O   0  0  0  0  0  0  0  0  0  0  0  0
   -3.9947   -0.7313    0.0000 O   0  0  0  0  0  0  0  0  0  0  0  0
  2  1  1  6
  2  3  1  0
  3  4  2  0
  3  5  1  0
  2  6  1  0
  6  7  1  0
  7  8  1  0
  8  9  2  0
  8 10  1  0
M  END
>  <rName>  (1632) 
D-gGlu

>  <PQ_SYMBOL>  (1632) 
D-gGlu

>  <FULL_NAME>  (1632) 
Gamma-D-Glutamic acid

>  <IUPAC_CONDENSED>  (1632) 
D-gGlu

>  <IUPAC>  (1632) 
(2R)-2-aminopentanedioic acid

>  <TYPE>  (1632) 
Backbone

>  <CLASS>  (1632) 
gamma

>  <ANALOG>  (1632) 
Glu

>  <MOL_WT>  (1632) 
147.13

>  <LOGP>  (1632) 
-0.7369000000000001

>  <TPSA>  (1632) 
100.62000000000002

>  <POPULARITY>  (1632) 
26.9

>  <PROTECTED>  (1632) 
FALSE

>  <SMILES>  (1632) 
N[C@@H](C(=O)O)CCC(=O)O

>  <INCHIKEY>  (1632) 
WHUUTDBJXJRKMK-GSVOUGTGSA-N

$$$$
D-hArg
     RDKit          2D

 13 12  0  0  0  0  0  0  0  0999 V2000
   -2.9072    1.8790    0.0000 N   0  0  0  0  0  0  0  0  0  0  0  0
   -2.9824    0.3808    0.0000 C   0  0  0  0  0  0  0  0  0  0  0  0
   -1.7226   -0.4334    0.0000 C   0  0  0  0  0  0  0  0  0  0  0  0
   -0.3876    0.2505    0.0000 C   0  0  0  0  0  0  0  0  0  0  0  0
    0.8722   -0.5637    0.0000 C   0  0  0  0  0  0  0  0  0  0  0  0
    2.2072    0.1202    0.0000 C   0  0  0  0  0  0  0  0  0  0  0  0
    3.4670   -0.6940    0.0000 N   0  0  0  0  0  0  0  0  0  0  0  0
    4.8020   -0.0101    0.0000 C   0  0  0  0  0  0  0  0  0  0  0  0
    4.8772    1.4880    0.0000 N   0  0  0  0  0  0  0  0  0  0  0  0
    6.0618   -0.8243    0.0000 N   0  0  0  0  0  0  0  0  0  0  0  0
   -4.3175   -0.3030    0.0000 C   0  0  0  0  0  0  0  0  0  0  0  0
   -4.3927   -1.8012    0.0000 O   0  0  0  0  0  0  0  0  0  0  0  0
   -5.5772    0.5112    0.0000 O   0  0  0  0  0  0  0  0  0  0  0  0
  2  1  1  6
  2  3  1  0
  3  4  1  0
  4  5  1  0
  5  6  1  0
  6  7  1  0
  7  8  1  0
  8  9  2  0
  8 10  1  0
  2 11  1  0
 11 12  2  0
 11 13  1  0
M  END
>  <rName>  (1633) 
D-hArg

>  <PQ_SYMBOL>  (1633) 
D-hArg

>  <FULL_NAME>  (1633) 
Homo-D-Arginine

>  <IUPAC_CONDENSED>  (1633) 
D-hArg

>  <IUPAC>  (1633) 
(2R)-2-amino-6-(((amino)(imino)methyl)amino)hexanoic acid

>  <TYPE>  (1633) 
Backbone

>  <CLASS>  (1633) 
alpha

>  <ANALOG>  (1633) 
Arg

>  <MOL_WT>  (1633) 
188.231

>  <LOGP>  (1633) 
-0.9483299999999986

>  <TPSA>  (1633) 
125.22000000000001

>  <POPULARITY>  (1633) 
14.0

>  <PROTECTED>  (1633) 
TRUE

>  <SMILES>  (1633) 
N[C@H](CCCCNC(=N)N)C(=O)O

>  <INCHIKEY>  (1633) 
QUOGESRFPZDMMT-RXMQYKEDSA-N

$$$$
D-hArg_Et_Et
     RDKit          2D

 17 16  0  0  0  0  0  0  0  0999 V2000
    4.2245   -1.5752    0.0000 N   0  0  0  0  0  0  0  0  0  0  0  0
    4.2042   -0.0754    0.0000 C   0  0  0  0  0  0  0  0  0  0  0  0
    2.8951    0.6570    0.0000 C   0  0  0  0  0  0  0  0  0  0  0  0
    1.6063   -0.1106    0.0000 C   0  0  0  0  0  0  0  0  0  0  0  0
    0.2973    0.6217    0.0000 C   0  0  0  0  0  0  0  0  0  0  0  0
   -0.9915   -0.1458    0.0000 C   0  0  0  0  0  0  0  0  0  0  0  0
   -2.3006    0.5865    0.0000 N   0  0  0  0  0  0  0  0  0  0  0  0
   -3.5893   -0.1810    0.0000 C   0  0  0  0  0  0  0  0  0  0  0  0
   -4.8984    0.5513    0.0000 N   0  0  0  0  0  0  0  0  0  0  0  0
   -4.9188    2.0511    0.0000 C   0  0  0  0  0  0  0  0  0  0  0  0
   -6.2278    2.7835    0.0000 C   0  0  0  0  0  0  0  0  0  0  0  0
   -3.5690   -1.6809    0.0000 N   0  0  0  0  0  0  0  0  0  0  0  0
   -2.2599   -2.4132    0.0000 C   0  0  0  0  0  0  0  0  0  0  0  0
   -2.2396   -3.9131    0.0000 C   0  0  0  0  0  0  0  0  0  0  0  0
    5.4929    0.6922    0.0000 C   0  0  0  0  0  0  0  0  0  0  0  0
    5.4726    2.1920    0.0000 O   0  0  0  0  0  0  0  0  0  0  0  0
    6.8020   -0.0401    0.0000 O   0  0  0  0  0  0  0  0  0  0  0  0
  2  1  1  6
  2  3  1  0
  3  4  1  0
  4  5  1  0
  5  6  1  0
  6  7  1  0
  7  8  1  0
  8  9  2  3
  9 10  1  0
 10 11  1  0
  8 12  1  0
 12 13  1  0
 13 14  1  0
  2 15  1  0
 15 16  2  0
 15 17  1  0
M  END
>  <rName>  (1634) 
D-hArg_Et_Et

>  <PQ_SYMBOL>  (1634) 
D-hArg_Et_Et

>  <FULL_NAME>  (1634) 
N6-(Bis(ethylamino)methylene)-D-lysine

>  <IUPAC_CONDENSED>  (1634) 
D-hArg(Et,Et)

>  <IUPAC>  (1634) 
(2R)-2-amino-6-(((ethylamino)(ethylimino)methyl)amino)hexanoic acid

>  <TYPE>  (1634) 
Backbone

>  <CLASS>  (1634) 
alpha

>  <ANALOG>  (1634) 
Arg

>  <MOL_WT>  (1634) 
244.339

>  <LOGP>  (1634) 
0.143600000000001

>  <TPSA>  (1634) 
99.74

>  <POPULARITY>  (1634) 
13.6

>  <PROTECTED>  (1634) 
TRUE

>  <SMILES>  (1634) 
N[C@H](CCCCNC(=NCC)NCC)C(=O)O

>  <INCHIKEY>  (1634) 
PWLYCRQCVMQUBU-SECBINFHSA-N

$$$$
D-hArg_Me
     RDKit          2D

 14 13  0  0  0  0  0  0  0  0999 V2000
    3.4434   -1.8746    0.0000 N   0  0  0  0  0  0  0  0  0  0  0  0
    3.5124   -0.3762    0.0000 C   0  0  0  0  0  0  0  0  0  0  0  0
    2.2492    0.4328    0.0000 C   0  0  0  0  0  0  0  0  0  0  0  0
    0.9171   -0.2567    0.0000 C   0  0  0  0  0  0  0  0  0  0  0  0
   -0.3461    0.5522    0.0000 C   0  0  0  0  0  0  0  0  0  0  0  0
   -1.6783   -0.1373    0.0000 C   0  0  0  0  0  0  0  0  0  0  0  0
   -2.9415    0.6717    0.0000 N   0  0  0  0  0  0  0  0  0  0  0  0
   -4.2736   -0.0178    0.0000 C   0  0  0  0  0  0  0  0  0  0  0  0
   -4.3426   -1.5162    0.0000 N   0  0  0  0  0  0  0  0  0  0  0  0
   -5.5368    0.7911    0.0000 N   0  0  0  0  0  0  0  0  0  0  0  0
   -6.8689    0.1016    0.0000 C   0  0  0  0  0  0  0  0  0  0  0  0
    4.8445    0.3133    0.0000 C   0  0  0  0  0  0  0  0  0  0  0  0
    4.9135    1.8117    0.0000 O   0  0  0  0  0  0  0  0  0  0  0  0
    6.1077   -0.4956    0.0000 O   0  0  0  0  0  0  0  0  0  0  0  0
  2  1  1  6
  2  3  1  0
  3  4  1  0
  4  5  1  0
  5  6  1  0
  6  7  1  0
  7  8  1  0
  8  9  2  0
  8 10  1  0
 10 11  1  0
  2 12  1  0
 12 13  2  0
 12 14  1  0
M  END
>  <rName>  (1635) 
D-hArg_Me

>  <PQ_SYMBOL>  (1635) 
D-hArg_Me

>  <FULL_NAME>  (1635) 
N6-(N-methylcarbamimidoyl)-D-lysine

>  <IUPAC_CONDENSED>  (1635) 
D-hArg(Me)

>  <IUPAC>  (1635) 
(2R)-2-amino-6-(((imino)(methylamino)methyl)amino)hexanoic acid

>  <TYPE>  (1635) 
Backbone

>  <CLASS>  (1635) 
alpha

>  <ANALOG>  (1635) 
Arg

>  <MOL_WT>  (1635) 
202.258

>  <LOGP>  (1635) 
-0.6876299999999986

>  <TPSA>  (1635) 
111.23

>  <POPULARITY>  (1635) 
3.9

>  <PROTECTED>  (1635) 
TRUE

>  <SMILES>  (1635) 
N[C@H](CCCCNC(=N)NC)C(=O)O

>  <INCHIKEY>  (1635) 
BISBENXUJVLWNC-ZCFIWIBFSA-N

$$$$
D-hCit
     RDKit          2D

 13 12  0  0  0  0  0  0  0  0999 V2000
   -2.9072    1.8790    0.0000 N   0  0  0  0  0  0  0  0  0  0  0  0
   -2.9824    0.3808    0.0000 C   0  0  0  0  0  0  0  0  0  0  0  0
   -1.7226   -0.4334    0.0000 C   0  0  0  0  0  0  0  0  0  0  0  0
   -0.3876    0.2505    0.0000 C   0  0  0  0  0  0  0  0  0  0  0  0
    0.8722   -0.5637    0.0000 C   0  0  0  0  0  0  0  0  0  0  0  0
    2.2072    0.1202    0.0000 C   0  0  0  0  0  0  0  0  0  0  0  0
    3.4670   -0.6940    0.0000 N   0  0  0  0  0  0  0  0  0  0  0  0
    4.8020   -0.0101    0.0000 C   0  0  0  0  0  0  0  0  0  0  0  0
    4.8772    1.4880    0.0000 O   0  0  0  0  0  0  0  0  0  0  0  0
    6.0618   -0.8243    0.0000 N   0  0  0  0  0  0  0  0  0  0  0  0
   -4.3175   -0.3030    0.0000 C   0  0  0  0  0  0  0  0  0  0  0  0
   -4.3927   -1.8012    0.0000 O   0  0  0  0  0  0  0  0  0  0  0  0
   -5.5772    0.5112    0.0000 O   0  0  0  0  0  0  0  0  0  0  0  0
  2  1  1  6
  2  3  1  0
  3  4  1  0
  4  5  1  0
  5  6  1  0
  6  7  1  0
  7  8  1  0
  8  9  2  0
  8 10  1  0
  2 11  1  0
 11 12  2  0
 11 13  1  0
M  END
>  <rName>  (1636) 
D-hCit

>  <PQ_SYMBOL>  (1636) 
D-hCit

>  <FULL_NAME>  (1636) 
(2R)-2-amino-6-(carbamoylamino)hexanoic acid

>  <IUPAC_CONDENSED>  (1636) 
D-hCit

>  <IUPAC>  (1636) 
(2R)-2-amino-6-(carbamoylamino)hexanoic acid

>  <TYPE>  (1636) 
Backbone

>  <CLASS>  (1636) 
alpha

>  <ANALOG>  (1636) 
Arg

>  <MOL_WT>  (1636) 
189.215

>  <LOGP>  (1636) 
-0.7630999999999994

>  <TPSA>  (1636) 
118.44000000000001

>  <POPULARITY>  (1636) 
12.7

>  <PROTECTED>  (1636) 
TRUE

>  <SMILES>  (1636) 
N[C@H](CCCCNC(=O)N)C(=O)O

>  <INCHIKEY>  (1636) 
XIGSAGMEBXLVJJ-RXMQYKEDSA-N

$$$$
D-hGln
     RDKit          2D

 11 10  0  0  0  0  0  0  0  0999 V2000
   -1.6269    1.8430    0.0000 N   0  0  0  0  0  0  0  0  0  0  0  0
   -1.7489    0.3480    0.0000 C   0  0  0  0  0  0  0  0  0  0  0  0
   -0.5152   -0.5052    0.0000 C   0  0  0  0  0  0  0  0  0  0  0  0
    0.8406    0.1366    0.0000 C   0  0  0  0  0  0  0  0  0  0  0  0
    2.0743   -0.7166    0.0000 C   0  0  0  0  0  0  0  0  0  0  0  0
    3.4300   -0.0748    0.0000 C   0  0  0  0  0  0  0  0  0  0  0  0
    3.5521    1.4203    0.0000 O   0  0  0  0  0  0  0  0  0  0  0  0
    4.6637   -0.9280    0.0000 N   0  0  0  0  0  0  0  0  0  0  0  0
   -3.1047   -0.2938    0.0000 C   0  0  0  0  0  0  0  0  0  0  0  0
   -3.2267   -1.7889    0.0000 O   0  0  0  0  0  0  0  0  0  0  0  0
   -4.3384    0.5594    0.0000 O   0  0  0  0  0  0  0  0  0  0  0  0
  2  1  1  6
  2  3  1  0
  3  4  1  0
  4  5  1  0
  5  6  1  0
  6  7  2  0
  6  8  1  0
  2  9  1  0
  9 10  2  0
  9 11  1  0
M  END
>  <rName>  (1637) 
D-hGln

>  <PQ_SYMBOL>  (1637) 
D-hGln

>  <FULL_NAME>  (1637) 
(R)-2,6-diamino-6-oxohexanoic acid

>  <IUPAC_CONDENSED>  (1637) 
D-hGln

>  <IUPAC>  (1637) 
(2R)-2-amino-5-carbamoylpentanoic acid

>  <TYPE>  (1637) 
Backbone

>  <CLASS>  (1637) 
alpha

>  <ANALOG>  (1637) 
Lys

>  <MOL_WT>  (1637) 
160.173

>  <LOGP>  (1637) 
-0.9460999999999993

>  <TPSA>  (1637) 
106.41000000000001

>  <POPULARITY>  (1637) 
7.9

>  <PROTECTED>  (1637) 
TRUE

>  <SMILES>  (1637) 
N[C@H](CCCC(=O)N)C(=O)O

>  <INCHIKEY>  (1637) 
YZJSUQQZGCHHNQ-SCSAIBSYSA-N

$$$$
D-hHis
     RDKit          2D

 12 12  0  0  0  0  0  0  0  0999 V2000
   -2.2999   -1.9362    0.0000 N   0  0  0  0  0  0  0  0  0  0  0  0
   -2.0700   -0.4539    0.0000 C   0  0  0  0  0  0  0  0  0  0  0  0
   -0.6714    0.0881    0.0000 C   0  0  0  0  0  0  0  0  0  0  0  0
    0.4974   -0.8521    0.0000 C   0  0  0  0  0  0  0  0  0  0  0  0
    1.8960   -0.3101    0.0000 C   0  0  0  0  0  0  0  0  0  0  0  0
    3.1566   -1.1230    0.0000 C   0  0  0  0  0  0  0  0  0  0  0  0
    4.3193   -0.1753    0.0000 N   0  0  0  0  0  0  0  0  0  0  0  0
    3.7773    1.2234    0.0000 C   0  0  0  0  0  0  0  0  0  0  0  0
    2.2796    1.1400    0.0000 N   0  0  0  0  0  0  0  0  0  0  0  0
   -3.2387    0.4863    0.0000 C   0  0  0  0  0  0  0  0  0  0  0  0
   -3.0088    1.9686    0.0000 O   0  0  0  0  0  0  0  0  0  0  0  0
   -4.6374   -0.0557    0.0000 O   0  0  0  0  0  0  0  0  0  0  0  0
  2  1  1  1
  2  3  1  0
  3  4  1  0
  4  5  1  0
  5  6  2  0
  6  7  1  0
  7  8  2  0
  8  9  1  0
  2 10  1  0
 10 11  2  0
 10 12  1  0
  9  5  1  0
M  END
>  <rName>  (1638) 
D-hHis

>  <PQ_SYMBOL>  (1638) 
D-hHis

>  <FULL_NAME>  (1638) 
D-hHis

>  <IUPAC_CONDENSED>  (1638) 
D-hHis

>  <IUPAC>  (1638) 
(2R)-2-amino-4-(1H-imidazol-5-yl)butanoic acid

>  <TYPE>  (1638) 
Backbone

>  <CLASS>  (1638) 
alpha

>  <ANALOG>  (1638) 
His

>  <MOL_WT>  (1638) 
169.184

>  <LOGP>  (1638) 
-0.24580000000000074

>  <TPSA>  (1638) 
92.0

>  <POPULARITY>  (1638) 
2.2

>  <PROTECTED>  (1638) 
TRUE

>  <SMILES>  (1638) 
N[C@H](CCc1(cnc[nH]1))C(=O)O

>  <INCHIKEY>  (1638) 
MSECZMWQBBVGEN-ZCFIWIBFSA-N

$$$$
D-hLeu
     RDKit          2D

 10  9  0  0  0  0  0  0  0  0999 V2000
    1.2717    1.9622    0.0000 N   0  0  0  0  0  0  0  0  0  0  0  0
    1.1946    0.4642    0.0000 C   0  0  0  0  0  0  0  0  0  0  0  0
   -0.1413   -0.2180    0.0000 C   0  0  0  0  0  0  0  0  0  0  0  0
   -1.4001    0.5978    0.0000 C   0  0  0  0  0  0  0  0  0  0  0  0
   -2.7359   -0.0845    0.0000 C   0  0  0  0  0  0  0  0  0  0  0  0
   -3.9947    0.7313    0.0000 C   0  0  0  0  0  0  0  0  0  0  0  0
   -2.8131   -1.5825    0.0000 C   0  0  0  0  0  0  0  0  0  0  0  0
    2.4533   -0.3516    0.0000 C   0  0  0  0  0  0  0  0  0  0  0  0
    2.3762   -1.8496    0.0000 O   0  0  0  0  0  0  0  0  0  0  0  0
    3.7892    0.3306    0.0000 O   0  0  0  0  0  0  0  0  0  0  0  0
  2  1  1  1
  2  3  1  0
  3  4  1  0
  4  5  1  0
  5  6  1  0
  5  7  1  0
  2  8  1  0
  8  9  2  0
  8 10  1  0
M  END
>  <rName>  (1639) 
D-hLeu

>  <PQ_SYMBOL>  (1639) 
D-hLeu

>  <FULL_NAME>  (1639) 
5-Methyl-D-Norleucine

>  <IUPAC_CONDENSED>  (1639) 
D-hLeu

>  <IUPAC>  (1639) 
(2R)-2-amino-5-methylhexanoic acid

>  <TYPE>  (1639) 
Backbone

>  <CLASS>  (1639) 
alpha

>  <ANALOG>  (1639) 
Leu

>  <MOL_WT>  (1639) 
145.202

>  <LOGP>  (1639) 
0.8344999999999998

>  <TPSA>  (1639) 
63.32000000000001

>  <POPULARITY>  (1639) 
20.8

>  <PROTECTED>  (1639) 
TRUE

>  <SMILES>  (1639) 
N[C@H](CCC(C)C)C(=O)O

>  <INCHIKEY>  (1639) 
FMUMEWVNYMUECA-ZCFIWIBFSA-N

$$$$
D-hLeu_Me
     RDKit          2D

 11 10  0  0  0  0  0  0  0  0999 V2000
    1.5275    1.9644    0.0000 N   0  0  0  0  0  0  0  0  0  0  0  0
    1.4450    0.4666    0.0000 C   0  0  0  0  0  0  0  0  0  0  0  0
    0.1067   -0.2107    0.0000 C   0  0  0  0  0  0  0  0  0  0  0  0
   -1.1491    0.6096    0.0000 C   0  0  0  0  0  0  0  0  0  0  0  0
   -2.4875   -0.0678    0.0000 C   0  0  0  0  0  0  0  0  0  0  0  0
   -3.1649    1.2706    0.0000 C   0  0  0  0  0  0  0  0  0  0  0  0
   -1.8101   -1.4061    0.0000 C   0  0  0  0  0  0  0  0  0  0  0  0
   -3.8258   -0.7452    0.0000 C   0  0  0  0  0  0  0  0  0  0  0  0
    2.7008   -0.3537    0.0000 C   0  0  0  0  0  0  0  0  0  0  0  0
    2.6183   -1.8514    0.0000 O   0  0  0  0  0  0  0  0  0  0  0  0
    4.0391    0.3237    0.0000 O   0  0  0  0  0  0  0  0  0  0  0  0
  2  1  1  1
  2  3  1  0
  3  4  1  0
  4  5  1  0
  5  6  1  0
  5  7  1  0
  5  8  1  0
  2  9  1  0
  9 10  2  0
  9 11  1  0
M  END
>  <rName>  (1640) 
D-hLeu_Me

>  <PQ_SYMBOL>  (1640) 
D-hLeu_Me

>  <FULL_NAME>  (1640) 
(R)-2-amino-5,5-dimethylhexanoic acid

>  <IUPAC_CONDENSED>  (1640) 
D-hLeu(Me)

>  <IUPAC>  (1640) 
(2R)-2-amino-5,5-dimethylhexanoic acid

>  <TYPE>  (1640) 
Backbone

>  <CLASS>  (1640) 
alpha

>  <ANALOG>  (1640) 
Leu

>  <MOL_WT>  (1640) 
159.22899999999998

>  <LOGP>  (1640) 
1.2245999999999997

>  <TPSA>  (1640) 
63.32000000000001

>  <POPULARITY>  (1640) 
7.9

>  <PROTECTED>  (1640) 
TRUE

>  <SMILES>  (1640) 
N[C@H](CCC(C)(C)C)C(=O)O

>  <INCHIKEY>  (1640) 
HMQBHFUPSBOCOE-ZCFIWIBFSA-N

$$$$
D-hLys
     RDKit          2D

 11 10  0  0  0  0  0  0  0  0999 V2000
   -1.9630    1.8884    0.0000 N   0  0  0  0  0  0  0  0  0  0  0  0
   -1.9989    0.3888    0.0000 C   0  0  0  0  0  0  0  0  0  0  0  0
   -0.7181   -0.3920    0.0000 C   0  0  0  0  0  0  0  0  0  0  0  0
    0.5985    0.3267    0.0000 C   0  0  0  0  0  0  0  0  0  0  0  0
    1.8792   -0.4541    0.0000 C   0  0  0  0  0  0  0  0  0  0  0  0
    3.1958    0.2646    0.0000 C   0  0  0  0  0  0  0  0  0  0  0  0
    4.4765   -0.5162    0.0000 C   0  0  0  0  0  0  0  0  0  0  0  0
    5.7931    0.2025    0.0000 N   0  0  0  0  0  0  0  0  0  0  0  0
   -3.3155   -0.3299    0.0000 C   0  0  0  0  0  0  0  0  0  0  0  0
   -3.3513   -1.8295    0.0000 O   0  0  0  0  0  0  0  0  0  0  0  0
   -4.5962    0.4509    0.0000 O   0  0  0  0  0  0  0  0  0  0  0  0
  2  1  1  6
  2  3  1  0
  3  4  1  0
  4  5  1  0
  5  6  1  0
  6  7  1  0
  7  8  1  0
  2  9  1  0
  9 10  2  0
  9 11  1  0
M  END
>  <rName>  (1641) 
D-hLys

>  <PQ_SYMBOL>  (1641) 
D-hLys

>  <FULL_NAME>  (1641) 
(R)-2,7-diaminoheptanoic acid

>  <IUPAC_CONDENSED>  (1641) 
D-hLys

>  <IUPAC>  (1641) 
(2R)-2,7-diaminoheptanoic acid

>  <TYPE>  (1641) 
Backbone

>  <CLASS>  (1641) 
alpha

>  <ANALOG>  (1641) 
Lys

>  <MOL_WT>  (1641) 
160.217

>  <LOGP>  (1641) 
-0.08260000000000067

>  <TPSA>  (1641) 
89.34

>  <POPULARITY>  (1641) 
10.6

>  <PROTECTED>  (1641) 
TRUE

>  <SMILES>  (1641) 
N[C@H](CCCCCN)C(=O)O

>  <INCHIKEY>  (1641) 
NMDDZEVVQDPECF-ZCFIWIBFSA-N

$$$$
D-hMet
     RDKit          2D

 10  9  0  0  0  0  0  0  0  0999 V2000
   -1.4166   -1.8843    0.0000 N   0  0  0  0  0  0  0  0  0  0  0  0
   -1.4265   -0.3844    0.0000 C   0  0  0  0  0  0  0  0  0  0  0  0
   -0.1324    0.3741    0.0000 C   0  0  0  0  0  0  0  0  0  0  0  0
    1.1716   -0.3673    0.0000 C   0  0  0  0  0  0  0  0  0  0  0  0
    2.4657    0.3912    0.0000 C   0  0  0  0  0  0  0  0  0  0  0  0
    3.7696   -0.3503    0.0000 S   0  0  0  0  0  0  0  0  0  0  0  0
    5.0637    0.4082    0.0000 C   0  0  0  0  0  0  0  0  0  0  0  0
   -2.7304    0.3571    0.0000 C   0  0  0  0  0  0  0  0  0  0  0  0
   -2.7402    1.8571    0.0000 O   0  0  0  0  0  0  0  0  0  0  0  0
   -4.0245   -0.4014    0.0000 O   0  0  0  0  0  0  0  0  0  0  0  0
  2  1  1  1
  2  3  1  0
  3  4  1  0
  4  5  1  0
  5  6  1  0
  6  7  1  0
  2  8  1  0
  8  9  2  0
  8 10  1  0
M  END
>  <rName>  (1642) 
D-hMet

>  <PQ_SYMBOL>  (1642) 
D-hMet

>  <FULL_NAME>  (1642) 
D-Homomethionine, 5-(methylsulfanyl)-D-Norvaline

>  <IUPAC_CONDENSED>  (1642) 
D-hMet

>  <IUPAC>  (1642) 
(2R)-2-amino-5-(methylsulfanyl)pentanoic acid

>  <TYPE>  (1642) 
Backbone

>  <CLASS>  (1642) 
alpha

>  <ANALOG>  (1642) 
X

>  <MOL_WT>  (1642) 
163.242

>  <LOGP>  (1642) 
0.5415000000000001

>  <TPSA>  (1642) 
63.32000000000001

>  <POPULARITY>  (1642) 
5.9

>  <PROTECTED>  (1642) 
TRUE

>  <SMILES>  (1642) 
N[C@H](CCCSC)C(=O)O

>  <INCHIKEY>  (1642) 
SFSJZXMDTNDWIX-RXMQYKEDSA-N

$$$$
D-hPhe
     RDKit          2D

 13 13  0  0  0  0  0  0  0  0999 V2000
   -2.6715   -1.9340    0.0000 N   0  0  0  0  0  0  0  0  0  0  0  0
   -2.4130   -0.4565    0.0000 C   0  0  0  0  0  0  0  0  0  0  0  0
   -1.0042    0.0585    0.0000 C   0  0  0  0  0  0  0  0  0  0  0  0
    0.1462   -0.9041    0.0000 C   0  0  0  0  0  0  0  0  0  0  0  0
    1.5550   -0.3891    0.0000 C   0  0  0  0  0  0  0  0  0  0  0  0
    1.8135    1.0885    0.0000 C   0  0  0  0  0  0  0  0  0  0  0  0
    3.2223    1.6034    0.0000 C   0  0  0  0  0  0  0  0  0  0  0  0
    4.3727    0.6408    0.0000 C   0  0  0  0  0  0  0  0  0  0  0  0
    4.1143   -0.8367    0.0000 C   0  0  0  0  0  0  0  0  0  0  0  0
    2.7054   -1.3517    0.0000 C   0  0  0  0  0  0  0  0  0  0  0  0
   -3.5634    0.5061    0.0000 C   0  0  0  0  0  0  0  0  0  0  0  0
   -3.3050    1.9837    0.0000 O   0  0  0  0  0  0  0  0  0  0  0  0
   -4.9723   -0.0089    0.0000 O   0  0  0  0  0  0  0  0  0  0  0  0
  2  1  1  1
  2  3  1  0
  3  4  1  0
  4  5  1  0
  5  6  2  0
  6  7  1  0
  7  8  2  0
  8  9  1  0
  9 10  2  0
  2 11  1  0
 11 12  2  0
 11 13  1  0
 10  5  1  0
M  END
>  <rName>  (1643) 
D-hPhe

>  <PQ_SYMBOL>  (1643) 
D-hPhe

>  <FULL_NAME>  (1643) 
Homo-D-Phenylalanine

>  <IUPAC_CONDENSED>  (1643) 
D-hPhe

>  <IUPAC>  (1643) 
(2R)-2-amino-4-phenylbutanoic acid

>  <TYPE>  (1643) 
Backbone

>  <CLASS>  (1643) 
alpha

>  <ANALOG>  (1643) 
Phe

>  <MOL_WT>  (1643) 
179.21899999999997

>  <LOGP>  (1643) 
1.0311

>  <TPSA>  (1643) 
63.32000000000001

>  <POPULARITY>  (1643) 
27.5

>  <PROTECTED>  (1643) 
TRUE

>  <SMILES>  (1643) 
N[C@H](CCc1(ccccc1))C(=O)O

>  <INCHIKEY>  (1643) 
JTTHKOPSMAVJFE-SECBINFHSA-N

$$$$
D-hPhe-OEt
     RDKit          2D

 15 15  0  0  0  0  0  0  0  0999 V2000
   -1.6744   -2.0992    0.0000 N   0  0  0  0  0  0  0  0  0  0  0  0
   -1.4783   -0.6120    0.0000 C   0  0  0  0  0  0  0  0  0  0  0  0
   -2.6682    0.3013    0.0000 C   0  0  0  0  0  0  0  0  0  0  0  0
   -2.4721    1.7885    0.0000 O   0  0  0  0  0  0  0  0  0  0  0  0
   -4.0541   -0.2724    0.0000 O   0  0  0  0  0  0  0  0  0  0  0  0
   -5.2440    0.6409    0.0000 C   0  0  0  0  0  0  0  0  0  0  0  0
   -6.6299    0.0672    0.0000 C   0  0  0  0  0  0  0  0  0  0  0  0
   -0.0924   -0.0383    0.0000 C   0  0  0  0  0  0  0  0  0  0  0  0
    1.0975   -0.9516    0.0000 C   0  0  0  0  0  0  0  0  0  0  0  0
    2.4834   -0.3778    0.0000 C   0  0  0  0  0  0  0  0  0  0  0  0
    2.6795    1.1093    0.0000 C   0  0  0  0  0  0  0  0  0  0  0  0
    4.0654    1.6831    0.0000 C   0  0  0  0  0  0  0  0  0  0  0  0
    5.2552    0.7697    0.0000 C   0  0  0  0  0  0  0  0  0  0  0  0
    5.0592   -0.7174    0.0000 C   0  0  0  0  0  0  0  0  0  0  0  0
    3.6733   -1.2912    0.0000 C   0  0  0  0  0  0  0  0  0  0  0  0
  2  1  1  1
  2  3  1  0
  3  4  2  0
  3  5  1  0
  5  6  1  0
  6  7  1  0
  2  8  1  0
  8  9  1  0
  9 10  1  0
 10 11  2  0
 11 12  1  0
 12 13  2  0
 13 14  1  0
 14 15  2  0
 15 10  1  0
M  END
>  <rName>  (1644) 
D-hPhe-OEt

>  <PQ_SYMBOL>  (1644) 
D-hPhe-OEt

>  <FULL_NAME>  (1644) 
ethyl (2R)-2-amino-4-phenylbutanoate

>  <IUPAC_CONDENSED>  (1644) 
D-hPhe-OEt

>  <IUPAC>  (1644) 
ethyl (2R)-2-amino-4-phenylbutanoate

>  <TYPE>  (1644) 
C-term cap

>  <CLASS>  (1644) 
c_cap

>  <ANALOG>  (1644) 
X

>  <MOL_WT>  (1644) 
207.27300000000002

>  <LOGP>  (1644) 
1.5095999999999996

>  <TPSA>  (1644) 
52.32000000000001

>  <POPULARITY>  (1644) 
11.6

>  <PROTECTED>  (1644) 
TRUE

>  <SMILES>  (1644) 
N[C@@H](C(=O)OCC)CCc1ccccc1

>  <INCHIKEY>  (1644) 
WFLQXECQLHZKMV-LLVKDONJSA-N

$$$$
D-hPhe_23diCl
     RDKit          2D

 15 15  0  0  0  0  0  0  0  0999 V2000
   -2.9888   -1.9640    0.0000 N   0  0  0  0  0  0  0  0  0  0  0  0
   -2.8934   -0.4670    0.0000 C   0  0  0  0  0  0  0  0  0  0  0  0
   -1.5493    0.1989    0.0000 C   0  0  0  0  0  0  0  0  0  0  0  0
   -0.3006   -0.6322    0.0000 C   0  0  0  0  0  0  0  0  0  0  0  0
    1.0435    0.0337    0.0000 C   0  0  0  0  0  0  0  0  0  0  0  0
    1.1388    1.5307    0.0000 C   0  0  0  0  0  0  0  0  0  0  0  0
    2.4829    2.1966    0.0000 C   0  0  0  0  0  0  0  0  0  0  0  0
    3.7317    1.3655    0.0000 C   0  0  0  0  0  0  0  0  0  0  0  0
    3.6363   -0.1314    0.0000 C   0  0  0  0  0  0  0  0  0  0  0  0
    4.8850   -0.9625    0.0000 Cl  0  0  0  0  0  0  0  0  0  0  0  0
    2.2922   -0.7973    0.0000 C   0  0  0  0  0  0  0  0  0  0  0  0
    2.1969   -2.2943    0.0000 Cl  0  0  0  0  0  0  0  0  0  0  0  0
   -4.1422    0.3641    0.0000 C   0  0  0  0  0  0  0  0  0  0  0  0
   -4.0468    1.8610    0.0000 O   0  0  0  0  0  0  0  0  0  0  0  0
   -5.4862   -0.3018    0.0000 O   0  0  0  0  0  0  0  0  0  0  0  0
  2  1  1  1
  2  3  1  0
  3  4  1  0
  4  5  1  0
  5  6  2  0
  6  7  1  0
  7  8  2  0
  8  9  1  0
  9 10  1  0
  9 11  2  0
 11 12  1  0
  2 13  1  0
 13 14  2  0
 13 15  1  0
 11  5  1  0
M  END
>  <rName>  (1645) 
D-hPhe_23diCl

>  <PQ_SYMBOL>  (1645) 
D-hPhe_23diCl

>  <FULL_NAME>  (1645) 
(R)-2-Amino-4-(2,3-dichloro-phenyl)-butyric acid

>  <IUPAC_CONDENSED>  (1645) 
D-hPhe(2,3-diCl)

>  <IUPAC>  (1645) 
(2R)-2-amino-4-(2,3-dichlorophenyl)butanoic acid

>  <TYPE>  (1645) 
Backbone

>  <CLASS>  (1645) 
alpha

>  <ANALOG>  (1645) 
Phe

>  <MOL_WT>  (1645) 
248.10899999999998

>  <LOGP>  (1645) 
2.3379

>  <TPSA>  (1645) 
63.32000000000001

>  <POPULARITY>  (1645) 
2.2

>  <PROTECTED>  (1645) 
TRUE

>  <SMILES>  (1645) 
N[C@H](CCc1(cccc(Cl)c1Cl))C(=O)O

>  <INCHIKEY>  (1645) 
HWWKPLFALLBQGB-MRVPVSSYSA-N

$$$$
D-hPhe_23diF
     RDKit          2D

 15 15  0  0  0  0  0  0  0  0999 V2000
   -2.9888   -1.9640    0.0000 N   0  0  0  0  0  0  0  0  0  0  0  0
   -2.8934   -0.4670    0.0000 C   0  0  0  0  0  0  0  0  0  0  0  0
   -1.5493    0.1989    0.0000 C   0  0  0  0  0  0  0  0  0  0  0  0
   -0.3006   -0.6322    0.0000 C   0  0  0  0  0  0  0  0  0  0  0  0
    1.0435    0.0337    0.0000 C   0  0  0  0  0  0  0  0  0  0  0  0
    1.1388    1.5307    0.0000 C   0  0  0  0  0  0  0  0  0  0  0  0
    2.4829    2.1966    0.0000 C   0  0  0  0  0  0  0  0  0  0  0  0
    3.7317    1.3655    0.0000 C   0  0  0  0  0  0  0  0  0  0  0  0
    3.6363   -0.1314    0.0000 C   0  0  0  0  0  0  0  0  0  0  0  0
    4.8850   -0.9625    0.0000 F   0  0  0  0  0  0  0  0  0  0  0  0
    2.2922   -0.7973    0.0000 C   0  0  0  0  0  0  0  0  0  0  0  0
    2.1969   -2.2943    0.0000 F   0  0  0  0  0  0  0  0  0  0  0  0
   -4.1422    0.3641    0.0000 C   0  0  0  0  0  0  0  0  0  0  0  0
   -4.0468    1.8610    0.0000 O   0  0  0  0  0  0  0  0  0  0  0  0
   -5.4862   -0.3018    0.0000 O   0  0  0  0  0  0  0  0  0  0  0  0
  2  1  1  1
  2  3  1  0
  3  4  1  0
  4  5  1  0
  5  6  2  0
  6  7  1  0
  7  8  2  0
  8  9  1  0
  9 10  1  0
  9 11  2  0
 11 12  1  0
  2 13  1  0
 13 14  2  0
 13 15  1  0
 11  5  1  0
M  END
>  <rName>  (1646) 
D-hPhe_23diF

>  <PQ_SYMBOL>  (1646) 
D-hPhe_23diF

>  <FULL_NAME>  (1646) 
(R)-2-Amino-4-(2,3-difluoro-phenyl)-butyric acid

>  <IUPAC_CONDENSED>  (1646) 
D-hPhe(2,3-diF)

>  <IUPAC>  (1646) 
(2R)-2-amino-4-(2,3-difluorophenyl)butanoic acid

>  <TYPE>  (1646) 
Backbone

>  <CLASS>  (1646) 
alpha

>  <ANALOG>  (1646) 
Phe

>  <MOL_WT>  (1646) 
215.19899999999996

>  <LOGP>  (1646) 
1.3093

>  <TPSA>  (1646) 
63.32000000000001

>  <POPULARITY>  (1646) 
2.2

>  <PROTECTED>  (1646) 
TRUE

>  <SMILES>  (1646) 
N[C@H](CCc1(cccc(F)c1F))C(=O)O

>  <INCHIKEY>  (1646) 
AFVGCJVDUOPQPA-MRVPVSSYSA-N

$$$$
D-hPhe_24diCl
     RDKit          2D

 15 15  0  0  0  0  0  0  0  0999 V2000
   -3.2293   -1.8059    0.0000 N   0  0  0  0  0  0  0  0  0  0  0  0
   -2.9633   -0.3297    0.0000 C   0  0  0  0  0  0  0  0  0  0  0  0
   -1.5519    0.1780    0.0000 C   0  0  0  0  0  0  0  0  0  0  0  0
   -0.4064   -0.7904    0.0000 C   0  0  0  0  0  0  0  0  0  0  0  0
    1.0050   -0.2827    0.0000 C   0  0  0  0  0  0  0  0  0  0  0  0
    1.2710    1.1935    0.0000 C   0  0  0  0  0  0  0  0  0  0  0  0
    2.6825    1.7012    0.0000 C   0  0  0  0  0  0  0  0  0  0  0  0
    3.8279    0.7327    0.0000 C   0  0  0  0  0  0  0  0  0  0  0  0
    5.2394    1.2405    0.0000 Cl  0  0  0  0  0  0  0  0  0  0  0  0
    3.5619   -0.7435    0.0000 C   0  0  0  0  0  0  0  0  0  0  0  0
    2.1505   -1.2512    0.0000 C   0  0  0  0  0  0  0  0  0  0  0  0
    1.8844   -2.7274    0.0000 Cl  0  0  0  0  0  0  0  0  0  0  0  0
   -4.1088    0.6388    0.0000 C   0  0  0  0  0  0  0  0  0  0  0  0
   -3.8427    2.1150    0.0000 O   0  0  0  0  0  0  0  0  0  0  0  0
   -5.5202    0.1311    0.0000 O   0  0  0  0  0  0  0  0  0  0  0  0
  2  1  1  1
  2  3  1  0
  3  4  1  0
  4  5  1  0
  5  6  1  0
  6  7  2  0
  7  8  1  0
  8  9  1  0
  8 10  2  0
 10 11  1  0
 11 12  1  0
  2 13  1  0
 13 14  2  0
 13 15  1  0
 11  5  2  0
M  END
>  <rName>  (1647) 
D-hPhe_24diCl

>  <PQ_SYMBOL>  (1647) 
D-hPhe_24diCl

>  <FULL_NAME>  (1647) 
(R)-2-amino-4-(2,4-dichlorophenyl)butanoic acid

>  <IUPAC_CONDENSED>  (1647) 
D-hPhe(2,4-diCl)

>  <IUPAC>  (1647) 
(2R)-2-amino-4-(2,4-dichlorophenyl)butanoic acid

>  <TYPE>  (1647) 
Backbone

>  <CLASS>  (1647) 
alpha

>  <ANALOG>  (1647) 
Phe

>  <MOL_WT>  (1647) 
248.10899999999998

>  <LOGP>  (1647) 
2.3379

>  <TPSA>  (1647) 
63.32000000000001

>  <POPULARITY>  (1647) 
7.2

>  <PROTECTED>  (1647) 
TRUE

>  <SMILES>  (1647) 
N[C@H](CCc1(ccc(Cl)cc1Cl))C(=O)O

>  <INCHIKEY>  (1647) 
VSJIELYJPAYOJA-SECBINFHSA-N

$$$$
D-hPhe_24diF
     RDKit          2D

 15 15  0  0  0  0  0  0  0  0999 V2000
   -3.2293   -1.8059    0.0000 N   0  0  0  0  0  0  0  0  0  0  0  0
   -2.9633   -0.3297    0.0000 C   0  0  0  0  0  0  0  0  0  0  0  0
   -1.5519    0.1780    0.0000 C   0  0  0  0  0  0  0  0  0  0  0  0
   -0.4064   -0.7904    0.0000 C   0  0  0  0  0  0  0  0  0  0  0  0
    1.0050   -0.2827    0.0000 C   0  0  0  0  0  0  0  0  0  0  0  0
    1.2710    1.1935    0.0000 C   0  0  0  0  0  0  0  0  0  0  0  0
    2.6825    1.7012    0.0000 C   0  0  0  0  0  0  0  0  0  0  0  0
    3.8279    0.7327    0.0000 C   0  0  0  0  0  0  0  0  0  0  0  0
    5.2394    1.2405    0.0000 F   0  0  0  0  0  0  0  0  0  0  0  0
    3.5619   -0.7435    0.0000 C   0  0  0  0  0  0  0  0  0  0  0  0
    2.1505   -1.2512    0.0000 C   0  0  0  0  0  0  0  0  0  0  0  0
    1.8844   -2.7274    0.0000 F   0  0  0  0  0  0  0  0  0  0  0  0
   -4.1088    0.6388    0.0000 C   0  0  0  0  0  0  0  0  0  0  0  0
   -3.8427    2.1150    0.0000 O   0  0  0  0  0  0  0  0  0  0  0  0
   -5.5202    0.1311    0.0000 O   0  0  0  0  0  0  0  0  0  0  0  0
  2  1  1  1
  2  3  1  0
  3  4  1  0
  4  5  1  0
  5  6  1  0
  6  7  2  0
  7  8  1  0
  8  9  1  0
  8 10  2  0
 10 11  1  0
 11 12  1  0
  2 13  1  0
 13 14  2  0
 13 15  1  0
 11  5  2  0
M  END
>  <rName>  (1648) 
D-hPhe_24diF

>  <PQ_SYMBOL>  (1648) 
D-hPhe_24diF

>  <FULL_NAME>  (1648) 
2,4-Difluoro-D-homophenylalanine

>  <IUPAC_CONDENSED>  (1648) 
D-hPhe(2,4-diF)

>  <IUPAC>  (1648) 
(2R)-2-amino-4-(2,4-difluorophenyl)butanoic acid

>  <TYPE>  (1648) 
Backbone

>  <CLASS>  (1648) 
alpha

>  <ANALOG>  (1648) 
Phe

>  <MOL_WT>  (1648) 
215.19899999999998

>  <LOGP>  (1648) 
1.3093

>  <TPSA>  (1648) 
63.32000000000001

>  <POPULARITY>  (1648) 
5.0

>  <PROTECTED>  (1648) 
TRUE

>  <SMILES>  (1648) 
N[C@H](CCc1(ccc(F)cc1F))C(=O)O

>  <INCHIKEY>  (1648) 
RXTYJIYAYABQKD-SECBINFHSA-N

$$$$
D-hPhe_24diF_3Cl
     RDKit          2D

 16 16  0  0  0  0  0  0  0  0999 V2000
   -3.4337   -1.8738    0.0000 N   0  0  0  0  0  0  0  0  0  0  0  0
   -3.2422   -0.3861    0.0000 C   0  0  0  0  0  0  0  0  0  0  0  0
   -1.8581    0.1919    0.0000 C   0  0  0  0  0  0  0  0  0  0  0  0
   -0.6654   -0.7178    0.0000 C   0  0  0  0  0  0  0  0  0  0  0  0
    0.7187   -0.1398    0.0000 C   0  0  0  0  0  0  0  0  0  0  0  0
    0.9102    1.3479    0.0000 C   0  0  0  0  0  0  0  0  0  0  0  0
    2.2944    1.9260    0.0000 C   0  0  0  0  0  0  0  0  0  0  0  0
    3.4871    1.0163    0.0000 C   0  0  0  0  0  0  0  0  0  0  0  0
    4.8712    1.5943    0.0000 F   0  0  0  0  0  0  0  0  0  0  0  0
    3.2956   -0.4715    0.0000 C   0  0  0  0  0  0  0  0  0  0  0  0
    4.4882   -1.3812    0.0000 Cl  0  0  0  0  0  0  0  0  0  0  0  0
    1.9114   -1.0495    0.0000 C   0  0  0  0  0  0  0  0  0  0  0  0
    1.7199   -2.5372    0.0000 F   0  0  0  0  0  0  0  0  0  0  0  0
   -4.4349    0.5236    0.0000 C   0  0  0  0  0  0  0  0  0  0  0  0
   -4.2434    2.0113    0.0000 O   0  0  0  0  0  0  0  0  0  0  0  0
   -5.8190   -0.0544    0.0000 O   0  0  0  0  0  0  0  0  0  0  0  0
  2  1  1  1
  2  3  1  0
  3  4  1  0
  4  5  1  0
  5  6  1  0
  6  7  2  0
  7  8  1  0
  8  9  1  0
  8 10  2  0
 10 11  1  0
 10 12  1  0
 12 13  1  0
  2 14  1  0
 14 15  2  0
 14 16  1  0
 12  5  2  0
M  END
>  <rName>  (1649) 
D-hPhe_24diF_3Cl

>  <PQ_SYMBOL>  (1649) 
D-hPhe_24diF_3Cl

>  <FULL_NAME>  (1649) 
2,4-Difluoro-3-chloro-D-homophenylalanine

>  <IUPAC_CONDENSED>  (1649) 
D-hPhe(2,4-diF,3-Cl)

>  <IUPAC>  (1649) 
(2R)-2-amino-4-(3-chloro-2,4-difluorophenyl)butanoic acid

>  <TYPE>  (1649) 
Backbone

>  <CLASS>  (1649) 
alpha

>  <ANALOG>  (1649) 
Phe

>  <MOL_WT>  (1649) 
249.64399999999998

>  <LOGP>  (1649) 
1.9627

>  <TPSA>  (1649) 
63.32000000000001

>  <POPULARITY>  (1649) 
2.2

>  <PROTECTED>  (1649) 
TRUE

>  <SMILES>  (1649) 
N[C@H](CCc1(ccc(F)c(Cl)c1F))C(=O)O

>  <INCHIKEY>  (1649) 
DDKDUTXIYQOJFP-SSDOTTSWSA-N

$$$$
D-hPhe_25diCl
     RDKit          2D

 15 15  0  0  0  0  0  0  0  0999 V2000
   -3.1338   -1.8409    0.0000 N   0  0  0  0  0  0  0  0  0  0  0  0
   -2.8232   -0.3734    0.0000 C   0  0  0  0  0  0  0  0  0  0  0  0
   -1.3970    0.0913    0.0000 C   0  0  0  0  0  0  0  0  0  0  0  0
   -0.2815   -0.9115    0.0000 C   0  0  0  0  0  0  0  0  0  0  0  0
    1.1447   -0.4467    0.0000 C   0  0  0  0  0  0  0  0  0  0  0  0
    1.4554    1.0207    0.0000 C   0  0  0  0  0  0  0  0  0  0  0  0
    2.8816    1.4855    0.0000 C   0  0  0  0  0  0  0  0  0  0  0  0
    3.1922    2.9530    0.0000 Cl  0  0  0  0  0  0  0  0  0  0  0  0
    3.9971    0.4827    0.0000 C   0  0  0  0  0  0  0  0  0  0  0  0
    3.6865   -0.9848    0.0000 C   0  0  0  0  0  0  0  0  0  0  0  0
    2.2603   -1.4495    0.0000 C   0  0  0  0  0  0  0  0  0  0  0  0
    1.9497   -2.9170    0.0000 Cl  0  0  0  0  0  0  0  0  0  0  0  0
   -3.9388    0.6293    0.0000 C   0  0  0  0  0  0  0  0  0  0  0  0
   -3.6281    2.0968    0.0000 O   0  0  0  0  0  0  0  0  0  0  0  0
   -5.3650    0.1646    0.0000 O   0  0  0  0  0  0  0  0  0  0  0  0
  2  1  1  1
  2  3  1  0
  3  4  1  0
  4  5  1  0
  5  6  1  0
  6  7  2  0
  7  8  1  0
  7  9  1  0
  9 10  2  0
 10 11  1  0
 11 12  1  0
  2 13  1  0
 13 14  2  0
 13 15  1  0
 11  5  2  0
M  END
>  <rName>  (1650) 
D-hPhe_25diCl

>  <PQ_SYMBOL>  (1650) 
D-hPhe_25diCl

>  <FULL_NAME>  (1650) 
(R)-2-amino-4-(2,5-dichlorophenyl)butanoic acid

>  <IUPAC_CONDENSED>  (1650) 
D-hPhe(2,5-diCl)

>  <IUPAC>  (1650) 
(2R)-2-amino-4-(2,5-dichlorophenyl)butanoic acid

>  <TYPE>  (1650) 
Backbone

>  <CLASS>  (1650) 
alpha

>  <ANALOG>  (1650) 
Phe

>  <MOL_WT>  (1650) 
248.10899999999998

>  <LOGP>  (1650) 
2.3379

>  <TPSA>  (1650) 
63.32000000000001

>  <POPULARITY>  (1650) 
4.6

>  <PROTECTED>  (1650) 
TRUE

>  <SMILES>  (1650) 
N[C@H](CCc1(cc(Cl)ccc1Cl))C(=O)O

>  <INCHIKEY>  (1650) 
RJEDYAFWGILHRM-SECBINFHSA-N

$$$$
D-hPhe_25diF
     RDKit          2D

 15 15  0  0  0  0  0  0  0  0999 V2000
   -3.1338   -1.8409    0.0000 N   0  0  0  0  0  0  0  0  0  0  0  0
   -2.8232   -0.3734    0.0000 C   0  0  0  0  0  0  0  0  0  0  0  0
   -1.3970    0.0913    0.0000 C   0  0  0  0  0  0  0  0  0  0  0  0
   -0.2815   -0.9115    0.0000 C   0  0  0  0  0  0  0  0  0  0  0  0
    1.1447   -0.4467    0.0000 C   0  0  0  0  0  0  0  0  0  0  0  0
    1.4554    1.0207    0.0000 C   0  0  0  0  0  0  0  0  0  0  0  0
    2.8816    1.4855    0.0000 C   0  0  0  0  0  0  0  0  0  0  0  0
    3.1922    2.9530    0.0000 F   0  0  0  0  0  0  0  0  0  0  0  0
    3.9971    0.4827    0.0000 C   0  0  0  0  0  0  0  0  0  0  0  0
    3.6865   -0.9848    0.0000 C   0  0  0  0  0  0  0  0  0  0  0  0
    2.2603   -1.4495    0.0000 C   0  0  0  0  0  0  0  0  0  0  0  0
    1.9497   -2.9170    0.0000 F   0  0  0  0  0  0  0  0  0  0  0  0
   -3.9388    0.6293    0.0000 C   0  0  0  0  0  0  0  0  0  0  0  0
   -3.6281    2.0968    0.0000 O   0  0  0  0  0  0  0  0  0  0  0  0
   -5.3650    0.1646    0.0000 O   0  0  0  0  0  0  0  0  0  0  0  0
  2  1  1  1
  2  3  1  0
  3  4  1  0
  4  5  1  0
  5  6  1  0
  6  7  2  0
  7  8  1  0
  7  9  1  0
  9 10  2  0
 10 11  1  0
 11 12  1  0
  2 13  1  0
 13 14  2  0
 13 15  1  0
 11  5  2  0
M  END
>  <rName>  (1651) 
D-hPhe_25diF

>  <PQ_SYMBOL>  (1651) 
D-hPhe_25diF

>  <FULL_NAME>  (1651) 
(R)-2-amino-4-(2,5-difluorophenyl)butanoic acid

>  <IUPAC_CONDENSED>  (1651) 
D-hPhe(2,5-diF)

>  <IUPAC>  (1651) 
(2R)-2-amino-4-(2,5-difluorophenyl)butanoic acid

>  <TYPE>  (1651) 
Backbone

>  <CLASS>  (1651) 
alpha

>  <ANALOG>  (1651) 
Phe

>  <MOL_WT>  (1651) 
215.19899999999998

>  <LOGP>  (1651) 
1.3093

>  <TPSA>  (1651) 
63.32000000000001

>  <POPULARITY>  (1651) 
6.0

>  <PROTECTED>  (1651) 
TRUE

>  <SMILES>  (1651) 
N[C@H](CCc1(cc(F)ccc1F))C(=O)O

>  <INCHIKEY>  (1651) 
XEHBWDCZWQCJRP-SECBINFHSA-N

$$$$
D-hPhe_26diCl
     RDKit          2D

 15 15  0  0  0  0  0  0  0  0999 V2000
   -2.7730   -2.0349    0.0000 N   0  0  0  0  0  0  0  0  0  0  0  0
   -2.5947   -0.5455    0.0000 C   0  0  0  0  0  0  0  0  0  0  0  0
   -1.2157    0.0448    0.0000 C   0  0  0  0  0  0  0  0  0  0  0  0
   -0.0150   -0.8543    0.0000 C   0  0  0  0  0  0  0  0  0  0  0  0
    1.3639   -0.2640    0.0000 C   0  0  0  0  0  0  0  0  0  0  0  0
    1.5422    1.2254    0.0000 C   0  0  0  0  0  0  0  0  0  0  0  0
    0.3415    2.1245    0.0000 Cl  0  0  0  0  0  0  0  0  0  0  0  0
    2.9212    1.8157    0.0000 C   0  0  0  0  0  0  0  0  0  0  0  0
    4.1219    0.9166    0.0000 C   0  0  0  0  0  0  0  0  0  0  0  0
    3.9436   -0.5727    0.0000 C   0  0  0  0  0  0  0  0  0  0  0  0
    2.5646   -1.1630    0.0000 C   0  0  0  0  0  0  0  0  0  0  0  0
    2.3864   -2.6524    0.0000 Cl  0  0  0  0  0  0  0  0  0  0  0  0
   -3.7954    0.3536    0.0000 C   0  0  0  0  0  0  0  0  0  0  0  0
   -3.6171    1.8429    0.0000 O   0  0  0  0  0  0  0  0  0  0  0  0
   -5.1744   -0.2367    0.0000 O   0  0  0  0  0  0  0  0  0  0  0  0
  2  1  1  1
  2  3  1  0
  3  4  1  0
  4  5  1  0
  5  6  2  0
  6  7  1  0
  6  8  1  0
  8  9  2  0
  9 10  1  0
 10 11  2  0
 11 12  1  0
  2 13  1  0
 13 14  2  0
 13 15  1  0
 11  5  1  0
M  END
>  <rName>  (1652) 
D-hPhe_26diCl

>  <PQ_SYMBOL>  (1652) 
D-hPhe_26diCl

>  <FULL_NAME>  (1652) 
(R)-2-amino-4-(2,6-dichlorophenyl)butanoic acid

>  <IUPAC_CONDENSED>  (1652) 
D-hPhe(2,6-diCl)

>  <IUPAC>  (1652) 
(2R)-2-amino-4-(2,6-dichlorophenyl)butanoic acid

>  <TYPE>  (1652) 
Backbone

>  <CLASS>  (1652) 
alpha

>  <ANALOG>  (1652) 
Phe

>  <MOL_WT>  (1652) 
248.109

>  <LOGP>  (1652) 
2.3378999999999994

>  <TPSA>  (1652) 
63.32000000000001

>  <POPULARITY>  (1652) 
4.3

>  <PROTECTED>  (1652) 
TRUE

>  <SMILES>  (1652) 
N[C@H](CCc1(c(Cl)cccc1Cl))C(=O)O

>  <INCHIKEY>  (1652) 
ZUJMOCTVPCVSRM-SECBINFHSA-N

$$$$
D-hPhe_26diF
     RDKit          2D

 15 15  0  0  0  0  0  0  0  0999 V2000
   -2.7730   -2.0349    0.0000 N   0  0  0  0  0  0  0  0  0  0  0  0
   -2.5947   -0.5455    0.0000 C   0  0  0  0  0  0  0  0  0  0  0  0
   -1.2157    0.0448    0.0000 C   0  0  0  0  0  0  0  0  0  0  0  0
   -0.0150   -0.8543    0.0000 C   0  0  0  0  0  0  0  0  0  0  0  0
    1.3639   -0.2640    0.0000 C   0  0  0  0  0  0  0  0  0  0  0  0
    1.5422    1.2254    0.0000 C   0  0  0  0  0  0  0  0  0  0  0  0
    0.3415    2.1245    0.0000 F   0  0  0  0  0  0  0  0  0  0  0  0
    2.9212    1.8157    0.0000 C   0  0  0  0  0  0  0  0  0  0  0  0
    4.1219    0.9166    0.0000 C   0  0  0  0  0  0  0  0  0  0  0  0
    3.9436   -0.5727    0.0000 C   0  0  0  0  0  0  0  0  0  0  0  0
    2.5646   -1.1630    0.0000 C   0  0  0  0  0  0  0  0  0  0  0  0
    2.3864   -2.6524    0.0000 F   0  0  0  0  0  0  0  0  0  0  0  0
   -3.7954    0.3536    0.0000 C   0  0  0  0  0  0  0  0  0  0  0  0
   -3.6171    1.8429    0.0000 O   0  0  0  0  0  0  0  0  0  0  0  0
   -5.1744   -0.2367    0.0000 O   0  0  0  0  0  0  0  0  0  0  0  0
  2  1  1  1
  2  3  1  0
  3  4  1  0
  4  5  1  0
  5  6  2  0
  6  7  1  0
  6  8  1  0
  8  9  2  0
  9 10  1  0
 10 11  2  0
 11 12  1  0
  2 13  1  0
 13 14  2  0
 13 15  1  0
 11  5  1  0
M  END
>  <rName>  (1653) 
D-hPhe_26diF

>  <PQ_SYMBOL>  (1653) 
D-hPhe_26diF

>  <FULL_NAME>  (1653) 
(R)-2-amino-4-(2,6-difluorophenyl)butanoic acid

>  <IUPAC_CONDENSED>  (1653) 
D-hPhe(2,6-diF)

>  <IUPAC>  (1653) 
(2R)-2-amino-4-(2,6-difluorophenyl)butanoic acid

>  <TYPE>  (1653) 
Backbone

>  <CLASS>  (1653) 
alpha

>  <ANALOG>  (1653) 
Phe

>  <MOL_WT>  (1653) 
215.19899999999998

>  <LOGP>  (1653) 
1.3093

>  <TPSA>  (1653) 
63.32000000000001

>  <POPULARITY>  (1653) 
4.5

>  <PROTECTED>  (1653) 
TRUE

>  <SMILES>  (1653) 
N[C@H](CCc1(c(F)cccc1F))C(=O)O

>  <INCHIKEY>  (1653) 
OWSJVBLJVRUDJX-SECBINFHSA-N

$$$$
D-hPhe_2CF3
     RDKit          2D

 17 17  0  0  0  0  0  0  0  0999 V2000
   -2.8723   -1.8951    0.0000 N   0  0  0  0  0  0  0  0  0  0  0  0
   -2.9617   -0.3978    0.0000 C   0  0  0  0  0  0  0  0  0  0  0  0
   -1.7097    0.4283    0.0000 C   0  0  0  0  0  0  0  0  0  0  0  0
   -0.3682   -0.2430    0.0000 C   0  0  0  0  0  0  0  0  0  0  0  0
    0.8838    0.5831    0.0000 C   0  0  0  0  0  0  0  0  0  0  0  0
    0.7944    2.0805    0.0000 C   0  0  0  0  0  0  0  0  0  0  0  0
    2.0464    2.9065    0.0000 C   0  0  0  0  0  0  0  0  0  0  0  0
    3.3879    2.2353    0.0000 C   0  0  0  0  0  0  0  0  0  0  0  0
    3.4772    0.7379    0.0000 C   0  0  0  0  0  0  0  0  0  0  0  0
    2.2252   -0.0881    0.0000 C   0  0  0  0  0  0  0  0  0  0  0  0
    2.3146   -1.5855    0.0000 C   0  0  0  0  0  0  0  0  0  0  0  0
    2.4040   -3.0828    0.0000 F   0  0  0  0  0  0  0  0  0  0  0  0
    3.8119   -1.4961    0.0000 F   0  0  0  0  0  0  0  0  0  0  0  0
    0.8173   -1.6749    0.0000 F   0  0  0  0  0  0  0  0  0  0  0  0
   -4.3031    0.2735    0.0000 C   0  0  0  0  0  0  0  0  0  0  0  0
   -4.3925    1.7708    0.0000 O   0  0  0  0  0  0  0  0  0  0  0  0
   -5.5552   -0.5526    0.0000 O   0  0  0  0  0  0  0  0  0  0  0  0
  2  1  1  1
  2  3  1  0
  3  4  1  0
  4  5  1  0
  5  6  2  0
  6  7  1  0
  7  8  2  0
  8  9  1  0
  9 10  2  0
 10 11  1  0
 11 12  1  0
 11 13  1  0
 11 14  1  0
  2 15  1  0
 15 16  2  0
 15 17  1  0
 10  5  1  0
M  END
>  <rName>  (1654) 
D-hPhe_2CF3

>  <PQ_SYMBOL>  (1654) 
D-hPhe_2CF3

>  <FULL_NAME>  (1654) 
(R)-2-amino-4-(2-(trifluoromethyl)phenyl)butanoic acid

>  <IUPAC_CONDENSED>  (1654) 
D-hPhe(2-CF3)

>  <IUPAC>  (1654) 
(2R)-2-amino-4-(2-(trifluoromethyl)phenyl)butanoic acid

>  <TYPE>  (1654) 
Backbone

>  <CLASS>  (1654) 
alpha

>  <ANALOG>  (1654) 
Phe

>  <MOL_WT>  (1654) 
247.21599999999992

>  <LOGP>  (1654) 
2.0499

>  <TPSA>  (1654) 
63.32000000000001

>  <POPULARITY>  (1654) 
5.1

>  <PROTECTED>  (1654) 
TRUE

>  <SMILES>  (1654) 
N[C@H](CCc1(ccccc1C(F)(F)F))C(=O)O

>  <INCHIKEY>  (1654) 
BCXGVVUDFMBXEM-SECBINFHSA-N

$$$$
D-hPhe_2Cl
     RDKit          2D

 14 14  0  0  0  0  0  0  0  0999 V2000
   -2.7345   -1.9034    0.0000 N   0  0  0  0  0  0  0  0  0  0  0  0
   -2.5673   -0.4128    0.0000 C   0  0  0  0  0  0  0  0  0  0  0  0
   -1.1928    0.1877    0.0000 C   0  0  0  0  0  0  0  0  0  0  0  0
    0.0146   -0.7024    0.0000 C   0  0  0  0  0  0  0  0  0  0  0  0
    1.3891   -0.1019    0.0000 C   0  0  0  0  0  0  0  0  0  0  0  0
    1.5563    1.3887    0.0000 C   0  0  0  0  0  0  0  0  0  0  0  0
    2.9309    1.9892    0.0000 C   0  0  0  0  0  0  0  0  0  0  0  0
    4.1382    1.0991    0.0000 C   0  0  0  0  0  0  0  0  0  0  0  0
    3.9710   -0.3916    0.0000 C   0  0  0  0  0  0  0  0  0  0  0  0
    2.5965   -0.9921    0.0000 C   0  0  0  0  0  0  0  0  0  0  0  0
    2.4292   -2.4827    0.0000 Cl  0  0  0  0  0  0  0  0  0  0  0  0
   -3.7746    0.4773    0.0000 C   0  0  0  0  0  0  0  0  0  0  0  0
   -3.6074    1.9680    0.0000 O   0  0  0  0  0  0  0  0  0  0  0  0
   -5.1492   -0.1232    0.0000 O   0  0  0  0  0  0  0  0  0  0  0  0
  2  1  1  1
  2  3  1  0
  3  4  1  0
  4  5  1  0
  5  6  2  0
  6  7  1  0
  7  8  2  0
  8  9  1  0
  9 10  2  0
 10 11  1  0
  2 12  1  0
 12 13  2  0
 12 14  1  0
 10  5  1  0
M  END
>  <rName>  (1655) 
D-hPhe_2Cl

>  <PQ_SYMBOL>  (1655) 
D-hPhe_2Cl

>  <FULL_NAME>  (1655) 
(R)-2-amino-4-(2-chlorophenyl)butanoic acid

>  <IUPAC_CONDENSED>  (1655) 
D-hPhe(2-Cl)

>  <IUPAC>  (1655) 
(2R)-2-amino-4-(2-chlorophenyl)butanoic acid

>  <TYPE>  (1655) 
Backbone

>  <CLASS>  (1655) 
alpha

>  <ANALOG>  (1655) 
Phe

>  <MOL_WT>  (1655) 
213.66399999999996

>  <LOGP>  (1655) 
1.6844999999999999

>  <TPSA>  (1655) 
63.32000000000001

>  <POPULARITY>  (1655) 
7.6

>  <PROTECTED>  (1655) 
TRUE

>  <SMILES>  (1655) 
N[C@H](CCc1(ccccc1Cl))C(=O)O

>  <INCHIKEY>  (1655) 
ZYQDUOLAVXZHAL-SECBINFHSA-N

$$$$
D-hPhe_2F
     RDKit          2D

 14 14  0  0  0  0  0  0  0  0999 V2000
   -2.7345   -1.9034    0.0000 N   0  0  0  0  0  0  0  0  0  0  0  0
   -2.5673   -0.4128    0.0000 C   0  0  0  0  0  0  0  0  0  0  0  0
   -1.1928    0.1877    0.0000 C   0  0  0  0  0  0  0  0  0  0  0  0
    0.0146   -0.7024    0.0000 C   0  0  0  0  0  0  0  0  0  0  0  0
    1.3891   -0.1019    0.0000 C   0  0  0  0  0  0  0  0  0  0  0  0
    1.5563    1.3887    0.0000 C   0  0  0  0  0  0  0  0  0  0  0  0
    2.9309    1.9892    0.0000 C   0  0  0  0  0  0  0  0  0  0  0  0
    4.1382    1.0991    0.0000 C   0  0  0  0  0  0  0  0  0  0  0  0
    3.9710   -0.3916    0.0000 C   0  0  0  0  0  0  0  0  0  0  0  0
    2.5965   -0.9921    0.0000 C   0  0  0  0  0  0  0  0  0  0  0  0
    2.4292   -2.4827    0.0000 F   0  0  0  0  0  0  0  0  0  0  0  0
   -3.7746    0.4773    0.0000 C   0  0  0  0  0  0  0  0  0  0  0  0
   -3.6074    1.9680    0.0000 O   0  0  0  0  0  0  0  0  0  0  0  0
   -5.1492   -0.1232    0.0000 O   0  0  0  0  0  0  0  0  0  0  0  0
  2  1  1  1
  2  3  1  0
  3  4  1  0
  4  5  1  0
  5  6  2  0
  6  7  1  0
  7  8  2  0
  8  9  1  0
  9 10  2  0
 10 11  1  0
  2 12  1  0
 12 13  2  0
 12 14  1  0
 10  5  1  0
M  END
>  <rName>  (1656) 
D-hPhe_2F

>  <PQ_SYMBOL>  (1656) 
D-hPhe_2F

>  <FULL_NAME>  (1656) 
(R)-2-amino-4-(2-fluorophenyl)butanoic acid

>  <IUPAC_CONDENSED>  (1656) 
D-hPhe(2-F)

>  <IUPAC>  (1656) 
(2R)-2-amino-4-(2-fluorophenyl)butanoic acid

>  <TYPE>  (1656) 
Backbone

>  <CLASS>  (1656) 
alpha

>  <ANALOG>  (1656) 
Phe

>  <MOL_WT>  (1656) 
197.20899999999995

>  <LOGP>  (1656) 
1.1702

>  <TPSA>  (1656) 
63.32000000000001

>  <POPULARITY>  (1656) 
8.6

>  <PROTECTED>  (1656) 
TRUE

>  <SMILES>  (1656) 
N[C@H](CCc1(ccccc1F))C(=O)O

>  <INCHIKEY>  (1656) 
HKDDGWLHCOPIQU-SECBINFHSA-N

$$$$
D-hPhe_2F_3Cl
     RDKit          2D

 15 15  0  0  0  0  0  0  0  0999 V2000
   -2.9888   -1.9640    0.0000 N   0  0  0  0  0  0  0  0  0  0  0  0
   -2.8934   -0.4670    0.0000 C   0  0  0  0  0  0  0  0  0  0  0  0
   -1.5493    0.1989    0.0000 C   0  0  0  0  0  0  0  0  0  0  0  0
   -0.3006   -0.6322    0.0000 C   0  0  0  0  0  0  0  0  0  0  0  0
    1.0435    0.0337    0.0000 C   0  0  0  0  0  0  0  0  0  0  0  0
    1.1388    1.5307    0.0000 C   0  0  0  0  0  0  0  0  0  0  0  0
    2.4829    2.1966    0.0000 C   0  0  0  0  0  0  0  0  0  0  0  0
    3.7317    1.3655    0.0000 C   0  0  0  0  0  0  0  0  0  0  0  0
    3.6363   -0.1314    0.0000 C   0  0  0  0  0  0  0  0  0  0  0  0
    4.8850   -0.9625    0.0000 Cl  0  0  0  0  0  0  0  0  0  0  0  0
    2.2922   -0.7973    0.0000 C   0  0  0  0  0  0  0  0  0  0  0  0
    2.1969   -2.2943    0.0000 F   0  0  0  0  0  0  0  0  0  0  0  0
   -4.1422    0.3641    0.0000 C   0  0  0  0  0  0  0  0  0  0  0  0
   -4.0468    1.8610    0.0000 O   0  0  0  0  0  0  0  0  0  0  0  0
   -5.4862   -0.3018    0.0000 O   0  0  0  0  0  0  0  0  0  0  0  0
  2  1  1  1
  2  3  1  0
  3  4  1  0
  4  5  1  0
  5  6  2  0
  6  7  1  0
  7  8  2  0
  8  9  1  0
  9 10  1  0
  9 11  2  0
 11 12  1  0
  2 13  1  0
 13 14  2  0
 13 15  1  0
 11  5  1  0
M  END
>  <rName>  (1657) 
D-hPhe_2F_3Cl

>  <PQ_SYMBOL>  (1657) 
D-hPhe_2F_3Cl

>  <FULL_NAME>  (1657) 
(2R)-2-amino-4-(3-chloro-2-fluorophenyl)butanoic acid

>  <IUPAC_CONDENSED>  (1657) 
D-hPhe(2-F,3-Cl)

>  <IUPAC>  (1657) 
(2R)-2-amino-4-(3-chloro-2-fluorophenyl)butanoic acid

>  <TYPE>  (1657) 
Backbone

>  <CLASS>  (1657) 
alpha

>  <ANALOG>  (1657) 
Phe

>  <MOL_WT>  (1657) 
231.65399999999997

>  <LOGP>  (1657) 
1.8235999999999999

>  <TPSA>  (1657) 
63.32000000000001

>  <POPULARITY>  (1657) 
2.2

>  <PROTECTED>  (1657) 
TRUE

>  <SMILES>  (1657) 
N[C@H](CCc1(cccc(Cl)c1F))C(=O)O

>  <INCHIKEY>  (1657) 
LSUVQAUHLIGXHF-MRVPVSSYSA-N

$$$$
D-hPhe_2Me
     RDKit          2D

 14 14  0  0  0  0  0  0  0  0999 V2000
   -2.7345   -1.9034    0.0000 N   0  0  0  0  0  0  0  0  0  0  0  0
   -2.5673   -0.4128    0.0000 C   0  0  0  0  0  0  0  0  0  0  0  0
   -1.1928    0.1877    0.0000 C   0  0  0  0  0  0  0  0  0  0  0  0
    0.0146   -0.7024    0.0000 C   0  0  0  0  0  0  0  0  0  0  0  0
    1.3891   -0.1019    0.0000 C   0  0  0  0  0  0  0  0  0  0  0  0
    1.5563    1.3887    0.0000 C   0  0  0  0  0  0  0  0  0  0  0  0
    2.9309    1.9892    0.0000 C   0  0  0  0  0  0  0  0  0  0  0  0
    4.1382    1.0991    0.0000 C   0  0  0  0  0  0  0  0  0  0  0  0
    3.9710   -0.3916    0.0000 C   0  0  0  0  0  0  0  0  0  0  0  0
    2.5965   -0.9921    0.0000 C   0  0  0  0  0  0  0  0  0  0  0  0
    2.4292   -2.4827    0.0000 C   0  0  0  0  0  0  0  0  0  0  0  0
   -3.7746    0.4773    0.0000 C   0  0  0  0  0  0  0  0  0  0  0  0
   -3.6074    1.9680    0.0000 O   0  0  0  0  0  0  0  0  0  0  0  0
   -5.1492   -0.1232    0.0000 O   0  0  0  0  0  0  0  0  0  0  0  0
  2  1  1  1
  2  3  1  0
  3  4  1  0
  4  5  1  0
  5  6  2  0
  6  7  1  0
  7  8  2  0
  8  9  1  0
  9 10  2  0
 10 11  1  0
  2 12  1  0
 12 13  2  0
 12 14  1  0
 10  5  1  0
M  END
>  <rName>  (1658) 
D-hPhe_2Me

>  <PQ_SYMBOL>  (1658) 
D-hPhe_2Me

>  <FULL_NAME>  (1658) 
(R)-2-amino-4-(o-tolyl)butanoic acid

>  <IUPAC_CONDENSED>  (1658) 
D-hPhe(2-Me)

>  <IUPAC>  (1658) 
(2R)-2-amino-4-(2-methylphenyl)butanoic acid

>  <TYPE>  (1658) 
Backbone

>  <CLASS>  (1658) 
alpha

>  <ANALOG>  (1658) 
Phe

>  <MOL_WT>  (1658) 
193.24599999999995

>  <LOGP>  (1658) 
1.3395199999999998

>  <TPSA>  (1658) 
63.32000000000001

>  <POPULARITY>  (1658) 
10.1

>  <PROTECTED>  (1658) 
TRUE

>  <SMILES>  (1658) 
N[C@H](CCc1(ccccc1C))C(=O)O

>  <INCHIKEY>  (1658) 
UIINSJBTFLRMLY-SNVBAGLBSA-N

$$$$
D-hPhe_2OCF3
     RDKit          2D

 18 18  0  0  0  0  0  0  0  0999 V2000
   -3.0669   -2.2009    0.0000 N   0  0  0  0  0  0  0  0  0  0  0  0
   -3.3852   -0.7351    0.0000 C   0  0  0  0  0  0  0  0  0  0  0  0
   -2.2749    0.2735    0.0000 C   0  0  0  0  0  0  0  0  0  0  0  0
   -0.8463   -0.1838    0.0000 C   0  0  0  0  0  0  0  0  0  0  0  0
    0.2640    0.8248    0.0000 C   0  0  0  0  0  0  0  0  0  0  0  0
   -0.0543    2.2906    0.0000 C   0  0  0  0  0  0  0  0  0  0  0  0
    1.0560    3.2992    0.0000 C   0  0  0  0  0  0  0  0  0  0  0  0
    2.4846    2.8420    0.0000 C   0  0  0  0  0  0  0  0  0  0  0  0
    2.8029    1.3761    0.0000 C   0  0  0  0  0  0  0  0  0  0  0  0
    1.6926    0.3676    0.0000 C   0  0  0  0  0  0  0  0  0  0  0  0
    2.0109   -1.0983    0.0000 O   0  0  0  0  0  0  0  0  0  0  0  0
    3.4395   -1.5555    0.0000 C   0  0  0  0  0  0  0  0  0  0  0  0
    4.8681   -2.0128    0.0000 F   0  0  0  0  0  0  0  0  0  0  0  0
    2.9823   -2.9841    0.0000 F   0  0  0  0  0  0  0  0  0  0  0  0
    3.8968   -0.1269    0.0000 F   0  0  0  0  0  0  0  0  0  0  0  0
   -4.8138   -0.2779    0.0000 C   0  0  0  0  0  0  0  0  0  0  0  0
   -5.1321    1.1880    0.0000 O   0  0  0  0  0  0  0  0  0  0  0  0
   -5.9241   -1.2864    0.0000 O   0  0  0  0  0  0  0  0  0  0  0  0
  2  1  1  1
  2  3  1  0
  3  4  1  0
  4  5  1  0
  5  6  2  0
  6  7  1  0
  7  8  2  0
  8  9  1  0
  9 10  2  0
 10 11  1  0
 11 12  1  0
 12 13  1  0
 12 14  1  0
 12 15  1  0
  2 16  1  0
 16 17  2  0
 16 18  1  0
 10  5  1  0
M  END
>  <rName>  (1659) 
D-hPhe_2OCF3

>  <PQ_SYMBOL>  (1659) 
D-hPhe_2OCF3

>  <FULL_NAME>  (1659) 
(R)-2-amino-4-(2-(trifluoromethoxy)phenyl)butanoic acid

>  <IUPAC_CONDENSED>  (1659) 
D-hPhe(2-OCF3)

>  <IUPAC>  (1659) 
(2R)-2-amino-4-(2-((trifluoromethyl)oxy)phenyl)butanoic acid

>  <TYPE>  (1659) 
Backbone

>  <CLASS>  (1659) 
alpha

>  <ANALOG>  (1659) 
Tyr

>  <MOL_WT>  (1659) 
263.2149999999999

>  <LOGP>  (1659) 
1.9297

>  <TPSA>  (1659) 
72.55

>  <POPULARITY>  (1659) 
2.7

>  <PROTECTED>  (1659) 
TRUE

>  <SMILES>  (1659) 
N[C@H](CCc1(ccccc1OC(F)(F)F))C(=O)O

>  <INCHIKEY>  (1659) 
AKBSJHPDJHJGOW-MRVPVSSYSA-N

$$$$
D-hPhe_2OMe
     RDKit          2D

 15 15  0  0  0  0  0  0  0  0999 V2000
   -2.7831   -1.9835    0.0000 N   0  0  0  0  0  0  0  0  0  0  0  0
   -2.7742   -0.4835    0.0000 C   0  0  0  0  0  0  0  0  0  0  0  0
   -1.4707    0.2588    0.0000 C   0  0  0  0  0  0  0  0  0  0  0  0
   -0.1762   -0.4990    0.0000 C   0  0  0  0  0  0  0  0  0  0  0  0
    1.1273    0.2433    0.0000 C   0  0  0  0  0  0  0  0  0  0  0  0
    1.1362    1.7433    0.0000 C   0  0  0  0  0  0  0  0  0  0  0  0
    2.4397    2.4855    0.0000 C   0  0  0  0  0  0  0  0  0  0  0  0
    3.7343    1.7278    0.0000 C   0  0  0  0  0  0  0  0  0  0  0  0
    3.7253    0.2278    0.0000 C   0  0  0  0  0  0  0  0  0  0  0  0
    2.4219   -0.5144    0.0000 C   0  0  0  0  0  0  0  0  0  0  0  0
    2.4129   -2.0144    0.0000 O   0  0  0  0  0  0  0  0  0  0  0  0
    3.7075   -2.7721    0.0000 C   0  0  0  0  0  0  0  0  0  0  0  0
   -4.0688    0.2742    0.0000 C   0  0  0  0  0  0  0  0  0  0  0  0
   -4.0598    1.7742    0.0000 O   0  0  0  0  0  0  0  0  0  0  0  0
   -5.3722   -0.4680    0.0000 O   0  0  0  0  0  0  0  0  0  0  0  0
  2  1  1  1
  2  3  1  0
  3  4  1  0
  4  5  1  0
  5  6  2  0
  6  7  1  0
  7  8  2  0
  8  9  1  0
  9 10  2  0
 10 11  1  0
 11 12  1  0
  2 13  1  0
 13 14  2  0
 13 15  1  0
 10  5  1  0
M  END
>  <rName>  (1660) 
D-hPhe_2OMe

>  <PQ_SYMBOL>  (1660) 
D-hPhe_2OMe

>  <FULL_NAME>  (1660) 
(R)-2-amino-4-(2-methoxyphenyl)butanoic acid

>  <IUPAC_CONDENSED>  (1660) 
D-hPhe(2-OMe)

>  <IUPAC>  (1660) 
(2R)-2-amino-4-(2-methoxyphenyl)butanoic acid

>  <TYPE>  (1660) 
Backbone

>  <CLASS>  (1660) 
alpha

>  <ANALOG>  (1660) 
Tyr

>  <MOL_WT>  (1660) 
209.24499999999995

>  <LOGP>  (1660) 
1.0396999999999998

>  <TPSA>  (1660) 
72.55

>  <POPULARITY>  (1660) 
6.8

>  <PROTECTED>  (1660) 
TRUE

>  <SMILES>  (1660) 
N[C@H](CCc1(ccccc1OC))C(=O)O

>  <INCHIKEY>  (1660) 
XHMOJLCCRFYKKC-SECBINFHSA-N

$$$$
D-hPhe_34diCl
     RDKit          2D

 15 15  0  0  0  0  0  0  0  0999 V2000
   -3.3791   -1.9420    0.0000 N   0  0  0  0  0  0  0  0  0  0  0  0
   -3.1429   -0.4608    0.0000 C   0  0  0  0  0  0  0  0  0  0  0  0
   -1.7419    0.0753    0.0000 C   0  0  0  0  0  0  0  0  0  0  0  0
   -0.5772   -0.8699    0.0000 C   0  0  0  0  0  0  0  0  0  0  0  0
    0.8237   -0.3339    0.0000 C   0  0  0  0  0  0  0  0  0  0  0  0
    1.0600    1.1474    0.0000 C   0  0  0  0  0  0  0  0  0  0  0  0
    2.4609    1.6834    0.0000 C   0  0  0  0  0  0  0  0  0  0  0  0
    3.6256    0.7382    0.0000 C   0  0  0  0  0  0  0  0  0  0  0  0
    5.0266    1.2742    0.0000 Cl  0  0  0  0  0  0  0  0  0  0  0  0
    3.3894   -0.7431    0.0000 C   0  0  0  0  0  0  0  0  0  0  0  0
    4.5541   -1.6883    0.0000 Cl  0  0  0  0  0  0  0  0  0  0  0  0
    1.9884   -1.2791    0.0000 C   0  0  0  0  0  0  0  0  0  0  0  0
   -4.3076    0.4845    0.0000 C   0  0  0  0  0  0  0  0  0  0  0  0
   -4.0713    1.9658    0.0000 O   0  0  0  0  0  0  0  0  0  0  0  0
   -5.7085   -0.0516    0.0000 O   0  0  0  0  0  0  0  0  0  0  0  0
  2  1  1  1
  2  3  1  0
  3  4  1  0
  4  5  1  0
  5  6  1  0
  6  7  2  0
  7  8  1  0
  8  9  1  0
  8 10  2  0
 10 11  1  0
 10 12  1  0
  2 13  1  0
 13 14  2  0
 13 15  1  0
 12  5  2  0
M  END
>  <rName>  (1661) 
D-hPhe_34diCl

>  <PQ_SYMBOL>  (1661) 
D-hPhe_34diCl

>  <FULL_NAME>  (1661) 
(R)-2-amino-4-(3,4-dichlorophenyl)butanoic acid

>  <IUPAC_CONDENSED>  (1661) 
D-hPhe(3,4-diCl)

>  <IUPAC>  (1661) 
(2R)-2-amino-4-(3,4-dichlorophenyl)butanoic acid

>  <TYPE>  (1661) 
Backbone

>  <CLASS>  (1661) 
alpha

>  <ANALOG>  (1661) 
Phe

>  <MOL_WT>  (1661) 
248.10899999999998

>  <LOGP>  (1661) 
2.3379

>  <TPSA>  (1661) 
63.32000000000001

>  <POPULARITY>  (1661) 
5.6

>  <PROTECTED>  (1661) 
TRUE

>  <SMILES>  (1661) 
N[C@H](CCc1(ccc(Cl)c(Cl)c1))C(=O)O

>  <INCHIKEY>  (1661) 
PHCCQGLRCCLUBD-SECBINFHSA-N

$$$$
D-hPhe_34diF
     RDKit          2D

 15 15  0  0  0  0  0  0  0  0999 V2000
   -3.3791   -1.9420    0.0000 N   0  0  0  0  0  0  0  0  0  0  0  0
   -3.1429   -0.4608    0.0000 C   0  0  0  0  0  0  0  0  0  0  0  0
   -1.7419    0.0753    0.0000 C   0  0  0  0  0  0  0  0  0  0  0  0
   -0.5772   -0.8699    0.0000 C   0  0  0  0  0  0  0  0  0  0  0  0
    0.8237   -0.3339    0.0000 C   0  0  0  0  0  0  0  0  0  0  0  0
    1.0600    1.1474    0.0000 C   0  0  0  0  0  0  0  0  0  0  0  0
    2.4609    1.6834    0.0000 C   0  0  0  0  0  0  0  0  0  0  0  0
    3.6256    0.7382    0.0000 C   0  0  0  0  0  0  0  0  0  0  0  0
    5.0266    1.2742    0.0000 F   0  0  0  0  0  0  0  0  0  0  0  0
    3.3894   -0.7431    0.0000 C   0  0  0  0  0  0  0  0  0  0  0  0
    4.5541   -1.6883    0.0000 F   0  0  0  0  0  0  0  0  0  0  0  0
    1.9884   -1.2791    0.0000 C   0  0  0  0  0  0  0  0  0  0  0  0
   -4.3076    0.4845    0.0000 C   0  0  0  0  0  0  0  0  0  0  0  0
   -4.0713    1.9658    0.0000 O   0  0  0  0  0  0  0  0  0  0  0  0
   -5.7085   -0.0516    0.0000 O   0  0  0  0  0  0  0  0  0  0  0  0
  2  1  1  1
  2  3  1  0
  3  4  1  0
  4  5  1  0
  5  6  1  0
  6  7  2  0
  7  8  1  0
  8  9  1  0
  8 10  2  0
 10 11  1  0
 10 12  1  0
  2 13  1  0
 13 14  2  0
 13 15  1  0
 12  5  2  0
M  END
>  <rName>  (1662) 
D-hPhe_34diF

>  <PQ_SYMBOL>  (1662) 
D-hPhe_34diF

>  <FULL_NAME>  (1662) 
3,4-Difluoro-D-homophenylalanine

>  <IUPAC_CONDENSED>  (1662) 
D-hPhe(3,4-diF)

>  <IUPAC>  (1662) 
(2R)-2-amino-4-(3,4-difluorophenyl)butanoic acid

>  <TYPE>  (1662) 
Backbone

>  <CLASS>  (1662) 
alpha

>  <ANALOG>  (1662) 
Phe

>  <MOL_WT>  (1662) 
215.19899999999998

>  <LOGP>  (1662) 
1.3093

>  <TPSA>  (1662) 
63.32000000000001

>  <POPULARITY>  (1662) 
2.2

>  <PROTECTED>  (1662) 
TRUE

>  <SMILES>  (1662) 
N[C@H](CCc1(ccc(F)c(F)c1))C(=O)O

>  <INCHIKEY>  (1662) 
CMYDRCBMHLOBSN-SECBINFHSA-N

$$$$
D-hPhe_34diMe
     RDKit          2D

 15 15  0  0  0  0  0  0  0  0999 V2000
   -3.3791   -1.9420    0.0000 N   0  0  0  0  0  0  0  0  0  0  0  0
   -3.1429   -0.4608    0.0000 C   0  0  0  0  0  0  0  0  0  0  0  0
   -1.7419    0.0753    0.0000 C   0  0  0  0  0  0  0  0  0  0  0  0
   -0.5772   -0.8699    0.0000 C   0  0  0  0  0  0  0  0  0  0  0  0
    0.8237   -0.3339    0.0000 C   0  0  0  0  0  0  0  0  0  0  0  0
    1.0600    1.1474    0.0000 C   0  0  0  0  0  0  0  0  0  0  0  0
    2.4609    1.6834    0.0000 C   0  0  0  0  0  0  0  0  0  0  0  0
    3.6256    0.7382    0.0000 C   0  0  0  0  0  0  0  0  0  0  0  0
    5.0266    1.2742    0.0000 C   0  0  0  0  0  0  0  0  0  0  0  0
    3.3894   -0.7431    0.0000 C   0  0  0  0  0  0  0  0  0  0  0  0
    4.5541   -1.6883    0.0000 C   0  0  0  0  0  0  0  0  0  0  0  0
    1.9884   -1.2791    0.0000 C   0  0  0  0  0  0  0  0  0  0  0  0
   -4.3076    0.4845    0.0000 C   0  0  0  0  0  0  0  0  0  0  0  0
   -4.0713    1.9658    0.0000 O   0  0  0  0  0  0  0  0  0  0  0  0
   -5.7085   -0.0516    0.0000 O   0  0  0  0  0  0  0  0  0  0  0  0
  2  1  1  1
  2  3  1  0
  3  4  1  0
  4  5  1  0
  5  6  1  0
  6  7  2  0
  7  8  1  0
  8  9  1  0
  8 10  2  0
 10 11  1  0
 10 12  1  0
  2 13  1  0
 13 14  2  0
 13 15  1  0
 12  5  2  0
M  END
>  <rName>  (1663) 
D-hPhe_34diMe

>  <PQ_SYMBOL>  (1663) 
D-hPhe_34diMe

>  <FULL_NAME>  (1663) 
3,4-Dimethyl-D-homophenylalanine

>  <IUPAC_CONDENSED>  (1663) 
D-hPhe(3,4-diMe)

>  <IUPAC>  (1663) 
(2R)-2-amino-4-(3,4-dimethylphenyl)butanoic acid

>  <TYPE>  (1663) 
Backbone

>  <CLASS>  (1663) 
alpha

>  <ANALOG>  (1663) 
Phe

>  <MOL_WT>  (1663) 
207.27299999999997

>  <LOGP>  (1663) 
1.64794

>  <TPSA>  (1663) 
63.32000000000001

>  <POPULARITY>  (1663) 
2.2

>  <PROTECTED>  (1663) 
TRUE

>  <SMILES>  (1663) 
N[C@H](CCc1(ccc(C)c(C)c1))C(=O)O

>  <INCHIKEY>  (1663) 
RPLSROLXINIXAE-LLVKDONJSA-N

$$$$
D-hPhe_35diCl
     RDKit          2D

 15 15  0  0  0  0  0  0  0  0999 V2000
   -3.2624   -2.0067    0.0000 N   0  0  0  0  0  0  0  0  0  0  0  0
   -2.9982   -0.5301    0.0000 C   0  0  0  0  0  0  0  0  0  0  0  0
   -1.5873   -0.0207    0.0000 C   0  0  0  0  0  0  0  0  0  0  0  0
   -0.4407   -0.9878    0.0000 C   0  0  0  0  0  0  0  0  0  0  0  0
    0.9701   -0.4784    0.0000 C   0  0  0  0  0  0  0  0  0  0  0  0
    1.2344    0.9982    0.0000 C   0  0  0  0  0  0  0  0  0  0  0  0
    2.6452    1.5076    0.0000 C   0  0  0  0  0  0  0  0  0  0  0  0
    2.9095    2.9841    0.0000 Cl  0  0  0  0  0  0  0  0  0  0  0  0
    3.7918    0.5405    0.0000 C   0  0  0  0  0  0  0  0  0  0  0  0
    3.5276   -0.9361    0.0000 C   0  0  0  0  0  0  0  0  0  0  0  0
    4.6742   -1.9032    0.0000 Cl  0  0  0  0  0  0  0  0  0  0  0  0
    2.1167   -1.4455    0.0000 C   0  0  0  0  0  0  0  0  0  0  0  0
   -4.1448    0.4370    0.0000 C   0  0  0  0  0  0  0  0  0  0  0  0
   -3.8805    1.9135    0.0000 O   0  0  0  0  0  0  0  0  0  0  0  0
   -5.5556   -0.0724    0.0000 O   0  0  0  0  0  0  0  0  0  0  0  0
  2  1  1  1
  2  3  1  0
  3  4  1  0
  4  5  1  0
  5  6  2  0
  6  7  1  0
  7  8  1  0
  7  9  2  0
  9 10  1  0
 10 11  1  0
 10 12  2  0
  2 13  1  0
 13 14  2  0
 13 15  1  0
 12  5  1  0
M  END
>  <rName>  (1664) 
D-hPhe_35diCl

>  <PQ_SYMBOL>  (1664) 
D-hPhe_35diCl

>  <FULL_NAME>  (1664) 
(2R)-2-amino-4-(3,5-dichlorophenyl)butanoic acid

>  <IUPAC_CONDENSED>  (1664) 
D-hPhe(3,5-diCl)

>  <IUPAC>  (1664) 
(2R)-2-amino-4-(3,5-dichlorophenyl)butanoic acid

>  <TYPE>  (1664) 
Backbone

>  <CLASS>  (1664) 
alpha

>  <ANALOG>  (1664) 
Phe

>  <MOL_WT>  (1664) 
248.10899999999998

>  <LOGP>  (1664) 
2.3379

>  <TPSA>  (1664) 
63.32000000000001

>  <POPULARITY>  (1664) 
4.7

>  <PROTECTED>  (1664) 
TRUE

>  <SMILES>  (1664) 
N[C@H](CCc1(cc(Cl)cc(Cl)c1))C(=O)O

>  <INCHIKEY>  (1664) 
KGZBOALXMBRBMM-SECBINFHSA-N

$$$$
D-hPhe_35diF
     RDKit          2D

 15 15  0  0  0  0  0  0  0  0999 V2000
   -3.2624   -2.0067    0.0000 N   0  0  0  0  0  0  0  0  0  0  0  0
   -2.9982   -0.5301    0.0000 C   0  0  0  0  0  0  0  0  0  0  0  0
   -1.5873   -0.0207    0.0000 C   0  0  0  0  0  0  0  0  0  0  0  0
   -0.4407   -0.9878    0.0000 C   0  0  0  0  0  0  0  0  0  0  0  0
    0.9701   -0.4784    0.0000 C   0  0  0  0  0  0  0  0  0  0  0  0
    1.2344    0.9982    0.0000 C   0  0  0  0  0  0  0  0  0  0  0  0
    2.6452    1.5076    0.0000 C   0  0  0  0  0  0  0  0  0  0  0  0
    2.9095    2.9841    0.0000 F   0  0  0  0  0  0  0  0  0  0  0  0
    3.7918    0.5405    0.0000 C   0  0  0  0  0  0  0  0  0  0  0  0
    3.5276   -0.9361    0.0000 C   0  0  0  0  0  0  0  0  0  0  0  0
    4.6742   -1.9032    0.0000 F   0  0  0  0  0  0  0  0  0  0  0  0
    2.1167   -1.4455    0.0000 C   0  0  0  0  0  0  0  0  0  0  0  0
   -4.1448    0.4370    0.0000 C   0  0  0  0  0  0  0  0  0  0  0  0
   -3.8805    1.9135    0.0000 O   0  0  0  0  0  0  0  0  0  0  0  0
   -5.5556   -0.0724    0.0000 O   0  0  0  0  0  0  0  0  0  0  0  0
  2  1  1  1
  2  3  1  0
  3  4  1  0
  4  5  1  0
  5  6  2  0
  6  7  1  0
  7  8  1  0
  7  9  2  0
  9 10  1  0
 10 11  1  0
 10 12  2  0
  2 13  1  0
 13 14  2  0
 13 15  1  0
 12  5  1  0
M  END
>  <rName>  (1665) 
D-hPhe_35diF

>  <PQ_SYMBOL>  (1665) 
D-hPhe_35diF

>  <FULL_NAME>  (1665) 
(R)-a-Amino-3,5-difluorobenzenebutanoic acid

>  <IUPAC_CONDENSED>  (1665) 
D-hPhe(3,5-diF)

>  <IUPAC>  (1665) 
(2R)-2-amino-4-(3,5-difluorophenyl)butanoic acid

>  <TYPE>  (1665) 
Backbone

>  <CLASS>  (1665) 
alpha

>  <ANALOG>  (1665) 
Phe

>  <MOL_WT>  (1665) 
215.19899999999998

>  <LOGP>  (1665) 
1.3093

>  <TPSA>  (1665) 
63.32000000000001

>  <POPULARITY>  (1665) 
2.2

>  <PROTECTED>  (1665) 
TRUE

>  <SMILES>  (1665) 
N[C@H](CCc1(cc(F)cc(F)c1))C(=O)O

>  <INCHIKEY>  (1665) 
FBFLLXPTFAGZMT-SECBINFHSA-N

$$$$
D-hPhe_35diF_4CF3
     RDKit          2D

 19 19  0  0  0  0  0  0  0  0999 V2000
   -4.6152   -1.8506    0.0000 N   0  0  0  0  0  0  0  0  0  0  0  0
   -4.2205   -0.4035    0.0000 C   0  0  0  0  0  0  0  0  0  0  0  0
   -2.7698   -0.0218    0.0000 C   0  0  0  0  0  0  0  0  0  0  0  0
   -1.7140   -1.0872    0.0000 C   0  0  0  0  0  0  0  0  0  0  0  0
   -0.2633   -0.7056    0.0000 C   0  0  0  0  0  0  0  0  0  0  0  0
    0.1314    0.7416    0.0000 C   0  0  0  0  0  0  0  0  0  0  0  0
    1.5821    1.1232    0.0000 C   0  0  0  0  0  0  0  0  0  0  0  0
    1.9768    2.5703    0.0000 F   0  0  0  0  0  0  0  0  0  0  0  0
    2.6379    0.0578    0.0000 C   0  0  0  0  0  0  0  0  0  0  0  0
    2.2431   -1.3893    0.0000 C   0  0  0  0  0  0  0  0  0  0  0  0
    3.2990   -2.4548    0.0000 F   0  0  0  0  0  0  0  0  0  0  0  0
    0.7925   -1.7710    0.0000 C   0  0  0  0  0  0  0  0  0  0  0  0
    4.0885    0.4394    0.0000 C   0  0  0  0  0  0  0  0  0  0  0  0
    5.5392    0.8211    0.0000 F   0  0  0  0  0  0  0  0  0  0  0  0
    4.4702   -1.0112    0.0000 F   0  0  0  0  0  0  0  0  0  0  0  0
    3.7069    1.8901    0.0000 F   0  0  0  0  0  0  0  0  0  0  0  0
   -5.2763    0.6620    0.0000 C   0  0  0  0  0  0  0  0  0  0  0  0
   -4.8815    2.1091    0.0000 O   0  0  0  0  0  0  0  0  0  0  0  0
   -6.7269    0.2803    0.0000 O   0  0  0  0  0  0  0  0  0  0  0  0
  2  1  1  1
  2  3  1  0
  3  4  1  0
  4  5  1  0
  5  6  2  0
  6  7  1  0
  7  8  1  0
  7  9  2  0
  9 10  1  0
 10 11  1  0
 10 12  2  0
  9 13  1  0
 13 14  1  0
 13 15  1  0
 13 16  1  0
  2 17  1  0
 17 18  2  0
 17 19  1  0
 12  5  1  0
M  END
>  <rName>  (1666) 
D-hPhe_35diF_4CF3

>  <PQ_SYMBOL>  (1666) 
D-hPhe_35diF_4CF3

>  <FULL_NAME>  (1666) 
(R)-2-amino-4-(3,5-difluoro-4-(trifluoromethyl)phenyl)butanoic acid

>  <IUPAC_CONDENSED>  (1666) 
D-hPhe(3,5-diF,4-CF3)

>  <IUPAC>  (1666) 
(2R)-2-amino-4-(3,5-difluoro-4-(trifluoromethyl)phenyl)butanoic acid

>  <TYPE>  (1666) 
Backbone

>  <CLASS>  (1666) 
alpha

>  <ANALOG>  (1666) 
Phe

>  <MOL_WT>  (1666) 
283.19599999999997

>  <LOGP>  (1666) 
2.3281

>  <TPSA>  (1666) 
63.32000000000001

>  <POPULARITY>  (1666) 
3.2

>  <PROTECTED>  (1666) 
TRUE

>  <SMILES>  (1666) 
N[C@H](CCc1(cc(F)c(c(F)c1)C(F)(F)F))C(=O)O

>  <INCHIKEY>  (1666) 
IPKHUYODNKUTOQ-MRVPVSSYSA-N

$$$$
D-hPhe_35diMe
     RDKit          2D

 15 15  0  0  0  0  0  0  0  0999 V2000
   -3.2624   -2.0067    0.0000 N   0  0  0  0  0  0  0  0  0  0  0  0
   -2.9982   -0.5301    0.0000 C   0  0  0  0  0  0  0  0  0  0  0  0
   -1.5873   -0.0207    0.0000 C   0  0  0  0  0  0  0  0  0  0  0  0
   -0.4407   -0.9878    0.0000 C   0  0  0  0  0  0  0  0  0  0  0  0
    0.9701   -0.4784    0.0000 C   0  0  0  0  0  0  0  0  0  0  0  0
    1.2344    0.9982    0.0000 C   0  0  0  0  0  0  0  0  0  0  0  0
    2.6452    1.5076    0.0000 C   0  0  0  0  0  0  0  0  0  0  0  0
    2.9095    2.9841    0.0000 C   0  0  0  0  0  0  0  0  0  0  0  0
    3.7918    0.5405    0.0000 C   0  0  0  0  0  0  0  0  0  0  0  0
    3.5276   -0.9361    0.0000 C   0  0  0  0  0  0  0  0  0  0  0  0
    4.6742   -1.9032    0.0000 C   0  0  0  0  0  0  0  0  0  0  0  0
    2.1167   -1.4455    0.0000 C   0  0  0  0  0  0  0  0  0  0  0  0
   -4.1448    0.4370    0.0000 C   0  0  0  0  0  0  0  0  0  0  0  0
   -3.8805    1.9135    0.0000 O   0  0  0  0  0  0  0  0  0  0  0  0
   -5.5556   -0.0724    0.0000 O   0  0  0  0  0  0  0  0  0  0  0  0
  2  1  1  1
  2  3  1  0
  3  4  1  0
  4  5  1  0
  5  6  2  0
  6  7  1  0
  7  8  1  0
  7  9  2  0
  9 10  1  0
 10 11  1  0
 10 12  2  0
  2 13  1  0
 13 14  2  0
 13 15  1  0
 12  5  1  0
M  END
>  <rName>  (1667) 
D-hPhe_35diMe

>  <PQ_SYMBOL>  (1667) 
D-hPhe_35diMe

>  <FULL_NAME>  (1667) 
3,5-Dimethyl-D-homophenylalanine

>  <IUPAC_CONDENSED>  (1667) 
D-hPhe(3,5-diMe)

>  <IUPAC>  (1667) 
(2R)-2-amino-4-(3,5-dimethylphenyl)butanoic acid

>  <TYPE>  (1667) 
Backbone

>  <CLASS>  (1667) 
alpha

>  <ANALOG>  (1667) 
Phe

>  <MOL_WT>  (1667) 
207.27299999999997

>  <LOGP>  (1667) 
1.64794

>  <TPSA>  (1667) 
63.32000000000001

>  <POPULARITY>  (1667) 
2.2

>  <PROTECTED>  (1667) 
TRUE

>  <SMILES>  (1667) 
N[C@H](CCc1(cc(C)cc(C)c1))C(=O)O

>  <INCHIKEY>  (1667) 
QODTXNHUUDFFJL-LLVKDONJSA-N

$$$$
D-hPhe_3CF3
     RDKit          2D

 17 17  0  0  0  0  0  0  0  0999 V2000
   -3.6728   -2.1092    0.0000 N   0  0  0  0  0  0  0  0  0  0  0  0
   -3.6693   -0.6092    0.0000 C   0  0  0  0  0  0  0  0  0  0  0  0
   -2.3685    0.1378    0.0000 C   0  0  0  0  0  0  0  0  0  0  0  0
   -1.0712   -0.6152    0.0000 C   0  0  0  0  0  0  0  0  0  0  0  0
    0.2295    0.1318    0.0000 C   0  0  0  0  0  0  0  0  0  0  0  0
    0.2330    1.6318    0.0000 C   0  0  0  0  0  0  0  0  0  0  0  0
    1.5338    2.3788    0.0000 C   0  0  0  0  0  0  0  0  0  0  0  0
    2.8311    1.6258    0.0000 C   0  0  0  0  0  0  0  0  0  0  0  0
    2.8276    0.1258    0.0000 C   0  0  0  0  0  0  0  0  0  0  0  0
    1.5268   -0.6212    0.0000 C   0  0  0  0  0  0  0  0  0  0  0  0
    4.1249   -0.6272    0.0000 C   0  0  0  0  0  0  0  0  0  0  0  0
    5.4222   -1.3802    0.0000 F   0  0  0  0  0  0  0  0  0  0  0  0
    3.3719   -1.9245    0.0000 F   0  0  0  0  0  0  0  0  0  0  0  0
    4.8779    0.6701    0.0000 F   0  0  0  0  0  0  0  0  0  0  0  0
   -4.9666    0.1438    0.0000 C   0  0  0  0  0  0  0  0  0  0  0  0
   -4.9631    1.6438    0.0000 O   0  0  0  0  0  0  0  0  0  0  0  0
   -6.2674   -0.6032    0.0000 O   0  0  0  0  0  0  0  0  0  0  0  0
  2  1  1  1
  2  3  1  0
  3  4  1  0
  4  5  1  0
  5  6  1  0
  6  7  2  0
  7  8  1  0
  8  9  2  0
  9 10  1  0
  9 11  1  0
 11 12  1  0
 11 13  1  0
 11 14  1  0
  2 15  1  0
 15 16  2  0
 15 17  1  0
 10  5  2  0
M  END
>  <rName>  (1668) 
D-hPhe_3CF3

>  <PQ_SYMBOL>  (1668) 
D-hPhe_3CF3

>  <FULL_NAME>  (1668) 
(R)-2-amino-4-(3-(trifluoromethyl)phenyl)butanoic acid

>  <IUPAC_CONDENSED>  (1668) 
D-hPhe(3-CF3)

>  <IUPAC>  (1668) 
(2R)-2-amino-4-(3-(trifluoromethyl)phenyl)butanoic acid

>  <TYPE>  (1668) 
Backbone

>  <CLASS>  (1668) 
alpha

>  <ANALOG>  (1668) 
Phe

>  <MOL_WT>  (1668) 
247.21599999999995

>  <LOGP>  (1668) 
2.0499

>  <TPSA>  (1668) 
63.32000000000001

>  <POPULARITY>  (1668) 
5.9

>  <PROTECTED>  (1668) 
TRUE

>  <SMILES>  (1668) 
N[C@H](CCc1(cccc(c1)C(F)(F)F))C(=O)O

>  <INCHIKEY>  (1668) 
YHEKYBSDNWZYJS-SECBINFHSA-N

$$$$
D-hPhe_3Cl
     RDKit          2D

 14 14  0  0  0  0  0  0  0  0999 V2000
   -2.9179   -2.0082    0.0000 N   0  0  0  0  0  0  0  0  0  0  0  0
   -2.7604   -0.5165    0.0000 C   0  0  0  0  0  0  0  0  0  0  0  0
   -1.3898    0.0929    0.0000 C   0  0  0  0  0  0  0  0  0  0  0  0
   -0.1767   -0.7894    0.0000 C   0  0  0  0  0  0  0  0  0  0  0  0
    1.1939   -0.1800    0.0000 C   0  0  0  0  0  0  0  0  0  0  0  0
    1.3515    1.3117    0.0000 C   0  0  0  0  0  0  0  0  0  0  0  0
    2.7221    1.9211    0.0000 C   0  0  0  0  0  0  0  0  0  0  0  0
    3.9352    1.0388    0.0000 C   0  0  0  0  0  0  0  0  0  0  0  0
    3.7777   -0.4529    0.0000 C   0  0  0  0  0  0  0  0  0  0  0  0
    4.9907   -1.3352    0.0000 Cl  0  0  0  0  0  0  0  0  0  0  0  0
    2.4070   -1.0623    0.0000 C   0  0  0  0  0  0  0  0  0  0  0  0
   -3.9735    0.3658    0.0000 C   0  0  0  0  0  0  0  0  0  0  0  0
   -3.8159    1.8575    0.0000 O   0  0  0  0  0  0  0  0  0  0  0  0
   -5.3441   -0.2436    0.0000 O   0  0  0  0  0  0  0  0  0  0  0  0
  2  1  1  1
  2  3  1  0
  3  4  1  0
  4  5  1  0
  5  6  2  0
  6  7  1  0
  7  8  2  0
  8  9  1  0
  9 10  1  0
  9 11  2  0
  2 12  1  0
 12 13  2  0
 12 14  1  0
 11  5  1  0
M  END
>  <rName>  (1669) 
D-hPhe_3Cl

>  <PQ_SYMBOL>  (1669) 
D-hPhe_3Cl

>  <FULL_NAME>  (1669) 
(R)-2-amino-4-(3-chlorophenyl)butanoic acid

>  <IUPAC_CONDENSED>  (1669) 
D-hPhe(3-Cl)

>  <IUPAC>  (1669) 
(2R)-2-amino-4-(3-chlorophenyl)butanoic acid

>  <TYPE>  (1669) 
Backbone

>  <CLASS>  (1669) 
alpha

>  <ANALOG>  (1669) 
Phe

>  <MOL_WT>  (1669) 
213.664

>  <LOGP>  (1669) 
1.6844999999999999

>  <TPSA>  (1669) 
63.32000000000001

>  <POPULARITY>  (1669) 
6.0

>  <PROTECTED>  (1669) 
TRUE

>  <SMILES>  (1669) 
N[C@H](CCc1(cccc(Cl)c1))C(=O)O

>  <INCHIKEY>  (1669) 
XHVNXVGEFJHTMY-SECBINFHSA-N

$$$$
D-hPhe_3Et
     RDKit          2D

 15 15  0  0  0  0  0  0  0  0999 V2000
   -3.0687   -2.0959    0.0000 N   0  0  0  0  0  0  0  0  0  0  0  0
   -3.0421   -0.5961    0.0000 C   0  0  0  0  0  0  0  0  0  0  0  0
   -1.7300    0.1307    0.0000 C   0  0  0  0  0  0  0  0  0  0  0  0
   -0.4445   -0.6422    0.0000 C   0  0  0  0  0  0  0  0  0  0  0  0
    0.8677    0.0846    0.0000 C   0  0  0  0  0  0  0  0  0  0  0  0
    0.8943    1.5844    0.0000 C   0  0  0  0  0  0  0  0  0  0  0  0
    2.2064    2.3112    0.0000 C   0  0  0  0  0  0  0  0  0  0  0  0
    3.4919    1.5383    0.0000 C   0  0  0  0  0  0  0  0  0  0  0  0
    3.4653    0.0385    0.0000 C   0  0  0  0  0  0  0  0  0  0  0  0
    2.1532   -0.6883    0.0000 C   0  0  0  0  0  0  0  0  0  0  0  0
    4.7509   -0.7344    0.0000 C   0  0  0  0  0  0  0  0  0  0  0  0
    4.7243   -2.2342    0.0000 C   0  0  0  0  0  0  0  0  0  0  0  0
   -4.3277    0.1768    0.0000 C   0  0  0  0  0  0  0  0  0  0  0  0
   -4.3011    1.6766    0.0000 O   0  0  0  0  0  0  0  0  0  0  0  0
   -5.6398   -0.5500    0.0000 O   0  0  0  0  0  0  0  0  0  0  0  0
  2  1  1  1
  2  3  1  0
  3  4  1  0
  4  5  1  0
  5  6  2  0
  6  7  1  0
  7  8  2  0
  8  9  1  0
  9 10  2  0
  9 11  1  0
 11 12  1  0
  2 13  1  0
 13 14  2  0
 13 15  1  0
 10  5  1  0
M  END
>  <rName>  (1670) 
D-hPhe_3Et

>  <PQ_SYMBOL>  (1670) 
D-hPhe_3Et

>  <FULL_NAME>  (1670) 
3-Ethyl-D-homophenylalanine

>  <IUPAC_CONDENSED>  (1670) 
D-hPhe(3-Et)

>  <IUPAC>  (1670) 
(2R)-2-amino-4-(3-ethylphenyl)butanoic acid

>  <TYPE>  (1670) 
Backbone

>  <CLASS>  (1670) 
alpha

>  <ANALOG>  (1670) 
Phe

>  <MOL_WT>  (1670) 
207.27299999999997

>  <LOGP>  (1670) 
1.5935

>  <TPSA>  (1670) 
63.32000000000001

>  <POPULARITY>  (1670) 
2.2

>  <PROTECTED>  (1670) 
TRUE

>  <SMILES>  (1670) 
N[C@H](CCc1(cccc(c1)CC))C(=O)O

>  <INCHIKEY>  (1670) 
JLFHGQZQEHAYBG-LLVKDONJSA-N

$$$$
D-hPhe_3F
     RDKit          2D

 14 14  0  0  0  0  0  0  0  0999 V2000
   -2.9179   -2.0082    0.0000 N   0  0  0  0  0  0  0  0  0  0  0  0
   -2.7604   -0.5165    0.0000 C   0  0  0  0  0  0  0  0  0  0  0  0
   -1.3898    0.0929    0.0000 C   0  0  0  0  0  0  0  0  0  0  0  0
   -0.1767   -0.7894    0.0000 C   0  0  0  0  0  0  0  0  0  0  0  0
    1.1939   -0.1800    0.0000 C   0  0  0  0  0  0  0  0  0  0  0  0
    1.3515    1.3117    0.0000 C   0  0  0  0  0  0  0  0  0  0  0  0
    2.7221    1.9211    0.0000 C   0  0  0  0  0  0  0  0  0  0  0  0
    3.9352    1.0388    0.0000 C   0  0  0  0  0  0  0  0  0  0  0  0
    3.7777   -0.4529    0.0000 C   0  0  0  0  0  0  0  0  0  0  0  0
    4.9907   -1.3352    0.0000 F   0  0  0  0  0  0  0  0  0  0  0  0
    2.4070   -1.0623    0.0000 C   0  0  0  0  0  0  0  0  0  0  0  0
   -3.9735    0.3658    0.0000 C   0  0  0  0  0  0  0  0  0  0  0  0
   -3.8159    1.8575    0.0000 O   0  0  0  0  0  0  0  0  0  0  0  0
   -5.3441   -0.2436    0.0000 O   0  0  0  0  0  0  0  0  0  0  0  0
  2  1  1  1
  2  3  1  0
  3  4  1  0
  4  5  1  0
  5  6  2  0
  6  7  1  0
  7  8  2  0
  8  9  1  0
  9 10  1  0
  9 11  2  0
  2 12  1  0
 12 13  2  0
 12 14  1  0
 11  5  1  0
M  END
>  <rName>  (1671) 
D-hPhe_3F

>  <PQ_SYMBOL>  (1671) 
D-hPhe_3F

>  <FULL_NAME>  (1671) 
(R)-2-amino-4-(3-fluorophenyl)butanoic acid

>  <IUPAC_CONDENSED>  (1671) 
D-hPhe(3-F)

>  <IUPAC>  (1671) 
(2R)-2-amino-4-(3-fluorophenyl)butanoic acid

>  <TYPE>  (1671) 
Backbone

>  <CLASS>  (1671) 
alpha

>  <ANALOG>  (1671) 
Phe

>  <MOL_WT>  (1671) 
197.20899999999997

>  <LOGP>  (1671) 
1.1702

>  <TPSA>  (1671) 
63.32000000000001

>  <POPULARITY>  (1671) 
7.9

>  <PROTECTED>  (1671) 
TRUE

>  <SMILES>  (1671) 
N[C@H](CCc1(cccc(F)c1))C(=O)O

>  <INCHIKEY>  (1671) 
IBUPJVAZBFPWLJ-SECBINFHSA-N

$$$$
D-hPhe_3Me
     RDKit          2D

 14 14  0  0  0  0  0  0  0  0999 V2000
   -2.9179   -2.0082    0.0000 N   0  0  0  0  0  0  0  0  0  0  0  0
   -2.7604   -0.5165    0.0000 C   0  0  0  0  0  0  0  0  0  0  0  0
   -1.3898    0.0929    0.0000 C   0  0  0  0  0  0  0  0  0  0  0  0
   -0.1767   -0.7894    0.0000 C   0  0  0  0  0  0  0  0  0  0  0  0
    1.1939   -0.1800    0.0000 C   0  0  0  0  0  0  0  0  0  0  0  0
    1.3515    1.3117    0.0000 C   0  0  0  0  0  0  0  0  0  0  0  0
    2.7221    1.9211    0.0000 C   0  0  0  0  0  0  0  0  0  0  0  0
    3.9352    1.0388    0.0000 C   0  0  0  0  0  0  0  0  0  0  0  0
    3.7777   -0.4529    0.0000 C   0  0  0  0  0  0  0  0  0  0  0  0
    4.9907   -1.3352    0.0000 C   0  0  0  0  0  0  0  0  0  0  0  0
    2.4070   -1.0623    0.0000 C   0  0  0  0  0  0  0  0  0  0  0  0
   -3.9735    0.3658    0.0000 C   0  0  0  0  0  0  0  0  0  0  0  0
   -3.8159    1.8575    0.0000 O   0  0  0  0  0  0  0  0  0  0  0  0
   -5.3441   -0.2436    0.0000 O   0  0  0  0  0  0  0  0  0  0  0  0
  2  1  1  1
  2  3  1  0
  3  4  1  0
  4  5  1  0
  5  6  2  0
  6  7  1  0
  7  8  2  0
  8  9  1  0
  9 10  1  0
  9 11  2  0
  2 12  1  0
 12 13  2  0
 12 14  1  0
 11  5  1  0
M  END
>  <rName>  (1672) 
D-hPhe_3Me

>  <PQ_SYMBOL>  (1672) 
D-hPhe_3Me

>  <FULL_NAME>  (1672) 
(R)-2-amino-4-(m-tolyl)butanoic acid

>  <IUPAC_CONDENSED>  (1672) 
D-hPhe(3-Me)

>  <IUPAC>  (1672) 
(2R)-2-amino-4-(3-methylphenyl)butanoic acid

>  <TYPE>  (1672) 
Backbone

>  <CLASS>  (1672) 
alpha

>  <ANALOG>  (1672) 
Phe

>  <MOL_WT>  (1672) 
193.24599999999998

>  <LOGP>  (1672) 
1.3395199999999998

>  <TPSA>  (1672) 
63.32000000000001

>  <POPULARITY>  (1672) 
7.9

>  <PROTECTED>  (1672) 
TRUE

>  <SMILES>  (1672) 
N[C@H](CCc1(cccc(C)c1))C(=O)O

>  <INCHIKEY>  (1672) 
HEJMMMOBDAVUBT-SNVBAGLBSA-N

$$$$
D-hPhe_3NO2
     RDKit          2D

 16 16  0  0  0  0  0  0  0  0999 V2000
   -3.4472   -2.0962    0.0000 N   0  0  0  0  0  0  0  0  0  0  0  0
   -3.4209   -0.5965    0.0000 C   0  0  0  0  0  0  0  0  0  0  0  0
   -2.1090    0.1307    0.0000 C   0  0  0  0  0  0  0  0  0  0  0  0
   -0.8233   -0.6419    0.0000 C   0  0  0  0  0  0  0  0  0  0  0  0
    0.4887    0.0852    0.0000 C   0  0  0  0  0  0  0  0  0  0  0  0
    0.5150    1.5850    0.0000 C   0  0  0  0  0  0  0  0  0  0  0  0
    1.8269    2.3121    0.0000 C   0  0  0  0  0  0  0  0  0  0  0  0
    3.1126    1.5395    0.0000 C   0  0  0  0  0  0  0  0  0  0  0  0
    3.0864    0.0397    0.0000 C   0  0  0  0  0  0  0  0  0  0  0  0
    1.7744   -0.6874    0.0000 C   0  0  0  0  0  0  0  0  0  0  0  0
    4.3721   -0.7329    0.0000 N   0  0  0  0  0  0  0  0  0  0  0  0
    5.6841   -0.0057    0.0000 O   0  0  0  0  0  0  0  0  0  0  0  0
    4.3458   -2.2326    0.0000 O   0  0  0  0  0  0  0  0  0  0  0  0
   -4.7067    0.1761    0.0000 C   0  0  0  0  0  0  0  0  0  0  0  0
   -4.6804    1.6759    0.0000 O   0  0  0  0  0  0  0  0  0  0  0  0
   -6.0186   -0.5510    0.0000 O   0  0  0  0  0  0  0  0  0  0  0  0
  2  1  1  1
  2  3  1  0
  3  4  1  0
  4  5  1  0
  5  6  1  0
  6  7  2  0
  7  8  1  0
  8  9  2  0
  9 10  1  0
  9 11  1  0
 11 12  2  0
 11 13  1  0
  2 14  1  0
 14 15  2  0
 14 16  1  0
 10  5  2  0
M  CHG  2  11   1  13  -1
M  END
>  <rName>  (1673) 
D-hPhe_3NO2

>  <PQ_SYMBOL>  (1673) 
D-hPhe_3NO2

>  <FULL_NAME>  (1673) 
3-Nitro-D-homophenylalanine

>  <IUPAC_CONDENSED>  (1673) 
D-hPhe(3-NO2)

>  <IUPAC>  (1673) 
(2R)-2-amino-4-(3-nitrophenyl)butanoic acid

>  <TYPE>  (1673) 
Backbone

>  <CLASS>  (1673) 
alpha

>  <ANALOG>  (1673) 
Phe

>  <MOL_WT>  (1673) 
224.21599999999998

>  <LOGP>  (1673) 
0.9392999999999998

>  <TPSA>  (1673) 
106.46

>  <POPULARITY>  (1673) 
2.2

>  <PROTECTED>  (1673) 
TRUE

>  <SMILES>  (1673) 
N[C@H](CCc1(cccc(c1)[N+](=O)[O-]))C(=O)O

>  <INCHIKEY>  (1673) 
JPXRCIXDKXNKAW-SECBINFHSA-N

$$$$
D-hPhe_3OCF3
     RDKit          2D

 18 18  0  0  0  0  0  0  0  0999 V2000
   -3.5290   -2.2572    0.0000 N   0  0  0  0  0  0  0  0  0  0  0  0
   -3.7516   -0.7738    0.0000 C   0  0  0  0  0  0  0  0  0  0  0  0
   -2.5783    0.1607    0.0000 C   0  0  0  0  0  0  0  0  0  0  0  0
   -1.1823   -0.3882    0.0000 C   0  0  0  0  0  0  0  0  0  0  0  0
   -0.0090    0.5464    0.0000 C   0  0  0  0  0  0  0  0  0  0  0  0
   -0.2317    2.0298    0.0000 C   0  0  0  0  0  0  0  0  0  0  0  0
    0.9416    2.9643    0.0000 C   0  0  0  0  0  0  0  0  0  0  0  0
    2.3376    2.4154    0.0000 C   0  0  0  0  0  0  0  0  0  0  0  0
    2.5603    0.9321    0.0000 C   0  0  0  0  0  0  0  0  0  0  0  0
    3.9562    0.3832    0.0000 O   0  0  0  0  0  0  0  0  0  0  0  0
    4.1789   -1.1002    0.0000 C   0  0  0  0  0  0  0  0  0  0  0  0
    4.4016   -2.5836    0.0000 F   0  0  0  0  0  0  0  0  0  0  0  0
    5.6623   -0.8775    0.0000 F   0  0  0  0  0  0  0  0  0  0  0  0
    2.6955   -1.3228    0.0000 F   0  0  0  0  0  0  0  0  0  0  0  0
    1.3869   -0.0025    0.0000 C   0  0  0  0  0  0  0  0  0  0  0  0
   -5.1476   -0.2250    0.0000 C   0  0  0  0  0  0  0  0  0  0  0  0
   -5.3703    1.2584    0.0000 O   0  0  0  0  0  0  0  0  0  0  0  0
   -6.3209   -1.1595    0.0000 O   0  0  0  0  0  0  0  0  0  0  0  0
  2  1  1  1
  2  3  1  0
  3  4  1  0
  4  5  1  0
  5  6  1  0
  6  7  2  0
  7  8  1  0
  8  9  2  0
  9 10  1  0
 10 11  1  0
 11 12  1  0
 11 13  1  0
 11 14  1  0
  9 15  1  0
  2 16  1  0
 16 17  2  0
 16 18  1  0
 15  5  2  0
M  END
>  <rName>  (1674) 
D-hPhe_3OCF3

>  <PQ_SYMBOL>  (1674) 
D-hPhe_3OCF3

>  <FULL_NAME>  (1674) 
(R)-2-amino-4-(3-(trifluoromethoxy)phenyl)butanoic acid

>  <IUPAC_CONDENSED>  (1674) 
D-hPhe(3-OCF3)

>  <IUPAC>  (1674) 
(2R)-2-amino-4-(3-((trifluoromethyl)oxy)phenyl)butanoic acid

>  <TYPE>  (1674) 
Backbone

>  <CLASS>  (1674) 
alpha

>  <ANALOG>  (1674) 
Tyr

>  <MOL_WT>  (1674) 
263.2149999999999

>  <LOGP>  (1674) 
1.9297

>  <TPSA>  (1674) 
72.55

>  <POPULARITY>  (1674) 
4.3

>  <PROTECTED>  (1674) 
TRUE

>  <SMILES>  (1674) 
N[C@H](CCc1(cccc(OC(F)(F)F)c1))C(=O)O

>  <INCHIKEY>  (1674) 
XXWHKZICAUCGPQ-SECBINFHSA-N

$$$$
D-hPhe_3OMe
     RDKit          2D

 15 15  0  0  0  0  0  0  0  0999 V2000
   -3.0687   -2.0959    0.0000 N   0  0  0  0  0  0  0  0  0  0  0  0
   -3.0421   -0.5961    0.0000 C   0  0  0  0  0  0  0  0  0  0  0  0
   -1.7300    0.1307    0.0000 C   0  0  0  0  0  0  0  0  0  0  0  0
   -0.4445   -0.6422    0.0000 C   0  0  0  0  0  0  0  0  0  0  0  0
    0.8677    0.0846    0.0000 C   0  0  0  0  0  0  0  0  0  0  0  0
    0.8943    1.5844    0.0000 C   0  0  0  0  0  0  0  0  0  0  0  0
    2.2064    2.3112    0.0000 C   0  0  0  0  0  0  0  0  0  0  0  0
    3.4919    1.5383    0.0000 C   0  0  0  0  0  0  0  0  0  0  0  0
    3.4653    0.0385    0.0000 C   0  0  0  0  0  0  0  0  0  0  0  0
    4.7509   -0.7344    0.0000 O   0  0  0  0  0  0  0  0  0  0  0  0
    4.7243   -2.2342    0.0000 C   0  0  0  0  0  0  0  0  0  0  0  0
    2.1532   -0.6883    0.0000 C   0  0  0  0  0  0  0  0  0  0  0  0
   -4.3277    0.1768    0.0000 C   0  0  0  0  0  0  0  0  0  0  0  0
   -4.3011    1.6766    0.0000 O   0  0  0  0  0  0  0  0  0  0  0  0
   -5.6398   -0.5500    0.0000 O   0  0  0  0  0  0  0  0  0  0  0  0
  2  1  1  1
  2  3  1  0
  3  4  1  0
  4  5  1  0
  5  6  1  0
  6  7  2  0
  7  8  1  0
  8  9  2  0
  9 10  1  0
 10 11  1  0
  9 12  1  0
  2 13  1  0
 13 14  2  0
 13 15  1  0
 12  5  2  0
M  END
>  <rName>  (1675) 
D-hPhe_3OMe

>  <PQ_SYMBOL>  (1675) 
D-hPhe_3OMe

>  <FULL_NAME>  (1675) 
(R)-2-amino-4-(3-methoxyphenyl)butanoic acid

>  <IUPAC_CONDENSED>  (1675) 
D-hPhe(3-OMe)

>  <IUPAC>  (1675) 
(2R)-2-amino-4-(3-methoxyphenyl)butanoic acid

>  <TYPE>  (1675) 
Backbone

>  <CLASS>  (1675) 
alpha

>  <ANALOG>  (1675) 
Tyr

>  <MOL_WT>  (1675) 
209.24499999999998

>  <LOGP>  (1675) 
1.0396999999999998

>  <TPSA>  (1675) 
72.55

>  <POPULARITY>  (1675) 
7.2

>  <PROTECTED>  (1675) 
TRUE

>  <SMILES>  (1675) 
N[C@H](CCc1(cccc(OC)c1))C(=O)O

>  <INCHIKEY>  (1675) 
HEOJABVYJADWNP-SNVBAGLBSA-N

$$$$
D-hPhe_4Br
     RDKit          2D

 14 14  0  0  0  0  0  0  0  0999 V2000
   -3.1731   -1.8740    0.0000 N   0  0  0  0  0  0  0  0  0  0  0  0
   -2.8476   -0.4097    0.0000 C   0  0  0  0  0  0  0  0  0  0  0  0
   -1.4168    0.0405    0.0000 C   0  0  0  0  0  0  0  0  0  0  0  0
   -0.3114   -0.9735    0.0000 C   0  0  0  0  0  0  0  0  0  0  0  0
    1.1194   -0.5232    0.0000 C   0  0  0  0  0  0  0  0  0  0  0  0
    1.4449    0.9411    0.0000 C   0  0  0  0  0  0  0  0  0  0  0  0
    2.8757    1.3913    0.0000 C   0  0  0  0  0  0  0  0  0  0  0  0
    3.9810    0.3773    0.0000 C   0  0  0  0  0  0  0  0  0  0  0  0
    5.4119    0.8276    0.0000 Br  0  0  0  0  0  0  0  0  0  0  0  0
    3.6556   -1.0870    0.0000 C   0  0  0  0  0  0  0  0  0  0  0  0
    2.2247   -1.5372    0.0000 C   0  0  0  0  0  0  0  0  0  0  0  0
   -3.9530    0.6043    0.0000 C   0  0  0  0  0  0  0  0  0  0  0  0
   -3.6275    2.0685    0.0000 O   0  0  0  0  0  0  0  0  0  0  0  0
   -5.3838    0.1540    0.0000 O   0  0  0  0  0  0  0  0  0  0  0  0
  2  1  1  1
  2  3  1  0
  3  4  1  0
  4  5  1  0
  5  6  1  0
  6  7  2  0
  7  8  1  0
  8  9  1  0
  8 10  2  0
 10 11  1  0
  2 12  1  0
 12 13  2  0
 12 14  1  0
 11  5  2  0
M  END
>  <rName>  (1676) 
D-hPhe_4Br

>  <PQ_SYMBOL>  (1676) 
D-hPhe_4Br

>  <FULL_NAME>  (1676) 
(R)-2-Amino-4-(4-bromophenyl)butanoic acid

>  <IUPAC_CONDENSED>  (1676) 
D-hPhe(4-Br)

>  <IUPAC>  (1676) 
(2R)-2-amino-4-(4-bromophenyl)butanoic acid

>  <TYPE>  (1676) 
Backbone

>  <CLASS>  (1676) 
alpha

>  <ANALOG>  (1676) 
Phe

>  <MOL_WT>  (1676) 
258.11499999999995

>  <LOGP>  (1676) 
1.7935999999999999

>  <TPSA>  (1676) 
63.32000000000001

>  <POPULARITY>  (1676) 
5.3

>  <PROTECTED>  (1676) 
TRUE

>  <SMILES>  (1676) 
N[C@H](CCc1(ccc(Br)cc1))C(=O)O

>  <INCHIKEY>  (1676) 
DKLOOEYUDFTYNM-SECBINFHSA-N

$$$$
D-hPhe_4CF3
     RDKit          2D

 17 17  0  0  0  0  0  0  0  0999 V2000
   -4.3296   -1.7850    0.0000 N   0  0  0  0  0  0  0  0  0  0  0  0
   -3.9152   -0.3434    0.0000 C   0  0  0  0  0  0  0  0  0  0  0  0
   -2.4595    0.0185    0.0000 C   0  0  0  0  0  0  0  0  0  0  0  0
   -1.4182   -1.0612    0.0000 C   0  0  0  0  0  0  0  0  0  0  0  0
    0.0375   -0.6993    0.0000 C   0  0  0  0  0  0  0  0  0  0  0  0
    0.4519    0.7423    0.0000 C   0  0  0  0  0  0  0  0  0  0  0  0
    1.9076    1.1041    0.0000 C   0  0  0  0  0  0  0  0  0  0  0  0
    2.9489    0.0244    0.0000 C   0  0  0  0  0  0  0  0  0  0  0  0
    2.5344   -1.4172    0.0000 C   0  0  0  0  0  0  0  0  0  0  0  0
    1.0787   -1.7791    0.0000 C   0  0  0  0  0  0  0  0  0  0  0  0
    4.4046    0.3863    0.0000 C   0  0  0  0  0  0  0  0  0  0  0  0
    5.8602    0.7481    0.0000 F   0  0  0  0  0  0  0  0  0  0  0  0
    4.7664   -1.0694    0.0000 F   0  0  0  0  0  0  0  0  0  0  0  0
    4.0427    1.8420    0.0000 F   0  0  0  0  0  0  0  0  0  0  0  0
   -4.9564    0.7364    0.0000 C   0  0  0  0  0  0  0  0  0  0  0  0
   -4.5419    2.1780    0.0000 O   0  0  0  0  0  0  0  0  0  0  0  0
   -6.4121    0.3745    0.0000 O   0  0  0  0  0  0  0  0  0  0  0  0
  2  1  1  1
  2  3  1  0
  3  4  1  0
  4  5  1  0
  5  6  1  0
  6  7  2  0
  7  8  1  0
  8  9  2  0
  9 10  1  0
  8 11  1  0
 11 12  1  0
 11 13  1  0
 11 14  1  0
  2 15  1  0
 15 16  2  0
 15 17  1  0
 10  5  2  0
M  END
>  <rName>  (1677) 
D-hPhe_4CF3

>  <PQ_SYMBOL>  (1677) 
D-hPhe_4CF3

>  <FULL_NAME>  (1677) 
(R)-2-amino-4-(4-(trifluoromethyl)phenyl)butanoic acid

>  <IUPAC_CONDENSED>  (1677) 
D-hPhe(4-CF3)

>  <IUPAC>  (1677) 
(2R)-2-amino-4-(4-(trifluoromethyl)phenyl)butanoic acid

>  <TYPE>  (1677) 
Backbone

>  <CLASS>  (1677) 
alpha

>  <ANALOG>  (1677) 
Phe

>  <MOL_WT>  (1677) 
247.21599999999995

>  <LOGP>  (1677) 
2.0499

>  <TPSA>  (1677) 
63.32000000000001

>  <POPULARITY>  (1677) 
6.0

>  <PROTECTED>  (1677) 
TRUE

>  <SMILES>  (1677) 
N[C@H](CCc1(ccc(cc1)C(F)(F)F))C(=O)O

>  <INCHIKEY>  (1677) 
VOINSBLLXKDEJC-SECBINFHSA-N

$$$$
D-hPhe_4Cl
     RDKit          2D

 14 14  0  0  0  0  0  0  0  0999 V2000
   -3.1731   -1.8740    0.0000 N   0  0  0  0  0  0  0  0  0  0  0  0
   -2.8476   -0.4097    0.0000 C   0  0  0  0  0  0  0  0  0  0  0  0
   -1.4168    0.0405    0.0000 C   0  0  0  0  0  0  0  0  0  0  0  0
   -0.3114   -0.9735    0.0000 C   0  0  0  0  0  0  0  0  0  0  0  0
    1.1194   -0.5232    0.0000 C   0  0  0  0  0  0  0  0  0  0  0  0
    1.4449    0.9411    0.0000 C   0  0  0  0  0  0  0  0  0  0  0  0
    2.8757    1.3913    0.0000 C   0  0  0  0  0  0  0  0  0  0  0  0
    3.9810    0.3773    0.0000 C   0  0  0  0  0  0  0  0  0  0  0  0
    5.4119    0.8276    0.0000 Cl  0  0  0  0  0  0  0  0  0  0  0  0
    3.6556   -1.0870    0.0000 C   0  0  0  0  0  0  0  0  0  0  0  0
    2.2247   -1.5372    0.0000 C   0  0  0  0  0  0  0  0  0  0  0  0
   -3.9530    0.6043    0.0000 C   0  0  0  0  0  0  0  0  0  0  0  0
   -3.6275    2.0685    0.0000 O   0  0  0  0  0  0  0  0  0  0  0  0
   -5.3838    0.1540    0.0000 O   0  0  0  0  0  0  0  0  0  0  0  0
  2  1  1  1
  2  3  1  0
  3  4  1  0
  4  5  1  0
  5  6  1  0
  6  7  2  0
  7  8  1  0
  8  9  1  0
  8 10  2  0
 10 11  1  0
  2 12  1  0
 12 13  2  0
 12 14  1  0
 11  5  2  0
M  END
>  <rName>  (1678) 
D-hPhe_4Cl

>  <PQ_SYMBOL>  (1678) 
D-hPhe_4Cl

>  <FULL_NAME>  (1678) 
(R)-2-amino-4-(4-chlorophenyl)butanoic acid

>  <IUPAC_CONDENSED>  (1678) 
D-hPhe(4-Cl)

>  <IUPAC>  (1678) 
(2R)-2-amino-4-(4-chlorophenyl)butanoic acid

>  <TYPE>  (1678) 
Backbone

>  <CLASS>  (1678) 
alpha

>  <ANALOG>  (1678) 
Phe

>  <MOL_WT>  (1678) 
213.664

>  <LOGP>  (1678) 
1.6844999999999999

>  <TPSA>  (1678) 
63.32000000000001

>  <POPULARITY>  (1678) 
10.5

>  <PROTECTED>  (1678) 
TRUE

>  <SMILES>  (1678) 
N[C@H](CCc1(ccc(Cl)cc1))C(=O)O

>  <INCHIKEY>  (1678) 
AQUBLNVPEAFNGD-SECBINFHSA-N

$$$$
D-hPhe_4F
     RDKit          2D

 14 14  0  0  0  0  0  0  0  0999 V2000
   -3.1731   -1.8740    0.0000 N   0  0  0  0  0  0  0  0  0  0  0  0
   -2.8476   -0.4097    0.0000 C   0  0  0  0  0  0  0  0  0  0  0  0
   -1.4168    0.0405    0.0000 C   0  0  0  0  0  0  0  0  0  0  0  0
   -0.3114   -0.9735    0.0000 C   0  0  0  0  0  0  0  0  0  0  0  0
    1.1194   -0.5232    0.0000 C   0  0  0  0  0  0  0  0  0  0  0  0
    1.4449    0.9411    0.0000 C   0  0  0  0  0  0  0  0  0  0  0  0
    2.8757    1.3913    0.0000 C   0  0  0  0  0  0  0  0  0  0  0  0
    3.9810    0.3773    0.0000 C   0  0  0  0  0  0  0  0  0  0  0  0
    5.4119    0.8276    0.0000 F   0  0  0  0  0  0  0  0  0  0  0  0
    3.6556   -1.0870    0.0000 C   0  0  0  0  0  0  0  0  0  0  0  0
    2.2247   -1.5372    0.0000 C   0  0  0  0  0  0  0  0  0  0  0  0
   -3.9530    0.6043    0.0000 C   0  0  0  0  0  0  0  0  0  0  0  0
   -3.6275    2.0685    0.0000 O   0  0  0  0  0  0  0  0  0  0  0  0
   -5.3838    0.1540    0.0000 O   0  0  0  0  0  0  0  0  0  0  0  0
  2  1  1  1
  2  3  1  0
  3  4  1  0
  4  5  1  0
  5  6  1  0
  6  7  2  0
  7  8  1  0
  8  9  1  0
  8 10  2  0
 10 11  1  0
  2 12  1  0
 12 13  2  0
 12 14  1  0
 11  5  2  0
M  END
>  <rName>  (1679) 
D-hPhe_4F

>  <PQ_SYMBOL>  (1679) 
D-hPhe_4F

>  <FULL_NAME>  (1679) 
(R)-2-amino-4-(4-fluorophenyl)butanoic acid

>  <IUPAC_CONDENSED>  (1679) 
D-hPhe(4-F)

>  <IUPAC>  (1679) 
(2R)-2-amino-4-(4-fluorophenyl)butanoic acid

>  <TYPE>  (1679) 
Backbone

>  <CLASS>  (1679) 
alpha

>  <ANALOG>  (1679) 
Phe

>  <MOL_WT>  (1679) 
197.209

>  <LOGP>  (1679) 
1.1702

>  <TPSA>  (1679) 
63.32000000000001

>  <POPULARITY>  (1679) 
7.3

>  <PROTECTED>  (1679) 
TRUE

>  <SMILES>  (1679) 
N[C@H](CCc1(ccc(F)cc1))C(=O)O

>  <INCHIKEY>  (1679) 
WMMMRQAUOPVWML-SECBINFHSA-N

$$$$
D-hPhe_4I
     RDKit          2D

 14 14  0  0  0  0  0  0  0  0999 V2000
   -3.1731   -1.8740    0.0000 N   0  0  0  0  0  0  0  0  0  0  0  0
   -2.8476   -0.4097    0.0000 C   0  0  0  0  0  0  0  0  0  0  0  0
   -1.4168    0.0405    0.0000 C   0  0  0  0  0  0  0  0  0  0  0  0
   -0.3114   -0.9735    0.0000 C   0  0  0  0  0  0  0  0  0  0  0  0
    1.1194   -0.5232    0.0000 C   0  0  0  0  0  0  0  0  0  0  0  0
    1.4449    0.9411    0.0000 C   0  0  0  0  0  0  0  0  0  0  0  0
    2.8757    1.3913    0.0000 C   0  0  0  0  0  0  0  0  0  0  0  0
    3.9810    0.3773    0.0000 C   0  0  0  0  0  0  0  0  0  0  0  0
    5.4119    0.8276    0.0000 I   0  0  0  0  0  0  0  0  0  0  0  0
    3.6556   -1.0870    0.0000 C   0  0  0  0  0  0  0  0  0  0  0  0
    2.2247   -1.5372    0.0000 C   0  0  0  0  0  0  0  0  0  0  0  0
   -3.9530    0.6043    0.0000 C   0  0  0  0  0  0  0  0  0  0  0  0
   -3.6275    2.0685    0.0000 O   0  0  0  0  0  0  0  0  0  0  0  0
   -5.3838    0.1540    0.0000 O   0  0  0  0  0  0  0  0  0  0  0  0
  2  1  1  1
  2  3  1  0
  3  4  1  0
  4  5  1  0
  5  6  1  0
  6  7  2  0
  7  8  1  0
  8  9  1  0
  8 10  2  0
 10 11  1  0
  2 12  1  0
 12 13  2  0
 12 14  1  0
 11  5  2  0
M  END
>  <rName>  (1680) 
D-hPhe_4I

>  <PQ_SYMBOL>  (1680) 
D-hPhe_4I

>  <FULL_NAME>  (1680) 
(2R)-2-amino-4-(4-iodophenyl)butanoic acid

>  <IUPAC_CONDENSED>  (1680) 
D-hPhe(4-I)

>  <IUPAC>  (1680) 
(2R)-2-amino-4-(4-iodophenyl)butanoic acid

>  <TYPE>  (1680) 
Backbone

>  <CLASS>  (1680) 
alpha

>  <ANALOG>  (1680) 
Phe

>  <MOL_WT>  (1680) 
305.115

>  <LOGP>  (1680) 
1.6357

>  <TPSA>  (1680) 
63.32000000000001

>  <POPULARITY>  (1680) 
2.2

>  <PROTECTED>  (1680) 
TRUE

>  <SMILES>  (1680) 
N[C@H](CCc1(ccc(I)cc1))C(=O)O

>  <INCHIKEY>  (1680) 
VAIMIYCYKPEREB-SECBINFHSA-N

$$$$
D-hPhe_4Me
     RDKit          2D

 14 14  0  0  0  0  0  0  0  0999 V2000
   -3.1731   -1.8740    0.0000 N   0  0  0  0  0  0  0  0  0  0  0  0
   -2.8476   -0.4097    0.0000 C   0  0  0  0  0  0  0  0  0  0  0  0
   -1.4168    0.0405    0.0000 C   0  0  0  0  0  0  0  0  0  0  0  0
   -0.3114   -0.9735    0.0000 C   0  0  0  0  0  0  0  0  0  0  0  0
    1.1194   -0.5232    0.0000 C   0  0  0  0  0  0  0  0  0  0  0  0
    1.4449    0.9411    0.0000 C   0  0  0  0  0  0  0  0  0  0  0  0
    2.8757    1.3913    0.0000 C   0  0  0  0  0  0  0  0  0  0  0  0
    3.9810    0.3773    0.0000 C   0  0  0  0  0  0  0  0  0  0  0  0
    5.4119    0.8276    0.0000 C   0  0  0  0  0  0  0  0  0  0  0  0
    3.6556   -1.0870    0.0000 C   0  0  0  0  0  0  0  0  0  0  0  0
    2.2247   -1.5372    0.0000 C   0  0  0  0  0  0  0  0  0  0  0  0
   -3.9530    0.6043    0.0000 C   0  0  0  0  0  0  0  0  0  0  0  0
   -3.6275    2.0685    0.0000 O   0  0  0  0  0  0  0  0  0  0  0  0
   -5.3838    0.1540    0.0000 O   0  0  0  0  0  0  0  0  0  0  0  0
  2  1  1  1
  2  3  1  0
  3  4  1  0
  4  5  1  0
  5  6  1  0
  6  7  2  0
  7  8  1  0
  8  9  1  0
  8 10  2  0
 10 11  1  0
  2 12  1  0
 12 13  2  0
 12 14  1  0
 11  5  2  0
M  END
>  <rName>  (1681) 
D-hPhe_4Me

>  <PQ_SYMBOL>  (1681) 
D-hPhe_4Me

>  <FULL_NAME>  (1681) 
(R)-2-amino-4-(p-tolyl)butanoic acid

>  <IUPAC_CONDENSED>  (1681) 
D-hPhe(4-Me)

>  <IUPAC>  (1681) 
(2R)-2-amino-4-(4-methylphenyl)butanoic acid

>  <TYPE>  (1681) 
Backbone

>  <CLASS>  (1681) 
alpha

>  <ANALOG>  (1681) 
Phe

>  <MOL_WT>  (1681) 
193.24599999999998

>  <LOGP>  (1681) 
1.3395199999999998

>  <TPSA>  (1681) 
63.32000000000001

>  <POPULARITY>  (1681) 
7.7

>  <PROTECTED>  (1681) 
TRUE

>  <SMILES>  (1681) 
N[C@H](CCc1(ccc(C)cc1))C(=O)O

>  <INCHIKEY>  (1681) 
QHABQGXRISWAEZ-SNVBAGLBSA-N

$$$$
D-hPhe_4cPr
     RDKit          2D

 16 17  0  0  0  0  0  0  0  0999 V2000
   -4.1285   -1.7598    0.0000 N   0  0  0  0  0  0  0  0  0  0  0  0
   -3.7079   -0.3199    0.0000 C   0  0  0  0  0  0  0  0  0  0  0  0
   -2.2507    0.0357    0.0000 C   0  0  0  0  0  0  0  0  0  0  0  0
   -1.2140   -1.0485    0.0000 C   0  0  0  0  0  0  0  0  0  0  0  0
    0.2432   -0.6928    0.0000 C   0  0  0  0  0  0  0  0  0  0  0  0
    0.6638    0.7470    0.0000 C   0  0  0  0  0  0  0  0  0  0  0  0
    2.1210    1.1027    0.0000 C   0  0  0  0  0  0  0  0  0  0  0  0
    3.1576    0.0185    0.0000 C   0  0  0  0  0  0  0  0  0  0  0  0
    2.7370   -1.4213    0.0000 C   0  0  0  0  0  0  0  0  0  0  0  0
    1.2798   -1.7770    0.0000 C   0  0  0  0  0  0  0  0  0  0  0  0
    4.6149    0.3742    0.0000 C   0  0  0  0  0  0  0  0  0  0  0  0
    5.6990    1.4108    0.0000 C   0  0  0  0  0  0  0  0  0  0  0  0
    6.0547   -0.0464    0.0000 C   0  0  0  0  0  0  0  0  0  0  0  0
   -4.7445    0.7642    0.0000 C   0  0  0  0  0  0  0  0  0  0  0  0
   -4.3239    2.2040    0.0000 O   0  0  0  0  0  0  0  0  0  0  0  0
   -6.2017    0.4086    0.0000 O   0  0  0  0  0  0  0  0  0  0  0  0
  2  1  1  1
  2  3  1  0
  3  4  1  0
  4  5  1  0
  5  6  1  0
  6  7  2  0
  7  8  1  0
  8  9  2  0
  9 10  1  0
  8 11  1  0
 11 12  1  0
 12 13  1  0
  2 14  1  0
 14 15  2  0
 14 16  1  0
 10  5  2  0
 13 11  1  0
M  END
>  <rName>  (1682) 
D-hPhe_4cPr

>  <PQ_SYMBOL>  (1682) 
D-hPhe_4cPr

>  <FULL_NAME>  (1682) 
4-Cyclopropyl-D-homophenylalanine

>  <IUPAC_CONDENSED>  (1682) 
D-hPhe(4-cPr)

>  <IUPAC>  (1682) 
(2R)-2-amino-4-(4-cyclopropylphenyl)butanoic acid

>  <TYPE>  (1682) 
Backbone

>  <CLASS>  (1682) 
alpha

>  <ANALOG>  (1682) 
Phe

>  <MOL_WT>  (1682) 
219.28399999999996

>  <LOGP>  (1682) 
1.9085

>  <TPSA>  (1682) 
63.32000000000001

>  <POPULARITY>  (1682) 
2.2

>  <PROTECTED>  (1682) 
TRUE

>  <SMILES>  (1682) 
N[C@H](CCc1(ccc(cc1)C2(CC2)))C(=O)O

>  <INCHIKEY>  (1682) 
GDTTXITUTUBFIC-GFCCVEGCSA-N

$$$$
D-hPhe_NO2
     RDKit          2D

 16 16  0  0  0  0  0  0  0  0999 V2000
   -4.0381   -1.7977    0.0000 N   0  0  0  0  0  0  0  0  0  0  0  0
   -3.6368   -0.3524    0.0000 C   0  0  0  0  0  0  0  0  0  0  0  0
   -2.1845    0.0228    0.0000 C   0  0  0  0  0  0  0  0  0  0  0  0
   -1.1334   -1.0474    0.0000 C   0  0  0  0  0  0  0  0  0  0  0  0
    0.3189   -0.6723    0.0000 C   0  0  0  0  0  0  0  0  0  0  0  0
    0.7202    0.7730    0.0000 C   0  0  0  0  0  0  0  0  0  0  0  0
    2.1725    1.1481    0.0000 C   0  0  0  0  0  0  0  0  0  0  0  0
    3.2236    0.0779    0.0000 C   0  0  0  0  0  0  0  0  0  0  0  0
    2.8223   -1.3674    0.0000 C   0  0  0  0  0  0  0  0  0  0  0  0
    1.3699   -1.7425    0.0000 C   0  0  0  0  0  0  0  0  0  0  0  0
    4.6759    0.4530    0.0000 N   0  0  0  0  0  0  0  0  0  0  0  0
    5.0772    1.8984    0.0000 O   0  0  0  0  0  0  0  0  0  0  0  0
    5.7269   -0.6172    0.0000 O   0  0  0  0  0  0  0  0  0  0  0  0
   -4.6878    0.7178    0.0000 C   0  0  0  0  0  0  0  0  0  0  0  0
   -4.2865    2.1632    0.0000 O   0  0  0  0  0  0  0  0  0  0  0  0
   -6.1402    0.3427    0.0000 O   0  0  0  0  0  0  0  0  0  0  0  0
  2  1  1  1
  2  3  1  0
  3  4  1  0
  4  5  1  0
  5  6  1  0
  6  7  2  0
  7  8  1  0
  8  9  2  0
  9 10  1  0
  8 11  1  0
 11 12  2  0
 11 13  1  0
  2 14  1  0
 14 15  2  0
 14 16  1  0
 10  5  2  0
M  CHG  2  11   1  13  -1
M  END
>  <rName>  (1683) 
D-hPhe_NO2

>  <PQ_SYMBOL>  (1683) 
D-hPhe_NO2

>  <FULL_NAME>  (1683) 
4-Nitro-D-homophenylalanine

>  <IUPAC_CONDENSED>  (1683) 
D-hPhe(NO2)

>  <IUPAC>  (1683) 
(2R)-2-amino-4-(4-nitrophenyl)butanoic acid

>  <TYPE>  (1683) 
Backbone

>  <CLASS>  (1683) 
alpha

>  <ANALOG>  (1683) 
Phe

>  <MOL_WT>  (1683) 
224.21599999999998

>  <LOGP>  (1683) 
0.9392999999999998

>  <TPSA>  (1683) 
106.46

>  <POPULARITY>  (1683) 
2.2

>  <PROTECTED>  (1683) 
TRUE

>  <SMILES>  (1683) 
N[C@H](CCc1(ccc(cc1)[N+](=O)[O-]))C(=O)O

>  <INCHIKEY>  (1683) 
YLRIJQHXHLYYBA-SECBINFHSA-N

$$$$
D-hPhe_carbonyl_2NHFor
     RDKit          2D

 17 17  0  0  0  0  0  0  0  0999 V2000
   -2.7452   -2.0024    0.0000 N   0  0  0  0  0  0  0  0  0  0  0  0
   -2.9383   -0.5149    0.0000 C   0  0  0  0  0  0  0  0  0  0  0  0
   -1.7466    0.3961    0.0000 C   0  0  0  0  0  0  0  0  0  0  0  0
   -0.3619   -0.1804    0.0000 C   0  0  0  0  0  0  0  0  0  0  0  0
   -0.1688   -1.6680    0.0000 O   0  0  0  0  0  0  0  0  0  0  0  0
    0.8298    0.7305    0.0000 C   0  0  0  0  0  0  0  0  0  0  0  0
    0.6367    2.2181    0.0000 C   0  0  0  0  0  0  0  0  0  0  0  0
    1.8284    3.1290    0.0000 C   0  0  0  0  0  0  0  0  0  0  0  0
    3.2132    2.5525    0.0000 C   0  0  0  0  0  0  0  0  0  0  0  0
    3.4063    1.0650    0.0000 C   0  0  0  0  0  0  0  0  0  0  0  0
    2.2146    0.1540    0.0000 C   0  0  0  0  0  0  0  0  0  0  0  0
    2.4077   -1.3335    0.0000 N   0  0  0  0  0  0  0  0  0  0  0  0
    3.7925   -1.9101    0.0000 C   0  0  0  0  0  0  0  0  0  0  0  0
    3.9856   -3.3976    0.0000 O   0  0  0  0  0  0  0  0  0  0  0  0
   -4.3231    0.0617    0.0000 C   0  0  0  0  0  0  0  0  0  0  0  0
   -4.5162    1.5492    0.0000 O   0  0  0  0  0  0  0  0  0  0  0  0
   -5.5148   -0.8493    0.0000 O   0  0  0  0  0  0  0  0  0  0  0  0
  2  1  1  1
  2  3  1  0
  3  4  1  0
  4  5  2  0
  4  6  1  0
  6  7  2  0
  7  8  1  0
  8  9  2  0
  9 10  1  0
 10 11  2  0
 11 12  1  0
 12 13  1  0
 13 14  2  0
  2 15  1  0
 15 16  2  0
 15 17  1  0
 11  6  1  0
M  END
>  <rName>  (1684) 
D-hPhe_carbonyl_2NHFor

>  <PQ_SYMBOL>  (1684) 
D-hPhe_carbonyl_2NHFor

>  <FULL_NAME>  (1684) 
(2R)-2-amino-4-(2-formamidophenyl)-4-oxobutanoic acid

>  <IUPAC_CONDENSED>  (1684) 
D-hPhe(carbonyl,2-NHFor)

>  <IUPAC>  (1684) 
(2R)-2-amino-4-(2-formamidophenyl)-4-oxobutanoic acid

>  <TYPE>  (1684) 
Backbone

>  <CLASS>  (1684) 
alpha

>  <ANALOG>  (1684) 
Phe

>  <MOL_WT>  (1684) 
236.22699999999998

>  <LOGP>  (1684) 
0.2395999999999998

>  <TPSA>  (1684) 
109.49

>  <POPULARITY>  (1684) 
2.2

>  <PROTECTED>  (1684) 
TRUE

>  <SMILES>  (1684) 
N[C@H](CC(=O)c1ccccc1NC=O)C(=O)O

>  <INCHIKEY>  (1684) 
BYHJHXPTQMMKCA-MRVPVSSYSA-N

$$$$
D-hPip
     RDKit          2D

 10 10  0  0  0  0  0  0  0  0999 V2000
    1.3040   -1.4730    0.0000 N   0  0  0  0  0  0  0  0  0  0  0  0
    0.1701   -0.4910    0.0000 C   0  0  0  0  0  0  0  0  0  0  0  0
    0.4536    0.9820    0.0000 C   0  0  0  0  0  0  0  0  0  0  0  0
    1.8709    1.4730    0.0000 C   0  0  0  0  0  0  0  0  0  0  0  0
    3.0048    0.4910    0.0000 C   0  0  0  0  0  0  0  0  0  0  0  0
    2.7213   -0.9820    0.0000 C   0  0  0  0  0  0  0  0  0  0  0  0
   -1.2473   -0.9820    0.0000 C   0  0  0  0  0  0  0  0  0  0  0  0
   -2.3812   -0.0000    0.0000 C   0  0  0  0  0  0  0  0  0  0  0  0
   -2.0977    1.4730    0.0000 O   0  0  0  0  0  0  0  0  0  0  0  0
   -3.7985   -0.4910    0.0000 O   0  0  0  0  0  0  0  0  0  0  0  0
  1  2  1  0
  2  3  1  0
  3  4  1  0
  4  5  1  0
  5  6  1  0
  2  7  1  1
  7  8  1  0
  8  9  2  0
  8 10  1  0
  6  1  1  0
M  END
>  <rName>  (1685) 
D-hPip

>  <PQ_SYMBOL>  (1685) 
D-hPip

>  <FULL_NAME>  (1685) 
(R)-2-(Piperidin-2-yl)acetic acid

>  <IUPAC_CONDENSED>  (1685) 
D-hPip

>  <IUPAC>  (1685) 
2-((2R)-piperidin-2-yl)acetic acid

>  <TYPE>  (1685) 
Backbone

>  <CLASS>  (1685) 
beta

>  <ANALOG>  (1685) 
Pro

>  <MOL_WT>  (1685) 
143.186

>  <LOGP>  (1685) 
0.6032

>  <TPSA>  (1685) 
49.33

>  <POPULARITY>  (1685) 
11.7

>  <PROTECTED>  (1685) 
TRUE

>  <SMILES>  (1685) 
N1[C@H](CCCC1)CC(=O)O

>  <INCHIKEY>  (1685) 
PRNLNZMJMCUWNV-ZCFIWIBFSA-N

$$$$
D-hPro
     RDKit          2D

  9  9  0  0  0  0  0  0  0  0999 V2000
   -0.8806   -1.0024    0.0000 N   0  0  0  0  0  0  0  0  0  0  0  0
   -0.4728    0.4411    0.0000 C   0  0  0  0  0  0  0  0  0  0  0  0
   -1.7196    1.2750    0.0000 C   0  0  0  0  0  0  0  0  0  0  0  0
   -2.8980    0.3469    0.0000 C   0  0  0  0  0  0  0  0  0  0  0  0
   -2.3794   -1.0606    0.0000 C   0  0  0  0  0  0  0  0  0  0  0  0
    0.9347    0.9597    0.0000 C   0  0  0  0  0  0  0  0  0  0  0  0
    2.0876   -0.0000    0.0000 C   0  0  0  0  0  0  0  0  0  0  0  0
    1.8329   -1.4782    0.0000 O   0  0  0  0  0  0  0  0  0  0  0  0
    3.4951    0.5186    0.0000 O   0  0  0  0  0  0  0  0  0  0  0  0
  1  2  1  0
  2  3  1  0
  3  4  1  0
  4  5  1  0
  2  6  1  6
  6  7  1  0
  7  8  2  0
  7  9  1  0
  5  1  1  0
M  END
>  <rName>  (1686) 
D-hPro

>  <PQ_SYMBOL>  (1686) 
D-hPro

>  <FULL_NAME>  (1686) 
(R)-2-(pyrrolidin-2-yl)acetic acid

>  <IUPAC_CONDENSED>  (1686) 
D-hPro

>  <IUPAC>  (1686) 
2-((2R)-pyrrolidin-2-yl)acetic acid

>  <TYPE>  (1686) 
Backbone

>  <CLASS>  (1686) 
beta

>  <ANALOG>  (1686) 
Pro

>  <MOL_WT>  (1686) 
129.15900000000002

>  <LOGP>  (1686) 
0.2131

>  <TPSA>  (1686) 
49.33

>  <POPULARITY>  (1686) 
13.3

>  <PROTECTED>  (1686) 
TRUE

>  <SMILES>  (1686) 
N1[C@H](CCC1)CC(=O)O

>  <INCHIKEY>  (1686) 
ADSALMJPJUKESW-RXMQYKEDSA-N

$$$$
D-hPro-
     RDKit          2D

  9  9  0  0  0  0  0  0  0  0999 V2000
   -0.8806   -1.0024    0.0000 N   0  0  0  0  0  0  0  0  0  0  0  0
   -0.4728    0.4411    0.0000 C   0  0  0  0  0  0  0  0  0  0  0  0
   -1.7196    1.2750    0.0000 C   0  0  0  0  0  0  0  0  0  0  0  0
   -2.8980    0.3469    0.0000 C   0  0  0  0  0  0  0  0  0  0  0  0
   -2.3794   -1.0606    0.0000 C   0  0  0  0  0  0  0  0  0  0  0  0
    0.9347    0.9597    0.0000 C   0  0  0  0  0  0  0  0  0  0  0  0
    2.0876   -0.0000    0.0000 C   0  0  0  0  0  0  0  0  0  0  0  0
    1.8329   -1.4782    0.0000 O   0  0  0  0  0  0  0  0  0  0  0  0
    3.4951    0.5186    0.0000 O   0  0  0  0  0  0  0  0  0  0  0  0
  1  2  1  0
  2  3  1  0
  3  4  1  0
  4  5  1  0
  2  6  1  6
  6  7  1  0
  7  8  2  0
  7  9  1  0
  5  1  1  0
M  END
>  <rName>  (1687) 
D-hPro-

>  <PQ_SYMBOL>  (1687) 
D-hPro-

>  <FULL_NAME>  (1687) 
(R)-homoproline

>  <IUPAC_CONDENSED>  (1687) 
D-hPro-

>  <IUPAC>  (1687) 
2-((2R)-pyrrolidin-2-yl)acetic acid

>  <TYPE>  (1687) 
N-term cap

>  <CLASS>  (1687) 
n_cap

>  <ANALOG>  (1687) 
X

>  <MOL_WT>  (1687) 
129.15900000000002

>  <LOGP>  (1687) 
0.2131

>  <TPSA>  (1687) 
49.33

>  <POPULARITY>  (1687) 
11.7

>  <PROTECTED>  (1687) 
FALSE

>  <SMILES>  (1687) 
N1[C@H](CCC1)CC(=O)O

>  <INCHIKEY>  (1687) 
ADSALMJPJUKESW-RXMQYKEDSA-N

$$$$
D-hPro_4RF
     RDKit          2D

 10 10  0  0  0  0  0  0  0  0999 V2000
   -0.3795   -1.1032    0.0000 N   0  0  0  0  0  0  0  0  0  0  0  0
   -0.0610    0.3626    0.0000 C   0  0  0  0  0  0  0  0  0  0  0  0
   -1.3566    1.1185    0.0000 C   0  0  0  0  0  0  0  0  0  0  0  0
   -2.4758    0.1199    0.0000 C   0  0  0  0  0  0  0  0  0  0  0  0
   -3.9416    0.4384    0.0000 F   0  0  0  0  0  0  0  0  0  0  0  0
   -1.8720   -1.2532    0.0000 C   0  0  0  0  0  0  0  0  0  0  0  0
    1.3121    0.9665    0.0000 C   0  0  0  0  0  0  0  0  0  0  0  0
    2.5216    0.0793    0.0000 C   0  0  0  0  0  0  0  0  0  0  0  0
    2.3580   -1.4118    0.0000 O   0  0  0  0  0  0  0  0  0  0  0  0
    3.8947    0.6831    0.0000 O   0  0  0  0  0  0  0  0  0  0  0  0
  1  2  1  0
  2  3  1  0
  3  4  1  0
  4  5  1  6
  4  6  1  0
  2  7  1  1
  7  8  1  0
  8  9  2  0
  8 10  1  0
  6  1  1  0
M  END
>  <rName>  (1688) 
D-hPro_4RF

>  <PQ_SYMBOL>  (1688) 
D-hPro_4RF

>  <FULL_NAME>  (1688) 
2-[(2R,4R)-4-fluoropyrrolidin-2-yl]acetic acid

>  <IUPAC_CONDENSED>  (1688) 
D-hPro(4R-F)

>  <IUPAC>  (1688) 
2-((2R,4R)-4-fluoropyrrolidin-2-yl)acetic acid

>  <TYPE>  (1688) 
Backbone

>  <CLASS>  (1688) 
beta

>  <ANALOG>  (1688) 
Pro

>  <MOL_WT>  (1688) 
147.149

>  <LOGP>  (1688) 
0.16109999999999974

>  <TPSA>  (1688) 
49.33

>  <POPULARITY>  (1688) 
4.3

>  <PROTECTED>  (1688) 
TRUE

>  <SMILES>  (1688) 
N1[C@@H](C[C@@H](F)C1)CC(=O)O

>  <INCHIKEY>  (1688) 
RELUHGZYAOGPIR-UHNVWZDZSA-N

$$$$
D-hPro_4ROH
     RDKit          2D

 10 10  0  0  0  0  0  0  0  0999 V2000
   -0.3795   -1.1032    0.0000 N   0  0  0  0  0  0  0  0  0  0  0  0
   -0.0610    0.3626    0.0000 C   0  0  0  0  0  0  0  0  0  0  0  0
   -1.3566    1.1185    0.0000 C   0  0  0  0  0  0  0  0  0  0  0  0
   -2.4758    0.1199    0.0000 C   0  0  0  0  0  0  0  0  0  0  0  0
   -3.9416    0.4384    0.0000 O   0  0  0  0  0  0  0  0  0  0  0  0
   -1.8720   -1.2532    0.0000 C   0  0  0  0  0  0  0  0  0  0  0  0
    1.3121    0.9665    0.0000 C   0  0  0  0  0  0  0  0  0  0  0  0
    2.5216    0.0793    0.0000 C   0  0  0  0  0  0  0  0  0  0  0  0
    2.3580   -1.4118    0.0000 O   0  0  0  0  0  0  0  0  0  0  0  0
    3.8947    0.6831    0.0000 O   0  0  0  0  0  0  0  0  0  0  0  0
  1  2  1  0
  2  3  1  0
  3  4  1  0
  4  5  1  6
  4  6  1  0
  2  7  1  6
  7  8  1  0
  8  9  2  0
  8 10  1  0
  6  1  1  0
M  END
>  <rName>  (1689) 
D-hPro_4ROH

>  <PQ_SYMBOL>  (1689) 
D-hPro_4ROH

>  <FULL_NAME>  (1689) 
2-[(2R,4R)-4-hydroxypyrrolidin-2-yl]acetic acid

>  <IUPAC_CONDENSED>  (1689) 
D-hPro(4R-OH)

>  <IUPAC>  (1689) 
2-[(2R,4R)-4-hydroxypyrrolidin-2-yl]acetic acid

>  <TYPE>  (1689) 
Backbone

>  <CLASS>  (1689) 
beta

>  <ANALOG>  (1689) 
Pro

>  <MOL_WT>  (1689) 
145.15800000000002

>  <LOGP>  (1689) 
-0.8161000000000005

>  <TPSA>  (1689) 
69.56

>  <POPULARITY>  (1689) 
2.2

>  <PROTECTED>  (1689) 
TRUE

>  <SMILES>  (1689) 
N1[C@H](C[C@@H](O)C1)CC(=O)O

>  <INCHIKEY>  (1689) 
HEUWVFJLYQNYMK-RFZPGFLSSA-N

$$$$
D-hPro_4SF
     RDKit          2D

 10 10  0  0  0  0  0  0  0  0999 V2000
   -0.3795   -1.1032    0.0000 N   0  0  0  0  0  0  0  0  0  0  0  0
   -0.0610    0.3626    0.0000 C   0  0  0  0  0  0  0  0  0  0  0  0
   -1.3566    1.1185    0.0000 C   0  0  0  0  0  0  0  0  0  0  0  0
   -2.4758    0.1199    0.0000 C   0  0  0  0  0  0  0  0  0  0  0  0
   -3.9416    0.4384    0.0000 F   0  0  0  0  0  0  0  0  0  0  0  0
   -1.8720   -1.2532    0.0000 C   0  0  0  0  0  0  0  0  0  0  0  0
    1.3121    0.9665    0.0000 C   0  0  0  0  0  0  0  0  0  0  0  0
    2.5216    0.0793    0.0000 C   0  0  0  0  0  0  0  0  0  0  0  0
    2.3580   -1.4118    0.0000 O   0  0  0  0  0  0  0  0  0  0  0  0
    3.8947    0.6831    0.0000 O   0  0  0  0  0  0  0  0  0  0  0  0
  1  2  1  0
  2  3  1  0
  3  4  1  0
  4  5  1  1
  4  6  1  0
  2  7  1  1
  7  8  1  0
  8  9  2  0
  8 10  1  0
  6  1  1  0
M  END
>  <rName>  (1690) 
D-hPro_4SF

>  <PQ_SYMBOL>  (1690) 
D-hPro_4SF

>  <FULL_NAME>  (1690) 
2-[(2R,4S)-4-fluoropyrrolidin-2-yl]acetic acid

>  <IUPAC_CONDENSED>  (1690) 
D-hPro(4S-F)

>  <IUPAC>  (1690) 
2-((2R,4S)-4-fluoropyrrolidin-2-yl)acetic acid

>  <TYPE>  (1690) 
Backbone

>  <CLASS>  (1690) 
beta

>  <ANALOG>  (1690) 
Pro

>  <MOL_WT>  (1690) 
147.149

>  <LOGP>  (1690) 
0.16109999999999974

>  <TPSA>  (1690) 
49.33

>  <POPULARITY>  (1690) 
3.8

>  <PROTECTED>  (1690) 
TRUE

>  <SMILES>  (1690) 
N1[C@@H](C[C@H](F)C1)CC(=O)O

>  <INCHIKEY>  (1690) 
RELUHGZYAOGPIR-WHFBIAKZSA-N

$$$$
D-hPro_4SOH
     RDKit          2D

 10 10  0  0  0  0  0  0  0  0999 V2000
   -0.3795   -1.1032    0.0000 N   0  0  0  0  0  0  0  0  0  0  0  0
   -0.0610    0.3626    0.0000 C   0  0  0  0  0  0  0  0  0  0  0  0
   -1.3566    1.1185    0.0000 C   0  0  0  0  0  0  0  0  0  0  0  0
   -2.4758    0.1199    0.0000 C   0  0  0  0  0  0  0  0  0  0  0  0
   -3.9416    0.4384    0.0000 O   0  0  0  0  0  0  0  0  0  0  0  0
   -1.8720   -1.2532    0.0000 C   0  0  0  0  0  0  0  0  0  0  0  0
    1.3121    0.9665    0.0000 C   0  0  0  0  0  0  0  0  0  0  0  0
    2.5216    0.0793    0.0000 C   0  0  0  0  0  0  0  0  0  0  0  0
    2.3580   -1.4118    0.0000 O   0  0  0  0  0  0  0  0  0  0  0  0
    3.8947    0.6831    0.0000 O   0  0  0  0  0  0  0  0  0  0  0  0
  1  2  1  0
  2  3  1  0
  3  4  1  0
  4  5  1  1
  4  6  1  0
  2  7  1  6
  7  8  1  0
  8  9  2  0
  8 10  1  0
  6  1  1  0
M  END
>  <rName>  (1691) 
D-hPro_4SOH

>  <PQ_SYMBOL>  (1691) 
D-hPro_4SOH

>  <FULL_NAME>  (1691) 
2-[(2R,4S)-4-hydroxypyrrolidin-2-yl]acetic acid

>  <IUPAC_CONDENSED>  (1691) 
D-hPro(4S-OH)

>  <IUPAC>  (1691) 
2-((2R,4S)-4-hydroxypyrrolidin-2-yl)acetic acid

>  <TYPE>  (1691) 
Backbone

>  <CLASS>  (1691) 
beta

>  <ANALOG>  (1691) 
Pro

>  <MOL_WT>  (1691) 
145.15800000000002

>  <LOGP>  (1691) 
-0.8161000000000005

>  <TPSA>  (1691) 
69.56

>  <POPULARITY>  (1691) 
4.7

>  <PROTECTED>  (1691) 
TRUE

>  <SMILES>  (1691) 
N1[C@H](C[C@H](O)C1)CC(=O)O

>  <INCHIKEY>  (1691) 
HEUWVFJLYQNYMK-UHNVWZDZSA-N

$$$$
D-hSec
     RDKit          2D

  8  7  0  0  0  0  0  0  0  0999 V2000
   -0.2517   -1.8862    0.0000 N   0  0  0  0  0  0  0  0  0  0  0  0
   -0.3100   -0.3873    0.0000 C   0  0  0  0  0  0  0  0  0  0  0  0
    0.9590    0.4126    0.0000 C   0  0  0  0  0  0  0  0  0  0  0  0
    2.2862   -0.2864    0.0000 C   0  0  0  0  0  0  0  0  0  0  0  0
    3.5551    0.5134    0.0000 Se  0  0  0  0  0  2  0  0  0  0  0  0
   -1.6371    0.3117    0.0000 C   0  0  0  0  0  0  0  0  0  0  0  0
   -1.6954    1.8105    0.0000 O   0  0  0  0  0  0  0  0  0  0  0  0
   -2.9061   -0.4882    0.0000 O   0  0  0  0  0  0  0  0  0  0  0  0
  2  1  1  1
  2  3  1  0
  3  4  1  0
  4  5  1  0
  2  6  1  0
  6  7  2  0
  6  8  1  0
M  END
>  <rName>  (1692) 
D-hSec

>  <PQ_SYMBOL>  (1692) 
D-hSec

>  <FULL_NAME>  (1692) 
(R)-2-amino-4-hydroselenobutanoic acid

>  <IUPAC_CONDENSED>  (1692) 
D-hSec

>  <IUPAC>  (1692) 
(2R)-2-amino-4-selanylbutanoic acid

>  <TYPE>  (1692) 
Backbone

>  <CLASS>  (1692) 
alpha

>  <ANALOG>  (1692) 
Cys

>  <MOL_WT>  (1692) 
182.081

>  <LOGP>  (1692) 
-0.8925000000000003

>  <TPSA>  (1692) 
63.32000000000001

>  <POPULARITY>  (1692) 
2.7

>  <PROTECTED>  (1692) 
TRUE

>  <SMILES>  (1692) 
N[C@H](CC[SeH])C(=O)O

>  <INCHIKEY>  (1692) 
RCWCGLALNCIQNM-GSVOUGTGSA-N

$$$$
D-hTyr
     RDKit          2D

 14 14  0  0  0  0  0  0  0  0999 V2000
   -3.1731   -1.8740    0.0000 N   0  0  0  0  0  0  0  0  0  0  0  0
   -2.8476   -0.4097    0.0000 C   0  0  0  0  0  0  0  0  0  0  0  0
   -1.4168    0.0405    0.0000 C   0  0  0  0  0  0  0  0  0  0  0  0
   -0.3114   -0.9735    0.0000 C   0  0  0  0  0  0  0  0  0  0  0  0
    1.1194   -0.5232    0.0000 C   0  0  0  0  0  0  0  0  0  0  0  0
    1.4449    0.9411    0.0000 C   0  0  0  0  0  0  0  0  0  0  0  0
    2.8757    1.3913    0.0000 C   0  0  0  0  0  0  0  0  0  0  0  0
    3.9810    0.3773    0.0000 C   0  0  0  0  0  0  0  0  0  0  0  0
    5.4119    0.8276    0.0000 O   0  0  0  0  0  0  0  0  0  0  0  0
    3.6556   -1.0870    0.0000 C   0  0  0  0  0  0  0  0  0  0  0  0
    2.2247   -1.5372    0.0000 C   0  0  0  0  0  0  0  0  0  0  0  0
   -3.9530    0.6043    0.0000 C   0  0  0  0  0  0  0  0  0  0  0  0
   -3.6275    2.0685    0.0000 O   0  0  0  0  0  0  0  0  0  0  0  0
   -5.3838    0.1540    0.0000 O   0  0  0  0  0  0  0  0  0  0  0  0
  2  1  1  1
  2  3  1  0
  3  4  1  0
  4  5  1  0
  5  6  1  0
  6  7  2  0
  7  8  1  0
  8  9  1  0
  8 10  2  0
 10 11  1  0
  2 12  1  0
 12 13  2  0
 12 14  1  0
 11  5  2  0
M  END
>  <rName>  (1693) 
D-hTyr

>  <PQ_SYMBOL>  (1693) 
D-hTyr

>  <FULL_NAME>  (1693) 
(2R)-2-amino-4-(4-hydroxyphenyl)butanoic acid

>  <IUPAC_CONDENSED>  (1693) 
D-hTyr

>  <IUPAC>  (1693) 
(2R)-2-amino-4-(4-hydroxyphenyl)butanoic acid

>  <TYPE>  (1693) 
Backbone

>  <CLASS>  (1693) 
alpha

>  <ANALOG>  (1693) 
Tyr

>  <MOL_WT>  (1693) 
195.218

>  <LOGP>  (1693) 
0.7366999999999999

>  <TPSA>  (1693) 
83.55

>  <POPULARITY>  (1693) 
10.8

>  <PROTECTED>  (1693) 
TRUE

>  <SMILES>  (1693) 
N[C@H](CCc1(ccc(O)cc1))C(=O)O

>  <INCHIKEY>  (1693) 
LOOZZTFGSTZNRX-SECBINFHSA-N

$$$$
D-hTyr_Me
     RDKit          2D

 15 15  0  0  0  0  0  0  0  0999 V2000
   -3.5955   -1.8848    0.0000 N   0  0  0  0  0  0  0  0  0  0  0  0
   -3.2795   -0.4184    0.0000 C   0  0  0  0  0  0  0  0  0  0  0  0
   -1.8516    0.0410    0.0000 C   0  0  0  0  0  0  0  0  0  0  0  0
   -0.7397   -0.9658    0.0000 C   0  0  0  0  0  0  0  0  0  0  0  0
    0.6882   -0.5064    0.0000 C   0  0  0  0  0  0  0  0  0  0  0  0
    1.0042    0.9600    0.0000 C   0  0  0  0  0  0  0  0  0  0  0  0
    2.4321    1.4194    0.0000 C   0  0  0  0  0  0  0  0  0  0  0  0
    3.5440    0.4126    0.0000 C   0  0  0  0  0  0  0  0  0  0  0  0
    4.9719    0.8721    0.0000 O   0  0  0  0  0  0  0  0  0  0  0  0
    6.0837   -0.1348    0.0000 C   0  0  0  0  0  0  0  0  0  0  0  0
    3.2279   -1.0537    0.0000 C   0  0  0  0  0  0  0  0  0  0  0  0
    1.8000   -1.5132    0.0000 C   0  0  0  0  0  0  0  0  0  0  0  0
   -4.3913    0.5884    0.0000 C   0  0  0  0  0  0  0  0  0  0  0  0
   -4.0753    2.0547    0.0000 O   0  0  0  0  0  0  0  0  0  0  0  0
   -5.8192    0.1289    0.0000 O   0  0  0  0  0  0  0  0  0  0  0  0
  2  1  1  1
  2  3  1  0
  3  4  1  0
  4  5  1  0
  5  6  1  0
  6  7  2  0
  7  8  1  0
  8  9  1  0
  9 10  1  0
  8 11  2  0
 11 12  1  0
  2 13  1  0
 13 14  2  0
 13 15  1  0
 12  5  2  0
M  END
>  <rName>  (1694) 
D-hTyr_Me

>  <PQ_SYMBOL>  (1694) 
D-hTyr_Me

>  <FULL_NAME>  (1694) 
(R)-2-amino-4-(4-methoxyphenyl)butanoic acid

>  <IUPAC_CONDENSED>  (1694) 
D-hTyr(Me)

>  <IUPAC>  (1694) 
(2R)-2-amino-4-(4-methoxyphenyl)butanoic acid

>  <TYPE>  (1694) 
Backbone

>  <CLASS>  (1694) 
alpha

>  <ANALOG>  (1694) 
Tyr

>  <MOL_WT>  (1694) 
209.24499999999998

>  <LOGP>  (1694) 
1.0396999999999998

>  <TPSA>  (1694) 
72.55

>  <POPULARITY>  (1694) 
7.7

>  <PROTECTED>  (1694) 
TRUE

>  <SMILES>  (1694) 
N[C@H](CCc1(ccc(OC)cc1))C(=O)O

>  <INCHIKEY>  (1694) 
JADFNIWVWZWOFA-SNVBAGLBSA-N

$$$$
D-homoPip
     RDKit          2D

 10 10  0  0  0  0  0  0  0  0999 V2000
   -0.0408   -1.3515    0.0000 N   0  0  0  0  0  0  0  0  0  0  0  0
    0.6100   -0.0000    0.0000 C   0  0  0  0  0  0  0  0  0  0  0  0
   -0.0408    1.3515    0.0000 C   0  0  0  0  0  0  0  0  0  0  0  0
   -1.5032    1.6852    0.0000 C   0  0  0  0  0  0  0  0  0  0  0  0
   -2.6760    0.7500    0.0000 C   0  0  0  0  0  0  0  0  0  0  0  0
   -2.6760   -0.7500    0.0000 C   0  0  0  0  0  0  0  0  0  0  0  0
   -1.5032   -1.6852    0.0000 C   0  0  0  0  0  0  0  0  0  0  0  0
    2.1100    0.0000    0.0000 C   0  0  0  0  0  0  0  0  0  0  0  0
    2.8600    1.2990    0.0000 O   0  0  0  0  0  0  0  0  0  0  0  0
    2.8600   -1.2990    0.0000 O   0  0  0  0  0  0  0  0  0  0  0  0
  1  2  1  0
  2  3  1  0
  3  4  1  0
  4  5  1  0
  5  6  1  0
  6  7  1  0
  2  8  1  6
  8  9  2  0
  8 10  1  0
  7  1  1  0
M  END
>  <rName>  (1695) 
D-homoPip

>  <PQ_SYMBOL>  (1695) 
D-homoPip

>  <FULL_NAME>  (1695) 
(R)-azepane-2-carboxylic acid

>  <IUPAC_CONDENSED>  (1695) 
D-homoPip

>  <IUPAC>  (1695) 
(2R)-1-azacycloheptane-2-carboxylic acid

>  <TYPE>  (1695) 
Backbone

>  <CLASS>  (1695) 
alpha

>  <ANALOG>  (1695) 
Pro

>  <MOL_WT>  (1695) 
143.186

>  <LOGP>  (1695) 
0.6032

>  <TPSA>  (1695) 
49.33

>  <POPULARITY>  (1695) 
7.0

>  <PROTECTED>  (1695) 
TRUE

>  <SMILES>  (1695) 
N1[C@H](CCCCC1)C(=O)O

>  <INCHIKEY>  (1695) 
OPFURXRZISKMJV-ZCFIWIBFSA-N

$$$$
D-imidazolidine-2-CO2H
     RDKit          2D

  8  8  0  0  0  0  0  0  0  0999 V2000
   -0.8342   -1.2135    0.0000 N   0  0  0  0  0  0  0  0  0  0  0  0
    0.0475   -0.0000    0.0000 C   0  0  0  0  0  0  0  0  0  0  0  0
   -0.8342    1.2135    0.0000 N   0  0  0  0  0  0  0  0  0  0  0  0
   -2.2608    0.7500    0.0000 C   0  0  0  0  0  0  0  0  0  0  0  0
   -2.2608   -0.7500    0.0000 C   0  0  0  0  0  0  0  0  0  0  0  0
    1.5475    0.0000    0.0000 C   0  0  0  0  0  0  0  0  0  0  0  0
    2.2975    1.2990    0.0000 O   0  0  0  0  0  0  0  0  0  0  0  0
    2.2975   -1.2990    0.0000 O   0  0  0  0  0  0  0  0  0  0  0  0
  1  2  1  0
  2  3  1  0
  3  4  1  0
  4  5  1  0
  2  6  1  0
  6  7  2  0
  6  8  1  0
  5  1  1  0
M  END
>  <rName>  (1696) 
D-imidazolidine-2-CO2H

>  <PQ_SYMBOL>  (1696) 
D-imidazolidine-2-CO2H

>  <FULL_NAME>  (1696) 
D-imidazolidine-2-carboxylic acid

>  <IUPAC_CONDENSED>  (1696) 
D-imidazolidine-2-CO2H

>  <IUPAC>  (1696) 
imidazolidine-2-carboxylic acid

>  <TYPE>  (1696) 
Backbone

>  <CLASS>  (1696) 
alpha

>  <ANALOG>  (1696) 
Pro

>  <MOL_WT>  (1696) 
116.11999999999999

>  <LOGP>  (1696) 
-1.4100999999999997

>  <TPSA>  (1696) 
61.36

>  <POPULARITY>  (1696) 
4.3

>  <PROTECTED>  (1696) 
FALSE

>  <SMILES>  (1696) 
N1C(NCC1)C(=O)O

>  <INCHIKEY>  (1696) 
DKXKVWKTEATBQK-UHFFFAOYSA-N

$$$$
D-nTyr
     RDKit          2D

 12 12  0  0  0  0  0  0  0  0999 V2000
   -2.1139   -2.0272    0.0000 N   0  0  0  0  0  0  0  0  0  0  0  0
   -1.6041   -0.6165    0.0000 C   0  0  0  0  0  0  0  0  0  0  0  0
   -0.1275   -0.3527    0.0000 C   0  0  0  0  0  0  0  0  0  0  0  0
    0.3824    1.0580    0.0000 C   0  0  0  0  0  0  0  0  0  0  0  0
    1.8590    1.3219    0.0000 C   0  0  0  0  0  0  0  0  0  0  0  0
    2.8258    0.1750    0.0000 C   0  0  0  0  0  0  0  0  0  0  0  0
    4.3024    0.4388    0.0000 O   0  0  0  0  0  0  0  0  0  0  0  0
    2.3159   -1.2357    0.0000 C   0  0  0  0  0  0  0  0  0  0  0  0
    0.8393   -1.4995    0.0000 C   0  0  0  0  0  0  0  0  0  0  0  0
   -2.5709    0.5304    0.0000 C   0  0  0  0  0  0  0  0  0  0  0  0
   -2.0610    1.9411    0.0000 O   0  0  0  0  0  0  0  0  0  0  0  0
   -4.0475    0.2665    0.0000 O   0  0  0  0  0  0  0  0  0  0  0  0
  2  1  1  1
  2  3  1  0
  3  4  1  0
  4  5  2  0
  5  6  1  0
  6  7  1  0
  6  8  2  0
  8  9  1  0
  2 10  1  0
 10 11  2  0
 10 12  1  0
  9  3  2  0
M  END
>  <rName>  (1697) 
D-nTyr

>  <PQ_SYMBOL>  (1697) 
D-nTyr

>  <FULL_NAME>  (1697) 
4-Hydroxy-D-Phenylglycine

>  <IUPAC_CONDENSED>  (1697) 
D-nTyr

>  <IUPAC>  (1697) 
(2R)-2-amino-2-(4-hydroxyphenyl)acetic acid

>  <TYPE>  (1697) 
Backbone

>  <CLASS>  (1697) 
alpha

>  <ANALOG>  (1697) 
X

>  <MOL_WT>  (1697) 
167.16399999999996

>  <LOGP>  (1697) 
0.4766

>  <TPSA>  (1697) 
83.55

>  <POPULARITY>  (1697) 
34.6

>  <PROTECTED>  (1697) 
TRUE

>  <SMILES>  (1697) 
N[C@H](c1(ccc(O)cc1))C(=O)O

>  <INCHIKEY>  (1697) 
LJCWONGJFPCTTL-SSDOTTSWSA-N

$$$$
D-nTyrMe-SH
     RDKit          2D

 13 13  0  0  0  0  0  0  0  0999 V2000
   -2.4322   -2.0790    0.0000 N   0  0  0  0  0  0  0  0  0  0  0  0
   -1.9834   -0.6478    0.0000 C   0  0  0  0  0  0  0  0  0  0  0  0
   -2.9985    0.4566    0.0000 C   0  0  0  0  0  0  0  0  0  0  0  0
   -4.4625    0.1296    0.0000 O   0  0  0  0  0  0  0  0  0  0  0  0
   -2.5497    1.8879    0.0000 S   0  0  0  0  0  0  0  0  0  0  0  0
   -0.5195   -0.3208    0.0000 C   0  0  0  0  0  0  0  0  0  0  0  0
   -0.0707    1.1105    0.0000 C   0  0  0  0  0  0  0  0  0  0  0  0
    1.3933    1.4374    0.0000 C   0  0  0  0  0  0  0  0  0  0  0  0
    2.4084    0.3331    0.0000 C   0  0  0  0  0  0  0  0  0  0  0  0
    1.9596   -1.0982    0.0000 C   0  0  0  0  0  0  0  0  0  0  0  0
    0.4956   -1.4251    0.0000 C   0  0  0  0  0  0  0  0  0  0  0  0
    3.8723    0.6601    0.0000 O   0  0  0  0  0  0  0  0  0  0  0  0
    4.8874   -0.4443    0.0000 C   0  0  0  0  0  0  0  0  0  0  0  0
  2  1  1  1
  2  3  1  0
  3  4  1  0
  3  5  2  0
  2  6  1  0
  6  7  1  0
  7  8  2  0
  8  9  1  0
  9 10  2  0
 10 11  1  0
  9 12  1  0
 12 13  1  0
 11  6  2  0
M  END
>  <rName>  (1698) 
D-nTyrMe-SH

>  <PQ_SYMBOL>  (1698) 
D-nTyrMe-SH

>  <FULL_NAME>  (1698) 
(2R)-amino(4-methoxyphenyl)ethanethioic O-acid

>  <IUPAC_CONDENSED>  (1698) 
D-nTyr(Me)-SH

>  <IUPAC>  (1698) 
(2R)-2-amino-2-(4-methoxyphenyl)-1-thioxoethan-1-ol

>  <TYPE>  (1698) 
C-term cap

>  <CLASS>  (1698) 
c_cap

>  <ANALOG>  (1698) 
X

>  <MOL_WT>  (1698) 
197.259

>  <LOGP>  (1698) 
1.5804000000000002

>  <TPSA>  (1698) 
55.480000000000004

>  <POPULARITY>  (1698) 
3.1

>  <PROTECTED>  (1698) 
FALSE

>  <SMILES>  (1698) 
N[C@@H](C(O)=S)c1ccc(cc1)OC

>  <INCHIKEY>  (1698) 
INSVIGJTBISSTF-MRVPVSSYSA-N

$$$$
D-quinazolinedione-Phe
     RDKit          2D

 23 25  0  0  0  0  0  0  0  0999 V2000
    5.9733    0.8048    0.0000 C   0  0  0  0  0  0  0  0  0  0  0  0
    5.2141   -0.4888    0.0000 C   0  0  0  0  0  0  0  0  0  0  0  0
    3.7141   -0.4782    0.0000 C   0  0  0  0  0  0  0  0  0  0  0  0
    2.9549   -1.7719    0.0000 N   0  0  0  0  0  0  0  0  0  0  0  0
    1.4549   -1.7612    0.0000 C   0  0  0  0  0  0  0  0  0  0  0  0
    0.6957   -3.0549    0.0000 O   0  0  0  0  0  0  0  0  0  0  0  0
    0.7142   -0.4569    0.0000 N   0  0  0  0  0  0  0  0  0  0  0  0
    1.4734    0.8368    0.0000 C   0  0  0  0  0  0  0  0  0  0  0  0
    0.7326    2.1411    0.0000 O   0  0  0  0  0  0  0  0  0  0  0  0
    2.9733    0.8261    0.0000 C   0  0  0  0  0  0  0  0  0  0  0  0
    3.7325    2.1198    0.0000 C   0  0  0  0  0  0  0  0  0  0  0  0
    5.2325    2.1092    0.0000 C   0  0  0  0  0  0  0  0  0  0  0  0
   -0.7858   -0.4463    0.0000 C   0  0  0  0  0  0  0  0  0  0  0  0
   -1.5266    0.8581    0.0000 C   0  0  0  0  0  0  0  0  0  0  0  0
   -3.0265    0.8687    0.0000 C   0  0  0  0  0  0  0  0  0  0  0  0
   -3.7673    2.1730    0.0000 C   0  0  0  0  0  0  0  0  0  0  0  0
   -5.2672    2.1837    0.0000 C   0  0  0  0  0  0  0  0  0  0  0  0
   -6.0264    0.8900    0.0000 C   0  0  0  0  0  0  0  0  0  0  0  0
   -5.2857   -0.4143    0.0000 C   0  0  0  0  0  0  0  0  0  0  0  0
   -3.7857   -0.4250    0.0000 C   0  0  0  0  0  0  0  0  0  0  0  0
   -1.5450   -1.7400    0.0000 C   0  0  0  0  0  0  0  0  0  0  0  0
   -0.8042   -3.0443    0.0000 O   0  0  0  0  0  0  0  0  0  0  0  0
   -3.0450   -1.7293    0.0000 O   0  0  0  0  0  0  0  0  0  0  0  0
  1  2  1  0
  2  3  2  0
  3  4  1  0
  4  5  1  0
  5  6  2  0
  5  7  1  0
  7  8  1  0
  8  9  2  0
  8 10  1  0
 10 11  2  0
 11 12  1  0
  7 13  1  0
 13 14  1  1
 14 15  1  0
 15 16  2  0
 16 17  1  0
 17 18  2  0
 18 19  1  0
 19 20  2  0
 13 21  1  0
 21 22  2  0
 21 23  1  0
 20 15  1  0
 10  3  1  0
 12  1  2  0
M  END
>  <rName>  (1699) 
D-quinazolinedione-Phe

>  <PQ_SYMBOL>  (1699) 
D-quinazolinedione-Phe

>  <FULL_NAME>  (1699) 
(2R)-2-(2,4-dioxo-1H-quinazolin-3-yl)-3-phenylpropanoic acid

>  <IUPAC_CONDENSED>  (1699) 
D-quinazolinedione-Phe

>  <IUPAC>  (1699) 
(2R)-2-(3,5-dioxo-2,4-diazabicyclo[4.4.0]deca-1(6),7,9-trien-4-yl)-3-phenylpropanoic acid

>  <TYPE>  (1699) 
N-term cap

>  <CLASS>  (1699) 
n_cap

>  <ANALOG>  (1699) 
X

>  <MOL_WT>  (1699) 
310.309

>  <LOGP>  (1699) 
1.5582

>  <TPSA>  (1699) 
92.16000000000001

>  <POPULARITY>  (1699) 
5.7

>  <PROTECTED>  (1699) 
TRUE

>  <SMILES>  (1699) 
c3cc2[nH]c(=O)n(c(=O)c2cc3)[C@H](Cc1(ccccc1))C(=O)O

>  <INCHIKEY>  (1699) 
JSHKCLVDTGIHEU-CQSZACIVSA-N

$$$$
D-xiIle
     RDKit          2D

  9  8  0  0  0  0  0  0  0  0999 V2000
    0.0000    2.3333    0.0000 N   0  0  0  0  0  0  0  0  0  0  0  0
    0.0000    0.8333    0.0000 C   0  0  0  0  0  0  0  0  0  0  0  0
   -1.2990    0.0833    0.0000 C   0  0  0  0  0  0  0  0  0  0  0  0
   -2.5981    0.8333    0.0000 C   0  0  0  0  0  0  0  0  0  0  0  0
   -1.2990   -1.4167    0.0000 C   0  0  0  0  0  0  0  0  0  0  0  0
   -0.0000   -2.1667    0.0000 C   0  0  0  0  0  0  0  0  0  0  0  0
    1.2990    0.0833    0.0000 C   0  0  0  0  0  0  0  0  0  0  0  0
    1.2990   -1.4167    0.0000 O   0  0  0  0  0  0  0  0  0  0  0  0
    2.5981    0.8333    0.0000 O   0  0  0  0  0  0  0  0  0  0  0  0
  2  1  1  1
  2  3  1  0
  3  4  1  0
  3  5  1  0
  5  6  1  0
  2  7  1  0
  7  8  2  0
  7  9  1  0
M  END
>  <rName>  (1700) 
D-xiIle

>  <PQ_SYMBOL>  (1700) 
D-xiIle

>  <FULL_NAME>  (1700) 
(2R)-2-amino-3-methylpentanoic acid

>  <IUPAC_CONDENSED>  (1700) 
D-xiIle

>  <IUPAC>  (1700) 
(2R)-2-amino-3-methylpentanoic acid

>  <TYPE>  (1700) 
Backbone

>  <CLASS>  (1700) 
alpha

>  <ANALOG>  (1700) 
Ile

>  <MOL_WT>  (1700) 
131.175

>  <LOGP>  (1700) 
0.44439999999999985

>  <TPSA>  (1700) 
63.32000000000001

>  <POPULARITY>  (1700) 
10.6

>  <PROTECTED>  (1700) 
FALSE

>  <SMILES>  (1700) 
N[C@H](C(C)CC)C(=O)O

>  <INCHIKEY>  (1700) 
AGPKZVBTJJNPAG-BRJRFNKRSA-N

$$$$
DL-3-oxa-Ac5c
     RDKit          2D

  9  9  0  0  0  0  0  0  0  0999 V2000
    0.7422   -1.6403    0.0000 N   0  0  0  0  0  0  0  0  0  0  0  0
   -0.0160   -0.3460    0.0000 C   0  0  0  0  0  0  0  0  0  0  0  0
   -0.4885    1.0777    0.0000 C   0  0  0  0  0  0  0  0  0  0  0  0
   -1.9885    1.0682    0.0000 C   0  0  0  0  0  0  0  0  0  0  0  0
   -2.4430   -0.3613    0.0000 O   0  0  0  0  0  0  0  0  0  0  0  0
   -1.2239   -1.2353    0.0000 C   0  0  0  0  0  0  0  0  0  0  0  0
    1.3504    0.2728    0.0000 C   0  0  0  0  0  0  0  0  0  0  0  0
    1.4978    1.7655    0.0000 O   0  0  0  0  0  0  0  0  0  0  0  0
    2.5695   -0.6013    0.0000 O   0  0  0  0  0  0  0  0  0  0  0  0
  1  2  1  0
  2  3  1  0
  3  4  1  0
  4  5  1  0
  5  6  1  0
  2  7  1  0
  7  8  2  0
  7  9  1  0
  6  2  1  0
M  END
>  <rName>  (1701) 
DL-3-oxa-Ac5c

>  <PQ_SYMBOL>  (1701) 
DL-3-oxa-Ac5c

>  <FULL_NAME>  (1701) 
3-Aminotetrahydrofuran-3-carboxylic acid

>  <IUPAC_CONDENSED>  (1701) 
DL-3-oxa-Ac5c

>  <IUPAC>  (1701) 
3-aminooxolane-3-carboxylic acid

>  <TYPE>  (1701) 
Backbone

>  <CLASS>  (1701) 
alpha

>  <ANALOG>  (1701) 
Ser

>  <MOL_WT>  (1701) 
131.131

>  <LOGP>  (1701) 
-0.8112000000000004

>  <TPSA>  (1701) 
72.55

>  <POPULARITY>  (1701) 
7.7

>  <PROTECTED>  (1701) 
TRUE

>  <SMILES>  (1701) 
NC1(CCOC1)C(=O)O

>  <INCHIKEY>  (1701) 
ATUWXXVBEAYCSQ-UHFFFAOYSA-N

$$$$
DL-3-thia-Ac5c
     RDKit          2D

  9  9  0  0  0  0  0  0  0  0999 V2000
    0.7422   -1.6403    0.0000 N   0  0  0  0  0  0  0  0  0  0  0  0
   -0.0160   -0.3460    0.0000 C   0  0  0  0  0  0  0  0  0  0  0  0
   -0.4885    1.0777    0.0000 C   0  0  0  0  0  0  0  0  0  0  0  0
   -1.9885    1.0682    0.0000 C   0  0  0  0  0  0  0  0  0  0  0  0
   -2.4430   -0.3613    0.0000 S   0  0  0  0  0  0  0  0  0  0  0  0
   -1.2239   -1.2353    0.0000 C   0  0  0  0  0  0  0  0  0  0  0  0
    1.3504    0.2728    0.0000 C   0  0  0  0  0  0  0  0  0  0  0  0
    1.4978    1.7655    0.0000 O   0  0  0  0  0  0  0  0  0  0  0  0
    2.5695   -0.6013    0.0000 O   0  0  0  0  0  0  0  0  0  0  0  0
  1  2  1  0
  2  3  1  0
  3  4  1  0
  4  5  1  0
  5  6  1  0
  2  7  1  0
  7  8  2  0
  7  9  1  0
  6  2  1  0
M  END
>  <rName>  (1702) 
DL-3-thia-Ac5c

>  <PQ_SYMBOL>  (1702) 
DL-3-thia-Ac5c

>  <FULL_NAME>  (1702) 
3-Aminotetrahydrothiophene-3-carboxylic acid

>  <IUPAC_CONDENSED>  (1702) 
DL-3-thia-Ac5c

>  <IUPAC>  (1702) 
3-aminothiolane-3-carboxylic acid

>  <TYPE>  (1702) 
Backbone

>  <CLASS>  (1702) 
alpha

>  <ANALOG>  (1702) 
Cys

>  <MOL_WT>  (1702) 
147.199

>  <LOGP>  (1702) 
-0.0946000000000003

>  <TPSA>  (1702) 
63.32000000000001

>  <POPULARITY>  (1702) 
8.6

>  <PROTECTED>  (1702) 
TRUE

>  <SMILES>  (1702) 
NC1(CCSC1)C(=O)O

>  <INCHIKEY>  (1702) 
SAKWWHXZZFRWCN-UHFFFAOYSA-N

$$$$
DL-Nip
     RDKit          2D

  9  9  0  0  0  0  0  0  0  0999 V2000
    1.9167   -1.2990    0.0000 N   0  0  0  0  0  0  0  0  0  0  0  0
    0.4167   -1.2990    0.0000 C   0  0  0  0  0  0  0  0  0  0  0  0
   -0.3333    0.0000    0.0000 C   0  0  0  0  0  0  0  0  0  0  0  0
    0.4167    1.2990    0.0000 C   0  0  0  0  0  0  0  0  0  0  0  0
    1.9167    1.2990    0.0000 C   0  0  0  0  0  0  0  0  0  0  0  0
    2.6667    0.0000    0.0000 C   0  0  0  0  0  0  0  0  0  0  0  0
   -1.8333    0.0000    0.0000 C   0  0  0  0  0  0  0  0  0  0  0  0
   -2.5833   -1.2990    0.0000 O   0  0  0  0  0  0  0  0  0  0  0  0
   -2.5833    1.2990    0.0000 O   0  0  0  0  0  0  0  0  0  0  0  0
  1  2  1  0
  2  3  1  0
  3  4  1  0
  4  5  1  0
  5  6  1  0
  3  7  1  0
  7  8  2  0
  7  9  1  0
  6  1  1  0
M  END
>  <rName>  (1703) 
DL-Nip

>  <PQ_SYMBOL>  (1703) 
DL-Nip

>  <FULL_NAME>  (1703) 
piperidine-3-carboxylic acid

>  <IUPAC_CONDENSED>  (1703) 
DL-Nip

>  <IUPAC>  (1703) 
piperidine-3-carboxylic acid

>  <TYPE>  (1703) 
Backbone

>  <CLASS>  (1703) 
beta

>  <ANALOG>  (1703) 
Pro

>  <MOL_WT>  (1703) 
129.15900000000002

>  <LOGP>  (1703) 
0.07059999999999994

>  <TPSA>  (1703) 
49.33

>  <POPULARITY>  (1703) 
16.9

>  <PROTECTED>  (1703) 
TRUE

>  <SMILES>  (1703) 
N1CC(CCC1)C(=O)O

>  <INCHIKEY>  (1703) 
XJLSEXAGTJCILF-UHFFFAOYSA-N

$$$$
DL-aCH2cHexGaba
     RDKit          2D

 14 14  0  0  0  0  0  0  0  0999 V2000
   -0.2835    1.4730    0.0000 N   0  0  0  0  0  0  0  0  0  0  0  0
   -0.5669    0.0000    0.0000 C   0  0  0  0  0  0  0  0  0  0  0  0
    0.5669   -0.9820    0.0000 C   0  0  0  0  0  0  0  0  0  0  0  0
    1.9843   -0.4910    0.0000 C   0  0  0  0  0  0  0  0  0  0  0  0
    2.2678    0.9820    0.0000 C   0  0  0  0  0  0  0  0  0  0  0  0
    3.6852    1.4730    0.0000 C   0  0  0  0  0  0  0  0  0  0  0  0
    4.8190    0.4910    0.0000 C   0  0  0  0  0  0  0  0  0  0  0  0
    4.5356   -0.9820    0.0000 C   0  0  0  0  0  0  0  0  0  0  0  0
    3.1182   -1.4730    0.0000 C   0  0  0  0  0  0  0  0  0  0  0  0
   -1.9843   -0.4910    0.0000 C   0  0  0  0  0  0  0  0  0  0  0  0
   -3.1182    0.4910    0.0000 C   0  0  0  0  0  0  0  0  0  0  0  0
   -4.5356    0.0000    0.0000 C   0  0  0  0  0  0  0  0  0  0  0  0
   -4.8190   -1.4730    0.0000 O   0  0  0  0  0  0  0  0  0  0  0  0
   -5.6695    0.9820    0.0000 O   0  0  0  0  0  0  0  0  0  0  0  0
  1  2  1  0
  2  3  1  0
  3  4  1  0
  4  5  1  0
  5  6  1  0
  6  7  1  0
  7  8  1  0
  8  9  1  0
  2 10  1  0
 10 11  1  0
 11 12  1  0
 12 13  2  0
 12 14  1  0
  9  4  1  0
M  END
>  <rName>  (1704) 
DL-aCH2cHexGaba

>  <PQ_SYMBOL>  (1704) 
DL-aCH2cHexGaba

>  <FULL_NAME>  (1704) 
4-Amino-5-cyclohexylpentanoic acid

>  <IUPAC_CONDENSED>  (1704) 
DL-aCH2cHexGaba

>  <IUPAC>  (1704) 
4-amino-5-cyclohexylpentanoic acid

>  <TYPE>  (1704) 
Backbone

>  <CLASS>  (1704) 
gamma

>  <ANALOG>  (1704) 
Ala

>  <MOL_WT>  (1704) 
199.29399999999998

>  <LOGP>  (1704) 
2.1489

>  <TPSA>  (1704) 
63.32000000000001

>  <POPULARITY>  (1704) 
7.3

>  <PROTECTED>  (1704) 
TRUE

>  <SMILES>  (1704) 
NC(CC1(CCCCC1))CCC(=O)O

>  <INCHIKEY>  (1704) 
AJEQGFVIQQCGSC-UHFFFAOYSA-N

$$$$
DL-aEtGaba
     RDKit          2D

  9  8  0  0  0  0  0  0  0  0999 V2000
   -1.7016   -1.5966    0.0000 N   0  0  0  0  0  0  0  0  0  0  0  0
   -1.4770   -0.1135    0.0000 C   0  0  0  0  0  0  0  0  0  0  0  0
   -2.6491    0.8225    0.0000 C   0  0  0  0  0  0  0  0  0  0  0  0
   -4.0458    0.2755    0.0000 C   0  0  0  0  0  0  0  0  0  0  0  0
   -0.0803    0.4336    0.0000 C   0  0  0  0  0  0  0  0  0  0  0  0
    1.0918   -0.5025    0.0000 C   0  0  0  0  0  0  0  0  0  0  0  0
    2.4885    0.0446    0.0000 C   0  0  0  0  0  0  0  0  0  0  0  0
    2.7130    1.5277    0.0000 O   0  0  0  0  0  0  0  0  0  0  0  0
    3.6606   -0.8914    0.0000 O   0  0  0  0  0  0  0  0  0  0  0  0
  1  2  1  0
  2  3  1  0
  3  4  1  0
  2  5  1  0
  5  6  1  0
  6  7  1  0
  7  8  2  0
  7  9  1  0
M  END
>  <rName>  (1705) 
DL-aEtGaba

>  <PQ_SYMBOL>  (1705) 
DL-aEtGaba

>  <FULL_NAME>  (1705) 
4-Aminohexanoic acid

>  <IUPAC_CONDENSED>  (1705) 
DL-aEtGaba

>  <IUPAC>  (1705) 
4-aminohexanoic acid

>  <TYPE>  (1705) 
Backbone

>  <CLASS>  (1705) 
gamma

>  <ANALOG>  (1705) 
Ala

>  <MOL_WT>  (1705) 
131.175

>  <LOGP>  (1705) 
0.5884999999999998

>  <TPSA>  (1705) 
63.32000000000001

>  <POPULARITY>  (1705) 
14.5

>  <PROTECTED>  (1705) 
TRUE

>  <SMILES>  (1705) 
NC(CC)CCC(=O)O

>  <INCHIKEY>  (1705) 
ROFNJLCLYMMXCT-UHFFFAOYSA-N

$$$$
DL-aMe5-Ava
     RDKit          2D

  9  8  0  0  0  0  0  0  0  0999 V2000
   -2.5981    1.5000    0.0000 N   0  0  0  0  0  0  0  0  0  0  0  0
   -2.5981    0.0000    0.0000 C   0  0  0  0  0  0  0  0  0  0  0  0
   -3.8971   -0.7500    0.0000 C   0  0  0  0  0  0  0  0  0  0  0  0
   -1.2990   -0.7500    0.0000 C   0  0  0  0  0  0  0  0  0  0  0  0
    0.0000    0.0000    0.0000 C   0  0  0  0  0  0  0  0  0  0  0  0
    1.2990   -0.7500    0.0000 C   0  0  0  0  0  0  0  0  0  0  0  0
    2.5981   -0.0000    0.0000 C   0  0  0  0  0  0  0  0  0  0  0  0
    2.5981    1.5000    0.0000 O   0  0  0  0  0  0  0  0  0  0  0  0
    3.8971   -0.7500    0.0000 O   0  0  0  0  0  0  0  0  0  0  0  0
  1  2  1  0
  2  3  1  0
  2  4  1  0
  4  5  1  0
  5  6  1  0
  6  7  1  0
  7  8  2  0
  7  9  1  0
M  END
>  <rName>  (1706) 
DL-aMe5-Ava

>  <PQ_SYMBOL>  (1706) 
DL-aMe5-Ava

>  <FULL_NAME>  (1706) 
5-Aminohexanoic acid

>  <IUPAC_CONDENSED>  (1706) 
DL-aMe5-Ava

>  <IUPAC>  (1706) 
5-aminohexanoic acid

>  <TYPE>  (1706) 
Backbone

>  <CLASS>  (1706) 
delta

>  <ANALOG>  (1706) 
Ala

>  <MOL_WT>  (1706) 
131.175

>  <LOGP>  (1706) 
0.5884999999999998

>  <TPSA>  (1706) 
63.32000000000001

>  <POPULARITY>  (1706) 
16.4

>  <PROTECTED>  (1706) 
TRUE

>  <SMILES>  (1706) 
NC(C)CCCC(=O)O

>  <INCHIKEY>  (1706) 
IPCUHQYGWOKSLR-UHFFFAOYSA-N

$$$$
DL-aMe6-Ahx
     RDKit          2D

 10  9  0  0  0  0  0  0  0  0999 V2000
    3.4483   -1.4737    0.0000 N   0  0  0  0  0  0  0  0  0  0  0  0
    3.2691    0.0155    0.0000 C   0  0  0  0  0  0  0  0  0  0  0  0
    4.4693    0.9153    0.0000 C   0  0  0  0  0  0  0  0  0  0  0  0
    1.8898    0.6050    0.0000 C   0  0  0  0  0  0  0  0  0  0  0  0
    0.6897   -0.2947    0.0000 C   0  0  0  0  0  0  0  0  0  0  0  0
   -0.6897    0.2947    0.0000 C   0  0  0  0  0  0  0  0  0  0  0  0
   -1.8898   -0.6050    0.0000 C   0  0  0  0  0  0  0  0  0  0  0  0
   -3.2691   -0.0155    0.0000 C   0  0  0  0  0  0  0  0  0  0  0  0
   -3.4483    1.4737    0.0000 O   0  0  0  0  0  0  0  0  0  0  0  0
   -4.4693   -0.9153    0.0000 O   0  0  0  0  0  0  0  0  0  0  0  0
  1  2  1  0
  2  3  1  0
  2  4  1  0
  4  5  1  0
  5  6  1  0
  6  7  1  0
  7  8  1  0
  8  9  2  0
  8 10  1  0
M  END
>  <rName>  (1707) 
DL-aMe6-Ahx

>  <PQ_SYMBOL>  (1707) 
DL-aMe6-Ahx

>  <FULL_NAME>  (1707) 
6-Aminoheptanoic acid

>  <IUPAC_CONDENSED>  (1707) 
DL-aMe6-Ahx

>  <IUPAC>  (1707) 
6-aminoheptanoic acid

>  <TYPE>  (1707) 
Backbone

>  <CLASS>  (1707) 
epsilon

>  <ANALOG>  (1707) 
Ala

>  <MOL_WT>  (1707) 
145.202

>  <LOGP>  (1707) 
0.9785999999999997

>  <TPSA>  (1707) 
63.32000000000001

>  <POPULARITY>  (1707) 
15.2

>  <PROTECTED>  (1707) 
TRUE

>  <SMILES>  (1707) 
NC(C)CCCCC(=O)O

>  <INCHIKEY>  (1707) 
NWMZFMZOYYFQKQ-UHFFFAOYSA-N

$$$$
DL-aMeGaba
     RDKit          2D

  8  7  0  0  0  0  0  0  0  0999 V2000
    2.2678   -1.4730    0.0000 N   0  0  0  0  0  0  0  0  0  0  0  0
    1.9843   -0.0000    0.0000 C   0  0  0  0  0  0  0  0  0  0  0  0
    3.1182    0.9820    0.0000 C   0  0  0  0  0  0  0  0  0  0  0  0
    0.5669    0.4910    0.0000 C   0  0  0  0  0  0  0  0  0  0  0  0
   -0.5669   -0.4910    0.0000 C   0  0  0  0  0  0  0  0  0  0  0  0
   -1.9843    0.0000    0.0000 C   0  0  0  0  0  0  0  0  0  0  0  0
   -2.2678    1.4730    0.0000 O   0  0  0  0  0  0  0  0  0  0  0  0
   -3.1182   -0.9820    0.0000 O   0  0  0  0  0  0  0  0  0  0  0  0
  1  2  1  0
  2  3  1  0
  2  4  1  0
  4  5  1  0
  5  6  1  0
  6  7  2  0
  6  8  1  0
M  END
>  <rName>  (1708) 
DL-aMeGaba

>  <PQ_SYMBOL>  (1708) 
DL-aMeGaba

>  <FULL_NAME>  (1708) 
4-aminopentanoic acid

>  <IUPAC_CONDENSED>  (1708) 
DL-aMeGaba

>  <IUPAC>  (1708) 
4-aminopentanoic acid

>  <TYPE>  (1708) 
Backbone

>  <CLASS>  (1708) 
gamma

>  <ANALOG>  (1708) 
Ala

>  <MOL_WT>  (1708) 
117.14799999999998

>  <LOGP>  (1708) 
0.19839999999999985

>  <TPSA>  (1708) 
63.32000000000001

>  <POPULARITY>  (1708) 
18.1

>  <PROTECTED>  (1708) 
TRUE

>  <SMILES>  (1708) 
NC(C)CCC(=O)O

>  <INCHIKEY>  (1708) 
ABSTXSZPGHDTAF-UHFFFAOYSA-N

$$$$
DL-aMeGaba_33diMe
     RDKit          2D

 10  9  0  0  0  0  0  0  0  0999 V2000
    3.0559   -0.6867    0.0000 N   0  0  0  0  0  0  0  0  0  0  0  0
    1.8606    0.2196    0.0000 C   0  0  0  0  0  0  0  0  0  0  0  0
    2.0477    1.7078    0.0000 C   0  0  0  0  0  0  0  0  0  0  0  0
    0.4781   -0.3625    0.0000 C   0  0  0  0  0  0  0  0  0  0  0  0
    1.0602   -1.7450    0.0000 C   0  0  0  0  0  0  0  0  0  0  0  0
   -0.1039    1.0200    0.0000 C   0  0  0  0  0  0  0  0  0  0  0  0
   -0.9043   -0.9445    0.0000 C   0  0  0  0  0  0  0  0  0  0  0  0
   -2.0997   -0.0383    0.0000 C   0  0  0  0  0  0  0  0  0  0  0  0
   -1.9125    1.4500    0.0000 O   0  0  0  0  0  0  0  0  0  0  0  0
   -3.4821   -0.6204    0.0000 O   0  0  0  0  0  0  0  0  0  0  0  0
  1  2  1  0
  2  3  1  0
  2  4  1  0
  4  5  1  0
  4  6  1  0
  4  7  1  0
  7  8  1  0
  8  9  2  0
  8 10  1  0
M  END
>  <rName>  (1709) 
DL-aMeGaba_33diMe

>  <PQ_SYMBOL>  (1709) 
DL-aMeGaba_33diMe

>  <FULL_NAME>  (1709) 
4-Amino-3,3-dimethylpentanoic acid

>  <IUPAC_CONDENSED>  (1709) 
DL-aMeGaba(3,3-diMe)

>  <IUPAC>  (1709) 
4-amino-3,3-dimethylpentanoic acid

>  <TYPE>  (1709) 
Backbone

>  <CLASS>  (1709) 
gamma

>  <ANALOG>  (1709) 
Ala

>  <MOL_WT>  (1709) 
145.202

>  <LOGP>  (1709) 
0.8344999999999998

>  <TPSA>  (1709) 
63.32000000000001

>  <POPULARITY>  (1709) 
9.0

>  <PROTECTED>  (1709) 
TRUE

>  <SMILES>  (1709) 
NC(C)C(C)(C)CC(=O)O

>  <INCHIKEY>  (1709) 
QTULTPURMPCXPX-UHFFFAOYSA-N

$$$$
DL-aMebIva_Me
     RDKit          2D

 10  9  0  0  0  0  0  0  0  0999 V2000
    0.5181    1.5297    0.0000 N   0  0  0  0  0  0  0  0  0  0  0  0
   -0.5678    0.4949    0.0000 C   0  0  0  0  0  0  0  0  0  0  0  0
   -1.6026    1.5808    0.0000 C   0  0  0  0  0  0  0  0  0  0  0  0
   -1.6537   -0.5399    0.0000 C   0  0  0  0  0  0  0  0  0  0  0  0
   -1.3005   -1.9977    0.0000 C   0  0  0  0  0  0  0  0  0  0  0  0
   -3.0928   -0.1169    0.0000 C   0  0  0  0  0  0  0  0  0  0  0  0
    0.4670   -0.5910    0.0000 C   0  0  0  0  0  0  0  0  0  0  0  0
    1.9248   -0.2377    0.0000 C   0  0  0  0  0  0  0  0  0  0  0  0
    2.3478    1.2014    0.0000 O   0  0  0  0  0  0  0  0  0  0  0  0
    2.9596   -1.3236    0.0000 O   0  0  0  0  0  0  0  0  0  0  0  0
  1  2  1  0
  2  3  1  0
  2  4  1  0
  4  5  1  0
  4  6  1  0
  2  7  1  0
  7  8  1  0
  8  9  2  0
  8 10  1  0
M  END
>  <rName>  (1710) 
DL-aMebIva_Me

>  <PQ_SYMBOL>  (1710) 
DL-aMebIva_Me

>  <FULL_NAME>  (1710) 
3-Amino-3,4-dimethylpentanoic acid

>  <IUPAC_CONDENSED>  (1710) 
DL-aMebIva(Me)

>  <IUPAC>  (1710) 
3-amino-3,4-dimethylpentanoic acid

>  <TYPE>  (1710) 
Backbone

>  <CLASS>  (1710) 
beta

>  <ANALOG>  (1710) 
Val

>  <MOL_WT>  (1710) 
145.202

>  <LOGP>  (1710) 
0.8344999999999998

>  <TPSA>  (1710) 
63.32000000000001

>  <POPULARITY>  (1710) 
7.2

>  <PROTECTED>  (1710) 
TRUE

>  <SMILES>  (1710) 
NC(C)(C(C)C)CC(=O)O

>  <INCHIKEY>  (1710) 
OBZOEKDZIOOVJT-UHFFFAOYSA-N

$$$$
DL-aPh4-OMeGaba
     RDKit          2D

 15 15  0  0  0  0  0  0  0  0999 V2000
   -1.1636   -2.4261    0.0000 N   0  0  0  0  0  0  0  0  0  0  0  0
   -0.8851   -0.9522    0.0000 C   0  0  0  0  0  0  0  0  0  0  0  0
    0.5307   -0.4565    0.0000 C   0  0  0  0  0  0  0  0  0  0  0  0
    0.8092    1.0174    0.0000 C   0  0  0  0  0  0  0  0  0  0  0  0
    2.2250    1.5131    0.0000 C   0  0  0  0  0  0  0  0  0  0  0  0
    3.3621    0.5349    0.0000 C   0  0  0  0  0  0  0  0  0  0  0  0
    4.7778    1.0306    0.0000 O   0  0  0  0  0  0  0  0  0  0  0  0
    5.9150    0.0524    0.0000 C   0  0  0  0  0  0  0  0  0  0  0  0
    3.0836   -0.9390    0.0000 C   0  0  0  0  0  0  0  0  0  0  0  0
    1.6678   -1.4347    0.0000 C   0  0  0  0  0  0  0  0  0  0  0  0
   -2.0222    0.0260    0.0000 C   0  0  0  0  0  0  0  0  0  0  0  0
   -3.4379   -0.4697    0.0000 C   0  0  0  0  0  0  0  0  0  0  0  0
   -4.5751    0.5085    0.0000 C   0  0  0  0  0  0  0  0  0  0  0  0
   -4.2965    1.9824    0.0000 O   0  0  0  0  0  0  0  0  0  0  0  0
   -5.9908    0.0128    0.0000 O   0  0  0  0  0  0  0  0  0  0  0  0
  1  2  1  0
  2  3  1  0
  3  4  1  0
  4  5  2  0
  5  6  1  0
  6  7  1  0
  7  8  1  0
  6  9  2  0
  9 10  1  0
  2 11  1  0
 11 12  1  0
 12 13  1  0
 13 14  2  0
 13 15  1  0
 10  3  2  0
M  END
>  <rName>  (1711) 
DL-aPh4-OMeGaba

>  <PQ_SYMBOL>  (1711) 
DL-aPh4-OMeGaba

>  <FULL_NAME>  (1711) 
4-Amino-4-(4-methoxyphenyl)butanoic acid

>  <IUPAC_CONDENSED>  (1711) 
DL-aPh(4-OMe)Gaba

>  <IUPAC>  (1711) 
4-amino-4-(4-methoxyphenyl)butanoic acid

>  <TYPE>  (1711) 
Backbone

>  <CLASS>  (1711) 
gamma

>  <ANALOG>  (1711) 
X

>  <MOL_WT>  (1711) 
209.24499999999995

>  <LOGP>  (1711) 
1.5598

>  <TPSA>  (1711) 
72.55

>  <POPULARITY>  (1711) 
8.2

>  <PROTECTED>  (1711) 
TRUE

>  <SMILES>  (1711) 
NC(c1(ccc(OC)cc1))CCC(=O)O

>  <INCHIKEY>  (1711) 
GDFVQXXCEWPSEI-UHFFFAOYSA-N

$$$$
DL-aPhGaba
     RDKit          2D

 13 13  0  0  0  0  0  0  0  0999 V2000
   -0.1920   -2.3597    0.0000 N   0  0  0  0  0  0  0  0  0  0  0  0
   -0.0074   -0.8711    0.0000 C   0  0  0  0  0  0  0  0  0  0  0  0
    1.3741   -0.2867    0.0000 C   0  0  0  0  0  0  0  0  0  0  0  0
    1.5588    1.2019    0.0000 C   0  0  0  0  0  0  0  0  0  0  0  0
    2.9403    1.7862    0.0000 C   0  0  0  0  0  0  0  0  0  0  0  0
    4.1371    0.8820    0.0000 C   0  0  0  0  0  0  0  0  0  0  0  0
    3.9524   -0.6066    0.0000 C   0  0  0  0  0  0  0  0  0  0  0  0
    2.5709   -1.1910    0.0000 C   0  0  0  0  0  0  0  0  0  0  0  0
   -1.2042    0.0331    0.0000 C   0  0  0  0  0  0  0  0  0  0  0  0
   -2.5857   -0.5512    0.0000 C   0  0  0  0  0  0  0  0  0  0  0  0
   -3.7825    0.3530    0.0000 C   0  0  0  0  0  0  0  0  0  0  0  0
   -3.5978    1.8416    0.0000 O   0  0  0  0  0  0  0  0  0  0  0  0
   -5.1640   -0.2314    0.0000 O   0  0  0  0  0  0  0  0  0  0  0  0
  1  2  1  0
  2  3  1  0
  3  4  2  0
  4  5  1  0
  5  6  2  0
  6  7  1  0
  7  8  2  0
  2  9  1  0
  9 10  1  0
 10 11  1  0
 11 12  2  0
 11 13  1  0
  8  3  1  0
M  END
>  <rName>  (1712) 
DL-aPhGaba

>  <PQ_SYMBOL>  (1712) 
DL-aPhGaba

>  <FULL_NAME>  (1712) 
4-Amino-4-phenylbutanoic acid

>  <IUPAC_CONDENSED>  (1712) 
DL-aPhGaba

>  <IUPAC>  (1712) 
4-amino-4-phenylbutanoic acid

>  <TYPE>  (1712) 
Backbone

>  <CLASS>  (1712) 
gamma

>  <ANALOG>  (1712) 
X

>  <MOL_WT>  (1712) 
179.21899999999997

>  <LOGP>  (1712) 
1.5512000000000001

>  <TPSA>  (1712) 
63.32000000000001

>  <POPULARITY>  (1712) 
10.6

>  <PROTECTED>  (1712) 
TRUE

>  <SMILES>  (1712) 
NC(c1(ccccc1))CCC(=O)O

>  <INCHIKEY>  (1712) 
QCHLDIVWWGHNQB-UHFFFAOYSA-N

$$$$
DL-hPip
     RDKit          2D

 10 10  0  0  0  0  0  0  0  0999 V2000
    1.3040   -1.4730    0.0000 N   0  0  0  0  0  0  0  0  0  0  0  0
    0.1701   -0.4910    0.0000 C   0  0  0  0  0  0  0  0  0  0  0  0
    0.4536    0.9820    0.0000 C   0  0  0  0  0  0  0  0  0  0  0  0
    1.8709    1.4730    0.0000 C   0  0  0  0  0  0  0  0  0  0  0  0
    3.0048    0.4910    0.0000 C   0  0  0  0  0  0  0  0  0  0  0  0
    2.7213   -0.9820    0.0000 C   0  0  0  0  0  0  0  0  0  0  0  0
   -1.2473   -0.9820    0.0000 C   0  0  0  0  0  0  0  0  0  0  0  0
   -2.3812   -0.0000    0.0000 C   0  0  0  0  0  0  0  0  0  0  0  0
   -2.0977    1.4730    0.0000 O   0  0  0  0  0  0  0  0  0  0  0  0
   -3.7985   -0.4910    0.0000 O   0  0  0  0  0  0  0  0  0  0  0  0
  1  2  1  0
  2  3  1  0
  3  4  1  0
  4  5  1  0
  5  6  1  0
  2  7  1  0
  7  8  1  0
  8  9  2  0
  8 10  1  0
  6  1  1  0
M  END
>  <rName>  (1713) 
DL-hPip

>  <PQ_SYMBOL>  (1713) 
DL-hPip

>  <FULL_NAME>  (1713) 
2-(piperidin-2-yl)acetic acid

>  <IUPAC_CONDENSED>  (1713) 
DL-hPip

>  <IUPAC>  (1713) 
2-(piperidin-2-yl)acetic acid

>  <TYPE>  (1713) 
Backbone

>  <CLASS>  (1713) 
beta

>  <ANALOG>  (1713) 
Pro

>  <MOL_WT>  (1713) 
143.186

>  <LOGP>  (1713) 
0.6032

>  <TPSA>  (1713) 
49.33

>  <POPULARITY>  (1713) 
11.5

>  <PROTECTED>  (1713) 
TRUE

>  <SMILES>  (1713) 
N1C(CCCC1)CC(=O)O

>  <INCHIKEY>  (1713) 
PRNLNZMJMCUWNV-UHFFFAOYSA-N

$$$$
DL-hPro_b_bdiMe
     RDKit          2D

 11 11  0  0  0  0  0  0  0  0999 V2000
   -1.6653   -1.2135    0.0000 N   0  0  0  0  0  0  0  0  0  0  0  0
   -0.7836   -0.0000    0.0000 C   0  0  0  0  0  0  0  0  0  0  0  0
   -1.6653    1.2135    0.0000 C   0  0  0  0  0  0  0  0  0  0  0  0
   -3.0919    0.7500    0.0000 C   0  0  0  0  0  0  0  0  0  0  0  0
   -3.0919   -0.7500    0.0000 C   0  0  0  0  0  0  0  0  0  0  0  0
    0.7164    0.0000    0.0000 C   0  0  0  0  0  0  0  0  0  0  0  0
    0.7164    1.5000    0.0000 C   0  0  0  0  0  0  0  0  0  0  0  0
    0.7164   -1.5000    0.0000 C   0  0  0  0  0  0  0  0  0  0  0  0
    2.2164    0.0000    0.0000 C   0  0  0  0  0  0  0  0  0  0  0  0
    2.9664   -1.2990    0.0000 O   0  0  0  0  0  0  0  0  0  0  0  0
    2.9664    1.2990    0.0000 O   0  0  0  0  0  0  0  0  0  0  0  0
  1  2  1  0
  2  3  1  0
  3  4  1  0
  4  5  1  0
  2  6  1  0
  6  7  1  0
  6  8  1  0
  6  9  1  0
  9 10  2  0
  9 11  1  0
  5  1  1  0
M  END
>  <rName>  (1714) 
DL-hPro_b_bdiMe

>  <PQ_SYMBOL>  (1714) 
DL-hPro_b_bdiMe

>  <FULL_NAME>  (1714) 
2-Methyl-2-(pyrrolidin-2-yl)propanoic acid

>  <IUPAC_CONDENSED>  (1714) 
DL-hPro(b,b-diMe)

>  <IUPAC>  (1714) 
2-methyl-2-(pyrrolidin-2-yl)propanoic acid

>  <TYPE>  (1714) 
Backbone

>  <CLASS>  (1714) 
beta

>  <ANALOG>  (1714) 
Pro

>  <MOL_WT>  (1714) 
157.213

>  <LOGP>  (1714) 
0.8492

>  <TPSA>  (1714) 
49.33

>  <POPULARITY>  (1714) 
6.2

>  <PROTECTED>  (1714) 
TRUE

>  <SMILES>  (1714) 
N1C(CCC1)C(C)(C)C(=O)O

>  <INCHIKEY>  (1714) 
QMEPAYBCTJREDK-UHFFFAOYSA-N

$$$$
DL-hPro_g_gdiF
     RDKit          2D

 11 11  0  0  0  0  0  0  0  0999 V2000
   -0.0832   -1.1287    0.0000 N   0  0  0  0  0  0  0  0  0  0  0  0
    0.2270    0.3389    0.0000 C   0  0  0  0  0  0  0  0  0  0  0  0
   -1.0729    1.0874    0.0000 C   0  0  0  0  0  0  0  0  0  0  0  0
   -2.1865    0.0824    0.0000 C   0  0  0  0  0  0  0  0  0  0  0  0
   -3.4846   -0.6692    0.0000 F   0  0  0  0  0  0  0  0  0  0  0  0
   -3.0696    1.2948    0.0000 F   0  0  0  0  0  0  0  0  0  0  0  0
   -1.5747   -1.2872    0.0000 C   0  0  0  0  0  0  0  0  0  0  0  0
    1.5966    0.9506    0.0000 C   0  0  0  0  0  0  0  0  0  0  0  0
    2.8111    0.0704    0.0000 C   0  0  0  0  0  0  0  0  0  0  0  0
    2.6561   -1.4216    0.0000 O   0  0  0  0  0  0  0  0  0  0  0  0
    4.1807    0.6821    0.0000 O   0  0  0  0  0  0  0  0  0  0  0  0
  1  2  1  0
  2  3  1  0
  3  4  1  0
  4  5  1  0
  4  6  1  0
  4  7  1  0
  2  8  1  0
  8  9  1  0
  9 10  2  0
  9 11  1  0
  7  1  1  0
M  END
>  <rName>  (1715) 
DL-hPro_g_gdiF

>  <PQ_SYMBOL>  (1715) 
DL-hPro_g_gdiF

>  <FULL_NAME>  (1715) 
2-(4,4-Difluoropyrrolidin-2-yl)acetic acid

>  <IUPAC_CONDENSED>  (1715) 
DL-hPro(g,g-diF)

>  <IUPAC>  (1715) 
2-(4,4-difluoropyrrolidin-2-yl)acetic acid

>  <TYPE>  (1715) 
Backbone

>  <CLASS>  (1715) 
beta

>  <ANALOG>  (1715) 
Pro

>  <MOL_WT>  (1715) 
165.139

>  <LOGP>  (1715) 
0.4583000000000001

>  <TPSA>  (1715) 
49.33

>  <POPULARITY>  (1715) 
3.9

>  <PROTECTED>  (1715) 
TRUE

>  <SMILES>  (1715) 
N1C(CC(F)(F)C1)CC(=O)O

>  <INCHIKEY>  (1715) 
BCSOFHOWQXDZMC-UHFFFAOYSA-N

$$$$
DTPA
     RDKit          2D

 27 26  0  0  0  0  0  0  0  0999 V2000
    7.9394   -1.2421    0.0000 O   0  0  0  0  0  0  0  0  0  0  0  0
    6.6749   -0.4352    0.0000 C   0  0  0  0  0  0  0  0  0  0  0  0
    6.7414    1.0633    0.0000 O   0  0  0  0  0  0  0  0  0  0  0  0
    5.3439   -1.1269    0.0000 C   0  0  0  0  0  0  0  0  0  0  0  0
    4.0794   -0.3200    0.0000 N   0  0  0  0  0  0  0  0  0  0  0  0
    4.1459    1.1785    0.0000 C   0  0  0  0  0  0  0  0  0  0  0  0
    2.8814    1.9853    0.0000 C   0  0  0  0  0  0  0  0  0  0  0  0
    1.5504    1.2937    0.0000 O   0  0  0  0  0  0  0  0  0  0  0  0
    2.9479    3.4839    0.0000 O   0  0  0  0  0  0  0  0  0  0  0  0
    2.7484   -1.0117    0.0000 C   0  0  0  0  0  0  0  0  0  0  0  0
    1.4839   -0.2049    0.0000 C   0  0  0  0  0  0  0  0  0  0  0  0
    0.1529   -0.8965    0.0000 N   0  0  0  0  0  0  0  0  0  0  0  0
    0.0864   -2.3951    0.0000 C   0  0  0  0  0  0  0  0  0  0  0  0
   -1.2446   -3.0867    0.0000 C   0  0  0  0  0  0  0  0  0  0  0  0
   -2.5092   -2.2799    0.0000 O   0  0  0  0  0  0  0  0  0  0  0  0
   -1.3111   -4.5853    0.0000 O   0  0  0  0  0  0  0  0  0  0  0  0
   -1.1117   -0.0897    0.0000 C   0  0  0  0  0  0  0  0  0  0  0  0
   -2.4427   -0.7814    0.0000 C   0  0  0  0  0  0  0  0  0  0  0  0
   -3.7072    0.0255    0.0000 N   0  0  0  0  0  0  0  0  0  0  0  0
   -5.0382   -0.6662    0.0000 C   0  0  0  0  0  0  0  0  0  0  0  0
   -6.3027    0.1407    0.0000 C   0  0  0  0  0  0  0  0  0  0  0  0
   -6.2362    1.6392    0.0000 O   0  0  0  0  0  0  0  0  0  0  0  0
   -7.6337   -0.5510    0.0000 O   0  0  0  0  0  0  0  0  0  0  0  0
   -3.6407    1.5240    0.0000 C   0  0  0  0  0  0  0  0  0  0  0  0
   -2.3097    2.2157    0.0000 C   0  0  0  0  0  0  0  0  0  0  0  0
   -1.0452    1.4088    0.0000 O   0  0  0  0  0  0  0  0  0  0  0  0
   -2.2432    3.7142    0.0000 O   0  0  0  0  0  0  0  0  0  0  0  0
  1  2  1  0
  2  3  2  0
  2  4  1  0
  4  5  1  0
  5  6  1  0
  6  7  1  0
  7  8  2  0
  7  9  1  0
  5 10  1  0
 10 11  1  0
 11 12  1  0
 12 13  1  0
 13 14  1  0
 14 15  2  0
 14 16  1  0
 12 17  1  0
 17 18  1  0
 18 19  1  0
 19 20  1  0
 20 21  1  0
 21 22  2  0
 21 23  1  0
 19 24  1  0
 24 25  1  0
 25 26  2  0
 25 27  1  0
M  END
>  <rName>  (1716) 
DTPA

>  <PQ_SYMBOL>  (1716) 
DTPA

>  <FULL_NAME>  (1716) 
2-[bis[2-[bis(carboxymethyl)amino]ethyl]amino]acetic acid

>  <IUPAC_CONDENSED>  (1716) 
DTPA

>  <IUPAC>  (1716) 
2-((2-((2-(bis(2-hydroxy-2-oxoethyl)amino)ethyl)(2-hydroxy-2-oxoethyl)amino)ethyl)(2-hydroxy-2-oxoethyl)amino)acetic acid

>  <TYPE>  (1716) 
N-term cap

>  <CLASS>  (1716) 
n_cap

>  <ANALOG>  (1716) 
X

>  <MOL_WT>  (1716) 
393.34900000000016

>  <LOGP>  (1716) 
-2.6845999999999934

>  <TPSA>  (1716) 
196.21999999999997

>  <POPULARITY>  (1716) 
17.4

>  <PROTECTED>  (1716) 
TRUE

>  <SMILES>  (1716) 
OC(=O)CN(CC(=O)O)CCN(CC(=O)O)CCN(CC(=O)O)CC(=O)O

>  <INCHIKEY>  (1716) 
QPCDCPDFJACHGM-UHFFFAOYSA-N

$$$$
Dab
     RDKit          2D

  8  7  0  0  0  0  0  0  0  0999 V2000
   -0.2517    1.8862    0.0000 N   0  0  0  0  0  0  0  0  0  0  0  0
   -0.3100    0.3873    0.0000 C   0  0  0  0  0  0  0  0  0  0  0  0
    0.9590   -0.4126    0.0000 C   0  0  0  0  0  0  0  0  0  0  0  0
    2.2862    0.2864    0.0000 C   0  0  0  0  0  0  0  0  0  0  0  0
    3.5551   -0.5134    0.0000 N   0  0  0  0  0  0  0  0  0  0  0  0
   -1.6371   -0.3117    0.0000 C   0  0  0  0  0  0  0  0  0  0  0  0
   -1.6954   -1.8105    0.0000 O   0  0  0  0  0  0  0  0  0  0  0  0
   -2.9061    0.4882    0.0000 O   0  0  0  0  0  0  0  0  0  0  0  0
  2  1  1  1
  2  3  1  0
  3  4  1  0
  4  5  1  0
  2  6  1  0
  6  7  2  0
  6  8  1  0
M  END
>  <rName>  (1717) 
Dab

>  <PQ_SYMBOL>  (1717) 
Dab

>  <FULL_NAME>  (1717) 
L-2,4-Diaminobutanoic acid

>  <IUPAC_CONDENSED>  (1717) 
Dab

>  <IUPAC>  (1717) 
(2S)-2,4-diaminobutanoic acid

>  <TYPE>  (1717) 
Backbone

>  <CLASS>  (1717) 
alpha

>  <ANALOG>  (1717) 
X

>  <MOL_WT>  (1717) 
118.13599999999998

>  <LOGP>  (1717) 
-1.2528999999999997

>  <TPSA>  (1717) 
89.34

>  <POPULARITY>  (1717) 
49.4

>  <PROTECTED>  (1717) 
TRUE

>  <SMILES>  (1717) 
N[C@@H](CCN)C(=O)O

>  <INCHIKEY>  (1717) 
OGNSCSPNOLGXSM-VKHMYHEASA-N

$$$$
Dab_Ac
     RDKit          2D

 11 10  0  0  0  0  0  0  0  0999 V2000
   -1.6269   -1.8430    0.0000 N   0  0  0  0  0  0  0  0  0  0  0  0
   -1.7489   -0.3480    0.0000 C   0  0  0  0  0  0  0  0  0  0  0  0
   -0.5152    0.5052    0.0000 C   0  0  0  0  0  0  0  0  0  0  0  0
    0.8406   -0.1366    0.0000 C   0  0  0  0  0  0  0  0  0  0  0  0
    2.0743    0.7166    0.0000 N   0  0  0  0  0  0  0  0  0  0  0  0
    3.4300    0.0748    0.0000 C   0  0  0  0  0  0  0  0  0  0  0  0
    3.5521   -1.4203    0.0000 O   0  0  0  0  0  0  0  0  0  0  0  0
    4.6637    0.9280    0.0000 C   0  0  0  0  0  0  0  0  0  0  0  0
   -3.1047    0.2938    0.0000 C   0  0  0  0  0  0  0  0  0  0  0  0
   -3.2267    1.7889    0.0000 O   0  0  0  0  0  0  0  0  0  0  0  0
   -4.3384   -0.5594    0.0000 O   0  0  0  0  0  0  0  0  0  0  0  0
  2  1  1  6
  2  3  1  0
  3  4  1  0
  4  5  1  0
  5  6  1  0
  6  7  2  0
  6  8  1  0
  2  9  1  0
  9 10  2  0
  9 11  1  0
M  END
>  <rName>  (1718) 
Dab_Ac

>  <PQ_SYMBOL>  (1718) 
Dab_Ac

>  <FULL_NAME>  (1718) 
(2S)-4-acetamido-2-aminobutanoic acid

>  <IUPAC_CONDENSED>  (1718) 
Dab(Ac)

>  <IUPAC>  (1718) 
(2S)-2-amino-4-methylcarbonylaminobutanoic acid

>  <TYPE>  (1718) 
Backbone

>  <CLASS>  (1718) 
alpha

>  <ANALOG>  (1718) 
X

>  <MOL_WT>  (1718) 
160.17299999999997

>  <LOGP>  (1718) 
-1.0755

>  <TPSA>  (1718) 
92.42

>  <POPULARITY>  (1718) 
12.0

>  <PROTECTED>  (1718) 
TRUE

>  <SMILES>  (1718) 
N[C@@H](CCNC(=O)C)C(=O)O

>  <INCHIKEY>  (1718) 
YLZRFVZUZIJABA-YFKPBYRVSA-N

$$$$
Dab_Me
     RDKit          2D

  9  8  0  0  0  0  0  0  0  0999 V2000
    0.7616   -1.8791    0.0000 N   0  0  0  0  0  0  0  0  0  0  0  0
    0.8459   -0.3815    0.0000 C   0  0  0  0  0  0  0  0  0  0  0  0
   -0.4089    0.4403    0.0000 C   0  0  0  0  0  0  0  0  0  0  0  0
   -1.7480   -0.2354    0.0000 C   0  0  0  0  0  0  0  0  0  0  0  0
   -3.0029    0.5864    0.0000 N   0  0  0  0  0  0  0  0  0  0  0  0
   -4.3420   -0.0894    0.0000 C   0  0  0  0  0  0  0  0  0  0  0  0
    2.1851    0.2943    0.0000 C   0  0  0  0  0  0  0  0  0  0  0  0
    2.2694    1.7919    0.0000 O   0  0  0  0  0  0  0  0  0  0  0  0
    3.4399   -0.5275    0.0000 O   0  0  0  0  0  0  0  0  0  0  0  0
  2  1  1  1
  2  3  1  0
  3  4  1  0
  4  5  1  0
  5  6  1  0
  2  7  1  0
  7  8  2  0
  7  9  1  0
M  END
>  <rName>  (1719) 
Dab_Me

>  <PQ_SYMBOL>  (1719) 
Dab_Me

>  <FULL_NAME>  (1719) 
(S)-2-Amino-4-(methylamino)butanoic acid

>  <IUPAC_CONDENSED>  (1719) 
Dab(Me)

>  <IUPAC>  (1719) 
(2S)-2-amino-4-(methylamino)butanoic acid

>  <TYPE>  (1719) 
Backbone

>  <CLASS>  (1719) 
alpha

>  <ANALOG>  (1719) 
X

>  <MOL_WT>  (1719) 
132.16299999999998

>  <LOGP>  (1719) 
-0.9921999999999997

>  <TPSA>  (1719) 
75.35

>  <POPULARITY>  (1719) 
4.0

>  <PROTECTED>  (1719) 
TRUE

>  <SMILES>  (1719) 
N[C@@H](CCNC)C(=O)O

>  <INCHIKEY>  (1719) 
OZIXMSIQZYAGGK-BYPYZUCNSA-N

$$$$
Dab_MeOH
     RDKit          2D

 10  9  0  0  0  0  0  0  0  0999 V2000
   -1.4166    1.8843    0.0000 N   0  0  0  0  0  0  0  0  0  0  0  0
   -1.4265    0.3844    0.0000 C   0  0  0  0  0  0  0  0  0  0  0  0
   -0.1324   -0.3741    0.0000 C   0  0  0  0  0  0  0  0  0  0  0  0
    1.1716    0.3673    0.0000 C   0  0  0  0  0  0  0  0  0  0  0  0
    2.4657   -0.3912    0.0000 N   0  0  0  0  0  0  0  0  0  0  0  0
    3.7696    0.3503    0.0000 C   0  0  0  0  0  0  0  0  0  0  0  0
    5.0637   -0.4082    0.0000 O   0  0  0  0  0  0  0  0  0  0  0  0
   -2.7304   -0.3571    0.0000 C   0  0  0  0  0  0  0  0  0  0  0  0
   -2.7402   -1.8571    0.0000 O   0  0  0  0  0  0  0  0  0  0  0  0
   -4.0245    0.4014    0.0000 O   0  0  0  0  0  0  0  0  0  0  0  0
  2  1  1  1
  2  3  1  0
  3  4  1  0
  4  5  1  0
  5  6  1  0
  6  7  1  0
  2  8  1  0
  8  9  2  0
  8 10  1  0
M  END
>  <rName>  (1720) 
Dab_MeOH

>  <PQ_SYMBOL>  (1720) 
Dab_MeOH

>  <FULL_NAME>  (1720) 
(2S)-2-amino-4-(hydroxymethylamino)butanoic acid

>  <IUPAC_CONDENSED>  (1720) 
Dab(MeOH)

>  <IUPAC>  (1720) 
(2S)-2-amino-4-(hydroxymethylamino)butanoic acid

>  <TYPE>  (1720) 
Backbone

>  <CLASS>  (1720) 
alpha

>  <ANALOG>  (1720) 
X

>  <MOL_WT>  (1720) 
148.16199999999998

>  <LOGP>  (1720) 
-1.6721999999999992

>  <TPSA>  (1720) 
95.58

>  <POPULARITY>  (1720) 
2.2

>  <PROTECTED>  (1720) 
TRUE

>  <SMILES>  (1720) 
N[C@@H](CCNCO)C(=O)O

>  <INCHIKEY>  (1720) 
MNBWQGHBZBKJSO-BYPYZUCNSA-N

$$$$
Dab_N3
     RDKit          2D

 10  9  0  0  0  0  0  0  0  0999 V2000
   -1.2340    1.8694    0.0000 N   0  0  0  0  0  0  0  0  0  0  0  0
   -1.3962    0.3782    0.0000 C   0  0  0  0  0  0  0  0  0  0  0  0
   -0.1859   -0.5079    0.0000 C   0  0  0  0  0  0  0  0  0  0  0  0
    1.1866    0.0973    0.0000 C   0  0  0  0  0  0  0  0  0  0  0  0
    2.3969   -0.7888    0.0000 N   0  0  0  0  0  0  0  0  0  0  0  0
    3.7695   -0.1837    0.0000 N   0  0  0  0  0  0  0  0  0  0  0  0
    5.1420    0.4214    0.0000 N   0  0  0  0  0  0  0  0  0  0  0  0
   -2.7688   -0.2269    0.0000 C   0  0  0  0  0  0  0  0  0  0  0  0
   -2.9310   -1.7181    0.0000 O   0  0  0  0  0  0  0  0  0  0  0  0
   -3.9791    0.6591    0.0000 O   0  0  0  0  0  0  0  0  0  0  0  0
  2  1  1  1
  2  3  1  0
  3  4  1  0
  4  5  1  0
  5  6  2  0
  6  7  2  0
  2  8  1  0
  8  9  2  0
  8 10  1  0
M  CHG  2   6   1   7  -1
M  END
>  <rName>  (1721) 
Dab_N3

>  <PQ_SYMBOL>  (1721) 
Dab_N3

>  <FULL_NAME>  (1721) 
(S)-2-amino-4-azidobutanoic acid

>  <IUPAC_CONDENSED>  (1721) 
Dab(N3)

>  <IUPAC>  (1721) 
(2S)-2-amino-4-azidobutanoic acid

>  <TYPE>  (1721) 
Backbone

>  <CLASS>  (1721) 
alpha

>  <ANALOG>  (1721) 
X

>  <MOL_WT>  (1721) 
144.13400000000001

>  <LOGP>  (1721) 
0.09869999999999973

>  <TPSA>  (1721) 
112.08

>  <POPULARITY>  (1721) 
8.1

>  <PROTECTED>  (1721) 
TRUE

>  <SMILES>  (1721) 
N[C@@H](CCN=[N+]=[N-])C(=O)O

>  <INCHIKEY>  (1721) 
NNWQLZWAZSJGLY-VKHMYHEASA-N

$$$$
Dab_N4Cys
     RDKit          2D

 14 13  0  0  0  0  0  0  0  0999 V2000
    3.0887   -1.8306    0.0000 N   0  0  0  0  0  0  0  0  0  0  0  0
    3.0671   -0.3308    0.0000 C   0  0  0  0  0  0  0  0  0  0  0  0
    1.7574    0.4004    0.0000 C   0  0  0  0  0  0  0  0  0  0  0  0
    0.4693   -0.3683    0.0000 C   0  0  0  0  0  0  0  0  0  0  0  0
   -0.8404    0.3629    0.0000 N   0  0  0  0  0  0  0  0  0  0  0  0
   -2.1285   -0.4057    0.0000 C   0  0  0  0  0  0  0  0  0  0  0  0
   -2.1069   -1.9056    0.0000 O   0  0  0  0  0  0  0  0  0  0  0  0
   -3.4382    0.3254    0.0000 C   0  0  0  0  0  0  0  0  0  0  0  0
   -3.4599    1.8253    0.0000 N   0  0  0  0  0  0  0  0  0  0  0  0
   -4.7263   -0.4432    0.0000 C   0  0  0  0  0  0  0  0  0  0  0  0
   -6.0360    0.2880    0.0000 S   0  0  0  0  0  0  0  0  0  0  0  0
    4.3552    0.4379    0.0000 C   0  0  0  0  0  0  0  0  0  0  0  0
    4.3336    1.9377    0.0000 O   0  0  0  0  0  0  0  0  0  0  0  0
    5.6649   -0.2933    0.0000 O   0  0  0  0  0  0  0  0  0  0  0  0
  2  1  1  1
  2  3  1  0
  3  4  1  0
  4  5  1  0
  5  6  1  0
  6  7  2  0
  6  8  1  0
  8  9  1  6
  8 10  1  0
 10 11  1  0
  2 12  1  0
 12 13  2  0
 12 14  1  0
M  END
>  <rName>  (1722) 
Dab_N4Cys

>  <PQ_SYMBOL>  (1722) 
Dab_N4Cys

>  <FULL_NAME>  (1722) 
Dab(N4-Cys)

>  <IUPAC_CONDENSED>  (1722) 
Dab(N4-Cys)

>  <IUPAC>  (1722) 
(2S)-2-amino-4-((1R)-1-amino-2-sulfanylethylcarbonylamino)butanoic acid

>  <TYPE>  (1722) 
Backbone

>  <CLASS>  (1722) 
alpha

>  <ANALOG>  (1722) 
X

>  <MOL_WT>  (1722) 
221.28199999999998

>  <LOGP>  (1722) 
-1.8382999999999985

>  <TPSA>  (1722) 
118.44000000000001

>  <POPULARITY>  (1722) 
2.2

>  <PROTECTED>  (1722) 
TRUE

>  <SMILES>  (1722) 
N[C@@H](CCNC(=O)[C@@H](N)CS)C(=O)O

>  <INCHIKEY>  (1722) 
HHQIQGIXHKWCMI-WHFBIAKZSA-N

$$$$
Dab_N4Thz
     RDKit          2D

 15 15  0  0  0  0  0  0  0  0999 V2000
   -3.5641   -1.7629    0.0000 N   0  0  0  0  0  0  0  0  0  0  0  0
   -3.4352   -0.2684    0.0000 C   0  0  0  0  0  0  0  0  0  0  0  0
   -2.0765    0.3672    0.0000 C   0  0  0  0  0  0  0  0  0  0  0  0
   -0.8467   -0.4917    0.0000 C   0  0  0  0  0  0  0  0  0  0  0  0
    0.5119    0.1439    0.0000 N   0  0  0  0  0  0  0  0  0  0  0  0
    1.7417   -0.7150    0.0000 C   0  0  0  0  0  0  0  0  0  0  0  0
    1.6128   -2.2094    0.0000 O   0  0  0  0  0  0  0  0  0  0  0  0
    3.1004   -0.0794    0.0000 C   0  0  0  0  0  0  0  0  0  0  0  0
    4.4132   -0.8050    0.0000 C   0  0  0  0  0  0  0  0  0  0  0  0
    5.5090    0.2193    0.0000 S   0  0  0  0  0  0  0  0  0  0  0  0
    4.8734    1.5780    0.0000 C   0  0  0  0  0  0  0  0  0  0  0  0
    3.3848    1.3934    0.0000 N   0  0  0  0  0  0  0  0  0  0  0  0
   -4.6650    0.5904    0.0000 C   0  0  0  0  0  0  0  0  0  0  0  0
   -4.5361    2.0849    0.0000 O   0  0  0  0  0  0  0  0  0  0  0  0
   -6.0237   -0.0451    0.0000 O   0  0  0  0  0  0  0  0  0  0  0  0
  2  1  1  6
  2  3  1  0
  3  4  1  0
  4  5  1  0
  5  6  1  0
  6  7  2  0
  8  6  1  1
  8  9  1  0
  9 10  1  0
 10 11  1  0
 11 12  1  0
  2 13  1  0
 13 14  2  0
 13 15  1  0
 12  8  1  0
M  END
>  <rName>  (1723) 
Dab_N4Thz

>  <PQ_SYMBOL>  (1723) 
Dab_N4Thz

>  <FULL_NAME>  (1723) 
Dab(N4-Thz)

>  <IUPAC_CONDENSED>  (1723) 
Dab(N4-Thz)

>  <IUPAC>  (1723) 
(2S)-2-amino-4-((4R)-1,3-thiazolidin-4-ylcarbonylamino)butanoic acid

>  <TYPE>  (1723) 
Backbone

>  <CLASS>  (1723) 
alpha

>  <ANALOG>  (1723) 
X

>  <MOL_WT>  (1723) 
233.29299999999998

>  <LOGP>  (1723) 
-1.4328999999999985

>  <TPSA>  (1723) 
104.45

>  <POPULARITY>  (1723) 
2.2

>  <PROTECTED>  (1723) 
TRUE

>  <SMILES>  (1723) 
N[C@@H](CCNC(=O)[C@@H]1(CSCN1))C(=O)O

>  <INCHIKEY>  (1723) 
USSRMHFOYOFJIP-WDSKDSINSA-N

$$$$
Dab_octanoyl
     RDKit          2D

 17 16  0  0  0  0  0  0  0  0999 V2000
    5.0460    1.7569    0.0000 N   0  0  0  0  0  0  0  0  0  0  0  0
    5.0437    0.2569    0.0000 C   0  0  0  0  0  0  0  0  0  0  0  0
    3.7435   -0.4911    0.0000 C   0  0  0  0  0  0  0  0  0  0  0  0
    2.4457    0.2609    0.0000 C   0  0  0  0  0  0  0  0  0  0  0  0
    1.1455   -0.4871    0.0000 N   0  0  0  0  0  0  0  0  0  0  0  0
   -0.1524    0.2649    0.0000 C   0  0  0  0  0  0  0  0  0  0  0  0
   -0.1501    1.7649    0.0000 O   0  0  0  0  0  0  0  0  0  0  0  0
   -1.4526   -0.4831    0.0000 C   0  0  0  0  0  0  0  0  0  0  0  0
   -2.7505    0.2689    0.0000 C   0  0  0  0  0  0  0  0  0  0  0  0
   -4.0507   -0.4791    0.0000 C   0  0  0  0  0  0  0  0  0  0  0  0
   -5.3486    0.2729    0.0000 C   0  0  0  0  0  0  0  0  0  0  0  0
   -6.6488   -0.4750    0.0000 C   0  0  0  0  0  0  0  0  0  0  0  0
   -7.9466    0.2770    0.0000 C   0  0  0  0  0  0  0  0  0  0  0  0
   -9.2468   -0.4710    0.0000 C   0  0  0  0  0  0  0  0  0  0  0  0
    6.3416   -0.4951    0.0000 C   0  0  0  0  0  0  0  0  0  0  0  0
    6.3393   -1.9951    0.0000 O   0  0  0  0  0  0  0  0  0  0  0  0
    7.6418    0.2529    0.0000 O   0  0  0  0  0  0  0  0  0  0  0  0
  2  1  1  6
  2  3  1  0
  3  4  1  0
  4  5  1  0
  5  6  1  0
  6  7  2  0
  6  8  1  0
  8  9  1  0
  9 10  1  0
 10 11  1  0
 11 12  1  0
 12 13  1  0
 13 14  1  0
  2 15  1  0
 15 16  2  0
 15 17  1  0
M  END
>  <rName>  (1724) 
Dab_octanoyl

>  <PQ_SYMBOL>  (1724) 
Dab_octanoyl

>  <FULL_NAME>  (1724) 
(2S)-2-amino-4-(octanoylamino)butanoic acid

>  <IUPAC_CONDENSED>  (1724) 
Dab(octanoyl)

>  <IUPAC>  (1724) 
(2S)-2-amino-4-heptylcarbonylaminobutanoic acid

>  <TYPE>  (1724) 
Backbone

>  <CLASS>  (1724) 
alpha

>  <ANALOG>  (1724) 
X

>  <MOL_WT>  (1724) 
244.33499999999992

>  <LOGP>  (1724) 
1.265099999999999

>  <TPSA>  (1724) 
92.42

>  <POPULARITY>  (1724) 
7.5

>  <PROTECTED>  (1724) 
TRUE

>  <SMILES>  (1724) 
N[C@@H](CCNC(=O)CCCCCCC)C(=O)O

>  <INCHIKEY>  (1724) 
FSQCFQXXYUKKPO-JTQLQIEISA-N

$$$$
Dab_palmitoyl
     RDKit          2D

 25 24  0  0  0  0  0  0  0  0999 V2000
    9.8845    1.7342    0.0000 N   0  0  0  0  0  0  0  0  0  0  0  0
    9.8745    0.2342    0.0000 C   0  0  0  0  0  0  0  0  0  0  0  0
    8.5705   -0.5071    0.0000 C   0  0  0  0  0  0  0  0  0  0  0  0
    7.2765    0.2515    0.0000 C   0  0  0  0  0  0  0  0  0  0  0  0
    5.9724   -0.4898    0.0000 N   0  0  0  0  0  0  0  0  0  0  0  0
    4.6784    0.2688    0.0000 C   0  0  0  0  0  0  0  0  0  0  0  0
    4.6884    1.7688    0.0000 O   0  0  0  0  0  0  0  0  0  0  0  0
    3.3744   -0.4725    0.0000 C   0  0  0  0  0  0  0  0  0  0  0  0
    2.0804    0.2861    0.0000 C   0  0  0  0  0  0  0  0  0  0  0  0
    0.7764   -0.4552    0.0000 C   0  0  0  0  0  0  0  0  0  0  0  0
   -0.5176    0.3035    0.0000 C   0  0  0  0  0  0  0  0  0  0  0  0
   -1.8216   -0.4379    0.0000 C   0  0  0  0  0  0  0  0  0  0  0  0
   -3.1156    0.3208    0.0000 C   0  0  0  0  0  0  0  0  0  0  0  0
   -4.4196   -0.4206    0.0000 C   0  0  0  0  0  0  0  0  0  0  0  0
   -5.7136    0.3381    0.0000 C   0  0  0  0  0  0  0  0  0  0  0  0
   -7.0176   -0.4033    0.0000 C   0  0  0  0  0  0  0  0  0  0  0  0
   -8.3117    0.3554    0.0000 C   0  0  0  0  0  0  0  0  0  0  0  0
   -9.6157   -0.3860    0.0000 C   0  0  0  0  0  0  0  0  0  0  0  0
  -10.9097    0.3727    0.0000 C   0  0  0  0  0  0  0  0  0  0  0  0
  -12.2137   -0.3686    0.0000 C   0  0  0  0  0  0  0  0  0  0  0  0
  -13.5077    0.3900    0.0000 C   0  0  0  0  0  0  0  0  0  0  0  0
  -14.8117   -0.3513    0.0000 C   0  0  0  0  0  0  0  0  0  0  0  0
   11.1685   -0.5244    0.0000 C   0  0  0  0  0  0  0  0  0  0  0  0
   11.1585   -2.0244    0.0000 O   0  0  0  0  0  0  0  0  0  0  0  0
   12.4725    0.2169    0.0000 O   0  0  0  0  0  0  0  0  0  0  0  0
  2  1  1  6
  2  3  1  0
  3  4  1  0
  4  5  1  0
  5  6  1  0
  6  7  2  0
  6  8  1  0
  8  9  1  0
  9 10  1  0
 10 11  1  0
 11 12  1  0
 12 13  1  0
 13 14  1  0
 14 15  1  0
 15 16  1  0
 16 17  1  0
 17 18  1  0
 18 19  1  0
 19 20  1  0
 20 21  1  0
 21 22  1  0
  2 23  1  0
 23 24  2  0
 23 25  1  0
M  END
>  <rName>  (1725) 
Dab_palmitoyl

>  <PQ_SYMBOL>  (1725) 
Dab_palmitoyl

>  <FULL_NAME>  (1725) 
Dab(palmitoyl)

>  <IUPAC_CONDENSED>  (1725) 
Dab(palmitoyl)

>  <IUPAC>  (1725) 
(2S)-2-amino-4-(pentadecylcarbonylamino)butanoic acid

>  <TYPE>  (1725) 
Backbone

>  <CLASS>  (1725) 
alpha

>  <ANALOG>  (1725) 
X

>  <MOL_WT>  (1725) 
356.55100000000004

>  <LOGP>  (1725) 
4.385900000000002

>  <TPSA>  (1725) 
92.42

>  <POPULARITY>  (1725) 
3.5

>  <PROTECTED>  (1725) 
TRUE

>  <SMILES>  (1725) 
N[C@@H](CCNC(=O)CCCCCCCCCCCCCCC)C(=O)O

>  <INCHIKEY>  (1725) 
VZSHHSZHQBVLNA-SFHVURJKSA-N

$$$$
Dan-Ala
     RDKit          2D

 22 23  0  0  0  0  0  0  0  0999 V2000
    5.2231    1.9220    0.0000 C   0  0  0  0  0  0  0  0  0  0  0  0
    4.3503    0.7021    0.0000 N   0  0  0  0  0  0  0  0  0  0  0  0
    4.9704   -0.6637    0.0000 C   0  0  0  0  0  0  0  0  0  0  0  0
    2.8574    0.8480    0.0000 C   0  0  0  0  0  0  0  0  0  0  0  0
    1.9846   -0.3719    0.0000 C   0  0  0  0  0  0  0  0  0  0  0  0
    0.4917   -0.2260    0.0000 C   0  0  0  0  0  0  0  0  0  0  0  0
   -0.1284    1.1398    0.0000 C   0  0  0  0  0  0  0  0  0  0  0  0
    0.7444    2.3597    0.0000 C   0  0  0  0  0  0  0  0  0  0  0  0
    2.2373    2.2138    0.0000 C   0  0  0  0  0  0  0  0  0  0  0  0
   -0.3811   -1.4460    0.0000 C   0  0  0  0  0  0  0  0  0  0  0  0
    0.2390   -2.8118    0.0000 C   0  0  0  0  0  0  0  0  0  0  0  0
    1.7319   -2.9577    0.0000 C   0  0  0  0  0  0  0  0  0  0  0  0
    2.6047   -1.7378    0.0000 C   0  0  0  0  0  0  0  0  0  0  0  0
   -1.8740   -1.3001    0.0000 S   0  0  0  0  0  0  0  0  0  0  0  0
   -2.0199   -2.7930    0.0000 O   0  0  0  0  0  0  0  0  0  0  0  0
   -1.7281    0.1928    0.0000 O   0  0  0  0  0  0  0  0  0  0  0  0
   -3.3669   -1.1542    0.0000 N   0  0  0  0  0  0  0  0  0  0  0  0
   -3.9870    0.2116    0.0000 C   0  0  0  0  0  0  0  0  0  0  0  0
   -5.4798    0.3575    0.0000 C   0  0  0  0  0  0  0  0  0  0  0  0
   -3.1142    1.4316    0.0000 C   0  0  0  0  0  0  0  0  0  0  0  0
   -1.6213    1.2857    0.0000 O   0  0  0  0  0  0  0  0  0  0  0  0
   -3.7343    2.7974    0.0000 O   0  0  0  0  0  0  0  0  0  0  0  0
  1  2  1  0
  2  3  1  0
  2  4  1  0
  4  5  1  0
  5  6  1  0
  6  7  1  0
  7  8  2  0
  8  9  1  0
  6 10  2  0
 10 11  1  0
 11 12  2  0
 12 13  1  0
 10 14  1  0
 14 15  2  0
 14 16  2  0
 14 17  1  0
 17 18  1  0
 18 19  1  1
 18 20  1  0
 20 21  2  0
 20 22  1  0
 13  5  2  0
  9  4  2  0
M  END
>  <rName>  (1726) 
Dan-Ala

>  <PQ_SYMBOL>  (1726) 
Dan-Ala

>  <FULL_NAME>  (1726) 
(2S)-2-[[5-(dimethylamino)naphthalen-1-yl]sulfonylamino]propanoic acid

>  <IUPAC_CONDENSED>  (1726) 
Dan-Ala

>  <IUPAC>  (1726) 
(2S)-2-(5-(dimethylamino)naphthalen-1-ylsulfonylamino)propanoic acid

>  <TYPE>  (1726) 
N-term cap

>  <CLASS>  (1726) 
n_cap

>  <ANALOG>  (1726) 
X

>  <MOL_WT>  (1726) 
322.3860000000001

>  <LOGP>  (1726) 
1.6572

>  <TPSA>  (1726) 
86.71000000000001

>  <POPULARITY>  (1726) 
7.6

>  <PROTECTED>  (1726) 
TRUE

>  <SMILES>  (1726) 
CN(C)c2c1c(ccc2)c(ccc1)S(=O)(=O)N[C@@H](C)C(=O)O

>  <INCHIKEY>  (1726) 
JCIYZTBXUJCAMW-JTQLQIEISA-N

$$$$
Dan-Gly
     RDKit          2D

 21 22  0  0  0  0  0  0  0  0999 V2000
    5.5275    1.8273    0.0000 C   0  0  0  0  0  0  0  0  0  0  0  0
    4.5857    0.6599    0.0000 N   0  0  0  0  0  0  0  0  0  0  0  0
    5.1259   -0.7395    0.0000 C   0  0  0  0  0  0  0  0  0  0  0  0
    3.1038    0.8918    0.0000 C   0  0  0  0  0  0  0  0  0  0  0  0
    2.1619   -0.2757    0.0000 C   0  0  0  0  0  0  0  0  0  0  0  0
    0.6800   -0.0438    0.0000 C   0  0  0  0  0  0  0  0  0  0  0  0
    0.1398    1.3556    0.0000 C   0  0  0  0  0  0  0  0  0  0  0  0
    1.0816    2.5230    0.0000 C   0  0  0  0  0  0  0  0  0  0  0  0
    2.5636    2.2911    0.0000 C   0  0  0  0  0  0  0  0  0  0  0  0
   -0.2618   -1.2113    0.0000 C   0  0  0  0  0  0  0  0  0  0  0  0
    0.2783   -2.6106    0.0000 C   0  0  0  0  0  0  0  0  0  0  0  0
    1.7603   -2.8425    0.0000 C   0  0  0  0  0  0  0  0  0  0  0  0
    2.7021   -1.6751    0.0000 C   0  0  0  0  0  0  0  0  0  0  0  0
   -1.7438   -0.9794    0.0000 S   0  0  0  0  0  0  0  0  0  0  0  0
   -1.9757   -2.4613    0.0000 O   0  0  0  0  0  0  0  0  0  0  0  0
   -1.5119    0.5026    0.0000 O   0  0  0  0  0  0  0  0  0  0  0  0
   -3.2258   -0.7475    0.0000 N   0  0  0  0  0  0  0  0  0  0  0  0
   -3.7659    0.6519    0.0000 C   0  0  0  0  0  0  0  0  0  0  0  0
   -5.2479    0.8838    0.0000 C   0  0  0  0  0  0  0  0  0  0  0  0
   -6.1897   -0.2836    0.0000 O   0  0  0  0  0  0  0  0  0  0  0  0
   -5.7880    2.2832    0.0000 O   0  0  0  0  0  0  0  0  0  0  0  0
  1  2  1  0
  2  3  1  0
  2  4  1  0
  4  5  1  0
  5  6  1  0
  6  7  1  0
  7  8  2  0
  8  9  1  0
  6 10  2  0
 10 11  1  0
 11 12  2  0
 12 13  1  0
 10 14  1  0
 14 15  2  0
 14 16  2  0
 14 17  1  0
 17 18  1  0
 18 19  1  0
 19 20  2  0
 19 21  1  0
 13  5  2  0
  9  4  2  0
M  END
>  <rName>  (1727) 
Dan-Gly

>  <PQ_SYMBOL>  (1727) 
Dan-Gly

>  <FULL_NAME>  (1727) 
2-[[5-(dimethylamino)naphthalen-1-yl]sulfonylamino]acetic acid

>  <IUPAC_CONDENSED>  (1727) 
Dan-Gly

>  <IUPAC>  (1727) 
2-(5-(dimethylamino)naphthalen-1-ylsulfonylamino)acetic acid

>  <TYPE>  (1727) 
N-term cap

>  <CLASS>  (1727) 
n_cap

>  <ANALOG>  (1727) 
X

>  <MOL_WT>  (1727) 
308.3590000000001

>  <LOGP>  (1727) 
1.2687000000000002

>  <TPSA>  (1727) 
86.71000000000001

>  <POPULARITY>  (1727) 
17.0

>  <PROTECTED>  (1727) 
TRUE

>  <SMILES>  (1727) 
CN(C)c2c1c(ccc2)c(ccc1)S(=O)(=O)NCC(=O)O

>  <INCHIKEY>  (1727) 
QHFXORCWAQTTGH-UHFFFAOYSA-N

$$$$
Dan-Pro
     RDKit          2D

 24 26  0  0  0  0  0  0  0  0999 V2000
    6.4366    0.6083    0.0000 C   0  0  0  0  0  0  0  0  0  0  0  0
    5.1851   -0.2186    0.0000 N   0  0  0  0  0  0  0  0  0  0  0  0
    5.2756   -1.7159    0.0000 C   0  0  0  0  0  0  0  0  0  0  0  0
    3.8432    0.4517    0.0000 C   0  0  0  0  0  0  0  0  0  0  0  0
    2.5918   -0.3753    0.0000 C   0  0  0  0  0  0  0  0  0  0  0  0
    1.2499    0.2950    0.0000 C   0  0  0  0  0  0  0  0  0  0  0  0
    1.1594    1.7923    0.0000 C   0  0  0  0  0  0  0  0  0  0  0  0
    2.4109    2.6193    0.0000 C   0  0  0  0  0  0  0  0  0  0  0  0
    3.7528    1.9490    0.0000 C   0  0  0  0  0  0  0  0  0  0  0  0
   -0.0016   -0.5319    0.0000 C   0  0  0  0  0  0  0  0  0  0  0  0
    0.0889   -2.0292    0.0000 C   0  0  0  0  0  0  0  0  0  0  0  0
    1.4308   -2.6995    0.0000 C   0  0  0  0  0  0  0  0  0  0  0  0
    2.6822   -1.8725    0.0000 C   0  0  0  0  0  0  0  0  0  0  0  0
   -1.3435    0.1384    0.0000 S   0  0  0  0  0  0  0  0  0  0  0  0
   -2.0138   -1.2035    0.0000 O   0  0  0  0  0  0  0  0  0  0  0  0
   -0.6732    1.4803    0.0000 O   0  0  0  0  0  0  0  0  0  0  0  0
   -2.6854    0.8087    0.0000 N   0  0  0  0  0  0  0  0  0  0  0  0
   -4.0164    0.1171    0.0000 C   0  0  0  0  0  0  0  0  0  0  0  0
   -5.0855    1.1692    0.0000 C   0  0  0  0  0  0  0  0  0  0  0  0
   -4.4152    2.5111    0.0000 C   0  0  0  0  0  0  0  0  0  0  0  0
   -2.9318    2.2883    0.0000 C   0  0  0  0  0  0  0  0  0  0  0  0
   -4.2392   -1.3663    0.0000 C   0  0  0  0  0  0  0  0  0  0  0  0
   -3.0660   -2.3009    0.0000 O   0  0  0  0  0  0  0  0  0  0  0  0
   -5.6353   -1.9150    0.0000 O   0  0  0  0  0  0  0  0  0  0  0  0
  1  2  1  0
  2  3  1  0
  2  4  1  0
  4  5  1  0
  5  6  1  0
  6  7  1  0
  7  8  2  0
  8  9  1  0
  6 10  2  0
 10 11  1  0
 11 12  2  0
 12 13  1  0
 10 14  1  0
 14 15  2  0
 14 16  2  0
 14 17  1  0
 17 18  1  0
 18 19  1  0
 19 20  1  0
 20 21  1  0
 18 22  1  6
 22 23  2  0
 22 24  1  0
 21 17  1  0
 13  5  2  0
  9  4  2  0
M  END
>  <rName>  (1728) 
Dan-Pro

>  <PQ_SYMBOL>  (1728) 
Dan-Pro

>  <FULL_NAME>  (1728) 
(2S)-1-[5-(dimethylamino)naphthalen-1-yl]sulfonylpyrrolidine-2-carboxylic acid

>  <IUPAC_CONDENSED>  (1728) 
Dan-Pro

>  <IUPAC>  (1728) 
(2S)-1-(5-(dimethylamino)naphthalen-1-ylsulfonyl)pyrrolidine-2-carboxylic acid

>  <TYPE>  (1728) 
N-term cap

>  <CLASS>  (1728) 
n_cap

>  <ANALOG>  (1728) 
X

>  <MOL_WT>  (1728) 
348.42400000000015

>  <LOGP>  (1728) 
2.1435

>  <TPSA>  (1728) 
77.92

>  <POPULARITY>  (1728) 
7.7

>  <PROTECTED>  (1728) 
TRUE

>  <SMILES>  (1728) 
CN(C)c3c2c(ccc3)c(ccc2)S(=O)(=O)N1[C@@H](CCC1)C(=O)O

>  <INCHIKEY>  (1728) 
ZHJIWURDCGMVQE-HNNXBMFYSA-N

$$$$
Dap
     RDKit          2D

  7  6  0  0  0  0  0  0  0  0999 V2000
    0.5797   -1.7367    0.0000 N   0  0  0  0  0  0  0  0  0  0  0  0
    0.2514   -0.2730    0.0000 C   0  0  0  0  0  0  0  0  0  0  0  0
    1.3548    0.7431    0.0000 C   0  0  0  0  0  0  0  0  0  0  0  0
    2.7865    0.2956    0.0000 N   0  0  0  0  0  0  0  0  0  0  0  0
   -1.1803    0.1745    0.0000 C   0  0  0  0  0  0  0  0  0  0  0  0
   -1.5086    1.6381    0.0000 O   0  0  0  0  0  0  0  0  0  0  0  0
   -2.2837   -0.8417    0.0000 O   0  0  0  0  0  0  0  0  0  0  0  0
  2  1  1  6
  2  3  1  0
  3  4  1  0
  2  5  1  0
  5  6  2  0
  5  7  1  0
M  END
>  <rName>  (1729) 
Dap

>  <PQ_SYMBOL>  (1729) 
Dap

>  <FULL_NAME>  (1729) 
3-Amino-L-Alanine

>  <IUPAC_CONDENSED>  (1729) 
Dap

>  <IUPAC>  (1729) 
(2S)-2,3-diaminopropanoic acid

>  <TYPE>  (1729) 
Backbone

>  <CLASS>  (1729) 
alpha

>  <ANALOG>  (1729) 
X

>  <MOL_WT>  (1729) 
104.10899999999998

>  <LOGP>  (1729) 
-1.6429999999999998

>  <TPSA>  (1729) 
89.34

>  <POPULARITY>  (1729) 
52.7

>  <PROTECTED>  (1729) 
TRUE

>  <SMILES>  (1729) 
N[C@@H](CN)C(=O)O

>  <INCHIKEY>  (1729) 
PECYZEOJVXMISF-REOHCLBHSA-N

$$$$
Dap_3RMe
     RDKit          2D

  8  7  0  0  0  0  0  0  0  0999 V2000
    0.0000   -2.0625    0.0000 N   0  0  0  0  0  0  0  0  0  0  0  0
    0.0000   -0.5625    0.0000 C   0  0  0  0  0  0  0  0  0  0  0  0
   -1.2990    0.1875    0.0000 C   0  0  0  0  0  0  0  0  0  0  0  0
   -2.5981   -0.5625    0.0000 C   0  0  0  0  0  0  0  0  0  0  0  0
   -1.2990    1.6875    0.0000 N   0  0  0  0  0  0  0  0  0  0  0  0
    1.2990    0.1875    0.0000 C   0  0  0  0  0  0  0  0  0  0  0  0
    1.2990    1.6875    0.0000 O   0  0  0  0  0  0  0  0  0  0  0  0
    2.5981   -0.5625    0.0000 O   0  0  0  0  0  0  0  0  0  0  0  0
  2  1  1  1
  2  3  1  0
  3  4  1  1
  3  5  1  0
  2  6  1  0
  6  7  2  0
  6  8  1  0
M  END
>  <rName>  (1730) 
Dap_3RMe

>  <PQ_SYMBOL>  (1730) 
Dap_3RMe

>  <FULL_NAME>  (1730) 
(2S,3R)-2,3-diaminobutanoic acid

>  <IUPAC_CONDENSED>  (1730) 
Dap(3R-Me)

>  <IUPAC>  (1730) 
(2S,3R)-2,3-diaminobutanoic acid

>  <TYPE>  (1730) 
Backbone

>  <CLASS>  (1730) 
alpha

>  <ANALOG>  (1730) 
X

>  <MOL_WT>  (1730) 
118.136

>  <LOGP>  (1730) 
-1.2544999999999995

>  <TPSA>  (1730) 
89.34

>  <POPULARITY>  (1730) 
16.0

>  <PROTECTED>  (1730) 
TRUE

>  <SMILES>  (1730) 
N[C@@H]([C@@H](C)N)C(=O)O

>  <INCHIKEY>  (1730) 
SXGMVGOVILIERA-GBXIJSLDSA-N

$$$$
Dap_3RMe_N3
     RDKit          2D

 10  9  0  0  0  0  0  0  0  0999 V2000
   -2.1925   -1.4493    0.0000 N   0  0  0  0  0  0  0  0  0  0  0  0
   -0.9836   -0.5613    0.0000 C   0  0  0  0  0  0  0  0  0  0  0  0
   -1.1482    0.9296    0.0000 C   0  0  0  0  0  0  0  0  0  0  0  0
   -2.5216    1.5326    0.0000 C   0  0  0  0  0  0  0  0  0  0  0  0
    0.0607    1.8176    0.0000 N   0  0  0  0  0  0  0  0  0  0  0  0
    1.4342    1.2147    0.0000 N   0  0  0  0  0  0  0  0  0  0  0  0
    2.8077    0.6117    0.0000 N   0  0  0  0  0  0  0  0  0  0  0  0
    0.3899   -1.1643    0.0000 C   0  0  0  0  0  0  0  0  0  0  0  0
    1.5988   -0.2763    0.0000 O   0  0  0  0  0  0  0  0  0  0  0  0
    0.5545   -2.6552    0.0000 O   0  0  0  0  0  0  0  0  0  0  0  0
  2  1  1  1
  2  3  1  0
  3  4  1  1
  3  5  1  0
  5  6  2  0
  6  7  2  0
  2  8  1  0
  8  9  2  0
  8 10  1  0
M  CHG  2   6   1   7  -1
M  END
>  <rName>  (1731) 
Dap_3RMe_N3

>  <PQ_SYMBOL>  (1731) 
Dap_3RMe_N3

>  <FULL_NAME>  (1731) 
(2S,3R)-2-amino-3-azidobutanoic acid

>  <IUPAC_CONDENSED>  (1731) 
Dap(3R-Me,N3)

>  <IUPAC>  (1731) 
(2S,3R)-2-amino-3-azidobutanoic acid

>  <TYPE>  (1731) 
Backbone

>  <CLASS>  (1731) 
alpha

>  <ANALOG>  (1731) 
X

>  <MOL_WT>  (1731) 
144.13400000000001

>  <LOGP>  (1731) 
0.09709999999999991

>  <TPSA>  (1731) 
112.08

>  <POPULARITY>  (1731) 
5.5

>  <PROTECTED>  (1731) 
TRUE

>  <SMILES>  (1731) 
N[C@@H]([C@@H](C)N=[N+]=[N-])C(=O)O

>  <INCHIKEY>  (1731) 
VFSRYBKOKKWXQW-GBXIJSLDSA-N

$$$$
Dap_3SMe
     RDKit          2D

  8  7  0  0  0  0  0  0  0  0999 V2000
    0.0000   -2.0625    0.0000 N   0  0  0  0  0  0  0  0  0  0  0  0
    0.0000   -0.5625    0.0000 C   0  0  0  0  0  0  0  0  0  0  0  0
   -1.2990    0.1875    0.0000 C   0  0  0  0  0  0  0  0  0  0  0  0
   -2.5981   -0.5625    0.0000 C   0  0  0  0  0  0  0  0  0  0  0  0
   -1.2990    1.6875    0.0000 N   0  0  0  0  0  0  0  0  0  0  0  0
    1.2990    0.1875    0.0000 C   0  0  0  0  0  0  0  0  0  0  0  0
    1.2990    1.6875    0.0000 O   0  0  0  0  0  0  0  0  0  0  0  0
    2.5981   -0.5625    0.0000 O   0  0  0  0  0  0  0  0  0  0  0  0
  2  1  1  1
  2  3  1  0
  3  4  1  6
  3  5  1  0
  2  6  1  0
  6  7  2  0
  6  8  1  0
M  END
>  <rName>  (1732) 
Dap_3SMe

>  <PQ_SYMBOL>  (1732) 
Dap_3SMe

>  <FULL_NAME>  (1732) 
(2S,3S)-2,3-Diaminobutanoic acid

>  <IUPAC_CONDENSED>  (1732) 
Dap(3S-Me)

>  <IUPAC>  (1732) 
(2S,3S)-2,3-diaminobutanoic acid

>  <TYPE>  (1732) 
Backbone

>  <CLASS>  (1732) 
alpha

>  <ANALOG>  (1732) 
X

>  <MOL_WT>  (1732) 
118.136

>  <LOGP>  (1732) 
-1.2544999999999995

>  <TPSA>  (1732) 
89.34

>  <POPULARITY>  (1732) 
12.3

>  <PROTECTED>  (1732) 
TRUE

>  <SMILES>  (1732) 
N[C@@H]([C@H](C)N)C(=O)O

>  <INCHIKEY>  (1732) 
SXGMVGOVILIERA-HRFVKAFMSA-N

$$$$
Dap_3SMe_N3
     RDKit          2D

 10  9  0  0  0  0  0  0  0  0999 V2000
   -2.1925   -1.4493    0.0000 N   0  0  0  0  0  0  0  0  0  0  0  0
   -0.9836   -0.5613    0.0000 C   0  0  0  0  0  0  0  0  0  0  0  0
   -1.1482    0.9296    0.0000 C   0  0  0  0  0  0  0  0  0  0  0  0
   -2.5216    1.5326    0.0000 C   0  0  0  0  0  0  0  0  0  0  0  0
    0.0607    1.8176    0.0000 N   0  0  0  0  0  0  0  0  0  0  0  0
    1.4342    1.2147    0.0000 N   0  0  0  0  0  0  0  0  0  0  0  0
    2.8077    0.6117    0.0000 N   0  0  0  0  0  0  0  0  0  0  0  0
    0.3899   -1.1643    0.0000 C   0  0  0  0  0  0  0  0  0  0  0  0
    1.5988   -0.2763    0.0000 O   0  0  0  0  0  0  0  0  0  0  0  0
    0.5545   -2.6552    0.0000 O   0  0  0  0  0  0  0  0  0  0  0  0
  2  1  1  1
  2  3  1  0
  3  4  1  6
  3  5  1  0
  5  6  2  0
  6  7  2  0
  2  8  1  0
  8  9  2  0
  8 10  1  0
M  CHG  2   6   1   7  -1
M  END
>  <rName>  (1733) 
Dap_3SMe_N3

>  <PQ_SYMBOL>  (1733) 
Dap_3SMe_N3

>  <FULL_NAME>  (1733) 
(2S,3S)-2-amino-3-azidobutanoic acid

>  <IUPAC_CONDENSED>  (1733) 
Dap(3S-Me,N3)

>  <IUPAC>  (1733) 
(2S,3S)-2-amino-3-azidobutanoic acid

>  <TYPE>  (1733) 
Backbone

>  <CLASS>  (1733) 
alpha

>  <ANALOG>  (1733) 
X

>  <MOL_WT>  (1733) 
144.13400000000001

>  <LOGP>  (1733) 
0.09709999999999991

>  <TPSA>  (1733) 
112.08

>  <POPULARITY>  (1733) 
3.5

>  <PROTECTED>  (1733) 
TRUE

>  <SMILES>  (1733) 
N[C@@H]([C@H](C)N=[N+]=[N-])C(=O)O

>  <INCHIKEY>  (1733) 
VFSRYBKOKKWXQW-HRFVKAFMSA-N

$$$$
Dap_3SMe_amidino
     RDKit          2D

 11 10  0  0  0  0  0  0  0  0999 V2000
    0.1540   -1.5290    0.0000 N   0  0  0  0  0  0  0  0  0  0  0  0
   -0.6675   -0.2740    0.0000 C   0  0  0  0  0  0  0  0  0  0  0  0
    0.0086    1.0650    0.0000 C   0  0  0  0  0  0  0  0  0  0  0  0
   -0.8129    2.3200    0.0000 C   0  0  0  0  0  0  0  0  0  0  0  0
    1.5062    1.1490    0.0000 N   0  0  0  0  0  0  0  0  0  0  0  0
    2.3278   -0.1061    0.0000 C   0  0  0  0  0  0  0  0  0  0  0  0
    1.6517   -1.4450    0.0000 N   0  0  0  0  0  0  0  0  0  0  0  0
    3.8254   -0.0221    0.0000 N   0  0  0  0  0  0  0  0  0  0  0  0
   -2.1652   -0.3579    0.0000 C   0  0  0  0  0  0  0  0  0  0  0  0
   -2.9867    0.8971    0.0000 O   0  0  0  0  0  0  0  0  0  0  0  0
   -2.8413   -1.6969    0.0000 O   0  0  0  0  0  0  0  0  0  0  0  0
  2  1  1  6
  2  3  1  0
  3  4  1  6
  3  5  1  0
  5  6  1  0
  6  7  2  0
  6  8  1  0
  2  9  1  0
  9 10  2  0
  9 11  1  0
M  END
>  <rName>  (1734) 
Dap_3SMe_amidino

>  <PQ_SYMBOL>  (1734) 
Dap_3SMe_amidino

>  <FULL_NAME>  (1734) 
(2S,3S)-2-amino-3-(diaminomethylideneamino)butanoic acid

>  <IUPAC_CONDENSED>  (1734) 
Dap(3S-Me,amidino)

>  <IUPAC>  (1734) 
(2S,3S)-2-amino-3-(diaminomethylideneamino)butanoic acid

>  <TYPE>  (1734) 
Backbone

>  <CLASS>  (1734) 
alpha

>  <ANALOG>  (1734) 
Arg

>  <MOL_WT>  (1734) 
160.17700000000002

>  <LOGP>  (1734) 
-1.730129999999999

>  <TPSA>  (1734) 
125.22000000000001

>  <POPULARITY>  (1734) 
2.2

>  <PROTECTED>  (1734) 
TRUE

>  <SMILES>  (1734) 
N[C@@H]([C@H](C)NC(=N)N)C(=O)O

>  <INCHIKEY>  (1734) 
KVMBYCOEANMYOZ-HRFVKAFMSA-N

$$$$
Dap_4nitrobenzoxadiazol7yl
     RDKit          2D

 19 20  0  0  0  0  0  0  0  0999 V2000
    4.2804    1.7400    0.0000 N   0  0  0  0  0  0  0  0  0  0  0  0
    4.0303    0.2610    0.0000 C   0  0  0  0  0  0  0  0  0  0  0  0
    2.6244   -0.2620    0.0000 C   0  0  0  0  0  0  0  0  0  0  0  0
    1.4686    0.6941    0.0000 N   0  0  0  0  0  0  0  0  0  0  0  0
    0.0627    0.1712    0.0000 C   0  0  0  0  0  0  0  0  0  0  0  0
   -0.1874   -1.3078    0.0000 C   0  0  0  0  0  0  0  0  0  0  0  0
   -1.5933   -1.8308    0.0000 C   0  0  0  0  0  0  0  0  0  0  0  0
   -2.7491   -0.8747    0.0000 C   0  0  0  0  0  0  0  0  0  0  0  0
   -2.4990    0.6043    0.0000 C   0  0  0  0  0  0  0  0  0  0  0  0
   -3.4308    1.7798    0.0000 N   0  0  0  0  0  0  0  0  0  0  0  0
   -2.6008    3.0292    0.0000 O   0  0  0  0  0  0  0  0  0  0  0  0
   -1.1561    2.6259    0.0000 N   0  0  0  0  0  0  0  0  0  0  0  0
   -1.0931    1.1272    0.0000 C   0  0  0  0  0  0  0  0  0  0  0  0
   -4.1550   -1.3977    0.0000 N   0  0  0  0  0  0  0  0  0  0  0  0
   -5.3108   -0.4416    0.0000 O   0  0  0  0  0  0  0  0  0  0  0  0
   -4.4051   -2.8767    0.0000 O   0  0  0  0  0  0  0  0  0  0  0  0
    5.1861   -0.6951    0.0000 C   0  0  0  0  0  0  0  0  0  0  0  0
    4.9361   -2.1741    0.0000 O   0  0  0  0  0  0  0  0  0  0  0  0
    6.5920   -0.1721    0.0000 O   0  0  0  0  0  0  0  0  0  0  0  0
  2  1  1  6
  2  3  1  0
  3  4  1  0
  4  5  1  0
  5  6  2  0
  6  7  1  0
  7  8  2  0
  8  9  1  0
  9 10  2  0
 10 11  1  0
 11 12  1  0
 12 13  2  0
  8 14  1  0
 14 15  2  0
 14 16  1  0
  2 17  1  0
 17 18  2  0
 17 19  1  0
 13  5  1  0
 13  9  1  0
M  CHG  2  14   1  16  -1
M  END
>  <rName>  (1735) 
Dap_4nitrobenzoxadiazol7yl

>  <PQ_SYMBOL>  (1735) 
Dap_4nitrobenzoxadiazol7yl

>  <FULL_NAME>  (1735) 
3-[(7-Nitro-2,1,3-benzoxadiazol-4-yl)amino]-L-alanine

>  <IUPAC_CONDENSED>  (1735) 
Dap(4-nitrobenzoxadiazol-7-yl)

>  <IUPAC>  (1735) 
(2S)-2-amino-3-[(4-nitro-2,1,3-benzoxadiazol-7-yl)amino]propanoic acid

>  <TYPE>  (1735) 
Backbone

>  <CLASS>  (1735) 
alpha

>  <ANALOG>  (1735) 
X

>  <MOL_WT>  (1735) 
267.20099999999996

>  <LOGP>  (1735) 
-0.04520000000000063

>  <TPSA>  (1735) 
157.41

>  <POPULARITY>  (1735) 
2.2

>  <PROTECTED>  (1735) 
TRUE

>  <SMILES>  (1735) 
N[C@@H](CNc1(ccc(c2(nonc12))[N+](=O)[O-]))C(=O)O

>  <INCHIKEY>  (1735) 
XJSHCKMKWFWSIN-BYPYZUCNSA-N

$$$$
Dap_AEEA
     RDKit          2D

 17 16  0  0  0  0  0  0  0  0999 V2000
   -4.9623   -1.9967    0.0000 N   0  0  0  0  0  0  0  0  0  0  0  0
   -4.9658   -0.4967    0.0000 C   0  0  0  0  0  0  0  0  0  0  0  0
   -3.6685    0.2562    0.0000 C   0  0  0  0  0  0  0  0  0  0  0  0
   -2.3677   -0.4908    0.0000 N   0  0  0  0  0  0  0  0  0  0  0  0
   -1.0704    0.2622    0.0000 C   0  0  0  0  0  0  0  0  0  0  0  0
   -1.0739    1.7622    0.0000 O   0  0  0  0  0  0  0  0  0  0  0  0
    0.2304   -0.4848    0.0000 C   0  0  0  0  0  0  0  0  0  0  0  0
    1.5277    0.2682    0.0000 O   0  0  0  0  0  0  0  0  0  0  0  0
    2.8284   -0.4788    0.0000 C   0  0  0  0  0  0  0  0  0  0  0  0
    4.1257    0.2742    0.0000 C   0  0  0  0  0  0  0  0  0  0  0  0
    5.4265   -0.4728    0.0000 O   0  0  0  0  0  0  0  0  0  0  0  0
    6.7238    0.2802    0.0000 C   0  0  0  0  0  0  0  0  0  0  0  0
    8.0246   -0.4668    0.0000 C   0  0  0  0  0  0  0  0  0  0  0  0
    9.3219    0.2862    0.0000 N   0  0  0  0  0  0  0  0  0  0  0  0
   -6.2665    0.2503    0.0000 C   0  0  0  0  0  0  0  0  0  0  0  0
   -6.2700    1.7503    0.0000 O   0  0  0  0  0  0  0  0  0  0  0  0
   -7.5638   -0.5027    0.0000 O   0  0  0  0  0  0  0  0  0  0  0  0
  2  1  1  6
  2  3  1  0
  3  4  1  0
  4  5  1  0
  5  6  2  0
  5  7  1  0
  7  8  1  0
  8  9  1  0
  9 10  1  0
 10 11  1  0
 11 12  1  0
 12 13  1  0
 13 14  1  0
  2 15  1  0
 15 16  2  0
 15 17  1  0
M  END
>  <rName>  (1736) 
Dap_AEEA

>  <PQ_SYMBOL>  (1736) 
Dap_AEEA

>  <FULL_NAME>  (1736) 
(2S)-2-amino-3-[[2-[2-(2-aminoethoxy)ethoxy]acetyl]amino]propanoic acid

>  <IUPAC_CONDENSED>  (1736) 
Dap(AEEA)

>  <IUPAC>  (1736) 
(2S)-2-amino-3-[[2-[2-(2-aminoethoxy)ethoxy]acetyl]amino]propanoic acid

>  <TYPE>  (1736) 
Backbone

>  <CLASS>  (1736) 
alpha

>  <ANALOG>  (1736) 
X

>  <MOL_WT>  (1736) 
249.26699999999994

>  <LOGP>  (1736) 
-2.4935999999999963

>  <TPSA>  (1736) 
136.89999999999998

>  <POPULARITY>  (1736) 
2.2

>  <PROTECTED>  (1736) 
TRUE

>  <SMILES>  (1736) 
N[C@@H](CNC(=O)COCCOCCN)C(=O)O

>  <INCHIKEY>  (1736) 
YXCRGFGHXSBVDR-ZETCQYMHSA-N

$$$$
Dap_Aoa
     RDKit          2D

 12 11  0  0  0  0  0  0  0  0999 V2000
    2.1767    1.9873    0.0000 N   0  0  0  0  0  0  0  0  0  0  0  0
    2.1680    0.4873    0.0000 C   0  0  0  0  0  0  0  0  0  0  0  0
    0.8645   -0.2551    0.0000 C   0  0  0  0  0  0  0  0  0  0  0  0
   -0.4301    0.5025    0.0000 N   0  0  0  0  0  0  0  0  0  0  0  0
   -1.7335   -0.2399    0.0000 C   0  0  0  0  0  0  0  0  0  0  0  0
   -1.7423   -1.7398    0.0000 O   0  0  0  0  0  0  0  0  0  0  0  0
   -3.0281    0.5177    0.0000 C   0  0  0  0  0  0  0  0  0  0  0  0
   -4.3315   -0.2247    0.0000 O   0  0  0  0  0  0  0  0  0  0  0  0
   -5.6261    0.5329    0.0000 N   0  0  0  0  0  0  0  0  0  0  0  0
    3.4626   -0.2703    0.0000 C   0  0  0  0  0  0  0  0  0  0  0  0
    3.4538   -1.7702    0.0000 O   0  0  0  0  0  0  0  0  0  0  0  0
    4.7660    0.4721    0.0000 O   0  0  0  0  0  0  0  0  0  0  0  0
  2  1  1  6
  2  3  1  0
  3  4  1  0
  4  5  1  0
  5  6  2  0
  5  7  1  0
  7  8  1  0
  8  9  1  0
  2 10  1  0
 10 11  2  0
 10 12  1  0
M  END
>  <rName>  (1737) 
Dap_Aoa

>  <PQ_SYMBOL>  (1737) 
Dap_Aoa

>  <FULL_NAME>  (1737) 
(2S)-2-amino-3-[(2-aminooxyacetyl)amino]propanoic acid

>  <IUPAC_CONDENSED>  (1737) 
Dap(Aoa)

>  <IUPAC>  (1737) 
(2S)-2-amino-3-((aminooxy)methylcarbonylamino)propanoic acid

>  <TYPE>  (1737) 
Backbone

>  <CLASS>  (1737) 
alpha

>  <ANALOG>  (1737) 
X

>  <MOL_WT>  (1737) 
177.15999999999997

>  <LOGP>  (1737) 
-2.5951999999999984

>  <TPSA>  (1737) 
127.67

>  <POPULARITY>  (1737) 
6.4

>  <PROTECTED>  (1737) 
TRUE

>  <SMILES>  (1737) 
N[C@@H](CNC(=O)CON)C(=O)O

>  <INCHIKEY>  (1737) 
QRYWLXOBFZDEAD-VKHMYHEASA-N

$$$$
Dap_CONH2
     RDKit          2D

 10  9  0  0  0  0  0  0  0  0999 V2000
    1.2717    1.9622    0.0000 N   0  0  0  0  0  0  0  0  0  0  0  0
    1.1946    0.4642    0.0000 C   0  0  0  0  0  0  0  0  0  0  0  0
   -0.1413   -0.2180    0.0000 C   0  0  0  0  0  0  0  0  0  0  0  0
   -1.4001    0.5978    0.0000 N   0  0  0  0  0  0  0  0  0  0  0  0
   -2.7359   -0.0845    0.0000 C   0  0  0  0  0  0  0  0  0  0  0  0
   -2.8131   -1.5825    0.0000 O   0  0  0  0  0  0  0  0  0  0  0  0
   -3.9947    0.7313    0.0000 N   0  0  0  0  0  0  0  0  0  0  0  0
    2.4533   -0.3516    0.0000 C   0  0  0  0  0  0  0  0  0  0  0  0
    2.3762   -1.8496    0.0000 O   0  0  0  0  0  0  0  0  0  0  0  0
    3.7892    0.3306    0.0000 O   0  0  0  0  0  0  0  0  0  0  0  0
  2  1  1  6
  2  3  1  0
  3  4  1  0
  4  5  1  0
  5  6  2  0
  5  7  1  0
  2  8  1  0
  8  9  2  0
  8 10  1  0
M  END
>  <rName>  (1738) 
Dap_CONH2

>  <PQ_SYMBOL>  (1738) 
Dap_CONH2

>  <FULL_NAME>  (1738) 
Albizziin, 3-((aminocarbonyl)amino)-L-Alanine

>  <IUPAC_CONDENSED>  (1738) 
Dap(CONH2)

>  <IUPAC>  (1738) 
(2S)-2-amino-3-(carbamoylamino)propanoic acid

>  <TYPE>  (1738) 
Backbone

>  <CLASS>  (1738) 
alpha

>  <ANALOG>  (1738) 
Arg

>  <MOL_WT>  (1738) 
147.13400000000001

>  <LOGP>  (1738) 
-1.9333999999999998

>  <TPSA>  (1738) 
118.44000000000001

>  <POPULARITY>  (1738) 
10.5

>  <PROTECTED>  (1738) 
TRUE

>  <SMILES>  (1738) 
N[C@@H](CNC(=O)N)C(=O)O

>  <INCHIKEY>  (1738) 
GZYFIMLSHBLMKF-REOHCLBHSA-N

$$$$
Dap_EtNH2
     RDKit          2D

 10  9  0  0  0  0  0  0  0  0999 V2000
   -1.4166   -1.8843    0.0000 N   0  0  0  0  0  0  0  0  0  0  0  0
   -1.4265   -0.3844    0.0000 C   0  0  0  0  0  0  0  0  0  0  0  0
   -0.1324    0.3741    0.0000 C   0  0  0  0  0  0  0  0  0  0  0  0
    1.1716   -0.3673    0.0000 N   0  0  0  0  0  0  0  0  0  0  0  0
    2.4657    0.3912    0.0000 C   0  0  0  0  0  0  0  0  0  0  0  0
    3.7696   -0.3503    0.0000 C   0  0  0  0  0  0  0  0  0  0  0  0
    5.0637    0.4082    0.0000 N   0  0  0  0  0  0  0  0  0  0  0  0
   -2.7304    0.3571    0.0000 C   0  0  0  0  0  0  0  0  0  0  0  0
   -2.7402    1.8571    0.0000 O   0  0  0  0  0  0  0  0  0  0  0  0
   -4.0245   -0.4014    0.0000 O   0  0  0  0  0  0  0  0  0  0  0  0
  2  1  1  6
  2  3  1  0
  3  4  1  0
  4  5  1  0
  5  6  1  0
  6  7  1  0
  2  8  1  0
  8  9  2  0
  8 10  1  0
M  END
>  <rName>  (1739) 
Dap_EtNH2

>  <PQ_SYMBOL>  (1739) 
Dap_EtNH2

>  <FULL_NAME>  (1739) 
4-Azalysine

>  <IUPAC_CONDENSED>  (1739) 
Dap(EtNH2)

>  <IUPAC>  (1739) 
(2S)-2-amino-3-((2-aminoethyl)amino)propanoic acid

>  <TYPE>  (1739) 
Backbone

>  <CLASS>  (1739) 
alpha

>  <ANALOG>  (1739) 
X

>  <MOL_WT>  (1739) 
147.17800000000003

>  <LOGP>  (1739) 
-2.053399999999999

>  <TPSA>  (1739) 
101.36999999999999

>  <POPULARITY>  (1739) 
12.4

>  <PROTECTED>  (1739) 
TRUE

>  <SMILES>  (1739) 
N[C@@H](CNCCN)C(=O)O

>  <INCHIKEY>  (1739) 
WVXAXDTZEMZHQB-BYPYZUCNSA-N

$$$$
Dap_Me
     RDKit          2D

  8  7  0  0  0  0  0  0  0  0999 V2000
   -0.2517   -1.8862    0.0000 N   0  0  0  0  0  0  0  0  0  0  0  0
   -0.3100   -0.3873    0.0000 C   0  0  0  0  0  0  0  0  0  0  0  0
    0.9590    0.4126    0.0000 C   0  0  0  0  0  0  0  0  0  0  0  0
    2.2862   -0.2864    0.0000 N   0  0  0  0  0  0  0  0  0  0  0  0
    3.5551    0.5134    0.0000 C   0  0  0  0  0  0  0  0  0  0  0  0
   -1.6371    0.3117    0.0000 C   0  0  0  0  0  0  0  0  0  0  0  0
   -1.6954    1.8105    0.0000 O   0  0  0  0  0  0  0  0  0  0  0  0
   -2.9061   -0.4882    0.0000 O   0  0  0  0  0  0  0  0  0  0  0  0
  2  1  1  6
  2  3  1  0
  3  4  1  0
  4  5  1  0
  2  6  1  0
  6  7  2  0
  6  8  1  0
M  END
>  <rName>  (1740) 
Dap_Me

>  <PQ_SYMBOL>  (1740) 
Dap_Me

>  <FULL_NAME>  (1740) 
Beta-N-Methylamino-L-Alanine

>  <IUPAC_CONDENSED>  (1740) 
Dap(Me)

>  <IUPAC>  (1740) 
(2S)-2-amino-3-(methylamino)propanoic acid

>  <TYPE>  (1740) 
Backbone

>  <CLASS>  (1740) 
alpha

>  <ANALOG>  (1740) 
X

>  <MOL_WT>  (1740) 
118.13599999999998

>  <LOGP>  (1740) 
-1.3822999999999996

>  <TPSA>  (1740) 
75.35

>  <POPULARITY>  (1740) 
23.4

>  <PROTECTED>  (1740) 
TRUE

>  <SMILES>  (1740) 
N[C@@H](CNC)C(=O)O

>  <INCHIKEY>  (1740) 
UJVHVMNGOZXSOZ-VKHMYHEASA-N

$$$$
Dap_Me2
     RDKit          2D

  9  8  0  0  0  0  0  0  0  0999 V2000
    0.2826   -1.7410    0.0000 N   0  0  0  0  0  0  0  0  0  0  0  0
    0.5402   -0.2633    0.0000 C   0  0  0  0  0  0  0  0  0  0  0  0
   -0.6108    0.6986    0.0000 C   0  0  0  0  0  0  0  0  0  0  0  0
   -2.0193    0.1828    0.0000 N   0  0  0  0  0  0  0  0  0  0  0  0
   -3.1703    1.1447    0.0000 C   0  0  0  0  0  0  0  0  0  0  0  0
   -2.2769   -1.2950    0.0000 C   0  0  0  0  0  0  0  0  0  0  0  0
    1.9487    0.2525    0.0000 C   0  0  0  0  0  0  0  0  0  0  0  0
    2.2062    1.7302    0.0000 O   0  0  0  0  0  0  0  0  0  0  0  0
    3.0997   -0.7094    0.0000 O   0  0  0  0  0  0  0  0  0  0  0  0
  2  1  1  1
  2  3  1  0
  3  4  1  0
  4  5  1  0
  4  6  1  0
  2  7  1  0
  7  8  2  0
  7  9  1  0
M  END
>  <rName>  (1741) 
Dap_Me2

>  <PQ_SYMBOL>  (1741) 
Dap_Me2

>  <FULL_NAME>  (1741) 
3-(Dimethylamino)-L-Alanine

>  <IUPAC_CONDENSED>  (1741) 
Dap(Me2)

>  <IUPAC>  (1741) 
(2S)-2-amino-3-(dimethylamino)propanoic acid

>  <TYPE>  (1741) 
Backbone

>  <CLASS>  (1741) 
alpha

>  <ANALOG>  (1741) 
X

>  <MOL_WT>  (1741) 
132.16299999999998

>  <LOGP>  (1741) 
-1.0400999999999994

>  <TPSA>  (1741) 
66.56

>  <POPULARITY>  (1741) 
13.7

>  <PROTECTED>  (1741) 
TRUE

>  <SMILES>  (1741) 
N[C@@H](CN(C)C)C(=O)O

>  <INCHIKEY>  (1741) 
KEZRWUUMKVVUPT-BYPYZUCNSA-N

$$$$
Dap_Me_Ph
     RDKit          2D

 14 14  0  0  0  0  0  0  0  0999 V2000
    2.6678   -1.7574    0.0000 N   0  0  0  0  0  0  0  0  0  0  0  0
    2.4057   -0.2804    0.0000 C   0  0  0  0  0  0  0  0  0  0  0  0
    0.9956    0.2311    0.0000 C   0  0  0  0  0  0  0  0  0  0  0  0
   -0.1524   -0.7344    0.0000 N   0  0  0  0  0  0  0  0  0  0  0  0
    0.1097   -2.2113    0.0000 C   0  0  0  0  0  0  0  0  0  0  0  0
   -1.5625   -0.2228    0.0000 C   0  0  0  0  0  0  0  0  0  0  0  0
   -2.7105   -1.1883    0.0000 C   0  0  0  0  0  0  0  0  0  0  0  0
   -4.1206   -0.6768    0.0000 C   0  0  0  0  0  0  0  0  0  0  0  0
   -4.3827    0.8002    0.0000 C   0  0  0  0  0  0  0  0  0  0  0  0
   -3.2347    1.7656    0.0000 C   0  0  0  0  0  0  0  0  0  0  0  0
   -1.8246    1.2541    0.0000 C   0  0  0  0  0  0  0  0  0  0  0  0
    3.5537    0.6850    0.0000 C   0  0  0  0  0  0  0  0  0  0  0  0
    3.2917    2.1619    0.0000 O   0  0  0  0  0  0  0  0  0  0  0  0
    4.9638    0.1735    0.0000 O   0  0  0  0  0  0  0  0  0  0  0  0
  2  1  1  1
  2  3  1  0
  3  4  1  0
  4  5  1  0
  4  6  1  0
  6  7  2  0
  7  8  1  0
  8  9  2  0
  9 10  1  0
 10 11  2  0
  2 12  1  0
 12 13  2  0
 12 14  1  0
 11  6  1  0
M  END
>  <rName>  (1742) 
Dap_Me_Ph

>  <PQ_SYMBOL>  (1742) 
Dap_Me_Ph

>  <FULL_NAME>  (1742) 
(S)-2-amino-3-(methyl(phenyl)amino)propanoic acid

>  <IUPAC_CONDENSED>  (1742) 
Dap(Me,Ph)

>  <IUPAC>  (1742) 
(2S)-2-amino-3-((methyl)(phenyl)amino)propanoic acid

>  <TYPE>  (1742) 
Backbone

>  <CLASS>  (1742) 
alpha

>  <ANALOG>  (1742) 
X

>  <MOL_WT>  (1742) 
194.23399999999998

>  <LOGP>  (1742) 
0.5346999999999997

>  <TPSA>  (1742) 
66.56

>  <POPULARITY>  (1742) 
8.5

>  <PROTECTED>  (1742) 
TRUE

>  <SMILES>  (1742) 
N[C@@H](CN(C)c1(ccccc1))C(=O)O

>  <INCHIKEY>  (1742) 
ZUWLVTBZWZLXHO-VIFPVBQESA-N

$$$$
Dap_Ph
     RDKit          2D

 13 13  0  0  0  0  0  0  0  0999 V2000
   -2.6715   -1.9340    0.0000 N   0  0  0  0  0  0  0  0  0  0  0  0
   -2.4130   -0.4565    0.0000 C   0  0  0  0  0  0  0  0  0  0  0  0
   -1.0042    0.0585    0.0000 C   0  0  0  0  0  0  0  0  0  0  0  0
    0.1462   -0.9041    0.0000 N   0  0  0  0  0  0  0  0  0  0  0  0
    1.5550   -0.3891    0.0000 C   0  0  0  0  0  0  0  0  0  0  0  0
    1.8135    1.0885    0.0000 C   0  0  0  0  0  0  0  0  0  0  0  0
    3.2223    1.6034    0.0000 C   0  0  0  0  0  0  0  0  0  0  0  0
    4.3727    0.6408    0.0000 C   0  0  0  0  0  0  0  0  0  0  0  0
    4.1143   -0.8367    0.0000 C   0  0  0  0  0  0  0  0  0  0  0  0
    2.7054   -1.3517    0.0000 C   0  0  0  0  0  0  0  0  0  0  0  0
   -3.5634    0.5061    0.0000 C   0  0  0  0  0  0  0  0  0  0  0  0
   -3.3050    1.9837    0.0000 O   0  0  0  0  0  0  0  0  0  0  0  0
   -4.9723   -0.0089    0.0000 O   0  0  0  0  0  0  0  0  0  0  0  0
  2  1  1  6
  2  3  1  0
  3  4  1  0
  4  5  1  0
  5  6  2  0
  6  7  1  0
  7  8  2  0
  8  9  1  0
  9 10  2  0
  2 11  1  0
 11 12  2  0
 11 13  1  0
 10  5  1  0
M  END
>  <rName>  (1743) 
Dap_Ph

>  <PQ_SYMBOL>  (1743) 
Dap_Ph

>  <FULL_NAME>  (1743) 
3-(Phenylamino)alanine

>  <IUPAC_CONDENSED>  (1743) 
Dap(Ph)

>  <IUPAC>  (1743) 
(2S)-2-amino-3-anilinopropanoic acid

>  <TYPE>  (1743) 
Backbone

>  <CLASS>  (1743) 
alpha

>  <ANALOG>  (1743) 
X

>  <MOL_WT>  (1743) 
180.20699999999997

>  <LOGP>  (1743) 
0.5103999999999993

>  <TPSA>  (1743) 
75.35

>  <POPULARITY>  (1743) 
2.2

>  <PROTECTED>  (1743) 
TRUE

>  <SMILES>  (1743) 
N[C@@H](CNc1(ccccc1))C(=O)O

>  <INCHIKEY>  (1743) 
HLZOBKHLQBRIJP-QMMMGPOBSA-N

$$$$
Dap_Poc
     RDKit          2D

 13 12  0  0  0  0  0  0  0  0999 V2000
   -2.6044   -2.0300    0.0000 N   0  0  0  0  0  0  0  0  0  0  0  0
   -2.6757   -0.5317    0.0000 C   0  0  0  0  0  0  0  0  0  0  0  0
   -1.4138    0.2792    0.0000 C   0  0  0  0  0  0  0  0  0  0  0  0
   -0.0806   -0.4081    0.0000 N   0  0  0  0  0  0  0  0  0  0  0  0
    1.1813    0.4028    0.0000 C   0  0  0  0  0  0  0  0  0  0  0  0
    1.1099    1.9011    0.0000 O   0  0  0  0  0  0  0  0  0  0  0  0
    2.5145   -0.2845    0.0000 O   0  0  0  0  0  0  0  0  0  0  0  0
    3.7764    0.5264    0.0000 C   0  0  0  0  0  0  0  0  0  0  0  0
    5.1097   -0.1610    0.0000 C   0  0  0  0  0  0  0  0  0  0  0  0
    6.4429   -0.8483    0.0000 C   0  0  0  0  0  0  0  0  0  0  0  0
   -4.0090    0.1556    0.0000 C   0  0  0  0  0  0  0  0  0  0  0  0
   -4.0803    1.6539    0.0000 O   0  0  0  0  0  0  0  0  0  0  0  0
   -5.2709   -0.6553    0.0000 O   0  0  0  0  0  0  0  0  0  0  0  0
  2  1  1  6
  2  3  1  0
  3  4  1  0
  4  5  1  0
  5  6  2  0
  5  7  1  0
  7  8  1  0
  8  9  1  0
  9 10  3  0
  2 11  1  0
 11 12  2  0
 11 13  1  0
M  END
>  <rName>  (1744) 
Dap_Poc

>  <PQ_SYMBOL>  (1744) 
Dap_Poc

>  <FULL_NAME>  (1744) 
Nα-Fmoc- Nβ-(propargyloxy)carbonyl-L-2,3-diaminopropionic acid

>  <IUPAC_CONDENSED>  (1744) 
Dap(Poc)

>  <IUPAC>  (1744) 
(2S)-2-amino-3-((prop-2-yn-1-yl)oxycarbonylamino)propanoic acid

>  <TYPE>  (1744) 
Backbone

>  <CLASS>  (1744) 
alpha

>  <ANALOG>  (1744) 
X

>  <MOL_WT>  (1744) 
186.167

>  <LOGP>  (1744) 
-1.242299999999999

>  <TPSA>  (1744) 
101.64999999999999

>  <POPULARITY>  (1744) 
5.0

>  <PROTECTED>  (1744) 
TRUE

>  <SMILES>  (1744) 
N[C@@H](CNC(=O)OCC#C)C(=O)O

>  <INCHIKEY>  (1744) 
DPLCBUVRFWVIMS-YFKPBYRVSA-N

$$$$
Dap_acetyl
     RDKit          2D

 10  9  0  0  0  0  0  0  0  0999 V2000
   -1.2717    1.9622    0.0000 N   0  0  0  0  0  0  0  0  0  0  0  0
   -1.1946    0.4642    0.0000 C   0  0  0  0  0  0  0  0  0  0  0  0
    0.1413   -0.2180    0.0000 C   0  0  0  0  0  0  0  0  0  0  0  0
    1.4001    0.5978    0.0000 N   0  0  0  0  0  0  0  0  0  0  0  0
    2.7359   -0.0845    0.0000 C   0  0  0  0  0  0  0  0  0  0  0  0
    2.8131   -1.5825    0.0000 O   0  0  0  0  0  0  0  0  0  0  0  0
    3.9947    0.7313    0.0000 C   0  0  0  0  0  0  0  0  0  0  0  0
   -2.4533   -0.3516    0.0000 C   0  0  0  0  0  0  0  0  0  0  0  0
   -2.3762   -1.8496    0.0000 O   0  0  0  0  0  0  0  0  0  0  0  0
   -3.7892    0.3306    0.0000 O   0  0  0  0  0  0  0  0  0  0  0  0
  2  1  1  1
  2  3  1  0
  3  4  1  0
  4  5  1  0
  5  6  2  0
  5  7  1  0
  2  8  1  0
  8  9  2  0
  8 10  1  0
M  END
>  <rName>  (1745) 
Dap_acetyl

>  <PQ_SYMBOL>  (1745) 
Dap_acetyl

>  <FULL_NAME>  (1745) 
(2S)-3-Acetamido-2-aminopropanoic acid

>  <IUPAC_CONDENSED>  (1745) 
Dap(Ac)

>  <IUPAC>  (1745) 
(2S)-2-amino-3-methylcarbonylaminopropanoic acid

>  <TYPE>  (1745) 
Backbone

>  <CLASS>  (1745) 
alpha

>  <ANALOG>  (1745) 
X

>  <MOL_WT>  (1745) 
146.146

>  <LOGP>  (1745) 
-1.4655999999999998

>  <TPSA>  (1745) 
92.42

>  <POPULARITY>  (1745) 
17.5

>  <PROTECTED>  (1745) 
TRUE

>  <SMILES>  (1745) 
N[C@@H](CNC(=O)C)C(=O)O

>  <INCHIKEY>  (1745) 
YSPAKPPINKSOKX-BYPYZUCNSA-N

$$$$
Dap_indolin1yl
     RDKit          2D

 15 16  0  0  0  0  0  0  0  0999 V2000
   -2.6183   -1.7023    0.0000 N   0  0  0  0  0  0  0  0  0  0  0  0
   -2.5622   -0.2034    0.0000 C   0  0  0  0  0  0  0  0  0  0  0  0
   -1.2360    0.4975    0.0000 C   0  0  0  0  0  0  0  0  0  0  0  0
    0.0341   -0.3006    0.0000 N   0  0  0  0  0  0  0  0  0  0  0  0
    0.1349   -1.7972    0.0000 C   0  0  0  0  0  0  0  0  0  0  0  0
    1.5895   -2.1637    0.0000 C   0  0  0  0  0  0  0  0  0  0  0  0
    2.3875   -0.8937    0.0000 C   0  0  0  0  0  0  0  0  0  0  0  0
    3.8654   -0.6369    0.0000 C   0  0  0  0  0  0  0  0  0  0  0  0
    4.3820    0.7713    0.0000 C   0  0  0  0  0  0  0  0  0  0  0  0
    3.4207    1.9228    0.0000 C   0  0  0  0  0  0  0  0  0  0  0  0
    1.9429    1.6661    0.0000 C   0  0  0  0  0  0  0  0  0  0  0  0
    1.4263    0.2578    0.0000 C   0  0  0  0  0  0  0  0  0  0  0  0
   -3.8322    0.5947    0.0000 C   0  0  0  0  0  0  0  0  0  0  0  0
   -3.7761    2.0937    0.0000 O   0  0  0  0  0  0  0  0  0  0  0  0
   -5.1584   -0.1061    0.0000 O   0  0  0  0  0  0  0  0  0  0  0  0
  2  1  1  6
  2  3  1  0
  3  4  1  0
  4  5  1  0
  5  6  1  0
  6  7  1  0
  7  8  2  0
  8  9  1  0
  9 10  2  0
 10 11  1  0
 11 12  2  0
  2 13  1  0
 13 14  2  0
 13 15  1  0
 12  4  1  0
 12  7  1  0
M  END
>  <rName>  (1746) 
Dap_indolin1yl

>  <PQ_SYMBOL>  (1746) 
Dap_indolin1yl

>  <FULL_NAME>  (1746) 
β-(indolin-1-yl)-L-alanine

>  <IUPAC_CONDENSED>  (1746) 
Dap(indolin-1-yl)

>  <IUPAC>  (1746) 
(2S)-2-amino-3-(indolin-1-yl)propanoic acid

>  <TYPE>  (1746) 
Backbone

>  <CLASS>  (1746) 
alpha

>  <ANALOG>  (1746) 
X

>  <MOL_WT>  (1746) 
206.24499999999998

>  <LOGP>  (1746) 
0.4609999999999996

>  <TPSA>  (1746) 
66.56

>  <POPULARITY>  (1746) 
4.9

>  <PROTECTED>  (1746) 
TRUE

>  <SMILES>  (1746) 
N[C@@H](CN1(CCc2(ccccc12)))C(=O)O

>  <INCHIKEY>  (1746) 
REKCTHBDOVVJFL-VIFPVBQESA-N

$$$$
Dap_naphth2yl
     RDKit          2D

 20 21  0  0  0  0  0  0  0  0999 V2000
   -5.2795   -1.8306    0.0000 N   0  0  0  0  0  0  0  0  0  0  0  0
   -4.9794   -0.3609    0.0000 C   0  0  0  0  0  0  0  0  0  0  0  0
   -3.5565    0.1140    0.0000 C   0  0  0  0  0  0  0  0  0  0  0  0
   -2.4338   -0.8808    0.0000 N   0  0  0  0  0  0  0  0  0  0  0  0
   -1.0110   -0.4059    0.0000 C   0  0  0  0  0  0  0  0  0  0  0  0
   -0.7108    1.0638    0.0000 C   0  0  0  0  0  0  0  0  0  0  0  0
    0.7120    1.5386    0.0000 C   0  0  0  0  0  0  0  0  0  0  0  0
    1.8347    0.5439    0.0000 C   0  0  0  0  0  0  0  0  0  0  0  0
    3.2575    1.0188    0.0000 C   0  0  0  0  0  0  0  0  0  0  0  0
    4.3802    0.0240    0.0000 C   0  0  0  0  0  0  0  0  0  0  0  0
    4.0801   -1.4457    0.0000 C   0  0  0  0  0  0  0  0  0  0  0  0
    2.6572   -1.9206    0.0000 C   0  0  0  0  0  0  0  0  0  0  0  0
    1.5345   -0.9258    0.0000 C   0  0  0  0  0  0  0  0  0  0  0  0
    0.1117   -1.4007    0.0000 C   0  0  0  0  0  0  0  0  0  0  0  0
    5.8031    0.4989    0.0000 C   0  0  0  0  0  0  0  0  0  0  0  0
    6.1032    1.9686    0.0000 O   0  0  0  0  0  0  0  0  0  0  0  0
    6.9257   -0.4959    0.0000 C   0  0  0  0  0  0  0  0  0  0  0  0
   -6.1021    0.6338    0.0000 C   0  0  0  0  0  0  0  0  0  0  0  0
   -5.8019    2.1035    0.0000 O   0  0  0  0  0  0  0  0  0  0  0  0
   -7.5249    0.1589    0.0000 O   0  0  0  0  0  0  0  0  0  0  0  0
  2  1  1  6
  2  3  1  0
  3  4  1  0
  4  5  1  0
  5  6  1  0
  6  7  2  0
  7  8  1  0
  8  9  2  0
  9 10  1  0
 10 11  2  0
 11 12  1  0
 12 13  2  0
 13 14  1  0
 10 15  1  0
 15 16  2  0
 15 17  1  0
  2 18  1  0
 18 19  2  0
 18 20  1  0
 13  8  1  0
 14  5  2  0
M  END
>  <rName>  (1747) 
Dap_naphth2yl

>  <PQ_SYMBOL>  (1747) 
Dap_naphth2yl

>  <FULL_NAME>  (1747) 
L-Anap

>  <IUPAC_CONDENSED>  (1747) 
Dap(naphth-2-yl)

>  <IUPAC>  (1747) 
(2S)-3-[(6-acetylnaphthalen-2-yl)amino]-2-aminopropanoic acid

>  <TYPE>  (1747) 
Backbone

>  <CLASS>  (1747) 
alpha

>  <ANALOG>  (1747) 
X

>  <MOL_WT>  (1747) 
272.304

>  <LOGP>  (1747) 
1.8661999999999996

>  <TPSA>  (1747) 
92.42

>  <POPULARITY>  (1747) 
2.2

>  <PROTECTED>  (1747) 
TRUE

>  <SMILES>  (1747) 
N[C@@H](CNc2(ccc1(cc(ccc1c2)C(=O)C)))C(=O)O

>  <INCHIKEY>  (1747) 
XKZCXMNMUMGDJG-AWEZNQCLSA-N

$$$$
Dap_nicotinoyl
     RDKit          2D

 17 17  0  0  0  0  0  0  0  0999 V2000
   -3.4243    2.0971    0.0000 N   0  0  0  0  0  0  0  0  0  0  0  0
   -3.7762    0.6389    0.0000 C   0  0  0  0  0  0  0  0  0  0  0  0
   -2.6893   -0.3949    0.0000 C   0  0  0  0  0  0  0  0  0  0  0  0
   -1.2506    0.0295    0.0000 N   0  0  0  0  0  0  0  0  0  0  0  0
   -0.1637   -1.0043    0.0000 C   0  0  0  0  0  0  0  0  0  0  0  0
   -0.5156   -2.4625    0.0000 O   0  0  0  0  0  0  0  0  0  0  0  0
    1.2750   -0.5800    0.0000 C   0  0  0  0  0  0  0  0  0  0  0  0
    1.6268    0.8782    0.0000 C   0  0  0  0  0  0  0  0  0  0  0  0
    3.0656    1.3025    0.0000 C   0  0  0  0  0  0  0  0  0  0  0  0
    4.1524    0.2688    0.0000 C   0  0  0  0  0  0  0  0  0  0  0  0
    5.5911    0.6931    0.0000 C   0  0  0  0  0  0  0  0  0  0  0  0
    7.0299    1.1175    0.0000 N   0  0  0  0  0  0  0  0  0  0  0  0
    3.8006   -1.1894    0.0000 N   0  0  0  0  0  0  0  0  0  0  0  0
    2.3618   -1.6138    0.0000 C   0  0  0  0  0  0  0  0  0  0  0  0
   -5.2149    0.2146    0.0000 C   0  0  0  0  0  0  0  0  0  0  0  0
   -5.5668   -1.2436    0.0000 O   0  0  0  0  0  0  0  0  0  0  0  0
   -6.3018    1.2483    0.0000 O   0  0  0  0  0  0  0  0  0  0  0  0
  2  1  1  1
  2  3  1  0
  3  4  1  0
  4  5  1  0
  5  6  2  0
  5  7  1  0
  7  8  1  0
  8  9  2  0
  9 10  1  0
 10 11  1  0
 11 12  3  0
 10 13  2  0
 13 14  1  0
  2 15  1  0
 15 16  2  0
 15 17  1  0
 14  7  2  0
M  END
>  <rName>  (1748) 
Dap_nicotinoyl

>  <PQ_SYMBOL>  (1748) 
Dap_nicotinoyl

>  <FULL_NAME>  (1748) 
Dap(nicotinoyl)

>  <IUPAC_CONDENSED>  (1748) 
Dap(nicotinoyl)

>  <IUPAC>  (1748) 
(2S)-2-amino-3-(6-(nitrilomethyl)pyridin-3-ylcarbonylamino)propanoic acid

>  <TYPE>  (1748) 
Backbone

>  <CLASS>  (1748) 
alpha

>  <ANALOG>  (1748) 
X

>  <MOL_WT>  (1748) 
234.21499999999997

>  <LOGP>  (1748) 
-0.9050199999999997

>  <TPSA>  (1748) 
129.1

>  <POPULARITY>  (1748) 
2.2

>  <PROTECTED>  (1748) 
TRUE

>  <SMILES>  (1748) 
N[C@@H](CNC(=O)c1(ccc(C#N)nc1))C(=O)O

>  <INCHIKEY>  (1748) 
MPSCSPOGZYTHFN-QMMMGPOBSA-N

$$$$
Dap_octanoyl
     RDKit          2D

 16 15  0  0  0  0  0  0  0  0999 V2000
    4.3638   -2.0137    0.0000 N   0  0  0  0  0  0  0  0  0  0  0  0
    4.3792   -0.5138    0.0000 C   0  0  0  0  0  0  0  0  0  0  0  0
    3.0879    0.2495    0.0000 C   0  0  0  0  0  0  0  0  0  0  0  0
    1.7813   -0.4871    0.0000 N   0  0  0  0  0  0  0  0  0  0  0  0
    0.4900    0.2762    0.0000 C   0  0  0  0  0  0  0  0  0  0  0  0
    0.5054    1.7761    0.0000 O   0  0  0  0  0  0  0  0  0  0  0  0
   -0.8167   -0.4604    0.0000 C   0  0  0  0  0  0  0  0  0  0  0  0
   -2.1079    0.3029    0.0000 C   0  0  0  0  0  0  0  0  0  0  0  0
   -3.4146   -0.4337    0.0000 C   0  0  0  0  0  0  0  0  0  0  0  0
   -4.7059    0.3297    0.0000 C   0  0  0  0  0  0  0  0  0  0  0  0
   -6.0126   -0.4069    0.0000 C   0  0  0  0  0  0  0  0  0  0  0  0
   -7.3038    0.3564    0.0000 C   0  0  0  0  0  0  0  0  0  0  0  0
   -8.6105   -0.3802    0.0000 C   0  0  0  0  0  0  0  0  0  0  0  0
    5.6859    0.2228    0.0000 C   0  0  0  0  0  0  0  0  0  0  0  0
    5.7013    1.7227    0.0000 O   0  0  0  0  0  0  0  0  0  0  0  0
    6.9771   -0.5405    0.0000 O   0  0  0  0  0  0  0  0  0  0  0  0
  2  1  1  1
  2  3  1  0
  3  4  1  0
  4  5  1  0
  5  6  2  0
  5  7  1  0
  7  8  1  0
  8  9  1  0
  9 10  1  0
 10 11  1  0
 11 12  1  0
 12 13  1  0
  2 14  1  0
 14 15  2  0
 14 16  1  0
M  END
>  <rName>  (1749) 
Dap_octanoyl

>  <PQ_SYMBOL>  (1749) 
Dap_octanoyl

>  <FULL_NAME>  (1749) 
(S)-2-amino-3-octanamidopropanoic acid

>  <IUPAC_CONDENSED>  (1749) 
Dap(octanoyl)

>  <IUPAC>  (1749) 
(2S)-2-amino-3-heptylcarbonylaminopropanoic acid

>  <TYPE>  (1749) 
Backbone

>  <CLASS>  (1749) 
alpha

>  <ANALOG>  (1749) 
X

>  <MOL_WT>  (1749) 
230.30799999999994

>  <LOGP>  (1749) 
0.8749999999999991

>  <TPSA>  (1749) 
92.42

>  <POPULARITY>  (1749) 
8.6

>  <PROTECTED>  (1749) 
TRUE

>  <SMILES>  (1749) 
N[C@@H](CNC(=O)CCCCCCC)C(=O)O

>  <INCHIKEY>  (1749) 
HXEZOTNYGXMRDJ-VIFPVBQESA-N

$$$$
Dap_palmitoyl
     RDKit          2D

 24 23  0  0  0  0  0  0  0  0999 V2000
    9.1851   -2.0141    0.0000 N   0  0  0  0  0  0  0  0  0  0  0  0
    9.1976   -0.5142    0.0000 C   0  0  0  0  0  0  0  0  0  0  0  0
    7.9048    0.2466    0.0000 C   0  0  0  0  0  0  0  0  0  0  0  0
    6.5996   -0.4925    0.0000 N   0  0  0  0  0  0  0  0  0  0  0  0
    5.3068    0.2683    0.0000 C   0  0  0  0  0  0  0  0  0  0  0  0
    5.3193    1.7682    0.0000 O   0  0  0  0  0  0  0  0  0  0  0  0
    4.0016   -0.4709    0.0000 C   0  0  0  0  0  0  0  0  0  0  0  0
    2.7088    0.2899    0.0000 C   0  0  0  0  0  0  0  0  0  0  0  0
    1.4036   -0.4492    0.0000 C   0  0  0  0  0  0  0  0  0  0  0  0
    0.1109    0.3116    0.0000 C   0  0  0  0  0  0  0  0  0  0  0  0
   -1.1944   -0.4276    0.0000 C   0  0  0  0  0  0  0  0  0  0  0  0
   -2.4871    0.3332    0.0000 C   0  0  0  0  0  0  0  0  0  0  0  0
   -3.7924   -0.4059    0.0000 C   0  0  0  0  0  0  0  0  0  0  0  0
   -5.0851    0.3549    0.0000 C   0  0  0  0  0  0  0  0  0  0  0  0
   -6.3904   -0.3842    0.0000 C   0  0  0  0  0  0  0  0  0  0  0  0
   -7.6831    0.3766    0.0000 C   0  0  0  0  0  0  0  0  0  0  0  0
   -8.9883   -0.3626    0.0000 C   0  0  0  0  0  0  0  0  0  0  0  0
  -10.2811    0.3982    0.0000 C   0  0  0  0  0  0  0  0  0  0  0  0
  -11.5863   -0.3409    0.0000 C   0  0  0  0  0  0  0  0  0  0  0  0
  -12.8791    0.4199    0.0000 C   0  0  0  0  0  0  0  0  0  0  0  0
  -14.1843   -0.3193    0.0000 C   0  0  0  0  0  0  0  0  0  0  0  0
   10.5028    0.2250    0.0000 C   0  0  0  0  0  0  0  0  0  0  0  0
   10.5153    1.7249    0.0000 O   0  0  0  0  0  0  0  0  0  0  0  0
   11.7955   -0.5358    0.0000 O   0  0  0  0  0  0  0  0  0  0  0  0
  2  1  1  1
  2  3  1  0
  3  4  1  0
  4  5  1  0
  5  6  2  0
  5  7  1  0
  7  8  1  0
  8  9  1  0
  9 10  1  0
 10 11  1  0
 11 12  1  0
 12 13  1  0
 13 14  1  0
 14 15  1  0
 15 16  1  0
 16 17  1  0
 17 18  1  0
 18 19  1  0
 19 20  1  0
 20 21  1  0
  2 22  1  0
 22 23  2  0
 22 24  1  0
M  END
>  <rName>  (1750) 
Dap_palmitoyl

>  <PQ_SYMBOL>  (1750) 
Dap_palmitoyl

>  <FULL_NAME>  (1750) 
(2S)-2-amino-3-(hexadecanoylamino)propanoic acid

>  <IUPAC_CONDENSED>  (1750) 
Dap(palmitoyl)

>  <IUPAC>  (1750) 
(2S)-2-amino-3-(pentadecylcarbonylamino)propanoic acid

>  <TYPE>  (1750) 
Backbone

>  <CLASS>  (1750) 
alpha

>  <ANALOG>  (1750) 
X

>  <MOL_WT>  (1750) 
342.524

>  <LOGP>  (1750) 
3.995800000000002

>  <TPSA>  (1750) 
92.42

>  <POPULARITY>  (1750) 
6.2

>  <PROTECTED>  (1750) 
TRUE

>  <SMILES>  (1750) 
N[C@@H](CNC(=O)CCCCCCCCCCCCCCC)C(=O)O

>  <INCHIKEY>  (1750) 
GINVXRGMDPCNIE-KRWDZBQOSA-N

$$$$
Dap_pent4ynoyl
     RDKit          2D

 13 12  0  0  0  0  0  0  0  0999 V2000
   -2.6044   -2.0300    0.0000 N   0  0  0  0  0  0  0  0  0  0  0  0
   -2.6757   -0.5317    0.0000 C   0  0  0  0  0  0  0  0  0  0  0  0
   -1.4138    0.2792    0.0000 C   0  0  0  0  0  0  0  0  0  0  0  0
   -0.0806   -0.4081    0.0000 N   0  0  0  0  0  0  0  0  0  0  0  0
    1.1813    0.4028    0.0000 C   0  0  0  0  0  0  0  0  0  0  0  0
    1.1099    1.9011    0.0000 O   0  0  0  0  0  0  0  0  0  0  0  0
    2.5145   -0.2845    0.0000 C   0  0  0  0  0  0  0  0  0  0  0  0
    3.7764    0.5264    0.0000 C   0  0  0  0  0  0  0  0  0  0  0  0
    5.1097   -0.1610    0.0000 C   0  0  0  0  0  0  0  0  0  0  0  0
    6.4429   -0.8483    0.0000 C   0  0  0  0  0  0  0  0  0  0  0  0
   -4.0090    0.1556    0.0000 C   0  0  0  0  0  0  0  0  0  0  0  0
   -4.0803    1.6539    0.0000 O   0  0  0  0  0  0  0  0  0  0  0  0
   -5.2709   -0.6553    0.0000 O   0  0  0  0  0  0  0  0  0  0  0  0
  2  1  1  6
  2  3  1  0
  3  4  1  0
  4  5  1  0
  5  6  2  0
  5  7  1  0
  7  8  1  0
  8  9  1  0
  9 10  3  0
  2 11  1  0
 11 12  2  0
 11 13  1  0
M  END
>  <rName>  (1751) 
Dap_pent4ynoyl

>  <PQ_SYMBOL>  (1751) 
Dap_pent4ynoyl

>  <FULL_NAME>  (1751) 
Nα-Fmoc-Nβ-pentynoyl-2,3-diaminopropionic acid

>  <IUPAC_CONDENSED>  (1751) 
Dap(pent-4-ynoyl)

>  <IUPAC>  (1751) 
(2S)-2-amino-3-(but-3-yn-1-ylcarbonylamino)propanoic acid

>  <TYPE>  (1751) 
Backbone

>  <CLASS>  (1751) 
alpha

>  <ANALOG>  (1751) 
X

>  <MOL_WT>  (1751) 
184.195

>  <LOGP>  (1751) 
-1.0721

>  <TPSA>  (1751) 
92.42

>  <POPULARITY>  (1751) 
4.9

>  <PROTECTED>  (1751) 
TRUE

>  <SMILES>  (1751) 
N[C@@H](CNC(=O)CCC#C)C(=O)O

>  <INCHIKEY>  (1751) 
SRTIWJLKADVKNK-LURJTMIESA-N

$$$$
Deg
     RDKit          2D

  9  8  0  0  0  0  0  0  0  0999 V2000
   -0.0000    1.7113    0.0000 N   0  0  0  0  0  0  0  0  0  0  0  0
   -0.0000    0.2113    0.0000 C   0  0  0  0  0  0  0  0  0  0  0  0
    1.5000    0.2113    0.0000 C   0  0  0  0  0  0  0  0  0  0  0  0
    2.2500    1.5104    0.0000 C   0  0  0  0  0  0  0  0  0  0  0  0
   -1.5000    0.2113    0.0000 C   0  0  0  0  0  0  0  0  0  0  0  0
   -2.2500    1.5104    0.0000 C   0  0  0  0  0  0  0  0  0  0  0  0
    0.0000   -1.2887    0.0000 C   0  0  0  0  0  0  0  0  0  0  0  0
    1.2990   -2.0387    0.0000 O   0  0  0  0  0  0  0  0  0  0  0  0
   -1.2990   -2.0387    0.0000 O   0  0  0  0  0  0  0  0  0  0  0  0
  1  2  1  0
  2  3  1  0
  3  4  1  0
  2  5  1  0
  5  6  1  0
  2  7  1  0
  7  8  2  0
  7  9  1  0
M  END
>  <rName>  (1752) 
Deg

>  <PQ_SYMBOL>  (1752) 
Deg

>  <FULL_NAME>  (1752) 
Diethyl-Glycine

>  <IUPAC_CONDENSED>  (1752) 
Deg

>  <IUPAC>  (1752) 
2-amino-2-ethylbutanoic acid

>  <TYPE>  (1752) 
Backbone

>  <CLASS>  (1752) 
alpha

>  <ANALOG>  (1752) 
Leu

>  <MOL_WT>  (1752) 
131.175

>  <LOGP>  (1752) 
0.5884999999999998

>  <TPSA>  (1752) 
63.32000000000001

>  <POPULARITY>  (1752) 
25.8

>  <PROTECTED>  (1752) 
TRUE

>  <SMILES>  (1752) 
NC(CC)(CC)C(=O)O

>  <INCHIKEY>  (1752) 
KWOMLHIFHFWBSB-UHFFFAOYSA-N

$$$$
Deg-OMe
     RDKit          2D

 10  9  0  0  0  0  0  0  0  0999 V2000
   -1.9772   -0.6104    0.0000 N   0  0  0  0  0  0  0  0  0  0  0  0
   -0.5745   -0.0788    0.0000 C   0  0  0  0  0  0  0  0  0  0  0  0
   -1.1061    1.3238    0.0000 C   0  0  0  0  0  0  0  0  0  0  0  0
   -2.5866    1.5648    0.0000 C   0  0  0  0  0  0  0  0  0  0  0  0
   -0.0430   -1.4815    0.0000 C   0  0  0  0  0  0  0  0  0  0  0  0
   -0.9920   -2.6431    0.0000 C   0  0  0  0  0  0  0  0  0  0  0  0
    0.8281    0.4527    0.0000 C   0  0  0  0  0  0  0  0  0  0  0  0
    1.0691    1.9333    0.0000 O   0  0  0  0  0  0  0  0  0  0  0  0
    1.9898   -0.4962    0.0000 O   0  0  0  0  0  0  0  0  0  0  0  0
    3.3924    0.0353    0.0000 C   0  0  0  0  0  0  0  0  0  0  0  0
  1  2  1  0
  2  3  1  0
  3  4  1  0
  2  5  1  0
  5  6  1  0
  2  7  1  0
  7  8  2  0
  7  9  1  0
  9 10  1  0
M  END
>  <rName>  (1753) 
Deg-OMe

>  <PQ_SYMBOL>  (1753) 
Deg-OMe

>  <FULL_NAME>  (1753) 
methyl 2-amino-2-ethylbutanoate

>  <IUPAC_CONDENSED>  (1753) 
Deg-OMe

>  <IUPAC>  (1753) 
methyl 2-amino-2-ethylbutanoate

>  <TYPE>  (1753) 
C-term cap

>  <CLASS>  (1753) 
c_cap

>  <ANALOG>  (1753) 
X

>  <MOL_WT>  (1753) 
145.202

>  <LOGP>  (1753) 
0.6768999999999998

>  <TPSA>  (1753) 
52.32000000000001

>  <POPULARITY>  (1753) 
12.0

>  <PROTECTED>  (1753) 
TRUE

>  <SMILES>  (1753) 
NC(CC)(CC)C(=O)OC

>  <INCHIKEY>  (1753) 
JATPQYOJRYBVGT-UHFFFAOYSA-N

$$$$
Deg_g_gdiEt
     RDKit          2D

 13 12  0  0  0  0  0  0  0  0999 V2000
    0.0000    1.0467    0.0000 N   0  0  0  0  0  0  0  0  0  0  0  0
    0.0000   -0.4533    0.0000 C   0  0  0  0  0  0  0  0  0  0  0  0
    1.5000   -0.4533    0.0000 C   0  0  0  0  0  0  0  0  0  0  0  0
    2.2500    0.8458    0.0000 C   0  0  0  0  0  0  0  0  0  0  0  0
    3.7500    0.8458    0.0000 C   0  0  0  0  0  0  0  0  0  0  0  0
    4.5000    2.1448    0.0000 C   0  0  0  0  0  0  0  0  0  0  0  0
   -1.5000   -0.4533    0.0000 C   0  0  0  0  0  0  0  0  0  0  0  0
   -2.2500    0.8458    0.0000 C   0  0  0  0  0  0  0  0  0  0  0  0
   -3.7500    0.8458    0.0000 C   0  0  0  0  0  0  0  0  0  0  0  0
   -4.5000    2.1448    0.0000 C   0  0  0  0  0  0  0  0  0  0  0  0
    0.0000   -1.9533    0.0000 C   0  0  0  0  0  0  0  0  0  0  0  0
    1.2990   -2.7033    0.0000 O   0  0  0  0  0  0  0  0  0  0  0  0
   -1.2990   -2.7033    0.0000 O   0  0  0  0  0  0  0  0  0  0  0  0
  1  2  1  0
  2  3  1  0
  3  4  1  0
  4  5  1  0
  5  6  1  0
  2  7  1  0
  7  8  1  0
  8  9  1  0
  9 10  1  0
  2 11  1  0
 11 12  2  0
 11 13  1  0
M  END
>  <rName>  (1754) 
Deg_g_gdiEt

>  <PQ_SYMBOL>  (1754) 
Deg_g_gdiEt

>  <FULL_NAME>  (1754) 
2-amino-2-butylhexanoic acid

>  <IUPAC_CONDENSED>  (1754) 
Deg(g,g-diEt)

>  <IUPAC>  (1754) 
2-amino-2-butylhexanoic acid

>  <TYPE>  (1754) 
Backbone

>  <CLASS>  (1754) 
alpha

>  <ANALOG>  (1754) 
X

>  <MOL_WT>  (1754) 
187.28300000000002

>  <LOGP>  (1754) 
2.1489

>  <TPSA>  (1754) 
63.32000000000001

>  <POPULARITY>  (1754) 
12.1

>  <PROTECTED>  (1754) 
TRUE

>  <SMILES>  (1754) 
NC(CCCC)(CCCC)C(=O)O

>  <INCHIKEY>  (1754) 
CAITYLFVJGDODP-UHFFFAOYSA-N

$$$$
Deg_g_gdiallyl
     RDKit          2D

 15 14  0  0  0  0  0  0  0  0999 V2000
    0.0000    0.7608    0.0000 N   0  0  0  0  0  0  0  0  0  0  0  0
    0.0000   -0.7392    0.0000 C   0  0  0  0  0  0  0  0  0  0  0  0
   -1.5000   -0.7392    0.0000 C   0  0  0  0  0  0  0  0  0  0  0  0
   -2.2500    0.5598    0.0000 C   0  0  0  0  0  0  0  0  0  0  0  0
   -3.7500    0.5598    0.0000 C   0  0  0  0  0  0  0  0  0  0  0  0
   -4.5000    1.8588    0.0000 C   0  0  0  0  0  0  0  0  0  0  0  0
   -6.0000    1.8588    0.0000 C   0  0  0  0  0  0  0  0  0  0  0  0
    1.5000   -0.7392    0.0000 C   0  0  0  0  0  0  0  0  0  0  0  0
    2.2500    0.5598    0.0000 C   0  0  0  0  0  0  0  0  0  0  0  0
    3.7500    0.5598    0.0000 C   0  0  0  0  0  0  0  0  0  0  0  0
    4.5000    1.8588    0.0000 C   0  0  0  0  0  0  0  0  0  0  0  0
    6.0000    1.8588    0.0000 C   0  0  0  0  0  0  0  0  0  0  0  0
    0.0000   -2.2392    0.0000 C   0  0  0  0  0  0  0  0  0  0  0  0
   -1.2990   -2.9892    0.0000 O   0  0  0  0  0  0  0  0  0  0  0  0
    1.2990   -2.9892    0.0000 O   0  0  0  0  0  0  0  0  0  0  0  0
  1  2  1  0
  2  3  1  0
  3  4  1  0
  4  5  1  0
  5  6  1  0
  6  7  2  0
  2  8  1  0
  8  9  1  0
  9 10  1  0
 10 11  1  0
 11 12  2  0
  2 13  1  0
 13 14  2  0
 13 15  1  0
M  END
>  <rName>  (1755) 
Deg_g_gdiallyl

>  <PQ_SYMBOL>  (1755) 
Deg_g_gdiallyl

>  <FULL_NAME>  (1755) 
2,2-Bis(4-pentenyl)glycine

>  <IUPAC_CONDENSED>  (1755) 
Deg(g,g-diallyl)

>  <IUPAC>  (1755) 
2-amino-2-pent-4-enylhept-6-enoic acid

>  <TYPE>  (1755) 
Backbone

>  <CLASS>  (1755) 
alpha

>  <ANALOG>  (1755) 
X

>  <MOL_WT>  (1755) 
211.30499999999998

>  <LOGP>  (1755) 
2.4810999999999996

>  <TPSA>  (1755) 
63.32000000000001

>  <POPULARITY>  (1755) 
2.2

>  <PROTECTED>  (1755) 
TRUE

>  <SMILES>  (1755) 
NC(CCCC=C)(CCCC=C)C(=O)O

>  <INCHIKEY>  (1755) 
GLCYDOIDTTZFGD-UHFFFAOYSA-N

$$$$
Deg_g_gdivinyl
     RDKit          2D

 13 12  0  0  0  0  0  0  0  0999 V2000
    0.0000    1.0467    0.0000 N   0  0  0  0  0  0  0  0  0  0  0  0
    0.0000   -0.4533    0.0000 C   0  0  0  0  0  0  0  0  0  0  0  0
    1.5000   -0.4533    0.0000 C   0  0  0  0  0  0  0  0  0  0  0  0
    2.2500    0.8458    0.0000 C   0  0  0  0  0  0  0  0  0  0  0  0
    3.7500    0.8458    0.0000 C   0  0  0  0  0  0  0  0  0  0  0  0
    4.5000    2.1448    0.0000 C   0  0  0  0  0  0  0  0  0  0  0  0
   -1.5000   -0.4533    0.0000 C   0  0  0  0  0  0  0  0  0  0  0  0
   -2.2500    0.8458    0.0000 C   0  0  0  0  0  0  0  0  0  0  0  0
   -3.7500    0.8458    0.0000 C   0  0  0  0  0  0  0  0  0  0  0  0
   -4.5000    2.1448    0.0000 C   0  0  0  0  0  0  0  0  0  0  0  0
    0.0000   -1.9533    0.0000 C   0  0  0  0  0  0  0  0  0  0  0  0
    1.2990   -2.7033    0.0000 O   0  0  0  0  0  0  0  0  0  0  0  0
   -1.2990   -2.7033    0.0000 O   0  0  0  0  0  0  0  0  0  0  0  0
  1  2  1  0
  2  3  1  0
  3  4  1  0
  4  5  1  0
  5  6  2  0
  2  7  1  0
  7  8  1  0
  8  9  1  0
  9 10  2  0
  2 11  1  0
 11 12  2  0
 11 13  1  0
M  END
>  <rName>  (1756) 
Deg_g_gdivinyl

>  <PQ_SYMBOL>  (1756) 
Deg_g_gdivinyl

>  <FULL_NAME>  (1756) 
2-amino-2-(but-3-en-1-yl)hex-5-enoic acid

>  <IUPAC_CONDENSED>  (1756) 
Deg(g,g-divinyl)

>  <IUPAC>  (1756) 
2-amino-2-(but-3-en-1-yl)hex-5-enoic acid

>  <TYPE>  (1756) 
Backbone

>  <CLASS>  (1756) 
alpha

>  <ANALOG>  (1756) 
X

>  <MOL_WT>  (1756) 
183.25099999999998

>  <LOGP>  (1756) 
1.7008999999999999

>  <TPSA>  (1756) 
63.32000000000001

>  <POPULARITY>  (1756) 
5.2

>  <PROTECTED>  (1756) 
TRUE

>  <SMILES>  (1756) 
NC(CCC=C)(CCC=C)C(=O)O

>  <INCHIKEY>  (1756) 
DQTNLFHYEDUEGJ-UHFFFAOYSA-N

$$$$
Dha
     RDKit          2D

  6  5  0  0  0  0  0  0  0  0999 V2000
    1.5000   -1.2990    0.0000 N   0  0  0  0  0  0  0  0  0  0  0  0
    0.7500    0.0000    0.0000 C   0  0  0  0  0  0  0  0  0  0  0  0
    1.5000    1.2990    0.0000 C   0  0  0  0  0  0  0  0  0  0  0  0
   -0.7500   -0.0000    0.0000 C   0  0  0  0  0  0  0  0  0  0  0  0
   -1.5000    1.2990    0.0000 O   0  0  0  0  0  0  0  0  0  0  0  0
   -1.5000   -1.2990    0.0000 O   0  0  0  0  0  0  0  0  0  0  0  0
  1  2  1  0
  2  3  2  0
  2  4  1  0
  4  5  2  0
  4  6  1  0
M  END
>  <rName>  (1757) 
Dha

>  <PQ_SYMBOL>  (1757) 
Dha

>  <FULL_NAME>  (1757) 
2-AMINO-ACRYLIC ACID

>  <IUPAC_CONDENSED>  (1757) 
Dha

>  <IUPAC>  (1757) 
2-aminoprop-2-enoic acid

>  <TYPE>  (1757) 
Backbone

>  <CLASS>  (1757) 
alpha

>  <ANALOG>  (1757) 
Ala

>  <MOL_WT>  (1757) 
87.07799999999999

>  <LOGP>  (1757) 
-0.45659999999999995

>  <TPSA>  (1757) 
63.32000000000001

>  <POPULARITY>  (1757) 
35.3

>  <PROTECTED>  (1757) 
TRUE

>  <SMILES>  (1757) 
NC(=C)C(=O)O

>  <INCHIKEY>  (1757) 
UQBOJOOOTLPNST-UHFFFAOYSA-N

$$$$
Dip
     RDKit          2D

 18 19  0  0  0  0  0  0  0  0999 V2000
    0.8407   -2.9122    0.0000 N   0  0  0  0  0  0  0  0  0  0  0  0
   -0.2402   -1.8721    0.0000 C   0  0  0  0  0  0  0  0  0  0  0  0
    0.1201   -0.4160    0.0000 C   0  0  0  0  0  0  0  0  0  0  0  0
    1.5612    0.0000    0.0000 C   0  0  0  0  0  0  0  0  0  0  0  0
    2.6421   -1.0401    0.0000 C   0  0  0  0  0  0  0  0  0  0  0  0
    4.0833   -0.6240    0.0000 C   0  0  0  0  0  0  0  0  0  0  0  0
    4.4436    0.8321    0.0000 C   0  0  0  0  0  0  0  0  0  0  0  0
    3.3627    1.8721    0.0000 C   0  0  0  0  0  0  0  0  0  0  0  0
    1.9215    1.4561    0.0000 C   0  0  0  0  0  0  0  0  0  0  0  0
   -0.9608    0.6240    0.0000 C   0  0  0  0  0  0  0  0  0  0  0  0
   -0.6005    2.0801    0.0000 C   0  0  0  0  0  0  0  0  0  0  0  0
   -1.6813    3.1202    0.0000 C   0  0  0  0  0  0  0  0  0  0  0  0
   -3.1225    2.7042    0.0000 C   0  0  0  0  0  0  0  0  0  0  0  0
   -3.4828    1.2481    0.0000 C   0  0  0  0  0  0  0  0  0  0  0  0
   -2.4019    0.2080    0.0000 C   0  0  0  0  0  0  0  0  0  0  0  0
   -1.6813   -2.2881    0.0000 C   0  0  0  0  0  0  0  0  0  0  0  0
   -2.7622   -1.2481    0.0000 O   0  0  0  0  0  0  0  0  0  0  0  0
   -2.0416   -3.7442    0.0000 O   0  0  0  0  0  0  0  0  0  0  0  0
  2  1  1  6
  2  3  1  0
  3  4  1  0
  4  5  2  0
  5  6  1  0
  6  7  2  0
  7  8  1  0
  8  9  2  0
  3 10  1  0
 10 11  2  0
 11 12  1  0
 12 13  2  0
 13 14  1  0
 14 15  2  0
  2 16  1  0
 16 17  2  0
 16 18  1  0
  9  4  1  0
 15 10  1  0
M  END
>  <rName>  (1758) 
Dip

>  <PQ_SYMBOL>  (1758) 
Dip

>  <FULL_NAME>  (1758) 
3,3-Diphenyl-L-Alanine

>  <IUPAC_CONDENSED>  (1758) 
Dip

>  <IUPAC>  (1758) 
(2S)-2-amino-3,3-diphenylpropanoic acid

>  <TYPE>  (1758) 
Backbone

>  <CLASS>  (1758) 
alpha

>  <ANALOG>  (1758) 
Phe

>  <MOL_WT>  (1758) 
241.29

>  <LOGP>  (1758) 
2.2304

>  <TPSA>  (1758) 
63.32000000000001

>  <POPULARITY>  (1758) 
32.0

>  <PROTECTED>  (1758) 
TRUE

>  <SMILES>  (1758) 
N[C@@H](C(c1(ccccc1))c2(ccccc2))C(=O)O

>  <INCHIKEY>  (1758) 
PECGVEGMRUZOML-AWEZNQCLSA-N

$$$$
Dip-OMe
     RDKit          2D

 19 20  0  0  0  0  0  0  0  0999 V2000
    0.1626   -2.8767    0.0000 N   0  0  0  0  0  0  0  0  0  0  0  0
   -0.5536   -1.5587    0.0000 C   0  0  0  0  0  0  0  0  0  0  0  0
   -2.0531   -1.5200    0.0000 C   0  0  0  0  0  0  0  0  0  0  0  0
   -2.7693   -0.2020    0.0000 O   0  0  0  0  0  0  0  0  0  0  0  0
   -2.8364   -2.7992    0.0000 O   0  0  0  0  0  0  0  0  0  0  0  0
   -4.3359   -2.7605    0.0000 C   0  0  0  0  0  0  0  0  0  0  0  0
    0.2297   -0.2795    0.0000 C   0  0  0  0  0  0  0  0  0  0  0  0
    1.7292   -0.3182    0.0000 C   0  0  0  0  0  0  0  0  0  0  0  0
    2.4454   -1.6362    0.0000 C   0  0  0  0  0  0  0  0  0  0  0  0
    3.9449   -1.6750    0.0000 C   0  0  0  0  0  0  0  0  0  0  0  0
    4.7282   -0.3957    0.0000 C   0  0  0  0  0  0  0  0  0  0  0  0
    4.0120    0.9223    0.0000 C   0  0  0  0  0  0  0  0  0  0  0  0
    2.5125    0.9610    0.0000 C   0  0  0  0  0  0  0  0  0  0  0  0
   -0.4865    1.0385    0.0000 C   0  0  0  0  0  0  0  0  0  0  0  0
    0.2968    2.3177    0.0000 C   0  0  0  0  0  0  0  0  0  0  0  0
   -0.4194    3.6357    0.0000 C   0  0  0  0  0  0  0  0  0  0  0  0
   -1.9189    3.6744    0.0000 C   0  0  0  0  0  0  0  0  0  0  0  0
   -2.7022    2.3952    0.0000 C   0  0  0  0  0  0  0  0  0  0  0  0
   -1.9860    1.0772    0.0000 C   0  0  0  0  0  0  0  0  0  0  0  0
  2  1  1  6
  2  3  1  0
  3  4  2  0
  3  5  1  0
  5  6  1  0
  2  7  1  0
  7  8  1  0
  8  9  2  0
  9 10  1  0
 10 11  2  0
 11 12  1  0
 12 13  2  0
  7 14  1  0
 14 15  2  0
 15 16  1  0
 16 17  2  0
 17 18  1  0
 18 19  2  0
 19 14  1  0
 13  8  1  0
M  END
>  <rName>  (1759) 
Dip-OMe

>  <PQ_SYMBOL>  (1759) 
Dip-OMe

>  <FULL_NAME>  (1759) 
methyl (2S)-2-amino-3,3-diphenylpropanoate

>  <IUPAC_CONDENSED>  (1759) 
Dip-OMe

>  <IUPAC>  (1759) 
methyl (2S)-2-amino-3,3-diphenylpropanoate

>  <TYPE>  (1759) 
C-term cap

>  <CLASS>  (1759) 
c_cap

>  <ANALOG>  (1759) 
X

>  <MOL_WT>  (1759) 
255.31700000000004

>  <LOGP>  (1759) 
2.3187999999999995

>  <TPSA>  (1759) 
52.32000000000001

>  <POPULARITY>  (1759) 
5.5

>  <PROTECTED>  (1759) 
TRUE

>  <SMILES>  (1759) 
N[C@H](C(=O)OC)C(c2(ccccc2))c1ccccc1

>  <INCHIKEY>  (1759) 
JJIQQSXXWLDXNO-HNNXBMFYSA-N

$$$$
Dip_F_F
     RDKit          2D

 20 21  0  0  0  0  0  0  0  0999 V2000
    1.0876   -3.0637    0.0000 N   0  0  0  0  0  0  0  0  0  0  0  0
   -0.0974   -2.1442    0.0000 C   0  0  0  0  0  0  0  0  0  0  0  0
    0.1064   -0.6581    0.0000 C   0  0  0  0  0  0  0  0  0  0  0  0
    1.4953   -0.0916    0.0000 C   0  0  0  0  0  0  0  0  0  0  0  0
    2.6804   -1.0111    0.0000 C   0  0  0  0  0  0  0  0  0  0  0  0
    4.0693   -0.4446    0.0000 C   0  0  0  0  0  0  0  0  0  0  0  0
    4.2731    1.0415    0.0000 C   0  0  0  0  0  0  0  0  0  0  0  0
    5.6621    1.6080    0.0000 F   0  0  0  0  0  0  0  0  0  0  0  0
    3.0881    1.9610    0.0000 C   0  0  0  0  0  0  0  0  0  0  0  0
    1.6992    1.3945    0.0000 C   0  0  0  0  0  0  0  0  0  0  0  0
   -1.0787    0.2615    0.0000 C   0  0  0  0  0  0  0  0  0  0  0  0
   -0.8748    1.7476    0.0000 C   0  0  0  0  0  0  0  0  0  0  0  0
   -2.0599    2.6672    0.0000 C   0  0  0  0  0  0  0  0  0  0  0  0
   -3.4488    2.1007    0.0000 C   0  0  0  0  0  0  0  0  0  0  0  0
   -4.6338    3.0202    0.0000 F   0  0  0  0  0  0  0  0  0  0  0  0
   -3.6526    0.6146    0.0000 C   0  0  0  0  0  0  0  0  0  0  0  0
   -2.4676   -0.3050    0.0000 C   0  0  0  0  0  0  0  0  0  0  0  0
   -1.4863   -2.7107    0.0000 C   0  0  0  0  0  0  0  0  0  0  0  0
   -2.6714   -1.7911    0.0000 O   0  0  0  0  0  0  0  0  0  0  0  0
   -1.6902   -4.1967    0.0000 O   0  0  0  0  0  0  0  0  0  0  0  0
  2  1  1  6
  2  3  1  0
  3  4  1  0
  4  5  1  0
  5  6  2  0
  6  7  1  0
  7  8  1  0
  7  9  2  0
  9 10  1  0
  3 11  1  0
 11 12  1  0
 12 13  2  0
 13 14  1  0
 14 15  1  0
 14 16  2  0
 16 17  1  0
  2 18  1  0
 18 19  2  0
 18 20  1  0
 10  4  2  0
 17 11  2  0
M  END
>  <rName>  (1760) 
Dip_F_F

>  <PQ_SYMBOL>  (1760) 
Dip_F_F

>  <FULL_NAME>  (1760) 
(S)-2-Amino-3,3-bis(4-fluorophenyl)propanoic acid

>  <IUPAC_CONDENSED>  (1760) 
Dip(F,F)

>  <IUPAC>  (1760) 
(2S)-2-amino-3,3-bis(4-fluorophenyl)propanoic acid

>  <TYPE>  (1760) 
Backbone

>  <CLASS>  (1760) 
alpha

>  <ANALOG>  (1760) 
Phe

>  <MOL_WT>  (1760) 
277.27

>  <LOGP>  (1760) 
2.5086000000000004

>  <TPSA>  (1760) 
63.32000000000001

>  <POPULARITY>  (1760) 
2.2

>  <PROTECTED>  (1760) 
TRUE

>  <SMILES>  (1760) 
N[C@@H](C(c1(ccc(F)cc1))c2(ccc(F)cc2))C(=O)O

>  <INCHIKEY>  (1760) 
WQUNIOUMWBRBNU-AWEZNQCLSA-N

$$$$
E
     RDKit          2D

 10  9  0  0  0  0  0  0  0  0999 V2000
    1.2717   -1.9622    0.0000 N   0  0  0  0  0  0  0  0  0  0  0  0
    1.1946   -0.4642    0.0000 C   0  0  0  0  0  0  0  0  0  0  0  0
   -0.1413    0.2180    0.0000 C   0  0  0  0  0  0  0  0  0  0  0  0
   -1.4001   -0.5978    0.0000 C   0  0  0  0  0  0  0  0  0  0  0  0
   -2.7359    0.0845    0.0000 C   0  0  0  0  0  0  0  0  0  0  0  0
   -2.8131    1.5825    0.0000 O   0  0  0  0  0  0  0  0  0  0  0  0
   -3.9947   -0.7313    0.0000 O   0  0  0  0  0  0  0  0  0  0  0  0
    2.4533    0.3516    0.0000 C   0  0  0  0  0  0  0  0  0  0  0  0
    2.3762    1.8496    0.0000 O   0  0  0  0  0  0  0  0  0  0  0  0
    3.7892   -0.3306    0.0000 O   0  0  0  0  0  0  0  0  0  0  0  0
  2  1  1  1
  2  3  1  0
  3  4  1  0
  4  5  1  0
  5  6  2  0
  5  7  1  0
  2  8  1  0
  8  9  2  0
  8 10  1  0
M  END
>  <rName>  (1761) 
E

>  <PQ_SYMBOL>  (1761) 
E

>  <FULL_NAME>  (1761) 
L-Glutamic acid

>  <IUPAC_CONDENSED>  (1761) 
Glu

>  <IUPAC>  (1761) 
(2S)-2-aminopentanedioic acid

>  <TYPE>  (1761) 
Backbone

>  <CLASS>  (1761) 
alpha

>  <ANALOG>  (1761) 
Glu

>  <MOL_WT>  (1761) 
147.13

>  <LOGP>  (1761) 
-0.7368999999999997

>  <TPSA>  (1761) 
100.62000000000002

>  <POPULARITY>  (1761) 
94.8

>  <PROTECTED>  (1761) 
TRUE

>  <SMILES>  (1761) 
N[C@@H](CCC(=O)O)C(=O)O

>  <INCHIKEY>  (1761) 
WHUUTDBJXJRKMK-VKHMYHEASA-N

$$$$
Et-
     RDKit          2D

  3  2  0  0  0  0  0  0  0  0999 V2000
   -1.2990   -0.2500    0.0000 C   0  0  0  0  0  0  0  0  0  0  0  0
    0.0000    0.5000    0.0000 C   0  0  0  0  0  0  0  0  0  0  0  0
    1.2990   -0.2500    0.0000 O   0  0  0  0  0  0  0  0  0  0  0  0
  1  2  1  0
  2  3  1  0
M  END
>  <rName>  (1762) 
Et-

>  <PQ_SYMBOL>  (1762) 
Et-

>  <FULL_NAME>  (1762) 
N-Terminal ethyl

>  <IUPAC_CONDENSED>  (1762) 
Et-

>  <IUPAC>  (1762) 
ethanol

>  <TYPE>  (1762) 
N-term cap

>  <CLASS>  (1762) 
n_cap

>  <ANALOG>  (1762) 
X

>  <MOL_WT>  (1762) 
46.069

>  <LOGP>  (1762) 
-0.0014000000000000123

>  <TPSA>  (1762) 
20.23

>  <POPULARITY>  (1762) 
2.0

>  <PROTECTED>  (1762) 
FALSE

>  <SMILES>  (1762) 
CCO

>  <INCHIKEY>  (1762) 
LFQSCWFLJHTTHZ-UHFFFAOYSA-N

$$$$
Et-bAib
     RDKit          2D

  9  8  0  0  0  0  0  0  0  0999 V2000
    1.3621   -0.0769    0.0000 N   0  0  0  0  0  0  0  0  0  0  0  0
    2.8079   -0.4764    0.0000 C   0  0  0  0  0  0  0  0  0  0  0  0
    3.8768    0.5760    0.0000 C   0  0  0  0  0  0  0  0  0  0  0  0
    0.2932   -1.1292    0.0000 C   0  0  0  0  0  0  0  0  0  0  0  0
   -1.1527   -0.7297    0.0000 C   0  0  0  0  0  0  0  0  0  0  0  0
   -2.2216   -1.7821    0.0000 C   0  0  0  0  0  0  0  0  0  0  0  0
   -1.5296    0.7222    0.0000 C   0  0  0  0  0  0  0  0  0  0  0  0
   -0.4607    1.7745    0.0000 O   0  0  0  0  0  0  0  0  0  0  0  0
   -2.9754    1.1217    0.0000 O   0  0  0  0  0  0  0  0  0  0  0  0
  1  2  1  0
  2  3  1  0
  1  4  1  0
  4  5  1  0
  5  6  1  0
  5  7  1  0
  7  8  2  0
  7  9  1  0
M  END
>  <rName>  (1763) 
Et-bAib

>  <PQ_SYMBOL>  (1763) 
Et-bAib

>  <FULL_NAME>  (1763) 
3-(Ethylamino)-2-methylpropanoic acid

>  <IUPAC_CONDENSED>  (1763) 
Et-bAib

>  <IUPAC>  (1763) 
3-(ethylamino)-2-methylpropanoic acid

>  <TYPE>  (1763) 
Backbone

>  <CLASS>  (1763) 
beta

>  <ANALOG>  (1763) 
Ala

>  <MOL_WT>  (1763) 
131.17499999999998

>  <LOGP>  (1763) 
0.31659999999999994

>  <TPSA>  (1763) 
49.33

>  <POPULARITY>  (1763) 
16.1

>  <PROTECTED>  (1763) 
TRUE

>  <SMILES>  (1763) 
N(CC)CC(C)C(=O)O

>  <INCHIKEY>  (1763) 
JYBGKIPAGMBRKN-UHFFFAOYSA-N

$$$$
EtOCO-D-Ala
     RDKit          2D

 11 10  0  0  0  0  0  0  0  0999 V2000
   -4.7486   -0.0835    0.0000 C   0  0  0  0  0  0  0  0  0  0  0  0
   -3.3132    0.3521    0.0000 C   0  0  0  0  0  0  0  0  0  0  0  0
   -2.2183   -0.6732    0.0000 O   0  0  0  0  0  0  0  0  0  0  0  0
   -0.7829   -0.2376    0.0000 C   0  0  0  0  0  0  0  0  0  0  0  0
   -0.4425    1.2233    0.0000 O   0  0  0  0  0  0  0  0  0  0  0  0
    0.3120   -1.2629    0.0000 N   0  0  0  0  0  0  0  0  0  0  0  0
    1.7474   -0.8273    0.0000 C   0  0  0  0  0  0  0  0  0  0  0  0
    2.8423   -1.8525    0.0000 C   0  0  0  0  0  0  0  0  0  0  0  0
    2.0878    0.6336    0.0000 C   0  0  0  0  0  0  0  0  0  0  0  0
    0.9929    1.6589    0.0000 O   0  0  0  0  0  0  0  0  0  0  0  0
    3.5232    1.0692    0.0000 O   0  0  0  0  0  0  0  0  0  0  0  0
  1  2  1  0
  2  3  1  0
  3  4  1  0
  4  5  2  0
  4  6  1  0
  6  7  1  0
  7  8  1  1
  7  9  1  0
  9 10  2  0
  9 11  1  0
M  END
>  <rName>  (1764) 
EtOCO-D-Ala

>  <PQ_SYMBOL>  (1764) 
EtOCO-D-Ala

>  <FULL_NAME>  (1764) 
ethylcarboxyl D-Alanine

>  <IUPAC_CONDENSED>  (1764) 
EtOCO-D-Ala

>  <IUPAC>  (1764) 
(2R)-2-ethoxycarbonylaminopropanoic acid

>  <TYPE>  (1764) 
N-term cap

>  <CLASS>  (1764) 
n_cap

>  <ANALOG>  (1764) 
X

>  <MOL_WT>  (1764) 
161.15699999999998

>  <LOGP>  (1764) 
0.20560000000000017

>  <TPSA>  (1764) 
75.63

>  <POPULARITY>  (1764) 
11.3

>  <PROTECTED>  (1764) 
TRUE

>  <SMILES>  (1764) 
CCOC(=O)N[C@H](C)C(=O)O

>  <INCHIKEY>  (1764) 
JYQWKPMPTMJFCY-SCSAIBSYSA-N

$$$$
EtOCO-D-Phg
     RDKit          2D

 16 16  0  0  0  0  0  0  0  0999 V2000
    5.9112    1.5500    0.0000 C   0  0  0  0  0  0  0  0  0  0  0  0
    4.7597    0.5888    0.0000 C   0  0  0  0  0  0  0  0  0  0  0  0
    3.3514    1.1054    0.0000 O   0  0  0  0  0  0  0  0  0  0  0  0
    2.1999    0.1442    0.0000 C   0  0  0  0  0  0  0  0  0  0  0  0
    2.4566   -1.3337    0.0000 O   0  0  0  0  0  0  0  0  0  0  0  0
    0.7917    0.6608    0.0000 N   0  0  0  0  0  0  0  0  0  0  0  0
   -0.3599   -0.3004    0.0000 C   0  0  0  0  0  0  0  0  0  0  0  0
   -1.7681    0.2163    0.0000 C   0  0  0  0  0  0  0  0  0  0  0  0
   -2.9196   -0.7450    0.0000 C   0  0  0  0  0  0  0  0  0  0  0  0
   -4.3278   -0.2283    0.0000 C   0  0  0  0  0  0  0  0  0  0  0  0
   -4.5845    1.2496    0.0000 C   0  0  0  0  0  0  0  0  0  0  0  0
   -3.4330    2.2108    0.0000 C   0  0  0  0  0  0  0  0  0  0  0  0
   -2.0248    1.6941    0.0000 C   0  0  0  0  0  0  0  0  0  0  0  0
   -0.1032   -1.7783    0.0000 C   0  0  0  0  0  0  0  0  0  0  0  0
   -1.2547   -2.7395    0.0000 O   0  0  0  0  0  0  0  0  0  0  0  0
    1.3050   -2.2949    0.0000 O   0  0  0  0  0  0  0  0  0  0  0  0
  1  2  1  0
  2  3  1  0
  3  4  1  0
  4  5  2  0
  4  6  1  0
  7  6  1  1
  7  8  1  0
  8  9  2  0
  9 10  1  0
 10 11  2  0
 11 12  1  0
 12 13  2  0
  7 14  1  0
 14 15  2  0
 14 16  1  0
 13  8  1  0
M  END
>  <rName>  (1765) 
EtOCO-D-Phg

>  <PQ_SYMBOL>  (1765) 
EtOCO-D-Phg

>  <FULL_NAME>  (1765) 
ethylcarboxyl D-2-phenylglycine

>  <IUPAC_CONDENSED>  (1765) 
EtOCO-D-Phg

>  <IUPAC>  (1765) 
(2R)-2-ethoxycarbonylamino-2-phenylacetic acid

>  <TYPE>  (1765) 
N-term cap

>  <CLASS>  (1765) 
n_cap

>  <ANALOG>  (1765) 
X

>  <MOL_WT>  (1765) 
223.228

>  <LOGP>  (1765) 
1.5584

>  <TPSA>  (1765) 
75.63

>  <POPULARITY>  (1765) 
8.6

>  <PROTECTED>  (1765) 
TRUE

>  <SMILES>  (1765) 
CCOC(=O)N[C@H](c1(ccccc1))C(=O)O

>  <INCHIKEY>  (1765) 
RBYBUHMCHHFGHS-SECBINFHSA-N

$$$$
EtOCO-Gly
     RDKit          2D

 10  9  0  0  0  0  0  0  0  0999 V2000
    4.7664    0.7239    0.0000 C   0  0  0  0  0  0  0  0  0  0  0  0
    3.5254   -0.1186    0.0000 C   0  0  0  0  0  0  0  0  0  0  0  0
    2.1752    0.5348    0.0000 O   0  0  0  0  0  0  0  0  0  0  0  0
    0.9342   -0.3078    0.0000 C   0  0  0  0  0  0  0  0  0  0  0  0
    1.0434   -1.8038    0.0000 O   0  0  0  0  0  0  0  0  0  0  0  0
   -0.4160    0.3456    0.0000 N   0  0  0  0  0  0  0  0  0  0  0  0
   -1.6570   -0.4970    0.0000 C   0  0  0  0  0  0  0  0  0  0  0  0
   -3.0072    0.1565    0.0000 C   0  0  0  0  0  0  0  0  0  0  0  0
   -3.1164    1.6525    0.0000 O   0  0  0  0  0  0  0  0  0  0  0  0
   -4.2481   -0.6861    0.0000 O   0  0  0  0  0  0  0  0  0  0  0  0
  1  2  1  0
  2  3  1  0
  3  4  1  0
  4  5  2  0
  4  6  1  0
  6  7  1  0
  7  8  1  0
  8  9  2  0
  8 10  1  0
M  END
>  <rName>  (1766) 
EtOCO-Gly

>  <PQ_SYMBOL>  (1766) 
EtOCO-Gly

>  <FULL_NAME>  (1766) 
ethylcarboxyl Glycine

>  <IUPAC_CONDENSED>  (1766) 
EtOCO-Gly

>  <IUPAC>  (1766) 
2-ethoxycarbonylaminoacetic acid

>  <TYPE>  (1766) 
N-term cap

>  <CLASS>  (1766) 
n_cap

>  <ANALOG>  (1766) 
X

>  <MOL_WT>  (1766) 
147.13

>  <LOGP>  (1766) 
-0.1828999999999999

>  <TPSA>  (1766) 
75.63

>  <POPULARITY>  (1766) 
16.8

>  <PROTECTED>  (1766) 
TRUE

>  <SMILES>  (1766) 
CCOC(=O)NCC(=O)O

>  <INCHIKEY>  (1766) 
RTVSUZHDJGUDGX-UHFFFAOYSA-N

$$$$
EtOCO-Phe
     RDKit          2D

 17 17  0  0  0  0  0  0  0  0999 V2000
   -4.1673   -2.1109    0.0000 C   0  0  0  0  0  0  0  0  0  0  0  0
   -4.7552   -0.7309    0.0000 C   0  0  0  0  0  0  0  0  0  0  0  0
   -3.8540    0.4682    0.0000 C   0  0  0  0  0  0  0  0  0  0  0  0
   -2.3650    0.2873    0.0000 C   0  0  0  0  0  0  0  0  0  0  0  0
   -1.7771   -1.0927    0.0000 C   0  0  0  0  0  0  0  0  0  0  0  0
   -2.6783   -2.2918    0.0000 C   0  0  0  0  0  0  0  0  0  0  0  0
   -1.4638    1.4864    0.0000 C   0  0  0  0  0  0  0  0  0  0  0  0
    0.0253    1.3055    0.0000 C   0  0  0  0  0  0  0  0  0  0  0  0
    0.6131   -0.0745    0.0000 N   0  0  0  0  0  0  0  0  0  0  0  0
    2.1022   -0.2554    0.0000 C   0  0  0  0  0  0  0  0  0  0  0  0
    3.0034    0.9437    0.0000 O   0  0  0  0  0  0  0  0  0  0  0  0
    2.6901   -1.6354    0.0000 O   0  0  0  0  0  0  0  0  0  0  0  0
    4.1791   -1.8163    0.0000 C   0  0  0  0  0  0  0  0  0  0  0  0
    4.7670   -3.1963    0.0000 C   0  0  0  0  0  0  0  0  0  0  0  0
    0.9265    2.5046    0.0000 C   0  0  0  0  0  0  0  0  0  0  0  0
    0.3386    3.8846    0.0000 O   0  0  0  0  0  0  0  0  0  0  0  0
    2.4155    2.3237    0.0000 O   0  0  0  0  0  0  0  0  0  0  0  0
  1  2  2  0
  2  3  1  0
  3  4  2  0
  4  5  1  0
  5  6  2  0
  4  7  1  0
  8  7  1  1
  8  9  1  0
  9 10  1  0
 10 11  2  0
 10 12  1  0
 12 13  1  0
 13 14  1  0
  8 15  1  0
 15 16  2  0
 15 17  1  0
  6  1  1  0
M  END
>  <rName>  (1767) 
EtOCO-Phe

>  <PQ_SYMBOL>  (1767) 
EtOCO-Phe

>  <FULL_NAME>  (1767) 
ethylcarboxyl Phenylalanine

>  <IUPAC_CONDENSED>  (1767) 
EtOCO-Phe

>  <IUPAC>  (1767) 
(2S)-2-ethoxycarbonylamino-3-phenylpropanoic acid

>  <TYPE>  (1767) 
N-term cap

>  <CLASS>  (1767) 
n_cap

>  <ANALOG>  (1767) 
X

>  <MOL_WT>  (1767) 
237.25499999999994

>  <LOGP>  (1767) 
1.4284

>  <TPSA>  (1767) 
75.63

>  <POPULARITY>  (1767) 
16.7

>  <PROTECTED>  (1767) 
TRUE

>  <SMILES>  (1767) 
c1ccc(cc1)C[C@H](NC(=O)OCC)C(=O)O

>  <INCHIKEY>  (1767) 
YUBBGLSAFZJOMD-JTQLQIEISA-N

$$$$
EtOEt-bAib
     RDKit          2D

 12 11  0  0  0  0  0  0  0  0999 V2000
    0.2896   -0.2382    0.0000 N   0  0  0  0  0  0  0  0  0  0  0  0
   -1.1147   -0.7652    0.0000 C   0  0  0  0  0  0  0  0  0  0  0  0
   -2.2733    0.1876    0.0000 C   0  0  0  0  0  0  0  0  0  0  0  0
   -3.6777   -0.3394    0.0000 O   0  0  0  0  0  0  0  0  0  0  0  0
   -4.8363    0.6134    0.0000 C   0  0  0  0  0  0  0  0  0  0  0  0
   -6.2406    0.0864    0.0000 C   0  0  0  0  0  0  0  0  0  0  0  0
    1.4482   -1.1909    0.0000 C   0  0  0  0  0  0  0  0  0  0  0  0
    2.8526   -0.6640    0.0000 C   0  0  0  0  0  0  0  0  0  0  0  0
    4.0111   -1.6167    0.0000 C   0  0  0  0  0  0  0  0  0  0  0  0
    3.0984    0.8157    0.0000 C   0  0  0  0  0  0  0  0  0  0  0  0
    1.9399    1.7685    0.0000 O   0  0  0  0  0  0  0  0  0  0  0  0
    4.5028    1.3427    0.0000 O   0  0  0  0  0  0  0  0  0  0  0  0
  1  2  1  0
  2  3  1  0
  3  4  1  0
  4  5  1  0
  5  6  1  0
  1  7  1  0
  7  8  1  0
  8  9  1  0
  8 10  1  0
 10 11  2  0
 10 12  1  0
M  END
>  <rName>  (1768) 
EtOEt-bAib

>  <PQ_SYMBOL>  (1768) 
EtOEt-bAib

>  <FULL_NAME>  (1768) 
3-[(2-Ethoxyethyl)amino]-2-methylpropanoic acid

>  <IUPAC_CONDENSED>  (1768) 
EtOEt-bAib

>  <IUPAC>  (1768) 
3-((2-ethoxyethyl)amino)-2-methylpropanoic acid

>  <TYPE>  (1768) 
Backbone

>  <CLASS>  (1768) 
beta

>  <ANALOG>  (1768) 
Ala

>  <MOL_WT>  (1768) 
175.22799999999998

>  <LOGP>  (1768) 
0.33319999999999944

>  <TPSA>  (1768) 
58.56

>  <POPULARITY>  (1768) 
11.3

>  <PROTECTED>  (1768) 
TRUE

>  <SMILES>  (1768) 
N(CCOCC)CC(C)C(=O)O

>  <INCHIKEY>  (1768) 
OLXZSZXSCMACMQ-UHFFFAOYSA-N

$$$$
EtOMe-D-Gly
     RDKit          2D

  9  9  0  0  0  0  0  0  0  0999 V2000
    0.4167   -1.2990    0.0000 N   0  0  0  0  0  0  0  0  0  0  0  0
   -0.3333    0.0000    0.0000 C   0  0  0  0  0  0  0  0  0  0  0  0
    0.4167    1.2990    0.0000 C   0  0  0  0  0  0  0  0  0  0  0  0
    1.9167    1.2990    0.0000 O   0  0  0  0  0  0  0  0  0  0  0  0
    2.6667    0.0000    0.0000 C   0  0  0  0  0  0  0  0  0  0  0  0
    1.9167   -1.2990    0.0000 C   0  0  0  0  0  0  0  0  0  0  0  0
   -1.8333   -0.0000    0.0000 C   0  0  0  0  0  0  0  0  0  0  0  0
   -2.5833   -1.2990    0.0000 O   0  0  0  0  0  0  0  0  0  0  0  0
   -2.5833    1.2990    0.0000 O   0  0  0  0  0  0  0  0  0  0  0  0
  1  2  1  0
  2  3  1  0
  3  4  1  0
  4  5  1  0
  5  6  1  0
  2  7  1  1
  7  8  2  0
  7  9  1  0
  6  1  1  0
M  END
>  <rName>  (1769) 
EtOMe-D-Gly

>  <PQ_SYMBOL>  (1769) 
EtOMe-D-Gly

>  <FULL_NAME>  (1769) 
(3R)-morpholine-3-carboxylic acid

>  <IUPAC_CONDENSED>  (1769) 
EtOMe-D-Gly

>  <IUPAC>  (1769) 
(3R)-morpholine-3-carboxylic acid

>  <TYPE>  (1769) 
Backbone

>  <CLASS>  (1769) 
alpha

>  <ANALOG>  (1769) 
Pro

>  <MOL_WT>  (1769) 
131.131

>  <LOGP>  (1769) 
-0.9406000000000001

>  <TPSA>  (1769) 
58.56

>  <POPULARITY>  (1769) 
13.3

>  <PROTECTED>  (1769) 
TRUE

>  <SMILES>  (1769) 
N1[C@H](COCC1)C(=O)O

>  <INCHIKEY>  (1769) 
JUNOWSHJELIDQP-SCSAIBSYSA-N

$$$$
F
     RDKit          2D

 12 12  0  0  0  0  0  0  0  0999 V2000
   -1.2391    1.6805    0.0000 N   0  0  0  0  0  0  0  0  0  0  0  0
   -1.6184    0.2292    0.0000 C   0  0  0  0  0  0  0  0  0  0  0  0
   -0.5513   -0.8249    0.0000 C   0  0  0  0  0  0  0  0  0  0  0  0
    0.8952   -0.4278    0.0000 C   0  0  0  0  0  0  0  0  0  0  0  0
    1.2745    1.0235    0.0000 C   0  0  0  0  0  0  0  0  0  0  0  0
    2.7210    1.4206    0.0000 C   0  0  0  0  0  0  0  0  0  0  0  0
    3.7882    0.3665    0.0000 C   0  0  0  0  0  0  0  0  0  0  0  0
    3.4088   -1.0848    0.0000 C   0  0  0  0  0  0  0  0  0  0  0  0
    1.9624   -1.4819    0.0000 C   0  0  0  0  0  0  0  0  0  0  0  0
   -3.0649   -0.1679    0.0000 C   0  0  0  0  0  0  0  0  0  0  0  0
   -3.4442   -1.6191    0.0000 O   0  0  0  0  0  0  0  0  0  0  0  0
   -4.1321    0.8862    0.0000 O   0  0  0  0  0  0  0  0  0  0  0  0
  2  1  1  1
  2  3  1  0
  3  4  1  0
  4  5  2  0
  5  6  1  0
  6  7  2  0
  7  8  1  0
  8  9  2  0
  2 10  1  0
 10 11  2  0
 10 12  1  0
  9  4  1  0
M  END
>  <rName>  (1770) 
F

>  <PQ_SYMBOL>  (1770) 
F

>  <FULL_NAME>  (1770) 
L-Phenylalanine

>  <IUPAC_CONDENSED>  (1770) 
Phe

>  <IUPAC>  (1770) 
(2S)-2-amino-3-phenylpropanoic acid

>  <TYPE>  (1770) 
Backbone

>  <CLASS>  (1770) 
alpha

>  <ANALOG>  (1770) 
Phe

>  <MOL_WT>  (1770) 
165.19199999999995

>  <LOGP>  (1770) 
0.641

>  <TPSA>  (1770) 
63.32000000000001

>  <POPULARITY>  (1770) 
98.5

>  <PROTECTED>  (1770) 
TRUE

>  <SMILES>  (1770) 
N[C@@H](Cc1(ccccc1))C(=O)O

>  <INCHIKEY>  (1770) 
COLNVLDHVKWLRT-QMMMGPOBSA-N

$$$$
Fmoc
     RDKit          2D

 18 20  0  0  0  0  0  0  0  0999 V2000
    3.8908   -2.1100    0.0000 C   0  0  0  0  0  0  0  0  0  0  0  0
    2.7759   -3.1135    0.0000 C   0  0  0  0  0  0  0  0  0  0  0  0
    1.3494   -2.6497    0.0000 C   0  0  0  0  0  0  0  0  0  0  0  0
    1.0378   -1.1824    0.0000 C   0  0  0  0  0  0  0  0  0  0  0  0
   -0.2611   -0.4322    0.0000 C   0  0  0  0  0  0  0  0  0  0  0  0
    0.0510    1.0350    0.0000 C   0  0  0  0  0  0  0  0  0  0  0  0
   -0.8304    2.2487    0.0000 C   0  0  0  0  0  0  0  0  0  0  0  0
   -0.2201    3.6189    0.0000 C   0  0  0  0  0  0  0  0  0  0  0  0
    1.2717    3.7754    0.0000 C   0  0  0  0  0  0  0  0  0  0  0  0
    2.1532    2.5617    0.0000 C   0  0  0  0  0  0  0  0  0  0  0  0
    1.5428    1.1915    0.0000 C   0  0  0  0  0  0  0  0  0  0  0  0
    2.1527   -0.1789    0.0000 C   0  0  0  0  0  0  0  0  0  0  0  0
    3.5792   -0.6427    0.0000 C   0  0  0  0  0  0  0  0  0  0  0  0
   -1.6315   -1.0420    0.0000 C   0  0  0  0  0  0  0  0  0  0  0  0
   -2.8449   -0.1601    0.0000 O   0  0  0  0  0  0  0  0  0  0  0  0
   -4.2153   -0.7700    0.0000 C   0  0  0  0  0  0  0  0  0  0  0  0
   -4.3724   -2.2617    0.0000 O   0  0  0  0  0  0  0  0  0  0  0  0
   -5.4287    0.1119    0.0000 O   0  0  0  0  0  0  0  0  0  0  0  0
  1  2  2  0
  2  3  1  0
  3  4  2  0
  4  5  1  0
  5  6  1  0
  6  7  2  0
  7  8  1  0
  8  9  2  0
  9 10  1  0
 10 11  2  0
 11 12  1  0
 12 13  2  0
  5 14  1  0
 14 15  1  0
 15 16  1  0
 16 17  2  0
 16 18  1  0
 11  6  1  0
 12  4  1  0
 13  1  1  0
M  END
>  <rName>  (1771) 
Fmoc

>  <PQ_SYMBOL>  (1771) 
Fmoc

>  <FULL_NAME>  (1771) 
Fluoren-9-ylmethyl hydrogen carbonate

>  <IUPAC_CONDENSED>  (1771) 
Fmoc

>  <IUPAC>  (1771) 
(tricyclo[7.4.0.0^{2,7}]trideca-1(13),2,4,6,9,11-hexaen-8-yl)methyl hydrogen carbonate

>  <TYPE>  (1771) 
N-term cap

>  <CLASS>  (1771) 
n_cap

>  <ANALOG>  (1771) 
X

>  <MOL_WT>  (1771) 
240.25799999999992

>  <LOGP>  (1771) 
3.493500000000002

>  <TPSA>  (1771) 
46.53

>  <POPULARITY>  (1771) 
5.6

>  <PROTECTED>  (1771) 
FALSE

>  <SMILES>  (1771) 
c3ccc2C(c1(ccccc1c2c3))COC(=O)O

>  <INCHIKEY>  (1771) 
FGIVSGPRGVABAB-UHFFFAOYSA-N

$$$$
G
     RDKit          2D

  5  4  0  0  0  0  0  0  0  0999 V2000
   -2.0785    0.0000    0.0000 N   0  0  0  0  0  0  0  0  0  0  0  0
   -0.7794   -0.7500    0.0000 C   0  0  0  0  0  0  0  0  0  0  0  0
    0.5196   -0.0000    0.0000 C   0  0  0  0  0  0  0  0  0  0  0  0
    0.5196    1.5000    0.0000 O   0  0  0  0  0  0  0  0  0  0  0  0
    1.8187   -0.7500    0.0000 O   0  0  0  0  0  0  0  0  0  0  0  0
  1  2  1  0
  2  3  1  0
  3  4  2  0
  3  5  1  0
M  END
>  <rName>  (1772) 
G

>  <PQ_SYMBOL>  (1772) 
G

>  <FULL_NAME>  (1772) 
Glycine

>  <IUPAC_CONDENSED>  (1772) 
Gly

>  <IUPAC>  (1772) 
2-aminoacetic acid

>  <TYPE>  (1772) 
Backbone

>  <CLASS>  (1772) 
alpha

>  <ANALOG>  (1772) 
Gly

>  <MOL_WT>  (1772) 
75.067

>  <LOGP>  (1772) 
-0.9702999999999999

>  <TPSA>  (1772) 
63.32000000000001

>  <POPULARITY>  (1772) 
99.8

>  <PROTECTED>  (1772) 
TRUE

>  <SMILES>  (1772) 
NCC(=O)O

>  <INCHIKEY>  (1772) 
DHMQDGOQFOQNFH-UHFFFAOYSA-N

$$$$
Gaba
     RDKit          2D

  7  6  0  0  0  0  0  0  0  0999 V2000
   -3.5140    0.3095    0.0000 N   0  0  0  0  0  0  0  0  0  0  0  0
   -2.2602   -0.5139    0.0000 C   0  0  0  0  0  0  0  0  0  0  0  0
   -0.9202    0.1603    0.0000 C   0  0  0  0  0  0  0  0  0  0  0  0
    0.3336   -0.6631    0.0000 C   0  0  0  0  0  0  0  0  0  0  0  0
    1.6736    0.0110    0.0000 C   0  0  0  0  0  0  0  0  0  0  0  0
    1.7598    1.5085    0.0000 O   0  0  0  0  0  0  0  0  0  0  0  0
    2.9274   -0.8124    0.0000 O   0  0  0  0  0  0  0  0  0  0  0  0
  1  2  1  0
  2  3  1  0
  3  4  1  0
  4  5  1  0
  5  6  2  0
  5  7  1  0
M  END
>  <rName>  (1773) 
Gaba

>  <PQ_SYMBOL>  (1773) 
Gaba

>  <FULL_NAME>  (1773) 
gamma-aminobutyric-acid

>  <IUPAC_CONDENSED>  (1773) 
Gaba

>  <IUPAC>  (1773) 
4-aminobutanoic acid

>  <TYPE>  (1773) 
Backbone

>  <CLASS>  (1773) 
gamma

>  <ANALOG>  (1773) 
Gly

>  <MOL_WT>  (1773) 
103.12099999999998

>  <LOGP>  (1773) 
-0.19009999999999977

>  <TPSA>  (1773) 
63.32000000000001

>  <POPULARITY>  (1773) 
19.2

>  <PROTECTED>  (1773) 
TRUE

>  <SMILES>  (1773) 
NCCCC(=O)O

>  <INCHIKEY>  (1773) 
BTCSSZJGUNDROE-UHFFFAOYSA-N

$$$$
Gaba_22diMe
     RDKit          2D

  9  8  0  0  0  0  0  0  0  0999 V2000
   -3.7229    0.0367    0.0000 N   0  0  0  0  0  0  0  0  0  0  0  0
   -2.2832   -0.3846    0.0000 C   0  0  0  0  0  0  0  0  0  0  0  0
   -1.1986    0.6515    0.0000 C   0  0  0  0  0  0  0  0  0  0  0  0
    0.2410    0.2302    0.0000 C   0  0  0  0  0  0  0  0  0  0  0  0
    0.6623    1.6699    0.0000 C   0  0  0  0  0  0  0  0  0  0  0  0
   -0.1803   -1.2094    0.0000 C   0  0  0  0  0  0  0  0  0  0  0  0
    1.6807   -0.1911    0.0000 C   0  0  0  0  0  0  0  0  0  0  0  0
    2.7653    0.8450    0.0000 O   0  0  0  0  0  0  0  0  0  0  0  0
    2.0356   -1.6484    0.0000 O   0  0  0  0  0  0  0  0  0  0  0  0
  1  2  1  0
  2  3  1  0
  3  4  1  0
  4  5  1  0
  4  6  1  0
  4  7  1  0
  7  8  2  0
  7  9  1  0
M  END
>  <rName>  (1774) 
Gaba_22diMe

>  <PQ_SYMBOL>  (1774) 
Gaba_22diMe

>  <FULL_NAME>  (1774) 
4-amino-2,2-dimethylbutanoic acid

>  <IUPAC_CONDENSED>  (1774) 
Gaba(2,2-diMe)

>  <IUPAC>  (1774) 
4-amino-2,2-dimethylbutanoic acid

>  <TYPE>  (1774) 
Backbone

>  <CLASS>  (1774) 
gamma

>  <ANALOG>  (1774) 
Ala

>  <MOL_WT>  (1774) 
131.17499999999998

>  <LOGP>  (1774) 
0.4460000000000001

>  <TPSA>  (1774) 
63.32000000000001

>  <POPULARITY>  (1774) 
17.9

>  <PROTECTED>  (1774) 
TRUE

>  <SMILES>  (1774) 
NCCC(C)(C)C(=O)O

>  <INCHIKEY>  (1774) 
SBEOMMHBZTWQLR-UHFFFAOYSA-N

$$$$
Gaba_2F
     RDKit          2D

  8  7  0  0  0  0  0  0  0  0999 V2000
   -3.5551    0.5134    0.0000 N   0  0  0  0  0  0  0  0  0  0  0  0
   -2.2862   -0.2864    0.0000 C   0  0  0  0  0  0  0  0  0  0  0  0
   -0.9590    0.4126    0.0000 C   0  0  0  0  0  0  0  0  0  0  0  0
    0.3100   -0.3873    0.0000 C   0  0  0  0  0  0  0  0  0  0  0  0
    0.2517   -1.8862    0.0000 F   0  0  0  0  0  0  0  0  0  0  0  0
    1.6371    0.3117    0.0000 C   0  0  0  0  0  0  0  0  0  0  0  0
    1.6954    1.8105    0.0000 O   0  0  0  0  0  0  0  0  0  0  0  0
    2.9061   -0.4882    0.0000 O   0  0  0  0  0  0  0  0  0  0  0  0
  1  2  1  0
  2  3  1  0
  3  4  1  0
  4  5  1  0
  4  6  1  0
  6  7  2  0
  6  8  1  0
M  END
>  <rName>  (1775) 
Gaba_2F

>  <PQ_SYMBOL>  (1775) 
Gaba_2F

>  <FULL_NAME>  (1775) 
4-Amino-2-fluorobutanoic acid

>  <IUPAC_CONDENSED>  (1775) 
Gaba(2-F)

>  <IUPAC>  (1775) 
4-amino-2-fluorobutanoic acid

>  <TYPE>  (1775) 
Backbone

>  <CLASS>  (1775) 
gamma

>  <ANALOG>  (1775) 
X

>  <MOL_WT>  (1775) 
121.11099999999998

>  <LOGP>  (1775) 
-0.24210000000000004

>  <TPSA>  (1775) 
63.32000000000001

>  <POPULARITY>  (1775) 
9.2

>  <PROTECTED>  (1775) 
TRUE

>  <SMILES>  (1775) 
NCCC(F)C(=O)O

>  <INCHIKEY>  (1775) 
ASXBTBJGHQPOPY-UHFFFAOYSA-N

$$$$
Gaba_2Me
     RDKit          2D

  8  7  0  0  0  0  0  0  0  0999 V2000
   -3.3153   -0.1141    0.0000 N   0  0  0  0  0  0  0  0  0  0  0  0
   -1.8248   -0.2832    0.0000 C   0  0  0  0  0  0  0  0  0  0  0  0
   -0.9331    0.9230    0.0000 C   0  0  0  0  0  0  0  0  0  0  0  0
    0.5573    0.7539    0.0000 C   0  0  0  0  0  0  0  0  0  0  0  0
    1.4490    1.9601    0.0000 C   0  0  0  0  0  0  0  0  0  0  0  0
    1.1561   -0.6215    0.0000 C   0  0  0  0  0  0  0  0  0  0  0  0
    2.6465   -0.7906    0.0000 O   0  0  0  0  0  0  0  0  0  0  0  0
    0.2644   -1.8276    0.0000 O   0  0  0  0  0  0  0  0  0  0  0  0
  1  2  1  0
  2  3  1  0
  3  4  1  0
  4  5  1  0
  4  6  1  0
  6  7  2  0
  6  8  1  0
M  END
>  <rName>  (1776) 
Gaba_2Me

>  <PQ_SYMBOL>  (1776) 
Gaba_2Me

>  <FULL_NAME>  (1776) 
4-Amino-2-methylbutanoic acid

>  <IUPAC_CONDENSED>  (1776) 
Gaba(2-Me)

>  <IUPAC>  (1776) 
4-amino-2-methylbutanoic acid

>  <TYPE>  (1776) 
Backbone

>  <CLASS>  (1776) 
gamma

>  <ANALOG>  (1776) 
Ala

>  <MOL_WT>  (1776) 
117.14799999999998

>  <LOGP>  (1776) 
0.05590000000000023

>  <TPSA>  (1776) 
63.32000000000001

>  <POPULARITY>  (1776) 
16.1

>  <PROTECTED>  (1776) 
TRUE

>  <SMILES>  (1776) 
NCCC(C)C(=O)O

>  <INCHIKEY>  (1776) 
AEBRINKRALSWNY-UHFFFAOYSA-N

$$$$
Gaba_2OH_2Me
     RDKit          2D

  9  8  0  0  0  0  0  0  0  0999 V2000
    3.3748   -0.6318    0.0000 N   0  0  0  0  0  0  0  0  0  0  0  0
    2.1721    0.2647    0.0000 C   0  0  0  0  0  0  0  0  0  0  0  0
    0.7944   -0.3286    0.0000 C   0  0  0  0  0  0  0  0  0  0  0  0
   -0.4082    0.5679    0.0000 C   0  0  0  0  0  0  0  0  0  0  0  0
    0.4883    1.7705    0.0000 O   0  0  0  0  0  0  0  0  0  0  0  0
   -1.6108    1.4643    0.0000 C   0  0  0  0  0  0  0  0  0  0  0  0
   -1.3047   -0.6348    0.0000 C   0  0  0  0  0  0  0  0  0  0  0  0
   -2.7944   -0.4597    0.0000 O   0  0  0  0  0  0  0  0  0  0  0  0
   -0.7114   -2.0125    0.0000 O   0  0  0  0  0  0  0  0  0  0  0  0
  1  2  1  0
  2  3  1  0
  3  4  1  0
  4  5  1  0
  4  6  1  0
  4  7  1  0
  7  8  2  0
  7  9  1  0
M  END
>  <rName>  (1777) 
Gaba_2OH_2Me

>  <PQ_SYMBOL>  (1777) 
Gaba_2OH_2Me

>  <FULL_NAME>  (1777) 
4-Amino-2-hydroxy-2-methylbutanoic acid

>  <IUPAC_CONDENSED>  (1777) 
Gaba(2-OH,2-Me)

>  <IUPAC>  (1777) 
4-amino-2-hydroxy-2-methylbutanoic acid

>  <TYPE>  (1777) 
Backbone

>  <CLASS>  (1777) 
gamma

>  <ANALOG>  (1777) 
X

>  <MOL_WT>  (1777) 
133.147

>  <LOGP>  (1777) 
-0.8292000000000004

>  <TPSA>  (1777) 
83.55

>  <POPULARITY>  (1777) 
13.4

>  <PROTECTED>  (1777) 
TRUE

>  <SMILES>  (1777) 
NCCC(O)(C)C(=O)O

>  <INCHIKEY>  (1777) 
RBKMSGNMCSWYFW-UHFFFAOYSA-N

$$$$
Gaba_2ROH
     RDKit          2D

  8  7  0  0  0  0  0  0  0  0999 V2000
   -3.5551    0.5134    0.0000 N   0  0  0  0  0  0  0  0  0  0  0  0
   -2.2862   -0.2864    0.0000 C   0  0  0  0  0  0  0  0  0  0  0  0
   -0.9590    0.4126    0.0000 C   0  0  0  0  0  0  0  0  0  0  0  0
    0.3100   -0.3873    0.0000 C   0  0  0  0  0  0  0  0  0  0  0  0
    0.2517   -1.8862    0.0000 O   0  0  0  0  0  0  0  0  0  0  0  0
    1.6371    0.3117    0.0000 C   0  0  0  0  0  0  0  0  0  0  0  0
    1.6954    1.8105    0.0000 O   0  0  0  0  0  0  0  0  0  0  0  0
    2.9061   -0.4882    0.0000 O   0  0  0  0  0  0  0  0  0  0  0  0
  1  2  1  0
  2  3  1  0
  3  4  1  0
  4  5  1  6
  4  6  1  0
  6  7  2  0
  6  8  1  0
M  END
>  <rName>  (1778) 
Gaba_2ROH

>  <PQ_SYMBOL>  (1778) 
Gaba_2ROH

>  <FULL_NAME>  (1778) 
(2R)-4-Amino-2-hydroxybutyric acid

>  <IUPAC_CONDENSED>  (1778) 
Gaba(2R-OH)

>  <IUPAC>  (1778) 
(2R)-4-amino-2-hydroxybutanoic acid

>  <TYPE>  (1778) 
Backbone

>  <CLASS>  (1778) 
gamma

>  <ANALOG>  (1778) 
X

>  <MOL_WT>  (1778) 
119.11999999999998

>  <LOGP>  (1778) 
-1.2192999999999998

>  <TPSA>  (1778) 
83.55

>  <POPULARITY>  (1778) 
13.5

>  <PROTECTED>  (1778) 
TRUE

>  <SMILES>  (1778) 
NCC[C@@H](O)C(=O)O

>  <INCHIKEY>  (1778) 
IVUOMFWNDGNLBJ-GSVOUGTGSA-N

$$$$
Gaba_2SOH
     RDKit          2D

  8  7  0  0  0  0  0  0  0  0999 V2000
   -3.5551    0.5134    0.0000 N   0  0  0  0  0  0  0  0  0  0  0  0
   -2.2862   -0.2864    0.0000 C   0  0  0  0  0  0  0  0  0  0  0  0
   -0.9590    0.4126    0.0000 C   0  0  0  0  0  0  0  0  0  0  0  0
    0.3100   -0.3873    0.0000 C   0  0  0  0  0  0  0  0  0  0  0  0
    0.2517   -1.8862    0.0000 O   0  0  0  0  0  0  0  0  0  0  0  0
    1.6371    0.3117    0.0000 C   0  0  0  0  0  0  0  0  0  0  0  0
    1.6954    1.8105    0.0000 O   0  0  0  0  0  0  0  0  0  0  0  0
    2.9061   -0.4882    0.0000 O   0  0  0  0  0  0  0  0  0  0  0  0
  1  2  1  0
  2  3  1  0
  3  4  1  0
  4  5  1  1
  4  6  1  0
  6  7  2  0
  6  8  1  0
M  END
>  <rName>  (1779) 
Gaba_2SOH

>  <PQ_SYMBOL>  (1779) 
Gaba_2SOH

>  <FULL_NAME>  (1779) 
4-Amino-2-hydroxybutyric acid, (S)-(-)-

>  <IUPAC_CONDENSED>  (1779) 
Gaba(2S-OH)

>  <IUPAC>  (1779) 
(2S)-4-amino-2-hydroxybutanoic acid

>  <TYPE>  (1779) 
Backbone

>  <CLASS>  (1779) 
gamma

>  <ANALOG>  (1779) 
X

>  <MOL_WT>  (1779) 
119.11999999999998

>  <LOGP>  (1779) 
-1.2192999999999998

>  <TPSA>  (1779) 
83.55

>  <POPULARITY>  (1779) 
12.0

>  <PROTECTED>  (1779) 
TRUE

>  <SMILES>  (1779) 
NCC[C@H](O)C(=O)O

>  <INCHIKEY>  (1779) 
IVUOMFWNDGNLBJ-VKHMYHEASA-N

$$$$
Gaba_2cPr
     RDKit          2D

 10 10  0  0  0  0  0  0  0  0999 V2000
   -3.5724    1.3722    0.0000 N   0  0  0  0  0  0  0  0  0  0  0  0
   -2.3945    0.4435    0.0000 C   0  0  0  0  0  0  0  0  0  0  0  0
   -1.0012    0.9992    0.0000 C   0  0  0  0  0  0  0  0  0  0  0  0
    0.1767    0.0705    0.0000 C   0  0  0  0  0  0  0  0  0  0  0  0
    1.5699    0.6262    0.0000 C   0  0  0  0  0  0  0  0  0  0  0  0
    3.0544    0.4108    0.0000 C   0  0  0  0  0  0  0  0  0  0  0  0
    2.4987    1.8041    0.0000 C   0  0  0  0  0  0  0  0  0  0  0  0
   -0.0387   -1.4140    0.0000 C   0  0  0  0  0  0  0  0  0  0  0  0
    1.1392   -2.3427    0.0000 O   0  0  0  0  0  0  0  0  0  0  0  0
   -1.4320   -1.9697    0.0000 O   0  0  0  0  0  0  0  0  0  0  0  0
  1  2  1  0
  2  3  1  0
  3  4  1  0
  4  5  1  0
  5  6  1  0
  6  7  1  0
  4  8  1  0
  8  9  2  0
  8 10  1  0
  7  5  1  0
M  END
>  <rName>  (1780) 
Gaba_2cPr

>  <PQ_SYMBOL>  (1780) 
Gaba_2cPr

>  <FULL_NAME>  (1780) 
4-Amino-2-cyclopropylbutanoic acid

>  <IUPAC_CONDENSED>  (1780) 
Gaba(2-cPr)

>  <IUPAC>  (1780) 
4-amino-2-cyclopropylbutanoic acid

>  <TYPE>  (1780) 
Backbone

>  <CLASS>  (1780) 
gamma

>  <ANALOG>  (1780) 
X

>  <MOL_WT>  (1780) 
143.186

>  <LOGP>  (1780) 
0.4460000000000001

>  <TPSA>  (1780) 
63.32000000000001

>  <POPULARITY>  (1780) 
6.6

>  <PROTECTED>  (1780) 
TRUE

>  <SMILES>  (1780) 
NCCC(C1(CC1))C(=O)O

>  <INCHIKEY>  (1780) 
JFSHBZBVQPUEBZ-UHFFFAOYSA-N

$$$$
Gaba_2pyrazol4yl
     RDKit          2D

 12 12  0  0  0  0  0  0  0  0999 V2000
   -3.8579    1.8634    0.0000 N   0  0  0  0  0  0  0  0  0  0  0  0
   -2.8630    0.7408    0.0000 C   0  0  0  0  0  0  0  0  0  0  0  0
   -1.3933    1.0411    0.0000 C   0  0  0  0  0  0  0  0  0  0  0  0
   -0.3984   -0.0814    0.0000 C   0  0  0  0  0  0  0  0  0  0  0  0
    1.0712    0.2189    0.0000 C   0  0  0  0  0  0  0  0  0  0  0  0
    2.1780   -0.7935    0.0000 C   0  0  0  0  0  0  0  0  0  0  0  0
    3.4829   -0.0537    0.0000 N   0  0  0  0  0  0  0  0  0  0  0  0
    3.1826    1.4159    0.0000 N   0  0  0  0  0  0  0  0  0  0  0  0
    1.6920    1.5844    0.0000 C   0  0  0  0  0  0  0  0  0  0  0  0
   -0.8731   -1.5043    0.0000 C   0  0  0  0  0  0  0  0  0  0  0  0
    0.1218   -2.6269    0.0000 O   0  0  0  0  0  0  0  0  0  0  0  0
   -2.3428   -1.8047    0.0000 O   0  0  0  0  0  0  0  0  0  0  0  0
  1  2  1  0
  2  3  1  0
  3  4  1  0
  4  5  1  0
  5  6  1  0
  6  7  2  0
  7  8  1  0
  8  9  1  0
  4 10  1  0
 10 11  2  0
 10 12  1  0
  9  5  2  0
M  END
>  <rName>  (1781) 
Gaba_2pyrazol4yl

>  <PQ_SYMBOL>  (1781) 
Gaba_2pyrazol4yl

>  <FULL_NAME>  (1781) 
4-amino-2-(1H-pyrazol-4-yl)butanoic acid

>  <IUPAC_CONDENSED>  (1781) 
Gaba(2-pyrazol-4-yl)

>  <IUPAC>  (1781) 
4-amino-2-(1H-pyrazol-4-yl)butanoic acid

>  <TYPE>  (1781) 
Backbone

>  <CLASS>  (1781) 
gamma

>  <ANALOG>  (1781) 
X

>  <MOL_WT>  (1781) 
169.184

>  <LOGP>  (1781) 
-0.07330000000000036

>  <TPSA>  (1781) 
92.0

>  <POPULARITY>  (1781) 
6.2

>  <PROTECTED>  (1781) 
TRUE

>  <SMILES>  (1781) 
NCCC(c1(cn[nH]c1))C(=O)O

>  <INCHIKEY>  (1781) 
SSCXPGXBBDDKJJ-UHFFFAOYSA-N

$$$$
Gaba_2pyrazol4yl_3CF3
     RDKit          2D

 16 16  0  0  0  0  0  0  0  0999 V2000
    3.0957   -2.8177    0.0000 N   0  0  0  0  0  0  0  0  0  0  0  0
    2.7353   -1.3617    0.0000 C   0  0  0  0  0  0  0  0  0  0  0  0
    1.2941   -0.9457    0.0000 C   0  0  0  0  0  0  0  0  0  0  0  0
    0.9337    0.5103    0.0000 C   0  0  0  0  0  0  0  0  0  0  0  0
   -0.5075    0.9262    0.0000 C   0  0  0  0  0  0  0  0  0  0  0  0
   -1.0181    2.3366    0.0000 C   0  0  0  0  0  0  0  0  0  0  0  0
   -2.5173    2.2868    0.0000 N   0  0  0  0  0  0  0  0  0  0  0  0
   -2.9332    0.8457    0.0000 N   0  0  0  0  0  0  0  0  0  0  0  0
   -1.6911    0.0048    0.0000 C   0  0  0  0  0  0  0  0  0  0  0  0
   -1.6413   -1.4944    0.0000 C   0  0  0  0  0  0  0  0  0  0  0  0
   -1.5915   -2.9936    0.0000 F   0  0  0  0  0  0  0  0  0  0  0  0
   -3.1405   -1.5442    0.0000 F   0  0  0  0  0  0  0  0  0  0  0  0
   -0.1421   -1.4446    0.0000 F   0  0  0  0  0  0  0  0  0  0  0  0
    2.0145    1.5505    0.0000 C   0  0  0  0  0  0  0  0  0  0  0  0
    1.6541    3.0065    0.0000 O   0  0  0  0  0  0  0  0  0  0  0  0
    3.4556    1.1345    0.0000 O   0  0  0  0  0  0  0  0  0  0  0  0
  1  2  1  0
  2  3  1  0
  3  4  1  0
  4  5  1  0
  5  6  2  0
  6  7  1  0
  7  8  1  0
  8  9  2  0
  9 10  1  0
 10 11  1  0
 10 12  1  0
 10 13  1  0
  4 14  1  0
 14 15  2  0
 14 16  1  0
  9  5  1  0
M  END
>  <rName>  (1782) 
Gaba_2pyrazol4yl_3CF3

>  <PQ_SYMBOL>  (1782) 
Gaba_2pyrazol4yl_3CF3

>  <FULL_NAME>  (1782) 
4-amino-2-[3-(trifluoromethyl)-1H-pyrazol-4-yl]butanoic acid

>  <IUPAC_CONDENSED>  (1782) 
Gaba(2-pyrazol-4-yl(3-CF3))

>  <IUPAC>  (1782) 
4-amino-2-(3-(trifluoromethyl)-1H-pyrazol-4-yl)butanoic acid

>  <TYPE>  (1782) 
Backbone

>  <CLASS>  (1782) 
gamma

>  <ANALOG>  (1782) 
X

>  <MOL_WT>  (1782) 
237.18099999999995

>  <LOGP>  (1782) 
0.9454999999999998

>  <TPSA>  (1782) 
92.00000000000001

>  <POPULARITY>  (1782) 
2.3

>  <PROTECTED>  (1782) 
TRUE

>  <SMILES>  (1782) 
NCCC(c1(c[nH]nc1C(F)(F)F))C(=O)O

>  <INCHIKEY>  (1782) 
NKFZVNYOIGBDEW-UHFFFAOYSA-N

$$$$
Gaba_33diF
     RDKit          2D

  9  8  0  0  0  0  0  0  0  0999 V2000
   -2.5702    1.3248    0.0000 N   0  0  0  0  0  0  0  0  0  0  0  0
   -2.2010   -0.1290    0.0000 C   0  0  0  0  0  0  0  0  0  0  0  0
   -0.7573   -0.5362    0.0000 C   0  0  0  0  0  0  0  0  0  0  0  0
   -0.3501    0.9074    0.0000 F   0  0  0  0  0  0  0  0  0  0  0  0
   -1.1645   -1.9799    0.0000 F   0  0  0  0  0  0  0  0  0  0  0  0
    0.6863   -0.9434    0.0000 C   0  0  0  0  0  0  0  0  0  0  0  0
    1.7608    0.1032    0.0000 C   0  0  0  0  0  0  0  0  0  0  0  0
    1.3916    1.5571    0.0000 O   0  0  0  0  0  0  0  0  0  0  0  0
    3.2045   -0.3040    0.0000 O   0  0  0  0  0  0  0  0  0  0  0  0
  1  2  1  0
  2  3  1  0
  3  4  1  0
  3  5  1  0
  3  6  1  0
  6  7  1  0
  7  8  2  0
  7  9  1  0
M  END
>  <rName>  (1783) 
Gaba_33diF

>  <PQ_SYMBOL>  (1783) 
Gaba_33diF

>  <FULL_NAME>  (1783) 
4-Amino-3,3-difluorobutanoic acid

>  <IUPAC_CONDENSED>  (1783) 
Gaba(3,3-diF)

>  <IUPAC>  (1783) 
4-amino-3,3-difluorobutanoic acid

>  <TYPE>  (1783) 
Backbone

>  <CLASS>  (1783) 
gamma

>  <ANALOG>  (1783) 
X

>  <MOL_WT>  (1783) 
139.101

>  <LOGP>  (1783) 
0.05509999999999987

>  <TPSA>  (1783) 
63.32000000000001

>  <POPULARITY>  (1783) 
5.6

>  <PROTECTED>  (1783) 
TRUE

>  <SMILES>  (1783) 
NCC(F)(F)CC(=O)O

>  <INCHIKEY>  (1783) 
WXGKXOWURHJBDJ-UHFFFAOYSA-N

$$$$
Gaba_33diMe
     RDKit          2D

  9  8  0  0  0  0  0  0  0  0999 V2000
    2.5702   -1.3248    0.0000 N   0  0  0  0  0  0  0  0  0  0  0  0
    2.2010    0.1290    0.0000 C   0  0  0  0  0  0  0  0  0  0  0  0
    0.7573    0.5362    0.0000 C   0  0  0  0  0  0  0  0  0  0  0  0
    1.1645    1.9799    0.0000 C   0  0  0  0  0  0  0  0  0  0  0  0
    0.3501   -0.9074    0.0000 C   0  0  0  0  0  0  0  0  0  0  0  0
   -0.6863    0.9434    0.0000 C   0  0  0  0  0  0  0  0  0  0  0  0
   -1.7608   -0.1032    0.0000 C   0  0  0  0  0  0  0  0  0  0  0  0
   -1.3916   -1.5571    0.0000 O   0  0  0  0  0  0  0  0  0  0  0  0
   -3.2045    0.3040    0.0000 O   0  0  0  0  0  0  0  0  0  0  0  0
  1  2  1  0
  2  3  1  0
  3  4  1  0
  3  5  1  0
  3  6  1  0
  6  7  1  0
  7  8  2  0
  7  9  1  0
M  END
>  <rName>  (1784) 
Gaba_33diMe

>  <PQ_SYMBOL>  (1784) 
Gaba_33diMe

>  <FULL_NAME>  (1784) 
4-amino-3,3-dimethyl-butyric acid

>  <IUPAC_CONDENSED>  (1784) 
Gaba(3,3-diMe)

>  <IUPAC>  (1784) 
4-amino-3,3-dimethylbutanoic acid

>  <TYPE>  (1784) 
Backbone

>  <CLASS>  (1784) 
gamma

>  <ANALOG>  (1784) 
Ala

>  <MOL_WT>  (1784) 
131.17499999999998

>  <LOGP>  (1784) 
0.4460000000000001

>  <TPSA>  (1784) 
63.32000000000001

>  <POPULARITY>  (1784) 
15.0

>  <PROTECTED>  (1784) 
TRUE

>  <SMILES>  (1784) 
NCC(C)(C)CC(=O)O

>  <INCHIKEY>  (1784) 
BDEGNHSSXDSZRQ-UHFFFAOYSA-N

$$$$
Gaba_3Bn
     RDKit          2D

 14 14  0  0  0  0  0  0  0  0999 V2000
   -2.1109    1.8553    0.0000 N   0  0  0  0  0  0  0  0  0  0  0  0
   -0.8633    1.0225    0.0000 C   0  0  0  0  0  0  0  0  0  0  0  0
   -0.9607   -0.4743    0.0000 C   0  0  0  0  0  0  0  0  0  0  0  0
    0.2869   -1.3071    0.0000 C   0  0  0  0  0  0  0  0  0  0  0  0
    1.6319   -0.6431    0.0000 C   0  0  0  0  0  0  0  0  0  0  0  0
    1.7293    0.8538    0.0000 C   0  0  0  0  0  0  0  0  0  0  0  0
    3.0743    1.5178    0.0000 C   0  0  0  0  0  0  0  0  0  0  0  0
    4.3219    0.6850    0.0000 C   0  0  0  0  0  0  0  0  0  0  0  0
    4.2245   -0.8118    0.0000 C   0  0  0  0  0  0  0  0  0  0  0  0
    2.8795   -1.4758    0.0000 C   0  0  0  0  0  0  0  0  0  0  0  0
   -2.3057   -1.1384    0.0000 C   0  0  0  0  0  0  0  0  0  0  0  0
   -3.5533   -0.3056    0.0000 C   0  0  0  0  0  0  0  0  0  0  0  0
   -3.4559    1.1912    0.0000 O   0  0  0  0  0  0  0  0  0  0  0  0
   -4.8983   -0.9696    0.0000 O   0  0  0  0  0  0  0  0  0  0  0  0
  1  2  1  0
  2  3  1  0
  3  4  1  0
  4  5  1  0
  5  6  2  0
  6  7  1  0
  7  8  2  0
  8  9  1  0
  9 10  2  0
  3 11  1  0
 11 12  1  0
 12 13  2  0
 12 14  1  0
 10  5  1  0
M  END
>  <rName>  (1785) 
Gaba_3Bn

>  <PQ_SYMBOL>  (1785) 
Gaba_3Bn

>  <FULL_NAME>  (1785) 
4-Amino-3-benzylbutanoic acid

>  <IUPAC_CONDENSED>  (1785) 
Gaba(3-Bn)

>  <IUPAC>  (1785) 
4-amino-3-benzylbutanoic acid

>  <TYPE>  (1785) 
Backbone

>  <CLASS>  (1785) 
gamma

>  <ANALOG>  (1785) 
Phe

>  <MOL_WT>  (1785) 
193.24599999999995

>  <LOGP>  (1785) 
1.2787

>  <TPSA>  (1785) 
63.32000000000001

>  <POPULARITY>  (1785) 
11.6

>  <PROTECTED>  (1785) 
TRUE

>  <SMILES>  (1785) 
NCC(Cc1(ccccc1))CC(=O)O

>  <INCHIKEY>  (1785) 
SMWZNXFMLNNMFB-UHFFFAOYSA-N

$$$$
Gaba_3CF3
     RDKit          2D

 11 10  0  0  0  0  0  0  0  0999 V2000
    3.0889    1.0010    0.0000 N   0  0  0  0  0  0  0  0  0  0  0  0
    1.7075    1.5856    0.0000 C   0  0  0  0  0  0  0  0  0  0  0  0
    0.5105    0.6816    0.0000 C   0  0  0  0  0  0  0  0  0  0  0  0
    0.6950   -0.8070    0.0000 C   0  0  0  0  0  0  0  0  0  0  0  0
    0.8794   -2.2956    0.0000 F   0  0  0  0  0  0  0  0  0  0  0  0
   -0.7936   -0.9915    0.0000 F   0  0  0  0  0  0  0  0  0  0  0  0
    2.1836   -0.6226    0.0000 F   0  0  0  0  0  0  0  0  0  0  0  0
   -0.8709    1.2662    0.0000 C   0  0  0  0  0  0  0  0  0  0  0  0
   -2.0678    0.3621    0.0000 C   0  0  0  0  0  0  0  0  0  0  0  0
   -1.8834   -1.1265    0.0000 O   0  0  0  0  0  0  0  0  0  0  0  0
   -3.4492    0.9467    0.0000 O   0  0  0  0  0  0  0  0  0  0  0  0
  1  2  1  0
  2  3  1  0
  3  4  1  0
  4  5  1  0
  4  6  1  0
  4  7  1  0
  3  8  1  0
  8  9  1  0
  9 10  2  0
  9 11  1  0
M  END
>  <rName>  (1786) 
Gaba_3CF3

>  <PQ_SYMBOL>  (1786) 
Gaba_3CF3

>  <FULL_NAME>  (1786) 
4-Amino-3-(trifluoromethyl)butanoic acid

>  <IUPAC_CONDENSED>  (1786) 
Gaba(3-CF3)

>  <IUPAC>  (1786) 
4-amino-3-(trifluoromethyl)butanoic acid

>  <TYPE>  (1786) 
Backbone

>  <CLASS>  (1786) 
gamma

>  <ANALOG>  (1786) 
X

>  <MOL_WT>  (1786) 
171.11800000000002

>  <LOGP>  (1786) 
0.5982999999999998

>  <TPSA>  (1786) 
63.32000000000001

>  <POPULARITY>  (1786) 
6.6

>  <PROTECTED>  (1786) 
TRUE

>  <SMILES>  (1786) 
NCC(C(F)(F)F)CC(=O)O

>  <INCHIKEY>  (1786) 
UJSHWEULYXPUCV-UHFFFAOYSA-N

$$$$
Gaba_3CHF2
     RDKit          2D

 10  9  0  0  0  0  0  0  0  0999 V2000
    3.1802    0.8418    0.0000 N   0  0  0  0  0  0  0  0  0  0  0  0
    1.8138    1.4604    0.0000 C   0  0  0  0  0  0  0  0  0  0  0  0
    0.5948    0.5863    0.0000 C   0  0  0  0  0  0  0  0  0  0  0  0
    0.7422   -0.9064    0.0000 C   0  0  0  0  0  0  0  0  0  0  0  0
   -0.4768   -1.7805    0.0000 F   0  0  0  0  0  0  0  0  0  0  0  0
    2.1087   -1.5251    0.0000 F   0  0  0  0  0  0  0  0  0  0  0  0
   -0.7717    1.2050    0.0000 C   0  0  0  0  0  0  0  0  0  0  0  0
   -1.9907    0.3309    0.0000 C   0  0  0  0  0  0  0  0  0  0  0  0
   -1.8433   -1.1619    0.0000 O   0  0  0  0  0  0  0  0  0  0  0  0
   -3.3572    0.9495    0.0000 O   0  0  0  0  0  0  0  0  0  0  0  0
  1  2  1  0
  2  3  1  0
  3  4  1  0
  4  5  1  0
  4  6  1  0
  3  7  1  0
  7  8  1  0
  8  9  2  0
  8 10  1  0
M  END
>  <rName>  (1787) 
Gaba_3CHF2

>  <PQ_SYMBOL>  (1787) 
Gaba_3CHF2

>  <FULL_NAME>  (1787) 
3-(Aminomethyl)-4,4-difluorobutanoic acid

>  <IUPAC_CONDENSED>  (1787) 
Gaba(3-CHF2)

>  <IUPAC>  (1787) 
4-amino-3-(difluoromethyl)butanoic acid

>  <TYPE>  (1787) 
Backbone

>  <CLASS>  (1787) 
gamma

>  <ANALOG>  (1787) 
X

>  <MOL_WT>  (1787) 
153.12800000000001

>  <LOGP>  (1787) 
0.30109999999999987

>  <TPSA>  (1787) 
63.32000000000001

>  <POPULARITY>  (1787) 
6.7

>  <PROTECTED>  (1787) 
TRUE

>  <SMILES>  (1787) 
NCC(C(F)F)CC(=O)O

>  <INCHIKEY>  (1787) 
DKICLHIPRMMYGM-UHFFFAOYSA-N

$$$$
Gaba_3Et
     RDKit          2D

  9  8  0  0  0  0  0  0  0  0999 V2000
   -0.5378    1.8899    0.0000 N   0  0  0  0  0  0  0  0  0  0  0  0
    0.8005    1.2126    0.0000 C   0  0  0  0  0  0  0  0  0  0  0  0
    0.8831   -0.2852    0.0000 C   0  0  0  0  0  0  0  0  0  0  0  0
    2.2214   -0.9626    0.0000 C   0  0  0  0  0  0  0  0  0  0  0  0
    3.4772   -0.1422    0.0000 C   0  0  0  0  0  0  0  0  0  0  0  0
   -0.3727   -1.1055    0.0000 C   0  0  0  0  0  0  0  0  0  0  0  0
   -1.7111   -0.4281    0.0000 C   0  0  0  0  0  0  0  0  0  0  0  0
   -1.7936    1.0696    0.0000 O   0  0  0  0  0  0  0  0  0  0  0  0
   -2.9669   -1.2485    0.0000 O   0  0  0  0  0  0  0  0  0  0  0  0
  1  2  1  0
  2  3  1  0
  3  4  1  0
  4  5  1  0
  3  6  1  0
  6  7  1  0
  7  8  2  0
  7  9  1  0
M  END
>  <rName>  (1788) 
Gaba_3Et

>  <PQ_SYMBOL>  (1788) 
Gaba_3Et

>  <FULL_NAME>  (1788) 
3-(Aminomethyl)pentanoic acid

>  <IUPAC_CONDENSED>  (1788) 
Gaba(3-Et)

>  <IUPAC>  (1788) 
3-(aminomethyl)pentanoic acid

>  <TYPE>  (1788) 
Backbone

>  <CLASS>  (1788) 
gamma

>  <ANALOG>  (1788) 
Ala

>  <MOL_WT>  (1788) 
131.175

>  <LOGP>  (1788) 
0.4460000000000001

>  <TPSA>  (1788) 
63.32000000000001

>  <POPULARITY>  (1788) 
15.9

>  <PROTECTED>  (1788) 
TRUE

>  <SMILES>  (1788) 
NCC(CC)CC(=O)O

>  <INCHIKEY>  (1788) 
MVIPFBVXMASPHV-UHFFFAOYSA-N

$$$$
Gaba_3Me
     RDKit          2D

  8  7  0  0  0  0  0  0  0  0999 V2000
    0.0000    1.8750    0.0000 N   0  0  0  0  0  0  0  0  0  0  0  0
   -1.2990    1.1250    0.0000 C   0  0  0  0  0  0  0  0  0  0  0  0
   -1.2990   -0.3750    0.0000 C   0  0  0  0  0  0  0  0  0  0  0  0
   -2.5981   -1.1250    0.0000 C   0  0  0  0  0  0  0  0  0  0  0  0
    0.0000   -1.1250    0.0000 C   0  0  0  0  0  0  0  0  0  0  0  0
    1.2990   -0.3750    0.0000 C   0  0  0  0  0  0  0  0  0  0  0  0
    1.2990    1.1250    0.0000 O   0  0  0  0  0  0  0  0  0  0  0  0
    2.5981   -1.1250    0.0000 O   0  0  0  0  0  0  0  0  0  0  0  0
  1  2  1  0
  2  3  1  0
  3  4  1  0
  3  5  1  0
  5  6  1  0
  6  7  2  0
  6  8  1  0
M  END
>  <rName>  (1789) 
Gaba_3Me

>  <PQ_SYMBOL>  (1789) 
Gaba_3Me

>  <FULL_NAME>  (1789) 
4-Amino-3-methylbutanoic acid

>  <IUPAC_CONDENSED>  (1789) 
Gaba(3-Me)

>  <IUPAC>  (1789) 
4-amino-3-methylbutanoic acid

>  <TYPE>  (1789) 
Backbone

>  <CLASS>  (1789) 
gamma

>  <ANALOG>  (1789) 
Ala

>  <MOL_WT>  (1789) 
117.14799999999998

>  <LOGP>  (1789) 
0.05590000000000023

>  <TPSA>  (1789) 
63.32000000000001

>  <POPULARITY>  (1789) 
16.1

>  <PROTECTED>  (1789) 
TRUE

>  <SMILES>  (1789) 
NCC(C)CC(=O)O

>  <INCHIKEY>  (1789) 
CZGLBWZXGIAIBU-UHFFFAOYSA-N

$$$$
Gaba_3Me_2F
     RDKit          2D

  9  8  0  0  0  0  0  0  0  0999 V2000
   -0.0000   -2.1667    0.0000 N   0  0  0  0  0  0  0  0  0  0  0  0
   -1.2990   -1.4167    0.0000 C   0  0  0  0  0  0  0  0  0  0  0  0
   -1.2990    0.0833    0.0000 C   0  0  0  0  0  0  0  0  0  0  0  0
   -2.5981    0.8333    0.0000 C   0  0  0  0  0  0  0  0  0  0  0  0
    0.0000    0.8333    0.0000 C   0  0  0  0  0  0  0  0  0  0  0  0
    0.0000    2.3333    0.0000 F   0  0  0  0  0  0  0  0  0  0  0  0
    1.2990    0.0833    0.0000 C   0  0  0  0  0  0  0  0  0  0  0  0
    1.2990   -1.4167    0.0000 O   0  0  0  0  0  0  0  0  0  0  0  0
    2.5981    0.8333    0.0000 O   0  0  0  0  0  0  0  0  0  0  0  0
  1  2  1  0
  2  3  1  0
  3  4  1  0
  3  5  1  0
  5  6  1  0
  5  7  1  0
  7  8  2  0
  7  9  1  0
M  END
>  <rName>  (1790) 
Gaba_3Me_2F

>  <PQ_SYMBOL>  (1790) 
Gaba_3Me_2F

>  <FULL_NAME>  (1790) 
4-Amino-2-fluoro-3-methylbutanoic acid

>  <IUPAC_CONDENSED>  (1790) 
Gaba(3-Me,2-F)

>  <IUPAC>  (1790) 
4-amino-2-fluoro-3-methylbutanoic acid

>  <TYPE>  (1790) 
Backbone

>  <CLASS>  (1790) 
gamma

>  <ANALOG>  (1790) 
Ala

>  <MOL_WT>  (1790) 
135.138

>  <LOGP>  (1790) 
0.003899999999999959

>  <TPSA>  (1790) 
63.32000000000001

>  <POPULARITY>  (1790) 
8.1

>  <PROTECTED>  (1790) 
TRUE

>  <SMILES>  (1790) 
NCC(C)C(F)C(=O)O

>  <INCHIKEY>  (1790) 
ZDIYIUYHQGBXKC-UHFFFAOYSA-N

$$$$
Gaba_3OH
     RDKit          2D

  8  7  0  0  0  0  0  0  0  0999 V2000
   -3.4109   -0.0483    0.0000 N   0  0  0  0  0  0  0  0  0  0  0  0
   -2.1220   -0.8156    0.0000 C   0  0  0  0  0  0  0  0  0  0  0  0
   -0.8131   -0.0829    0.0000 C   0  0  0  0  0  0  0  0  0  0  0  0
   -0.7931    1.4169    0.0000 O   0  0  0  0  0  0  0  0  0  0  0  0
    0.4759   -0.8502    0.0000 C   0  0  0  0  0  0  0  0  0  0  0  0
    1.7848   -0.1175    0.0000 C   0  0  0  0  0  0  0  0  0  0  0  0
    1.8048    1.3823    0.0000 O   0  0  0  0  0  0  0  0  0  0  0  0
    3.0737   -0.8848    0.0000 O   0  0  0  0  0  0  0  0  0  0  0  0
  1  2  1  0
  2  3  1  0
  3  4  1  0
  3  5  1  0
  5  6  1  0
  6  7  2  0
  6  8  1  0
M  END
>  <rName>  (1791) 
Gaba_3OH

>  <PQ_SYMBOL>  (1791) 
Gaba_3OH

>  <FULL_NAME>  (1791) 
4-Amino-3-hydroxybutanoic acid

>  <IUPAC_CONDENSED>  (1791) 
Gaba(3-OH)

>  <IUPAC>  (1791) 
4-amino-3-hydroxybutanoic acid

>  <TYPE>  (1791) 
Backbone

>  <CLASS>  (1791) 
gamma

>  <ANALOG>  (1791) 
X

>  <MOL_WT>  (1791) 
119.11999999999999

>  <LOGP>  (1791) 
-1.2192999999999998

>  <TPSA>  (1791) 
83.55

>  <POPULARITY>  (1791) 
15.0

>  <PROTECTED>  (1791) 
TRUE

>  <SMILES>  (1791) 
NCC(O)CC(=O)O

>  <INCHIKEY>  (1791) 
YQGDEPYYFWUPGO-UHFFFAOYSA-N

$$$$
Gaba_3OH_3Me
     RDKit          2D

  9  8  0  0  0  0  0  0  0  0999 V2000
   -1.5745   -2.0656    0.0000 N   0  0  0  0  0  0  0  0  0  0  0  0
   -1.9773   -0.6207    0.0000 C   0  0  0  0  0  0  0  0  0  0  0  0
   -0.9274    0.4505    0.0000 C   0  0  0  0  0  0  0  0  0  0  0  0
    0.1226    1.5218    0.0000 O   0  0  0  0  0  0  0  0  0  0  0  0
   -1.9986    1.5005    0.0000 C   0  0  0  0  0  0  0  0  0  0  0  0
    0.1439   -0.5994    0.0000 C   0  0  0  0  0  0  0  0  0  0  0  0
    1.5888   -0.1966    0.0000 C   0  0  0  0  0  0  0  0  0  0  0  0
    1.9625    1.2561    0.0000 O   0  0  0  0  0  0  0  0  0  0  0  0
    2.6601   -1.2466    0.0000 O   0  0  0  0  0  0  0  0  0  0  0  0
  1  2  1  0
  2  3  1  0
  3  4  1  0
  3  5  1  0
  3  6  1  0
  6  7  1  0
  7  8  2  0
  7  9  1  0
M  END
>  <rName>  (1792) 
Gaba_3OH_3Me

>  <PQ_SYMBOL>  (1792) 
Gaba_3OH_3Me

>  <FULL_NAME>  (1792) 
4-Amino-3-hydroxy-3-methylbutanoic acid

>  <IUPAC_CONDENSED>  (1792) 
Gaba(3-OH,3-Me)

>  <IUPAC>  (1792) 
4-amino-3-hydroxy-3-methylbutanoic acid

>  <TYPE>  (1792) 
Backbone

>  <CLASS>  (1792) 
gamma

>  <ANALOG>  (1792) 
X

>  <MOL_WT>  (1792) 
133.147

>  <LOGP>  (1792) 
-0.8292000000000004

>  <TPSA>  (1792) 
83.55

>  <POPULARITY>  (1792) 
9.1

>  <PROTECTED>  (1792) 
TRUE

>  <SMILES>  (1792) 
NCC(O)(C)CC(=O)O

>  <INCHIKEY>  (1792) 
HPWNGDFGOGOKCN-UHFFFAOYSA-N

$$$$
Gaba_3OMe
     RDKit          2D

  9  8  0  0  0  0  0  0  0  0999 V2000
   -0.5378    1.8899    0.0000 N   0  0  0  0  0  0  0  0  0  0  0  0
    0.8005    1.2126    0.0000 C   0  0  0  0  0  0  0  0  0  0  0  0
    0.8831   -0.2852    0.0000 C   0  0  0  0  0  0  0  0  0  0  0  0
    2.2214   -0.9626    0.0000 O   0  0  0  0  0  0  0  0  0  0  0  0
    3.4772   -0.1422    0.0000 C   0  0  0  0  0  0  0  0  0  0  0  0
   -0.3727   -1.1055    0.0000 C   0  0  0  0  0  0  0  0  0  0  0  0
   -1.7111   -0.4281    0.0000 C   0  0  0  0  0  0  0  0  0  0  0  0
   -1.7936    1.0696    0.0000 O   0  0  0  0  0  0  0  0  0  0  0  0
   -2.9669   -1.2485    0.0000 O   0  0  0  0  0  0  0  0  0  0  0  0
  1  2  1  0
  2  3  1  0
  3  4  1  0
  4  5  1  0
  3  6  1  0
  6  7  1  0
  7  8  2  0
  7  9  1  0
M  END
>  <rName>  (1793) 
Gaba_3OMe

>  <PQ_SYMBOL>  (1793) 
Gaba_3OMe

>  <FULL_NAME>  (1793) 
4-Amino-3-methoxybutanoic acid

>  <IUPAC_CONDENSED>  (1793) 
Gaba(3-OMe)

>  <IUPAC>  (1793) 
4-amino-3-methoxybutanoic acid

>  <TYPE>  (1793) 
Backbone

>  <CLASS>  (1793) 
gamma

>  <ANALOG>  (1793) 
Ser

>  <MOL_WT>  (1793) 
133.147

>  <LOGP>  (1793) 
-0.5652000000000004

>  <TPSA>  (1793) 
72.55

>  <POPULARITY>  (1793) 
11.2

>  <PROTECTED>  (1793) 
TRUE

>  <SMILES>  (1793) 
NCC(OC)CC(=O)O

>  <INCHIKEY>  (1793) 
KDDFWVJBNGUBLI-UHFFFAOYSA-N

$$$$
Gaba_3Ph
     RDKit          2D

 13 13  0  0  0  0  0  0  0  0999 V2000
   -2.4940   -1.8383    0.0000 N   0  0  0  0  0  0  0  0  0  0  0  0
   -1.0067   -1.6435    0.0000 C   0  0  0  0  0  0  0  0  0  0  0  0
   -0.4317   -0.2581    0.0000 C   0  0  0  0  0  0  0  0  0  0  0  0
    1.0556   -0.0633    0.0000 C   0  0  0  0  0  0  0  0  0  0  0  0
    1.6306    1.3221    0.0000 C   0  0  0  0  0  0  0  0  0  0  0  0
    3.1179    1.5169    0.0000 C   0  0  0  0  0  0  0  0  0  0  0  0
    4.0302    0.3262    0.0000 C   0  0  0  0  0  0  0  0  0  0  0  0
    3.4552   -1.0592    0.0000 C   0  0  0  0  0  0  0  0  0  0  0  0
    1.9679   -1.2540    0.0000 C   0  0  0  0  0  0  0  0  0  0  0  0
   -1.3440    0.9326    0.0000 C   0  0  0  0  0  0  0  0  0  0  0  0
   -2.8313    0.7378    0.0000 C   0  0  0  0  0  0  0  0  0  0  0  0
   -3.4063   -0.6476    0.0000 O   0  0  0  0  0  0  0  0  0  0  0  0
   -3.7436    1.9285    0.0000 O   0  0  0  0  0  0  0  0  0  0  0  0
  1  2  1  0
  2  3  1  0
  3  4  1  0
  4  5  2  0
  5  6  1  0
  6  7  2  0
  7  8  1  0
  8  9  2  0
  3 10  1  0
 10 11  1  0
 11 12  2  0
 11 13  1  0
  9  4  1  0
M  END
>  <rName>  (1794) 
Gaba_3Ph

>  <PQ_SYMBOL>  (1794) 
Gaba_3Ph

>  <FULL_NAME>  (1794) 
Phenibut

>  <IUPAC_CONDENSED>  (1794) 
Gaba(3-Ph)

>  <IUPAC>  (1794) 
4-amino-3-phenylbutanoic acid

>  <TYPE>  (1794) 
Backbone

>  <CLASS>  (1794) 
gamma

>  <ANALOG>  (1794) 
X

>  <MOL_WT>  (1794) 
179.21899999999994

>  <LOGP>  (1794) 
1.2036

>  <TPSA>  (1794) 
63.32000000000001

>  <POPULARITY>  (1794) 
14.7

>  <PROTECTED>  (1794) 
TRUE

>  <SMILES>  (1794) 
NCC(c1(ccccc1))CC(=O)O

>  <INCHIKEY>  (1794) 
DAFOCGYVTAOKAJ-UHFFFAOYSA-N

$$$$
Gaba_3Ph_3OH
     RDKit          2D

 14 14  0  0  0  0  0  0  0  0999 V2000
   -2.6080   -1.9712    0.0000 N   0  0  0  0  0  0  0  0  0  0  0  0
   -1.1505   -1.6167    0.0000 C   0  0  0  0  0  0  0  0  0  0  0  0
   -0.7288   -0.1772    0.0000 C   0  0  0  0  0  0  0  0  0  0  0  0
    0.7288    0.1772    0.0000 C   0  0  0  0  0  0  0  0  0  0  0  0
    1.1505    1.6167    0.0000 C   0  0  0  0  0  0  0  0  0  0  0  0
    2.6080    1.9712    0.0000 C   0  0  0  0  0  0  0  0  0  0  0  0
    3.6438    0.8862    0.0000 C   0  0  0  0  0  0  0  0  0  0  0  0
    3.2220   -0.5532    0.0000 C   0  0  0  0  0  0  0  0  0  0  0  0
    4.2578   -1.6382    0.0000 O   0  0  0  0  0  0  0  0  0  0  0  0
    1.7645   -0.9077    0.0000 C   0  0  0  0  0  0  0  0  0  0  0  0
   -1.7645    0.9077    0.0000 C   0  0  0  0  0  0  0  0  0  0  0  0
   -3.2220    0.5532    0.0000 C   0  0  0  0  0  0  0  0  0  0  0  0
   -3.6438   -0.8862    0.0000 O   0  0  0  0  0  0  0  0  0  0  0  0
   -4.2578    1.6382    0.0000 O   0  0  0  0  0  0  0  0  0  0  0  0
  1  2  1  0
  2  3  1  0
  3  4  1  0
  4  5  2  0
  5  6  1  0
  6  7  2  0
  7  8  1  0
  8  9  1  0
  8 10  2  0
  3 11  1  0
 11 12  1  0
 12 13  2  0
 12 14  1  0
 10  4  1  0
M  END
>  <rName>  (1795) 
Gaba_3Ph_3OH

>  <PQ_SYMBOL>  (1795) 
Gaba_3Ph_3OH

>  <FULL_NAME>  (1795) 
4-Amino-3-(3-hydroxyphenyl)butanoic acid

>  <IUPAC_CONDENSED>  (1795) 
Gaba(3-Ph(3-OH))

>  <IUPAC>  (1795) 
4-amino-3-(3-hydroxyphenyl)butanoic acid

>  <TYPE>  (1795) 
Backbone

>  <CLASS>  (1795) 
gamma

>  <ANALOG>  (1795) 
X

>  <MOL_WT>  (1795) 
195.21799999999996

>  <LOGP>  (1795) 
0.9092

>  <TPSA>  (1795) 
83.55

>  <POPULARITY>  (1795) 
10.1

>  <PROTECTED>  (1795) 
TRUE

>  <SMILES>  (1795) 
NCC(c1(cccc(O)c1))CC(=O)O

>  <INCHIKEY>  (1795) 
IBGRRSKVPVNQCQ-UHFFFAOYSA-N

$$$$
Gaba_3Ph_4Cl
     RDKit          2D

 14 14  0  0  0  0  0  0  0  0999 V2000
   -2.9381   -1.7961    0.0000 N   0  0  0  0  0  0  0  0  0  0  0  0
   -1.4460   -1.6419    0.0000 C   0  0  0  0  0  0  0  0  0  0  0  0
   -0.8335   -0.2727    0.0000 C   0  0  0  0  0  0  0  0  0  0  0  0
    0.6585   -0.1185    0.0000 C   0  0  0  0  0  0  0  0  0  0  0  0
    1.2710    1.2507    0.0000 C   0  0  0  0  0  0  0  0  0  0  0  0
    2.7631    1.4049    0.0000 C   0  0  0  0  0  0  0  0  0  0  0  0
    3.6426    0.1898    0.0000 C   0  0  0  0  0  0  0  0  0  0  0  0
    5.1347    0.3440    0.0000 Cl  0  0  0  0  0  0  0  0  0  0  0  0
    3.0301   -1.1794    0.0000 C   0  0  0  0  0  0  0  0  0  0  0  0
    1.5381   -1.3336    0.0000 C   0  0  0  0  0  0  0  0  0  0  0  0
   -1.7131    0.9424    0.0000 C   0  0  0  0  0  0  0  0  0  0  0  0
   -3.2051    0.7882    0.0000 C   0  0  0  0  0  0  0  0  0  0  0  0
   -3.8176   -0.5810    0.0000 O   0  0  0  0  0  0  0  0  0  0  0  0
   -4.0847    2.0033    0.0000 O   0  0  0  0  0  0  0  0  0  0  0  0
  1  2  1  0
  2  3  1  0
  3  4  1  0
  4  5  1  0
  5  6  2  0
  6  7  1  0
  7  8  1  0
  7  9  2  0
  9 10  1  0
  3 11  1  0
 11 12  1  0
 12 13  2  0
 12 14  1  0
 10  4  2  0
M  END
>  <rName>  (1796) 
Gaba_3Ph_4Cl

>  <PQ_SYMBOL>  (1796) 
Gaba_3Ph_4Cl

>  <FULL_NAME>  (1796) 
Baclofen

>  <IUPAC_CONDENSED>  (1796) 
Gaba(3-Ph(4-Cl))

>  <IUPAC>  (1796) 
4-amino-3-(4-chlorophenyl)butanoic acid

>  <TYPE>  (1796) 
Backbone

>  <CLASS>  (1796) 
gamma

>  <ANALOG>  (1796) 
X

>  <MOL_WT>  (1796) 
213.664

>  <LOGP>  (1796) 
1.8570000000000002

>  <TPSA>  (1796) 
63.32000000000001

>  <POPULARITY>  (1796) 
9.6

>  <PROTECTED>  (1796) 
TRUE

>  <SMILES>  (1796) 
NCC(c1(ccc(Cl)cc1))CC(=O)O

>  <INCHIKEY>  (1796) 
KPYSYYIEGFHWSV-UHFFFAOYSA-N

$$$$
Gaba_3ROH
     RDKit          2D

  8  7  0  0  0  0  0  0  0  0999 V2000
   -3.4109   -0.0483    0.0000 N   0  0  0  0  0  0  0  0  0  0  0  0
   -2.1220   -0.8156    0.0000 C   0  0  0  0  0  0  0  0  0  0  0  0
   -0.8131   -0.0829    0.0000 C   0  0  0  0  0  0  0  0  0  0  0  0
   -0.7931    1.4169    0.0000 O   0  0  0  0  0  0  0  0  0  0  0  0
    0.4759   -0.8502    0.0000 C   0  0  0  0  0  0  0  0  0  0  0  0
    1.7848   -0.1175    0.0000 C   0  0  0  0  0  0  0  0  0  0  0  0
    1.8048    1.3823    0.0000 O   0  0  0  0  0  0  0  0  0  0  0  0
    3.0737   -0.8848    0.0000 O   0  0  0  0  0  0  0  0  0  0  0  0
  1  2  1  0
  2  3  1  0
  3  4  1  6
  3  5  1  0
  5  6  1  0
  6  7  2  0
  6  8  1  0
M  END
>  <rName>  (1797) 
Gaba_3ROH

>  <PQ_SYMBOL>  (1797) 
Gaba_3ROH

>  <FULL_NAME>  (1797) 
gamma-Amino-beta-hydroxybutyric acid, (-)-

>  <IUPAC_CONDENSED>  (1797) 
Gaba(3R-OH)

>  <IUPAC>  (1797) 
(3R)-4-amino-3-hydroxybutanoic acid

>  <TYPE>  (1797) 
Backbone

>  <CLASS>  (1797) 
gamma

>  <ANALOG>  (1797) 
X

>  <MOL_WT>  (1797) 
119.11999999999999

>  <LOGP>  (1797) 
-1.2192999999999998

>  <TPSA>  (1797) 
83.55

>  <POPULARITY>  (1797) 
10.7

>  <PROTECTED>  (1797) 
TRUE

>  <SMILES>  (1797) 
NC[C@H](O)CC(=O)O

>  <INCHIKEY>  (1797) 
YQGDEPYYFWUPGO-GSVOUGTGSA-N

$$$$
Gaba_3RPh
     RDKit          2D

 13 13  0  0  0  0  0  0  0  0999 V2000
   -2.4940   -1.8383    0.0000 N   0  0  0  0  0  0  0  0  0  0  0  0
   -1.0067   -1.6435    0.0000 C   0  0  0  0  0  0  0  0  0  0  0  0
   -0.4317   -0.2581    0.0000 C   0  0  0  0  0  0  0  0  0  0  0  0
    1.0556   -0.0633    0.0000 C   0  0  0  0  0  0  0  0  0  0  0  0
    1.6306    1.3221    0.0000 C   0  0  0  0  0  0  0  0  0  0  0  0
    3.1179    1.5169    0.0000 C   0  0  0  0  0  0  0  0  0  0  0  0
    4.0302    0.3262    0.0000 C   0  0  0  0  0  0  0  0  0  0  0  0
    3.4552   -1.0592    0.0000 C   0  0  0  0  0  0  0  0  0  0  0  0
    1.9679   -1.2540    0.0000 C   0  0  0  0  0  0  0  0  0  0  0  0
   -1.3440    0.9326    0.0000 C   0  0  0  0  0  0  0  0  0  0  0  0
   -2.8313    0.7378    0.0000 C   0  0  0  0  0  0  0  0  0  0  0  0
   -3.4063   -0.6476    0.0000 O   0  0  0  0  0  0  0  0  0  0  0  0
   -3.7436    1.9285    0.0000 O   0  0  0  0  0  0  0  0  0  0  0  0
  1  2  1  0
  3  2  1  6
  3  4  1  0
  4  5  2  0
  5  6  1  0
  6  7  2  0
  7  8  1  0
  8  9  2  0
  3 10  1  0
 10 11  1  0
 11 12  2  0
 11 13  1  0
  9  4  1  0
M  END
>  <rName>  (1798) 
Gaba_3RPh

>  <PQ_SYMBOL>  (1798) 
Gaba_3RPh

>  <FULL_NAME>  (1798) 
4-Amino-3-phenylbutyric acid, (R)-

>  <IUPAC_CONDENSED>  (1798) 
Gaba(3R-Ph)

>  <IUPAC>  (1798) 
(3R)-4-amino-3-phenylbutanoic acid

>  <TYPE>  (1798) 
Backbone

>  <CLASS>  (1798) 
gamma

>  <ANALOG>  (1798) 
X

>  <MOL_WT>  (1798) 
179.21899999999994

>  <LOGP>  (1798) 
1.2036

>  <TPSA>  (1798) 
63.32000000000001

>  <POPULARITY>  (1798) 
2.2

>  <PROTECTED>  (1798) 
TRUE

>  <SMILES>  (1798) 
NC[C@@H](c1(ccccc1))CC(=O)O

>  <INCHIKEY>  (1798) 
DAFOCGYVTAOKAJ-VIFPVBQESA-N

$$$$
Gaba_3SMe
     RDKit          2D

  8  7  0  0  0  0  0  0  0  0999 V2000
    0.0000    1.8750    0.0000 N   0  0  0  0  0  0  0  0  0  0  0  0
   -1.2990    1.1250    0.0000 C   0  0  0  0  0  0  0  0  0  0  0  0
   -1.2990   -0.3750    0.0000 C   0  0  0  0  0  0  0  0  0  0  0  0
   -2.5981   -1.1250    0.0000 C   0  0  0  0  0  0  0  0  0  0  0  0
    0.0000   -1.1250    0.0000 C   0  0  0  0  0  0  0  0  0  0  0  0
    1.2990   -0.3750    0.0000 C   0  0  0  0  0  0  0  0  0  0  0  0
    1.2990    1.1250    0.0000 O   0  0  0  0  0  0  0  0  0  0  0  0
    2.5981   -1.1250    0.0000 O   0  0  0  0  0  0  0  0  0  0  0  0
  1  2  1  0
  2  3  1  0
  3  4  1  6
  3  5  1  0
  5  6  1  0
  6  7  2  0
  6  8  1  0
M  END
>  <rName>  (1799) 
Gaba_3SMe

>  <PQ_SYMBOL>  (1799) 
Gaba_3SMe

>  <FULL_NAME>  (1799) 
(3S)-3-Methyl-4-aminobutanoic acid

>  <IUPAC_CONDENSED>  (1799) 
Gaba(3S-Me)

>  <IUPAC>  (1799) 
(3S)-4-amino-3-methylbutanoic acid

>  <TYPE>  (1799) 
Backbone

>  <CLASS>  (1799) 
gamma

>  <ANALOG>  (1799) 
Ala

>  <MOL_WT>  (1799) 
117.14799999999998

>  <LOGP>  (1799) 
0.05590000000000023

>  <TPSA>  (1799) 
63.32000000000001

>  <POPULARITY>  (1799) 
14.8

>  <PROTECTED>  (1799) 
TRUE

>  <SMILES>  (1799) 
NC[C@@H](C)CC(=O)O

>  <INCHIKEY>  (1799) 
CZGLBWZXGIAIBU-BYPYZUCNSA-N

$$$$
Gaba_3SOH
     RDKit          2D

  8  7  0  0  0  0  0  0  0  0999 V2000
   -3.4109   -0.0483    0.0000 N   0  0  0  0  0  0  0  0  0  0  0  0
   -2.1220   -0.8156    0.0000 C   0  0  0  0  0  0  0  0  0  0  0  0
   -0.8131   -0.0829    0.0000 C   0  0  0  0  0  0  0  0  0  0  0  0
   -0.7931    1.4169    0.0000 O   0  0  0  0  0  0  0  0  0  0  0  0
    0.4759   -0.8502    0.0000 C   0  0  0  0  0  0  0  0  0  0  0  0
    1.7848   -0.1175    0.0000 C   0  0  0  0  0  0  0  0  0  0  0  0
    1.8048    1.3823    0.0000 O   0  0  0  0  0  0  0  0  0  0  0  0
    3.0737   -0.8848    0.0000 O   0  0  0  0  0  0  0  0  0  0  0  0
  1  2  1  0
  2  3  1  0
  3  4  1  1
  3  5  1  0
  5  6  1  0
  6  7  2  0
  6  8  1  0
M  END
>  <rName>  (1800) 
Gaba_3SOH

>  <PQ_SYMBOL>  (1800) 
Gaba_3SOH

>  <FULL_NAME>  (1800) 
(3S)-4-amino-3-hydroxybutanoic acid

>  <IUPAC_CONDENSED>  (1800) 
Gaba(3S-OH)

>  <IUPAC>  (1800) 
(3S)-4-amino-3-hydroxybutanoic acid

>  <TYPE>  (1800) 
Backbone

>  <CLASS>  (1800) 
gamma

>  <ANALOG>  (1800) 
X

>  <MOL_WT>  (1800) 
119.11999999999999

>  <LOGP>  (1800) 
-1.2192999999999998

>  <TPSA>  (1800) 
83.55

>  <POPULARITY>  (1800) 
11.5

>  <PROTECTED>  (1800) 
TRUE

>  <SMILES>  (1800) 
NC[C@@H](O)CC(=O)O

>  <INCHIKEY>  (1800) 
YQGDEPYYFWUPGO-VKHMYHEASA-N

$$$$
Gaba_3SiBu
     RDKit          2D

 11 10  0  0  0  0  0  0  0  0999 V2000
    1.2748   -1.8478    0.0000 N   0  0  0  0  0  0  0  0  0  0  0  0
   -0.0601   -1.1635    0.0000 C   0  0  0  0  0  0  0  0  0  0  0  0
   -0.1350    0.3346    0.0000 C   0  0  0  0  0  0  0  0  0  0  0  0
   -1.4698    1.0188    0.0000 C   0  0  0  0  0  0  0  0  0  0  0  0
   -2.7298    0.2049    0.0000 C   0  0  0  0  0  0  0  0  0  0  0  0
   -4.0647    0.8891    0.0000 C   0  0  0  0  0  0  0  0  0  0  0  0
   -2.6549   -1.2932    0.0000 C   0  0  0  0  0  0  0  0  0  0  0  0
    1.1250    1.1485    0.0000 C   0  0  0  0  0  0  0  0  0  0  0  0
    2.4599    0.4643    0.0000 C   0  0  0  0  0  0  0  0  0  0  0  0
    2.5347   -1.0339    0.0000 O   0  0  0  0  0  0  0  0  0  0  0  0
    3.7199    1.2782    0.0000 O   0  0  0  0  0  0  0  0  0  0  0  0
  1  2  1  0
  3  2  1  1
  3  4  1  0
  4  5  1  0
  5  6  1  0
  5  7  1  0
  3  8  1  0
  8  9  1  0
  9 10  2  0
  9 11  1  0
M  END
>  <rName>  (1801) 
Gaba_3SiBu

>  <PQ_SYMBOL>  (1801) 
Gaba_3SiBu

>  <FULL_NAME>  (1801) 
Pregabalin

>  <IUPAC_CONDENSED>  (1801) 
Gaba(3S-iBu)

>  <IUPAC>  (1801) 
(3S)-3-(aminomethyl)-5-methylhexanoic acid

>  <TYPE>  (1801) 
Backbone

>  <CLASS>  (1801) 
gamma

>  <ANALOG>  (1801) 
Leu

>  <MOL_WT>  (1801) 
159.22899999999998

>  <LOGP>  (1801) 
1.0821

>  <TPSA>  (1801) 
63.32000000000001

>  <POPULARITY>  (1801) 
12.9

>  <PROTECTED>  (1801) 
TRUE

>  <SMILES>  (1801) 
NC[C@@H](CC(C)C)CC(=O)O

>  <INCHIKEY>  (1801) 
AYXYPKUFHZROOJ-ZETCQYMHSA-N

$$$$
Gaba_3cBu
     RDKit          2D

 11 11  0  0  0  0  0  0  0  0999 V2000
   -1.8045   -1.8628    0.0000 N   0  0  0  0  0  0  0  0  0  0  0  0
   -0.3255   -1.6122    0.0000 C   0  0  0  0  0  0  0  0  0  0  0  0
    0.1970   -0.2062    0.0000 C   0  0  0  0  0  0  0  0  0  0  0  0
    1.6759    0.0443    0.0000 C   0  0  0  0  0  0  0  0  0  0  0  0
    2.5445    1.2673    0.0000 C   0  0  0  0  0  0  0  0  0  0  0  0
    3.7674    0.3986    0.0000 C   0  0  0  0  0  0  0  0  0  0  0  0
    2.8988   -0.8243    0.0000 C   0  0  0  0  0  0  0  0  0  0  0  0
   -0.7595    0.9493    0.0000 C   0  0  0  0  0  0  0  0  0  0  0  0
   -2.2384    0.6988    0.0000 C   0  0  0  0  0  0  0  0  0  0  0  0
   -2.7609   -0.7072    0.0000 O   0  0  0  0  0  0  0  0  0  0  0  0
   -3.1948    1.8543    0.0000 O   0  0  0  0  0  0  0  0  0  0  0  0
  1  2  1  0
  2  3  1  0
  3  4  1  0
  4  5  1  0
  5  6  1  0
  6  7  1  0
  3  8  1  0
  8  9  1  0
  9 10  2  0
  9 11  1  0
  7  4  1  0
M  END
>  <rName>  (1802) 
Gaba_3cBu

>  <PQ_SYMBOL>  (1802) 
Gaba_3cBu

>  <FULL_NAME>  (1802) 
4-Amino-3-cyclobutylbutanoic acid

>  <IUPAC_CONDENSED>  (1802) 
Gaba(3-cBu)

>  <IUPAC>  (1802) 
4-amino-3-cyclobutylbutanoic acid

>  <TYPE>  (1802) 
Backbone

>  <CLASS>  (1802) 
gamma

>  <ANALOG>  (1802) 
X

>  <MOL_WT>  (1802) 
157.21300000000002

>  <LOGP>  (1802) 
0.8361000000000001

>  <TPSA>  (1802) 
63.32000000000001

>  <POPULARITY>  (1802) 
5.2

>  <PROTECTED>  (1802) 
TRUE

>  <SMILES>  (1802) 
NCC(C1(CCC1))CC(=O)O

>  <INCHIKEY>  (1802) 
VHMURAPTFVBHLS-UHFFFAOYSA-N

$$$$
Gaba_3cPent
     RDKit          2D

 12 12  0  0  0  0  0  0  0  0999 V2000
   -2.1605   -1.8496    0.0000 N   0  0  0  0  0  0  0  0  0  0  0  0
   -0.6764   -1.6314    0.0000 C   0  0  0  0  0  0  0  0  0  0  0  0
   -0.1235   -0.2370    0.0000 C   0  0  0  0  0  0  0  0  0  0  0  0
    1.3605   -0.0187    0.0000 C   0  0  0  0  0  0  0  0  0  0  0  0
    2.4094   -1.0910    0.0000 C   0  0  0  0  0  0  0  0  0  0  0  0
    3.7534   -0.4248    0.0000 C   0  0  0  0  0  0  0  0  0  0  0  0
    3.5351    1.0592    0.0000 C   0  0  0  0  0  0  0  0  0  0  0  0
    2.0562    1.3102    0.0000 C   0  0  0  0  0  0  0  0  0  0  0  0
   -1.0545    0.9391    0.0000 C   0  0  0  0  0  0  0  0  0  0  0  0
   -2.5386    0.7208    0.0000 C   0  0  0  0  0  0  0  0  0  0  0  0
   -3.0915   -0.6736    0.0000 O   0  0  0  0  0  0  0  0  0  0  0  0
   -3.4696    1.8968    0.0000 O   0  0  0  0  0  0  0  0  0  0  0  0
  1  2  1  0
  2  3  1  0
  3  4  1  0
  4  5  1  0
  5  6  1  0
  6  7  1  0
  7  8  1  0
  3  9  1  0
  9 10  1  0
 10 11  2  0
 10 12  1  0
  8  4  1  0
M  END
>  <rName>  (1803) 
Gaba_3cPent

>  <PQ_SYMBOL>  (1803) 
Gaba_3cPent

>  <FULL_NAME>  (1803) 
4-Amino-3-cyclopentylbutanoic acid

>  <IUPAC_CONDENSED>  (1803) 
Gaba(3-cPent)

>  <IUPAC>  (1803) 
4-amino-3-cyclopentylbutanoic acid

>  <TYPE>  (1803) 
Backbone

>  <CLASS>  (1803) 
gamma

>  <ANALOG>  (1803) 
X

>  <MOL_WT>  (1803) 
171.24

>  <LOGP>  (1803) 
1.2262

>  <TPSA>  (1803) 
63.32000000000001

>  <POPULARITY>  (1803) 
9.7

>  <PROTECTED>  (1803) 
TRUE

>  <SMILES>  (1803) 
NCC(C1(CCCC1))CC(=O)O

>  <INCHIKEY>  (1803) 
ISPRESQXVWDLJS-UHFFFAOYSA-N

$$$$
Gaba_3cPr
     RDKit          2D

 10 10  0  0  0  0  0  0  0  0999 V2000
   -1.4147   -1.8776    0.0000 N   0  0  0  0  0  0  0  0  0  0  0  0
    0.0553   -1.5794    0.0000 C   0  0  0  0  0  0  0  0  0  0  0  0
    0.5321   -0.1572    0.0000 C   0  0  0  0  0  0  0  0  0  0  0  0
    2.0021    0.1411    0.0000 C   0  0  0  0  0  0  0  0  0  0  0  0
    3.4243   -0.3356    0.0000 C   0  0  0  0  0  0  0  0  0  0  0  0
    3.1261    1.1344    0.0000 C   0  0  0  0  0  0  0  0  0  0  0  0
   -0.4613    0.9668    0.0000 C   0  0  0  0  0  0  0  0  0  0  0  0
   -1.9313    0.6686    0.0000 C   0  0  0  0  0  0  0  0  0  0  0  0
   -2.4080   -0.7537    0.0000 O   0  0  0  0  0  0  0  0  0  0  0  0
   -2.9246    1.7925    0.0000 O   0  0  0  0  0  0  0  0  0  0  0  0
  1  2  1  0
  2  3  1  0
  3  4  1  0
  4  5  1  0
  5  6  1  0
  3  7  1  0
  7  8  1  0
  8  9  2  0
  8 10  1  0
  6  4  1  0
M  END
>  <rName>  (1804) 
Gaba_3cPr

>  <PQ_SYMBOL>  (1804) 
Gaba_3cPr

>  <FULL_NAME>  (1804) 
4-Amino-3-cyclopropylbutanoic acid

>  <IUPAC_CONDENSED>  (1804) 
Gaba(3-cPr)

>  <IUPAC>  (1804) 
4-amino-3-cyclopropylbutanoic acid

>  <TYPE>  (1804) 
Backbone

>  <CLASS>  (1804) 
gamma

>  <ANALOG>  (1804) 
X

>  <MOL_WT>  (1804) 
143.186

>  <LOGP>  (1804) 
0.4460000000000001

>  <TPSA>  (1804) 
63.32000000000001

>  <POPULARITY>  (1804) 
5.9

>  <PROTECTED>  (1804) 
TRUE

>  <SMILES>  (1804) 
NCC(C1(CC1))CC(=O)O

>  <INCHIKEY>  (1804) 
GMMGKUPDAMGCEW-UHFFFAOYSA-N

$$$$
Gaba_3iPr
     RDKit          2D

 10  9  0  0  0  0  0  0  0  0999 V2000
    1.1946    1.9301    0.0000 N   0  0  0  0  0  0  0  0  0  0  0  0
   -0.2551    1.5451    0.0000 C   0  0  0  0  0  0  0  0  0  0  0  0
   -0.6466    0.0971    0.0000 C   0  0  0  0  0  0  0  0  0  0  0  0
   -2.0963   -0.2879    0.0000 C   0  0  0  0  0  0  0  0  0  0  0  0
   -3.1546    0.7752    0.0000 C   0  0  0  0  0  0  0  0  0  0  0  0
   -2.4878   -1.7359    0.0000 C   0  0  0  0  0  0  0  0  0  0  0  0
    0.4117   -0.9659    0.0000 C   0  0  0  0  0  0  0  0  0  0  0  0
    1.8615   -0.5809    0.0000 C   0  0  0  0  0  0  0  0  0  0  0  0
    2.2529    0.8671    0.0000 O   0  0  0  0  0  0  0  0  0  0  0  0
    2.9197   -1.6440    0.0000 O   0  0  0  0  0  0  0  0  0  0  0  0
  1  2  1  0
  2  3  1  0
  3  4  1  0
  4  5  1  0
  4  6  1  0
  3  7  1  0
  7  8  1  0
  8  9  2  0
  8 10  1  0
M  END
>  <rName>  (1805) 
Gaba_3iPr

>  <PQ_SYMBOL>  (1805) 
Gaba_3iPr

>  <FULL_NAME>  (1805) 
3-(Aminomethyl)-4-methylpentanoic acid

>  <IUPAC_CONDENSED>  (1805) 
Gaba(3-iPr)

>  <IUPAC>  (1805) 
3-(aminomethyl)-4-methylpentanoic acid

>  <TYPE>  (1805) 
Backbone

>  <CLASS>  (1805) 
gamma

>  <ANALOG>  (1805) 
Val

>  <MOL_WT>  (1805) 
145.202

>  <LOGP>  (1805) 
0.6920000000000002

>  <TPSA>  (1805) 
63.32000000000001

>  <POPULARITY>  (1805) 
13.0

>  <PROTECTED>  (1805) 
TRUE

>  <SMILES>  (1805) 
NCC(C(C)C)CC(=O)O

>  <INCHIKEY>  (1805) 
OFCINXZTAMJWLA-UHFFFAOYSA-N

$$$$
Gamma4-Leu
     RDKit          2D

 11 10  0  0  0  0  0  0  0  0999 V2000
   -0.8169   -1.6084    0.0000 N   0  0  0  0  0  0  0  0  0  0  0  0
   -0.6128   -0.1223    0.0000 C   0  0  0  0  0  0  0  0  0  0  0  0
   -1.7977    0.7974    0.0000 C   0  0  0  0  0  0  0  0  0  0  0  0
   -3.1867    0.2312    0.0000 C   0  0  0  0  0  0  0  0  0  0  0  0
   -4.3717    1.1509    0.0000 C   0  0  0  0  0  0  0  0  0  0  0  0
   -3.3908   -1.2549    0.0000 C   0  0  0  0  0  0  0  0  0  0  0  0
    0.7762    0.4440    0.0000 C   0  0  0  0  0  0  0  0  0  0  0  0
    1.9611   -0.4758    0.0000 C   0  0  0  0  0  0  0  0  0  0  0  0
    3.3501    0.0905    0.0000 C   0  0  0  0  0  0  0  0  0  0  0  0
    3.5542    1.5766    0.0000 O   0  0  0  0  0  0  0  0  0  0  0  0
    4.5350   -0.8292    0.0000 O   0  0  0  0  0  0  0  0  0  0  0  0
  2  1  1  1
  2  3  1  0
  3  4  1  0
  4  5  1  0
  4  6  1  0
  2  7  1  0
  7  8  1  0
  8  9  1  0
  9 10  2  0
  9 11  1  0
M  END
>  <rName>  (1806) 
Gamma4-Leu

>  <PQ_SYMBOL>  (1806) 
Gamma4-Leu

>  <FULL_NAME>  (1806) 
(4R)-4-amino-6-methylheptanoic acid

>  <IUPAC_CONDENSED>  (1806) 
Gamma4-Leu

>  <IUPAC>  (1806) 
(4R)-4-amino-6-methylheptanoic acid

>  <TYPE>  (1806) 
Backbone

>  <CLASS>  (1806) 
gamma

>  <ANALOG>  (1806) 
Leu

>  <MOL_WT>  (1806) 
159.229

>  <LOGP>  (1806) 
1.2245999999999997

>  <TPSA>  (1806) 
63.32000000000001

>  <POPULARITY>  (1806) 
11.3

>  <PROTECTED>  (1806) 
TRUE

>  <SMILES>  (1806) 
N[C@@H](CC(C)C)CCC(=O)O

>  <INCHIKEY>  (1806) 
NXIZZVSUSXUIEX-SSDOTTSWSA-N

$$$$
Gla
     RDKit          2D

 13 12  0  0  0  0  0  0  0  0999 V2000
   -1.3045    1.6202    0.0000 N   0  0  0  0  0  0  0  0  0  0  0  0
   -1.4942    0.1323    0.0000 C   0  0  0  0  0  0  0  0  0  0  0  0
   -0.3004   -0.7759    0.0000 C   0  0  0  0  0  0  0  0  0  0  0  0
    1.0831   -0.1962    0.0000 C   0  0  0  0  0  0  0  0  0  0  0  0
    2.2769   -1.1044    0.0000 C   0  0  0  0  0  0  0  0  0  0  0  0
    2.0872   -2.5924    0.0000 O   0  0  0  0  0  0  0  0  0  0  0  0
    3.6603   -0.5247    0.0000 O   0  0  0  0  0  0  0  0  0  0  0  0
    1.2727    1.2918    0.0000 C   0  0  0  0  0  0  0  0  0  0  0  0
    0.0789    2.2000    0.0000 O   0  0  0  0  0  0  0  0  0  0  0  0
    2.6562    1.8715    0.0000 O   0  0  0  0  0  0  0  0  0  0  0  0
   -2.8776   -0.4475    0.0000 C   0  0  0  0  0  0  0  0  0  0  0  0
   -3.0672   -1.9354    0.0000 O   0  0  0  0  0  0  0  0  0  0  0  0
   -4.0714    0.4608    0.0000 O   0  0  0  0  0  0  0  0  0  0  0  0
  2  1  1  1
  2  3  1  0
  3  4  1  0
  4  5  1  0
  5  6  2  0
  5  7  1  0
  4  8  1  0
  8  9  2  0
  8 10  1  0
  2 11  1  0
 11 12  2  0
 11 13  1  0
M  END
>  <rName>  (1807) 
Gla

>  <PQ_SYMBOL>  (1807) 
Gla

>  <FULL_NAME>  (1807) 
GAMMA-CARBOXY-GLUTAMIC ACID

>  <IUPAC_CONDENSED>  (1807) 
Gla

>  <IUPAC>  (1807) 
(2S)-2-amino-4-carboxypentanedioic acid

>  <TYPE>  (1807) 
Backbone

>  <CLASS>  (1807) 
alpha

>  <ANALOG>  (1807) 
Glu

>  <MOL_WT>  (1807) 
191.13899999999998

>  <LOGP>  (1807) 
-1.4261999999999997

>  <TPSA>  (1807) 
137.92000000000002

>  <POPULARITY>  (1807) 
27.6

>  <PROTECTED>  (1807) 
TRUE

>  <SMILES>  (1807) 
N[C@@H](CC(C(=O)O)C(=O)O)C(=O)O

>  <INCHIKEY>  (1807) 
UHBYWPGGCSDKFX-VKHMYHEASA-N

$$$$
Gla-al
     RDKit          2D

 12 11  0  0  0  0  0  0  0  0999 V2000
    1.7705   -1.1949    0.0000 N   0  0  0  0  0  0  0  0  0  0  0  0
    1.7233    0.3043    0.0000 C   0  0  0  0  0  0  0  0  0  0  0  0
    2.9981    1.0948    0.0000 C   0  0  0  0  0  0  0  0  0  0  0  0
    4.3201    0.3860    0.0000 O   0  0  0  0  0  0  0  0  0  0  0  0
    0.4014    1.0131    0.0000 C   0  0  0  0  0  0  0  0  0  0  0  0
   -0.8735    0.2226    0.0000 C   0  0  0  0  0  0  0  0  0  0  0  0
   -2.1954    0.9314    0.0000 C   0  0  0  0  0  0  0  0  0  0  0  0
   -2.2426    2.4307    0.0000 O   0  0  0  0  0  0  0  0  0  0  0  0
   -3.4702    0.1409    0.0000 O   0  0  0  0  0  0  0  0  0  0  0  0
   -0.8263   -1.2766    0.0000 C   0  0  0  0  0  0  0  0  0  0  0  0
    0.4957   -1.9854    0.0000 O   0  0  0  0  0  0  0  0  0  0  0  0
   -2.1011   -2.0671    0.0000 O   0  0  0  0  0  0  0  0  0  0  0  0
  2  1  1  1
  2  3  1  0
  3  4  2  0
  2  5  1  0
  5  6  1  0
  6  7  1  0
  7  8  2  0
  7  9  1  0
  6 10  1  0
 10 11  2  0
 10 12  1  0
M  END
>  <rName>  (1808) 
Gla-al

>  <PQ_SYMBOL>  (1808) 
Gla-al

>  <FULL_NAME>  (1808) 
Carboxyglutamic acid

>  <IUPAC_CONDENSED>  (1808) 
Gla-al

>  <IUPAC>  (1808) 
2-((2S)-2-amino-3-oxopropyl)malonic acid

>  <TYPE>  (1808) 
Backbone

>  <CLASS>  (1808) 
gamma

>  <ANALOG>  (1808) 
X

>  <MOL_WT>  (1808) 
175.14

>  <LOGP>  (1808) 
-1.3118999999999998

>  <TPSA>  (1808) 
117.69000000000001

>  <POPULARITY>  (1808) 
3.1

>  <PROTECTED>  (1808) 
FALSE

>  <SMILES>  (1808) 
N[C@H](C=O)CC(C(=O)O)C(=O)O

>  <INCHIKEY>  (1808) 
BNOPCVOBPMHOGG-VKHMYHEASA-N

$$$$
Gln-ol
     RDKit          2D

  9  8  0  0  0  0  0  0  0  0999 V2000
    1.7016   -1.5966    0.0000 N   0  0  0  0  0  0  0  0  0  0  0  0
    1.4770   -0.1135    0.0000 C   0  0  0  0  0  0  0  0  0  0  0  0
    2.6491    0.8225    0.0000 C   0  0  0  0  0  0  0  0  0  0  0  0
    4.0458    0.2755    0.0000 O   0  0  0  0  0  0  0  0  0  0  0  0
    0.0803    0.4336    0.0000 C   0  0  0  0  0  0  0  0  0  0  0  0
   -1.0918   -0.5025    0.0000 C   0  0  0  0  0  0  0  0  0  0  0  0
   -2.4885    0.0446    0.0000 C   0  0  0  0  0  0  0  0  0  0  0  0
   -3.6606   -0.8914    0.0000 N   0  0  0  0  0  0  0  0  0  0  0  0
   -2.7130    1.5277    0.0000 O   0  0  0  0  0  0  0  0  0  0  0  0
  2  1  1  1
  2  3  1  0
  3  4  1  0
  2  5  1  0
  5  6  1  0
  6  7  1  0
  7  8  1  0
  7  9  2  0
M  END
>  <rName>  (1809) 
Gln-ol

>  <PQ_SYMBOL>  (1809) 
Gln-ol

>  <FULL_NAME>  (1809) 
(4S)-4-amino-5-hydroxypentanamide

>  <IUPAC_CONDENSED>  (1809) 
Gln-ol

>  <IUPAC>  (1809) 
(4S)-4-amino-5-hydroxypentanamide

>  <TYPE>  (1809) 
C-term cap

>  <CLASS>  (1809) 
c_cap

>  <ANALOG>  (1809) 
X

>  <MOL_WT>  (1809) 
132.163

>  <LOGP>  (1809) 
-1.4285

>  <TPSA>  (1809) 
89.34

>  <POPULARITY>  (1809) 
19.5

>  <PROTECTED>  (1809) 
FALSE

>  <SMILES>  (1809) 
N[C@H](CO)CCC(N)=O

>  <INCHIKEY>  (1809) 
FQLOSLKSJZSARD-BYPYZUCNSA-N

$$$$
Gln_2cyclopropylpropan2yl
     RDKit          2D

 16 16  0  0  0  0  0  0  0  0999 V2000
    3.7960   -1.9056    0.0000 N   0  0  0  0  0  0  0  0  0  0  0  0
    3.6228   -0.4156    0.0000 C   0  0  0  0  0  0  0  0  0  0  0  0
    2.2459    0.1793    0.0000 C   0  0  0  0  0  0  0  0  0  0  0  0
    1.0421   -0.7156    0.0000 C   0  0  0  0  0  0  0  0  0  0  0  0
   -0.3348   -0.1207    0.0000 C   0  0  0  0  0  0  0  0  0  0  0  0
   -0.5080    1.3693    0.0000 O   0  0  0  0  0  0  0  0  0  0  0  0
   -1.5386   -1.0156    0.0000 N   0  0  0  0  0  0  0  0  0  0  0  0
   -2.9155   -0.4207    0.0000 C   0  0  0  0  0  0  0  0  0  0  0  0
   -2.3205    0.9563    0.0000 C   0  0  0  0  0  0  0  0  0  0  0  0
   -3.5105   -1.7976    0.0000 C   0  0  0  0  0  0  0  0  0  0  0  0
   -4.2925    0.1743    0.0000 C   0  0  0  0  0  0  0  0  0  0  0  0
   -5.1875    1.3781    0.0000 C   0  0  0  0  0  0  0  0  0  0  0  0
   -5.7824    0.0011    0.0000 C   0  0  0  0  0  0  0  0  0  0  0  0
    4.8266    0.4794    0.0000 C   0  0  0  0  0  0  0  0  0  0  0  0
    4.6534    1.9693    0.0000 O   0  0  0  0  0  0  0  0  0  0  0  0
    6.2035   -0.1156    0.0000 O   0  0  0  0  0  0  0  0  0  0  0  0
  2  1  1  1
  2  3  1  0
  3  4  1  0
  4  5  1  0
  5  6  2  0
  5  7  1  0
  7  8  1  0
  8  9  1  0
  8 10  1  0
  8 11  1  0
 11 12  1  0
 12 13  1  0
  2 14  1  0
 14 15  2  0
 14 16  1  0
 13 11  1  0
M  END
>  <rName>  (1810) 
Gln_2cyclopropylpropan2yl

>  <PQ_SYMBOL>  (1810) 
Gln_2cyclopropylpropan2yl

>  <FULL_NAME>  (1810) 
(2S)-2-amino-5-(2-cyclopropylpropan-2-ylamino)-5-oxopentanoic acid

>  <IUPAC_CONDENSED>  (1810) 
Gln(2-cyclopropylpropan-2-yl)

>  <IUPAC>  (1810) 
(2S)-2-amino-4-((2-cyclopropylpropan-2-yl)carbamoyl)butanoic acid

>  <TYPE>  (1810) 
Backbone

>  <CLASS>  (1810) 
alpha

>  <ANALOG>  (1810) 
Gln

>  <MOL_WT>  (1810) 
228.29199999999997

>  <LOGP>  (1810) 
0.4832999999999998

>  <TPSA>  (1810) 
92.42

>  <POPULARITY>  (1810) 
2.6

>  <PROTECTED>  (1810) 
TRUE

>  <SMILES>  (1810) 
N[C@@H](CCC(=O)NC(C)(C)C1(CC1))C(=O)O

>  <INCHIKEY>  (1810) 
MTMGRWRAVLGDKH-QMMMGPOBSA-N

$$$$
Gln_4RF
     RDKit          2D

 11 10  0  0  0  0  0  0  0  0999 V2000
    1.2990    1.8409    0.0000 N   0  0  0  0  0  0  0  0  0  0  0  0
    1.2990    0.3409    0.0000 C   0  0  0  0  0  0  0  0  0  0  0  0
   -0.0000   -0.4091    0.0000 C   0  0  0  0  0  0  0  0  0  0  0  0
   -1.2990    0.3409    0.0000 C   0  0  0  0  0  0  0  0  0  0  0  0
   -1.2990    1.8409    0.0000 F   0  0  0  0  0  0  0  0  0  0  0  0
   -2.5981   -0.4091    0.0000 C   0  0  0  0  0  0  0  0  0  0  0  0
   -2.5981   -1.9091    0.0000 O   0  0  0  0  0  0  0  0  0  0  0  0
   -3.8971    0.3409    0.0000 N   0  0  0  0  0  0  0  0  0  0  0  0
    2.5981   -0.4091    0.0000 C   0  0  0  0  0  0  0  0  0  0  0  0
    2.5981   -1.9091    0.0000 O   0  0  0  0  0  0  0  0  0  0  0  0
    3.8971    0.3409    0.0000 O   0  0  0  0  0  0  0  0  0  0  0  0
  2  1  1  6
  2  3  1  0
  3  4  1  0
  4  5  1  6
  4  6  1  0
  6  7  2  0
  6  8  1  0
  2  9  1  0
  9 10  2  0
  9 11  1  0
M  END
>  <rName>  (1811) 
Gln_4RF

>  <PQ_SYMBOL>  (1811) 
Gln_4RF

>  <FULL_NAME>  (1811) 
4-Fluoroglutamine, (4R)-

>  <IUPAC_CONDENSED>  (1811) 
Gln(4R-F)

>  <IUPAC>  (1811) 
(2S,4R)-2-amino-4-carbamoyl-4-fluorobutanoic acid

>  <TYPE>  (1811) 
Backbone

>  <CLASS>  (1811) 
alpha

>  <ANALOG>  (1811) 
Gln

>  <MOL_WT>  (1811) 
164.136

>  <LOGP>  (1811) 
-1.3881999999999994

>  <TPSA>  (1811) 
106.41000000000001

>  <POPULARITY>  (1811) 
3.0

>  <PROTECTED>  (1811) 
TRUE

>  <SMILES>  (1811) 
N[C@@H](C[C@@H](F)C(=O)N)C(=O)O

>  <INCHIKEY>  (1811) 
PGEYFCBAWGQSGT-GBXIJSLDSA-N

$$$$
Gln_4SF
     RDKit          2D

 11 10  0  0  0  0  0  0  0  0999 V2000
    1.2990    1.8409    0.0000 N   0  0  0  0  0  0  0  0  0  0  0  0
    1.2990    0.3409    0.0000 C   0  0  0  0  0  0  0  0  0  0  0  0
   -0.0000   -0.4091    0.0000 C   0  0  0  0  0  0  0  0  0  0  0  0
   -1.2990    0.3409    0.0000 C   0  0  0  0  0  0  0  0  0  0  0  0
   -1.2990    1.8409    0.0000 F   0  0  0  0  0  0  0  0  0  0  0  0
   -2.5981   -0.4091    0.0000 C   0  0  0  0  0  0  0  0  0  0  0  0
   -2.5981   -1.9091    0.0000 O   0  0  0  0  0  0  0  0  0  0  0  0
   -3.8971    0.3409    0.0000 N   0  0  0  0  0  0  0  0  0  0  0  0
    2.5981   -0.4091    0.0000 C   0  0  0  0  0  0  0  0  0  0  0  0
    2.5981   -1.9091    0.0000 O   0  0  0  0  0  0  0  0  0  0  0  0
    3.8971    0.3409    0.0000 O   0  0  0  0  0  0  0  0  0  0  0  0
  2  1  1  6
  2  3  1  0
  3  4  1  0
  4  5  1  1
  4  6  1  0
  6  7  2  0
  6  8  1  0
  2  9  1  0
  9 10  2  0
  9 11  1  0
M  END
>  <rName>  (1812) 
Gln_4SF

>  <PQ_SYMBOL>  (1812) 
Gln_4SF

>  <FULL_NAME>  (1812) 
(4S)-4-Fluoroglutamine

>  <IUPAC_CONDENSED>  (1812) 
Gln(4S-F)

>  <IUPAC>  (1812) 
(2S,4S)-2-amino-4-carbamoyl-4-fluorobutanoic acid

>  <TYPE>  (1812) 
Backbone

>  <CLASS>  (1812) 
alpha

>  <ANALOG>  (1812) 
Gln

>  <MOL_WT>  (1812) 
164.136

>  <LOGP>  (1812) 
-1.3881999999999994

>  <TPSA>  (1812) 
106.41000000000001

>  <POPULARITY>  (1812) 
3.0

>  <PROTECTED>  (1812) 
TRUE

>  <SMILES>  (1812) 
N[C@@H](C[C@H](F)C(=O)N)C(=O)O

>  <INCHIKEY>  (1812) 
PGEYFCBAWGQSGT-HRFVKAFMSA-N

$$$$
Gln_6aminohexyl
     RDKit          2D

 17 16  0  0  0  0  0  0  0  0999 V2000
   -4.9623    1.9967    0.0000 N   0  0  0  0  0  0  0  0  0  0  0  0
   -4.9658    0.4967    0.0000 C   0  0  0  0  0  0  0  0  0  0  0  0
   -3.6685   -0.2562    0.0000 C   0  0  0  0  0  0  0  0  0  0  0  0
   -2.3677    0.4908    0.0000 C   0  0  0  0  0  0  0  0  0  0  0  0
   -1.0704   -0.2622    0.0000 C   0  0  0  0  0  0  0  0  0  0  0  0
   -1.0739   -1.7622    0.0000 O   0  0  0  0  0  0  0  0  0  0  0  0
    0.2304    0.4848    0.0000 N   0  0  0  0  0  0  0  0  0  0  0  0
    1.5277   -0.2682    0.0000 C   0  0  0  0  0  0  0  0  0  0  0  0
    2.8284    0.4788    0.0000 C   0  0  0  0  0  0  0  0  0  0  0  0
    4.1257   -0.2742    0.0000 C   0  0  0  0  0  0  0  0  0  0  0  0
    5.4265    0.4728    0.0000 C   0  0  0  0  0  0  0  0  0  0  0  0
    6.7238   -0.2802    0.0000 C   0  0  0  0  0  0  0  0  0  0  0  0
    8.0246    0.4668    0.0000 C   0  0  0  0  0  0  0  0  0  0  0  0
    9.3219   -0.2862    0.0000 N   0  0  0  0  0  0  0  0  0  0  0  0
   -6.2665   -0.2503    0.0000 C   0  0  0  0  0  0  0  0  0  0  0  0
   -6.2700   -1.7503    0.0000 O   0  0  0  0  0  0  0  0  0  0  0  0
   -7.5638    0.5027    0.0000 O   0  0  0  0  0  0  0  0  0  0  0  0
  2  1  1  1
  2  3  1  0
  3  4  1  0
  4  5  1  0
  5  6  2  0
  5  7  1  0
  7  8  1  0
  8  9  1  0
  9 10  1  0
 10 11  1  0
 11 12  1  0
 12 13  1  0
 13 14  1  0
  2 15  1  0
 15 16  2  0
 15 17  1  0
M  END
>  <rName>  (1813) 
Gln_6aminohexyl

>  <PQ_SYMBOL>  (1813) 
Gln_6aminohexyl

>  <FULL_NAME>  (1813) 
Gln(6-aminohexyl)

>  <IUPAC_CONDENSED>  (1813) 
Gln(6-aminohexyl)

>  <IUPAC>  (1813) 
(2S)-2-amino-4-((6-aminohexyl)carbamoyl)butanoic acid

>  <TYPE>  (1813) 
Backbone

>  <CLASS>  (1813) 
alpha

>  <ANALOG>  (1813) 
Gln

>  <MOL_WT>  (1813) 
245.32299999999992

>  <LOGP>  (1813) 
-0.1861999999999988

>  <TPSA>  (1813) 
118.44000000000001

>  <POPULARITY>  (1813) 
2.2

>  <PROTECTED>  (1813) 
TRUE

>  <SMILES>  (1813) 
N[C@@H](CCC(=O)NCCCCCCN)C(=O)O

>  <INCHIKEY>  (1813) 
YCRRMUFXXGBXTR-VIFPVBQESA-N

$$$$
Gln_Bn_24_6triOMe
     RDKit          2D

 23 23  0  0  0  0  0  0  0  0999 V2000
   -5.4709    1.9607    0.0000 N   0  0  0  0  0  0  0  0  0  0  0  0
   -5.6300    0.4692    0.0000 C   0  0  0  0  0  0  0  0  0  0  0  0
   -4.4178   -0.4143    0.0000 C   0  0  0  0  0  0  0  0  0  0  0  0
   -3.0466    0.1937    0.0000 C   0  0  0  0  0  0  0  0  0  0  0  0
   -1.8344   -0.6898    0.0000 C   0  0  0  0  0  0  0  0  0  0  0  0
   -1.9934   -2.1814    0.0000 O   0  0  0  0  0  0  0  0  0  0  0  0
   -0.4631   -0.0818    0.0000 N   0  0  0  0  0  0  0  0  0  0  0  0
    0.7491   -0.9653    0.0000 C   0  0  0  0  0  0  0  0  0  0  0  0
    2.1203   -0.3573    0.0000 C   0  0  0  0  0  0  0  0  0  0  0  0
    2.2794    1.1343    0.0000 C   0  0  0  0  0  0  0  0  0  0  0  0
    1.0672    2.0178    0.0000 O   0  0  0  0  0  0  0  0  0  0  0  0
    1.2262    3.5093    0.0000 C   0  0  0  0  0  0  0  0  0  0  0  0
    3.6506    1.7423    0.0000 C   0  0  0  0  0  0  0  0  0  0  0  0
    4.8628    0.8588    0.0000 C   0  0  0  0  0  0  0  0  0  0  0  0
    6.2340    1.4668    0.0000 O   0  0  0  0  0  0  0  0  0  0  0  0
    7.4462    0.5833    0.0000 C   0  0  0  0  0  0  0  0  0  0  0  0
    4.7037   -0.6327    0.0000 C   0  0  0  0  0  0  0  0  0  0  0  0
    3.3325   -1.2408    0.0000 C   0  0  0  0  0  0  0  0  0  0  0  0
    3.1735   -2.7323    0.0000 O   0  0  0  0  0  0  0  0  0  0  0  0
    4.3856   -3.6158    0.0000 C   0  0  0  0  0  0  0  0  0  0  0  0
   -7.0012   -0.1389    0.0000 C   0  0  0  0  0  0  0  0  0  0  0  0
   -7.1603   -1.6304    0.0000 O   0  0  0  0  0  0  0  0  0  0  0  0
   -8.2134    0.7446    0.0000 O   0  0  0  0  0  0  0  0  0  0  0  0
  2  1  1  1
  2  3  1  0
  3  4  1  0
  4  5  1  0
  5  6  2  0
  5  7  1  0
  7  8  1  0
  8  9  1  0
  9 10  2  0
 10 11  1  0
 11 12  1  0
 10 13  1  0
 13 14  2  0
 14 15  1  0
 15 16  1  0
 14 17  1  0
 17 18  2  0
 18 19  1  0
 19 20  1  0
  2 21  1  0
 21 22  2  0
 21 23  1  0
 18  9  1  0
M  END
>  <rName>  (1814) 
Gln_Bn_24_6triOMe

>  <PQ_SYMBOL>  (1814) 
Gln_Bn_24_6triOMe

>  <FULL_NAME>  (1814) 
N5-(2,4,6-trimethoxybenzyl)-L-glutamine

>  <IUPAC_CONDENSED>  (1814) 
Gln(Bn(2,4,6-triOMe))

>  <IUPAC>  (1814) 
(2S)-2-amino-4-(((2,4,6-trimethoxyphenyl)methyl)carbamoyl)butanoic acid

>  <TYPE>  (1814) 
Backbone

>  <CLASS>  (1814) 
alpha

>  <ANALOG>  (1814) 
Gln

>  <MOL_WT>  (1814) 
326.34900000000005

>  <LOGP>  (1814) 
0.5206999999999995

>  <TPSA>  (1814) 
120.11000000000003

>  <POPULARITY>  (1814) 
2.8

>  <PROTECTED>  (1814) 
TRUE

>  <SMILES>  (1814) 
N[C@@H](CCC(=O)NCc1(c(OC)cc(OC)cc1OC))C(=O)O

>  <INCHIKEY>  (1814) 
YBQMKHVKNROFTJ-NSHDSACASA-N

$$$$
Gln_BuNH2
     RDKit          2D

 15 14  0  0  0  0  0  0  0  0999 V2000
    3.8152   -1.9910    0.0000 N   0  0  0  0  0  0  0  0  0  0  0  0
    3.8117   -0.4910    0.0000 C   0  0  0  0  0  0  0  0  0  0  0  0
    2.5109    0.2559    0.0000 C   0  0  0  0  0  0  0  0  0  0  0  0
    1.2136   -0.4972    0.0000 C   0  0  0  0  0  0  0  0  0  0  0  0
   -0.0872    0.2498    0.0000 C   0  0  0  0  0  0  0  0  0  0  0  0
   -0.0907    1.7498    0.0000 O   0  0  0  0  0  0  0  0  0  0  0  0
   -1.3845   -0.5033    0.0000 N   0  0  0  0  0  0  0  0  0  0  0  0
   -2.6853    0.2437    0.0000 C   0  0  0  0  0  0  0  0  0  0  0  0
   -3.9825   -0.5094    0.0000 C   0  0  0  0  0  0  0  0  0  0  0  0
   -5.2833    0.2376    0.0000 C   0  0  0  0  0  0  0  0  0  0  0  0
   -6.5806   -0.5155    0.0000 C   0  0  0  0  0  0  0  0  0  0  0  0
   -7.8814    0.2315    0.0000 N   0  0  0  0  0  0  0  0  0  0  0  0
    5.1089    0.2620    0.0000 C   0  0  0  0  0  0  0  0  0  0  0  0
    5.1054    1.7620    0.0000 O   0  0  0  0  0  0  0  0  0  0  0  0
    6.4097   -0.4849    0.0000 O   0  0  0  0  0  0  0  0  0  0  0  0
  2  1  1  1
  2  3  1  0
  3  4  1  0
  4  5  1  0
  5  6  2  0
  5  7  1  0
  7  8  1  0
  8  9  1  0
  9 10  1  0
 10 11  1  0
 11 12  1  0
  2 13  1  0
 13 14  2  0
 13 15  1  0
M  END
>  <rName>  (1815) 
Gln_BuNH2

>  <PQ_SYMBOL>  (1815) 
Gln_BuNH2

>  <FULL_NAME>  (1815) 
gamma-L-glutamylputrescine

>  <IUPAC_CONDENSED>  (1815) 
Gln(BuNH2)

>  <IUPAC>  (1815) 
(2S)-2-amino-5-(4-aminobutylamino)-5-oxopentanoic acid

>  <TYPE>  (1815) 
Backbone

>  <CLASS>  (1815) 
alpha

>  <ANALOG>  (1815) 
Gln

>  <MOL_WT>  (1815) 
217.26899999999995

>  <LOGP>  (1815) 
-0.9663999999999981

>  <TPSA>  (1815) 
118.44000000000001

>  <POPULARITY>  (1815) 
2.2

>  <PROTECTED>  (1815) 
TRUE

>  <SMILES>  (1815) 
N[C@@H](CCC(=O)NCCCCN)C(=O)O

>  <INCHIKEY>  (1815) 
WKGTVHGVLRCTCF-ZETCQYMHSA-N

$$$$
Gln_Et
     RDKit          2D

 12 11  0  0  0  0  0  0  0  0999 V2000
   -2.1767    1.9873    0.0000 N   0  0  0  0  0  0  0  0  0  0  0  0
   -2.1680    0.4873    0.0000 C   0  0  0  0  0  0  0  0  0  0  0  0
   -0.8645   -0.2551    0.0000 C   0  0  0  0  0  0  0  0  0  0  0  0
    0.4301    0.5025    0.0000 C   0  0  0  0  0  0  0  0  0  0  0  0
    1.7335   -0.2399    0.0000 C   0  0  0  0  0  0  0  0  0  0  0  0
    1.7423   -1.7398    0.0000 O   0  0  0  0  0  0  0  0  0  0  0  0
    3.0281    0.5177    0.0000 N   0  0  0  0  0  0  0  0  0  0  0  0
    4.3315   -0.2247    0.0000 C   0  0  0  0  0  0  0  0  0  0  0  0
    5.6261    0.5329    0.0000 C   0  0  0  0  0  0  0  0  0  0  0  0
   -3.4626   -0.2703    0.0000 C   0  0  0  0  0  0  0  0  0  0  0  0
   -3.4538   -1.7702    0.0000 O   0  0  0  0  0  0  0  0  0  0  0  0
   -4.7660    0.4721    0.0000 O   0  0  0  0  0  0  0  0  0  0  0  0
  2  1  1  1
  2  3  1  0
  3  4  1  0
  4  5  1  0
  5  6  2  0
  5  7  1  0
  7  8  1  0
  8  9  1  0
  2 10  1  0
 10 11  2  0
 10 12  1  0
M  END
>  <rName>  (1816) 
Gln_Et

>  <PQ_SYMBOL>  (1816) 
Gln_Et

>  <FULL_NAME>  (1816) 
N-Ethyl-L-Glutamine, L-Theanine

>  <IUPAC_CONDENSED>  (1816) 
Gln(Et)

>  <IUPAC>  (1816) 
(2S)-2-amino-4-(ethylcarbamoyl)butanoic acid

>  <TYPE>  (1816) 
Backbone

>  <CLASS>  (1816) 
alpha

>  <ANALOG>  (1816) 
Gln

>  <MOL_WT>  (1816) 
174.2

>  <LOGP>  (1816) 
-0.6854000000000002

>  <TPSA>  (1816) 
92.42

>  <POPULARITY>  (1816) 
16.4

>  <PROTECTED>  (1816) 
TRUE

>  <SMILES>  (1816) 
N[C@@H](CCC(=O)NCC)C(=O)O

>  <INCHIKEY>  (1816) 
DATAGRPVKZEWHA-YFKPBYRVSA-N

$$$$
Gln_EtNH2
     RDKit          2D

 13 12  0  0  0  0  0  0  0  0999 V2000
    2.7270   -1.9800    0.0000 N   0  0  0  0  0  0  0  0  0  0  0  0
    2.7052   -0.4801    0.0000 C   0  0  0  0  0  0  0  0  0  0  0  0
    1.3955    0.2510    0.0000 C   0  0  0  0  0  0  0  0  0  0  0  0
    0.1074   -0.5177    0.0000 C   0  0  0  0  0  0  0  0  0  0  0  0
   -1.2023    0.2134    0.0000 C   0  0  0  0  0  0  0  0  0  0  0  0
   -1.2240    1.7132    0.0000 O   0  0  0  0  0  0  0  0  0  0  0  0
   -2.4904   -0.5553    0.0000 N   0  0  0  0  0  0  0  0  0  0  0  0
   -3.8001    0.1758    0.0000 C   0  0  0  0  0  0  0  0  0  0  0  0
   -5.0882   -0.5930    0.0000 C   0  0  0  0  0  0  0  0  0  0  0  0
   -6.3979    0.1382    0.0000 N   0  0  0  0  0  0  0  0  0  0  0  0
    3.9933    0.2886    0.0000 C   0  0  0  0  0  0  0  0  0  0  0  0
    3.9716    1.7885    0.0000 O   0  0  0  0  0  0  0  0  0  0  0  0
    5.3030   -0.4425    0.0000 O   0  0  0  0  0  0  0  0  0  0  0  0
  2  1  1  1
  2  3  1  0
  3  4  1  0
  4  5  1  0
  5  6  2  0
  5  7  1  0
  7  8  1  0
  8  9  1  0
  9 10  1  0
  2 11  1  0
 11 12  2  0
 11 13  1  0
M  END
>  <rName>  (1817) 
Gln_EtNH2

>  <PQ_SYMBOL>  (1817) 
Gln_EtNH2

>  <FULL_NAME>  (1817) 
N-(2-Aminoethyl)-L-glutamine

>  <IUPAC_CONDENSED>  (1817) 
Gln(EtNH2)

>  <IUPAC>  (1817) 
(2S)-2-amino-5-(2-aminoethylamino)-5-oxopentanoic acid

>  <TYPE>  (1817) 
Backbone

>  <CLASS>  (1817) 
alpha

>  <ANALOG>  (1817) 
Gln

>  <MOL_WT>  (1817) 
189.21499999999997

>  <LOGP>  (1817) 
-1.7465999999999982

>  <TPSA>  (1817) 
118.44000000000001

>  <POPULARITY>  (1817) 
3.5

>  <PROTECTED>  (1817) 
TRUE

>  <SMILES>  (1817) 
N[C@@H](CCC(=O)NCCN)C(=O)O

>  <INCHIKEY>  (1817) 
VFJGSRBYEZCSMQ-YFKPBYRVSA-N

$$$$
Gln_H2NBu
     RDKit          2D

 16 15  0  0  0  0  0  0  0  0999 V2000
   -4.3638    2.0137    0.0000 N   0  0  0  0  0  0  0  0  0  0  0  0
   -4.3792    0.5138    0.0000 C   0  0  0  0  0  0  0  0  0  0  0  0
   -3.0879   -0.2495    0.0000 C   0  0  0  0  0  0  0  0  0  0  0  0
   -1.7813    0.4871    0.0000 C   0  0  0  0  0  0  0  0  0  0  0  0
   -0.4900   -0.2762    0.0000 C   0  0  0  0  0  0  0  0  0  0  0  0
   -0.5054   -1.7761    0.0000 O   0  0  0  0  0  0  0  0  0  0  0  0
    0.8167    0.4604    0.0000 N   0  0  0  0  0  0  0  0  0  0  0  0
    2.1079   -0.3029    0.0000 C   0  0  0  0  0  0  0  0  0  0  0  0
    3.4146    0.4337    0.0000 C   0  0  0  0  0  0  0  0  0  0  0  0
    4.7059   -0.3297    0.0000 C   0  0  0  0  0  0  0  0  0  0  0  0
    6.0126    0.4069    0.0000 C   0  0  0  0  0  0  0  0  0  0  0  0
    7.3038   -0.3564    0.0000 C   0  0  0  0  0  0  0  0  0  0  0  0
    8.6105    0.3802    0.0000 N   0  0  0  0  0  0  0  0  0  0  0  0
   -5.6859   -0.2228    0.0000 C   0  0  0  0  0  0  0  0  0  0  0  0
   -5.7013   -1.7227    0.0000 O   0  0  0  0  0  0  0  0  0  0  0  0
   -6.9771    0.5405    0.0000 O   0  0  0  0  0  0  0  0  0  0  0  0
  2  1  1  1
  2  3  1  0
  3  4  1  0
  4  5  1  0
  5  6  2  0
  5  7  1  0
  7  8  1  0
  8  9  1  0
  9 10  1  0
 10 11  1  0
 11 12  1  0
 12 13  1  0
  2 14  1  0
 14 15  2  0
 14 16  1  0
M  END
>  <rName>  (1818) 
Gln_H2NBu

>  <PQ_SYMBOL>  (1818) 
Gln_H2NBu

>  <FULL_NAME>  (1818) 
(2S)-2-amino-5-(5-aminopentylamino)-5-oxopentanoic acid

>  <IUPAC_CONDENSED>  (1818) 
Gln(H2NBu)

>  <IUPAC>  (1818) 
(2S)-2-amino-5-(5-aminopentylamino)-5-oxopentanoic acid

>  <TYPE>  (1818) 
Backbone

>  <CLASS>  (1818) 
alpha

>  <ANALOG>  (1818) 
Gln

>  <MOL_WT>  (1818) 
231.29599999999994

>  <LOGP>  (1818) 
-0.5762999999999985

>  <TPSA>  (1818) 
118.44000000000001

>  <POPULARITY>  (1818) 
2.2

>  <PROTECTED>  (1818) 
TRUE

>  <SMILES>  (1818) 
N[C@@H](CCC(=O)NCCCCCN)C(=O)O

>  <INCHIKEY>  (1818) 
PBMPYYMSXBOZFN-QMMMGPOBSA-N

$$$$
Gln_Me
     RDKit          2D

 11 10  0  0  0  0  0  0  0  0999 V2000
    1.7502    1.9632    0.0000 N   0  0  0  0  0  0  0  0  0  0  0  0
    1.6777    0.4649    0.0000 C   0  0  0  0  0  0  0  0  0  0  0  0
    0.3440   -0.2214    0.0000 C   0  0  0  0  0  0  0  0  0  0  0  0
   -0.9173    0.5905    0.0000 C   0  0  0  0  0  0  0  0  0  0  0  0
   -2.2511   -0.0959    0.0000 C   0  0  0  0  0  0  0  0  0  0  0  0
   -2.3235   -1.5941    0.0000 O   0  0  0  0  0  0  0  0  0  0  0  0
   -3.5123    0.7160    0.0000 N   0  0  0  0  0  0  0  0  0  0  0  0
   -4.8461    0.0297    0.0000 C   0  0  0  0  0  0  0  0  0  0  0  0
    2.9390   -0.3470    0.0000 C   0  0  0  0  0  0  0  0  0  0  0  0
    2.8665   -1.8452    0.0000 O   0  0  0  0  0  0  0  0  0  0  0  0
    4.2728    0.3394    0.0000 O   0  0  0  0  0  0  0  0  0  0  0  0
  2  1  1  6
  2  3  1  0
  3  4  1  0
  4  5  1  0
  5  6  2  0
  5  7  1  0
  7  8  1  0
  2  9  1  0
  9 10  2  0
  9 11  1  0
M  END
>  <rName>  (1819) 
Gln_Me

>  <PQ_SYMBOL>  (1819) 
Gln_Me

>  <FULL_NAME>  (1819) 
N5-Methyl-L-Glutamine

>  <IUPAC_CONDENSED>  (1819) 
Gln(Me)

>  <IUPAC>  (1819) 
(2S)-2-amino-4-(methylcarbamoyl)butanoic acid

>  <TYPE>  (1819) 
Backbone

>  <CLASS>  (1819) 
alpha

>  <ANALOG>  (1819) 
Gln

>  <MOL_WT>  (1819) 
160.173

>  <LOGP>  (1819) 
-1.0755

>  <TPSA>  (1819) 
92.42

>  <POPULARITY>  (1819) 
38.0

>  <PROTECTED>  (1819) 
TRUE

>  <SMILES>  (1819) 
N[C@@H](CCC(=O)NC)C(=O)O

>  <INCHIKEY>  (1819) 
ONXPDKGXOOORHB-BYPYZUCNSA-N

$$$$
Gln_Me2
     RDKit          2D

 12 11  0  0  0  0  0  0  0  0999 V2000
    1.8826   -1.9413    0.0000 N   0  0  0  0  0  0  0  0  0  0  0  0
    1.9344   -0.4422    0.0000 C   0  0  0  0  0  0  0  0  0  0  0  0
    0.6621    0.3523    0.0000 C   0  0  0  0  0  0  0  0  0  0  0  0
   -0.6621   -0.3523    0.0000 C   0  0  0  0  0  0  0  0  0  0  0  0
   -1.9344    0.4422    0.0000 C   0  0  0  0  0  0  0  0  0  0  0  0
   -1.8826    1.9413    0.0000 O   0  0  0  0  0  0  0  0  0  0  0  0
   -3.2586   -0.2625    0.0000 N   0  0  0  0  0  0  0  0  0  0  0  0
   -4.5309    0.5320    0.0000 C   0  0  0  0  0  0  0  0  0  0  0  0
   -3.3105   -1.7616    0.0000 C   0  0  0  0  0  0  0  0  0  0  0  0
    3.2586    0.2625    0.0000 C   0  0  0  0  0  0  0  0  0  0  0  0
    3.3105    1.7616    0.0000 O   0  0  0  0  0  0  0  0  0  0  0  0
    4.5309   -0.5320    0.0000 O   0  0  0  0  0  0  0  0  0  0  0  0
  2  1  1  1
  2  3  1  0
  3  4  1  0
  4  5  1  0
  5  6  2  0
  5  7  1  0
  7  8  1  0
  7  9  1  0
  2 10  1  0
 10 11  2  0
 10 12  1  0
M  END
>  <rName>  (1820) 
Gln_Me2

>  <PQ_SYMBOL>  (1820) 
Gln_Me2

>  <FULL_NAME>  (1820) 
N5,N5-dimethyl-L-glutamine

>  <IUPAC_CONDENSED>  (1820) 
Gln(Me2)

>  <IUPAC>  (1820) 
(2S)-2-amino-4-(dimethylcarbamoyl)butanoic acid

>  <TYPE>  (1820) 
Backbone

>  <CLASS>  (1820) 
alpha

>  <ANALOG>  (1820) 
Lys

>  <MOL_WT>  (1820) 
174.2

>  <LOGP>  (1820) 
-0.7332999999999998

>  <TPSA>  (1820) 
83.63000000000001

>  <POPULARITY>  (1820) 
15.0

>  <PROTECTED>  (1820) 
TRUE

>  <SMILES>  (1820) 
N[C@@H](CCC(=O)N(C)C)C(=O)O

>  <INCHIKEY>  (1820) 
SMWQVIPJGSEJPA-YFKPBYRVSA-N

$$$$
Gln_Me_OMe
     RDKit          2D

 13 12  0  0  0  0  0  0  0  0999 V2000
   -2.3948   -1.9038    0.0000 N   0  0  0  0  0  0  0  0  0  0  0  0
   -2.3211   -0.4056    0.0000 C   0  0  0  0  0  0  0  0  0  0  0  0
   -0.9867    0.2796    0.0000 C   0  0  0  0  0  0  0  0  0  0  0  0
    0.2739   -0.5333    0.0000 C   0  0  0  0  0  0  0  0  0  0  0  0
    1.6082    0.1519    0.0000 C   0  0  0  0  0  0  0  0  0  0  0  0
    1.6820    1.6500    0.0000 O   0  0  0  0  0  0  0  0  0  0  0  0
    2.8688   -0.6611    0.0000 N   0  0  0  0  0  0  0  0  0  0  0  0
    4.2032    0.0241    0.0000 O   0  0  0  0  0  0  0  0  0  0  0  0
    4.2769    1.5223    0.0000 C   0  0  0  0  0  0  0  0  0  0  0  0
    2.7950   -2.1593    0.0000 C   0  0  0  0  0  0  0  0  0  0  0  0
   -3.5816    0.4074    0.0000 C   0  0  0  0  0  0  0  0  0  0  0  0
   -3.5079    1.9056    0.0000 O   0  0  0  0  0  0  0  0  0  0  0  0
   -4.9160   -0.2778    0.0000 O   0  0  0  0  0  0  0  0  0  0  0  0
  2  1  1  6
  2  3  1  0
  3  4  1  0
  4  5  1  0
  5  6  2  0
  5  7  1  0
  7  8  1  0
  8  9  1  0
  7 10  1  0
  2 11  1  0
 11 12  2  0
 11 13  1  0
M  END
>  <rName>  (1821) 
Gln_Me_OMe

>  <PQ_SYMBOL>  (1821) 
Gln_Me_OMe

>  <FULL_NAME>  (1821) 
Gln(Me,OMe)

>  <IUPAC_CONDENSED>  (1821) 
Gln(Me,OMe)

>  <IUPAC>  (1821) 
(2S)-2-amino-4-((methoxy)(methyl)carbamoyl)butanoic acid

>  <TYPE>  (1821) 
Backbone

>  <CLASS>  (1821) 
alpha

>  <ANALOG>  (1821) 
Lys

>  <MOL_WT>  (1821) 
190.19899999999998

>  <LOGP>  (1821) 
-0.8016999999999994

>  <TPSA>  (1821) 
92.86

>  <POPULARITY>  (1821) 
2.2

>  <PROTECTED>  (1821) 
TRUE

>  <SMILES>  (1821) 
N[C@@H](CCC(=O)N(OC)C)C(=O)O

>  <INCHIKEY>  (1821) 
IMWDFPHSKUNJPC-YFKPBYRVSA-N

$$$$
Gln_Ph
     RDKit          2D

 16 16  0  0  0  0  0  0  0  0999 V2000
   -3.9213   -1.9201    0.0000 N   0  0  0  0  0  0  0  0  0  0  0  0
   -3.7357   -0.4317    0.0000 C   0  0  0  0  0  0  0  0  0  0  0  0
   -2.3538    0.1518    0.0000 C   0  0  0  0  0  0  0  0  0  0  0  0
   -1.1576   -0.7532    0.0000 C   0  0  0  0  0  0  0  0  0  0  0  0
    0.2243   -0.1697    0.0000 C   0  0  0  0  0  0  0  0  0  0  0  0
    0.4099    1.3188    0.0000 O   0  0  0  0  0  0  0  0  0  0  0  0
    1.4205   -1.0747    0.0000 N   0  0  0  0  0  0  0  0  0  0  0  0
    2.8024   -0.4912    0.0000 C   0  0  0  0  0  0  0  0  0  0  0  0
    2.9880    0.9973    0.0000 C   0  0  0  0  0  0  0  0  0  0  0  0
    4.3699    1.5808    0.0000 C   0  0  0  0  0  0  0  0  0  0  0  0
    5.5661    0.6758    0.0000 C   0  0  0  0  0  0  0  0  0  0  0  0
    5.3805   -0.8127    0.0000 C   0  0  0  0  0  0  0  0  0  0  0  0
    3.9986   -1.3962    0.0000 C   0  0  0  0  0  0  0  0  0  0  0  0
   -4.9319    0.4733    0.0000 C   0  0  0  0  0  0  0  0  0  0  0  0
   -4.7463    1.9618    0.0000 O   0  0  0  0  0  0  0  0  0  0  0  0
   -6.3138   -0.1102    0.0000 O   0  0  0  0  0  0  0  0  0  0  0  0
  2  1  1  6
  2  3  1  0
  3  4  1  0
  4  5  1  0
  5  6  2  0
  5  7  1  0
  7  8  1  0
  8  9  2  0
  9 10  1  0
 10 11  2  0
 11 12  1  0
 12 13  2  0
  2 14  1  0
 14 15  2  0
 14 16  1  0
 13  8  1  0
M  END
>  <rName>  (1822) 
Gln_Ph

>  <PQ_SYMBOL>  (1822) 
Gln_Ph

>  <FULL_NAME>  (1822) 
N(5)-phenyl-L-glutamine

>  <IUPAC_CONDENSED>  (1822) 
Gln(Ph)

>  <IUPAC>  (1822) 
(2S)-2-amino-5-anilino-5-oxopentanoic acid

>  <TYPE>  (1822) 
Backbone

>  <CLASS>  (1822) 
alpha

>  <ANALOG>  (1822) 
Gln

>  <MOL_WT>  (1822) 
222.244

>  <LOGP>  (1822) 
0.8171999999999997

>  <TPSA>  (1822) 
92.42

>  <POPULARITY>  (1822) 
3.5

>  <PROTECTED>  (1822) 
TRUE

>  <SMILES>  (1822) 
N[C@@H](CCC(=O)Nc1(ccccc1))C(=O)O

>  <INCHIKEY>  (1822) 
VMNRUJGOLBSEPK-VIFPVBQESA-N

$$$$
Gln_PrNH2
     RDKit          2D

 14 13  0  0  0  0  0  0  0  0999 V2000
   -3.2337    2.0047    0.0000 N   0  0  0  0  0  0  0  0  0  0  0  0
   -3.2442    0.5047    0.0000 C   0  0  0  0  0  0  0  0  0  0  0  0
   -1.9504   -0.2543    0.0000 C   0  0  0  0  0  0  0  0  0  0  0  0
   -0.6461    0.4867    0.0000 C   0  0  0  0  0  0  0  0  0  0  0  0
    0.6476   -0.2724    0.0000 C   0  0  0  0  0  0  0  0  0  0  0  0
    0.6372   -1.7723    0.0000 O   0  0  0  0  0  0  0  0  0  0  0  0
    1.9519    0.4686    0.0000 N   0  0  0  0  0  0  0  0  0  0  0  0
    3.2457   -0.2905    0.0000 C   0  0  0  0  0  0  0  0  0  0  0  0
    4.5499    0.4505    0.0000 C   0  0  0  0  0  0  0  0  0  0  0  0
    5.8437   -0.3085    0.0000 C   0  0  0  0  0  0  0  0  0  0  0  0
    7.1479    0.4324    0.0000 N   0  0  0  0  0  0  0  0  0  0  0  0
   -4.5484   -0.2362    0.0000 C   0  0  0  0  0  0  0  0  0  0  0  0
   -4.5588   -1.7362    0.0000 O   0  0  0  0  0  0  0  0  0  0  0  0
   -5.8422    0.5228    0.0000 O   0  0  0  0  0  0  0  0  0  0  0  0
  2  1  1  1
  2  3  1  0
  3  4  1  0
  4  5  1  0
  5  6  2  0
  5  7  1  0
  7  8  1  0
  8  9  1  0
  9 10  1  0
 10 11  1  0
  2 12  1  0
 12 13  2  0
 12 14  1  0
M  END
>  <rName>  (1823) 
Gln_PrNH2

>  <PQ_SYMBOL>  (1823) 
Gln_PrNH2

>  <FULL_NAME>  (1823) 
N5-(3-aminopropyl)-L-glutamine

>  <IUPAC_CONDENSED>  (1823) 
Gln(PrNH2)

>  <IUPAC>  (1823) 
(2S)-2-amino-4-((3-aminopropyl)carbamoyl)butanoic acid

>  <TYPE>  (1823) 
Backbone

>  <CLASS>  (1823) 
alpha

>  <ANALOG>  (1823) 
Gln

>  <MOL_WT>  (1823) 
203.24199999999996

>  <LOGP>  (1823) 
-1.3564999999999978

>  <TPSA>  (1823) 
118.44000000000001

>  <POPULARITY>  (1823) 
8.4

>  <PROTECTED>  (1823) 
TRUE

>  <SMILES>  (1823) 
N[C@@H](CCC(=O)NCCCN)C(=O)O

>  <INCHIKEY>  (1823) 
MTXBLJWLSGUGBT-LURJTMIESA-N

$$$$
Gln_cHex
     RDKit          2D

 16 16  0  0  0  0  0  0  0  0999 V2000
   -3.9213   -1.9201    0.0000 N   0  0  0  0  0  0  0  0  0  0  0  0
   -3.7357   -0.4317    0.0000 C   0  0  0  0  0  0  0  0  0  0  0  0
   -2.3538    0.1518    0.0000 C   0  0  0  0  0  0  0  0  0  0  0  0
   -1.1576   -0.7532    0.0000 C   0  0  0  0  0  0  0  0  0  0  0  0
    0.2243   -0.1697    0.0000 C   0  0  0  0  0  0  0  0  0  0  0  0
    0.4099    1.3188    0.0000 O   0  0  0  0  0  0  0  0  0  0  0  0
    1.4205   -1.0747    0.0000 N   0  0  0  0  0  0  0  0  0  0  0  0
    2.8024   -0.4912    0.0000 C   0  0  0  0  0  0  0  0  0  0  0  0
    2.9880    0.9973    0.0000 C   0  0  0  0  0  0  0  0  0  0  0  0
    4.3699    1.5808    0.0000 C   0  0  0  0  0  0  0  0  0  0  0  0
    5.5661    0.6758    0.0000 C   0  0  0  0  0  0  0  0  0  0  0  0
    5.3805   -0.8127    0.0000 C   0  0  0  0  0  0  0  0  0  0  0  0
    3.9986   -1.3962    0.0000 C   0  0  0  0  0  0  0  0  0  0  0  0
   -4.9319    0.4733    0.0000 C   0  0  0  0  0  0  0  0  0  0  0  0
   -4.7463    1.9618    0.0000 O   0  0  0  0  0  0  0  0  0  0  0  0
   -6.3138   -0.1102    0.0000 O   0  0  0  0  0  0  0  0  0  0  0  0
  2  1  1  6
  2  3  1  0
  3  4  1  0
  4  5  1  0
  5  6  2  0
  5  7  1  0
  7  8  1  0
  8  9  1  0
  9 10  1  0
 10 11  1  0
 11 12  1  0
 12 13  1  0
  2 14  1  0
 14 15  2  0
 14 16  1  0
 13  8  1  0
M  END
>  <rName>  (1824) 
Gln_cHex

>  <PQ_SYMBOL>  (1824) 
Gln_cHex

>  <FULL_NAME>  (1824) 
(2S)-2-azaniumyl-5-(cyclohexylamino)-5-oxopentanoate

>  <IUPAC_CONDENSED>  (1824) 
Gln(cHex)

>  <IUPAC>  (1824) 
(2S)-2-azaniumyl-5-(cyclohexylamino)-5-oxopentanoate

>  <TYPE>  (1824) 
Backbone

>  <CLASS>  (1824) 
alpha

>  <ANALOG>  (1824) 
Gln

>  <MOL_WT>  (1824) 
228.29199999999994

>  <LOGP>  (1824) 
0.6273999999999993

>  <TPSA>  (1824) 
92.42

>  <POPULARITY>  (1824) 
2.2

>  <PROTECTED>  (1824) 
TRUE

>  <SMILES>  (1824) 
N[C@@H](CCC(=O)NC1(CCCCC1))C(=O)O

>  <INCHIKEY>  (1824) 
CRUVKPHIAJYEPS-VIFPVBQESA-N

$$$$
Gln_dodecyl
     RDKit          2D

 22 21  0  0  0  0  0  0  0  0999 V2000
    7.9531   -2.0166    0.0000 N   0  0  0  0  0  0  0  0  0  0  0  0
    7.9669   -0.5166    0.0000 C   0  0  0  0  0  0  0  0  0  0  0  0
    6.6749    0.2453    0.0000 C   0  0  0  0  0  0  0  0  0  0  0  0
    5.3690   -0.4927    0.0000 C   0  0  0  0  0  0  0  0  0  0  0  0
    4.0769    0.2693    0.0000 C   0  0  0  0  0  0  0  0  0  0  0  0
    4.0907    1.7692    0.0000 O   0  0  0  0  0  0  0  0  0  0  0  0
    2.7710   -0.4687    0.0000 N   0  0  0  0  0  0  0  0  0  0  0  0
    1.4789    0.2932    0.0000 C   0  0  0  0  0  0  0  0  0  0  0  0
    0.1730   -0.4448    0.0000 C   0  0  0  0  0  0  0  0  0  0  0  0
   -1.1190    0.3171    0.0000 C   0  0  0  0  0  0  0  0  0  0  0  0
   -2.4249   -0.4209    0.0000 C   0  0  0  0  0  0  0  0  0  0  0  0
   -3.7170    0.3411    0.0000 C   0  0  0  0  0  0  0  0  0  0  0  0
   -5.0229   -0.3969    0.0000 C   0  0  0  0  0  0  0  0  0  0  0  0
   -6.3150    0.3650    0.0000 C   0  0  0  0  0  0  0  0  0  0  0  0
   -7.6208   -0.3730    0.0000 C   0  0  0  0  0  0  0  0  0  0  0  0
   -8.9129    0.3890    0.0000 C   0  0  0  0  0  0  0  0  0  0  0  0
  -10.2188   -0.3490    0.0000 C   0  0  0  0  0  0  0  0  0  0  0  0
  -11.5109    0.4129    0.0000 C   0  0  0  0  0  0  0  0  0  0  0  0
  -12.8168   -0.3251    0.0000 C   0  0  0  0  0  0  0  0  0  0  0  0
    9.2728    0.2214    0.0000 C   0  0  0  0  0  0  0  0  0  0  0  0
    9.2867    1.7213    0.0000 O   0  0  0  0  0  0  0  0  0  0  0  0
   10.5649   -0.5406    0.0000 O   0  0  0  0  0  0  0  0  0  0  0  0
  2  1  1  1
  2  3  1  0
  3  4  1  0
  4  5  1  0
  5  6  2  0
  5  7  1  0
  7  8  1  0
  8  9  1  0
  9 10  1  0
 10 11  1  0
 11 12  1  0
 12 13  1  0
 13 14  1  0
 14 15  1  0
 15 16  1  0
 16 17  1  0
 17 18  1  0
 18 19  1  0
  2 20  1  0
 20 21  2  0
 20 22  1  0
M  END
>  <rName>  (1825) 
Gln_dodecyl

>  <PQ_SYMBOL>  (1825) 
Gln_dodecyl

>  <FULL_NAME>  (1825) 
(2S)-2-amino-5-(dodecylamino)-5-oxopentanoic acid

>  <IUPAC_CONDENSED>  (1825) 
Gln(dodecyl)

>  <IUPAC>  (1825) 
(2S)-2-amino-5-(dodecylamino)-5-oxopentanoic acid

>  <TYPE>  (1825) 
Backbone

>  <CLASS>  (1825) 
alpha

>  <ANALOG>  (1825) 
Gln

>  <MOL_WT>  (1825) 
314.4699999999999

>  <LOGP>  (1825) 
3.2156000000000002

>  <TPSA>  (1825) 
92.42

>  <POPULARITY>  (1825) 
2.2

>  <PROTECTED>  (1825) 
TRUE

>  <SMILES>  (1825) 
N[C@@H](CCC(=O)NCCCCCCCCCCCC)C(=O)O

>  <INCHIKEY>  (1825) 
AHAVDSZGPRRUNX-HNNXBMFYSA-N

$$$$
Glu-Cl
     RDKit          2D

 10  9  0  0  0  0  0  0  0  0999 V2000
    1.2717   -1.9622    0.0000 N   0  0  0  0  0  0  0  0  0  0  0  0
    1.1946   -0.4642    0.0000 C   0  0  0  0  0  0  0  0  0  0  0  0
    2.4533    0.3516    0.0000 C   0  0  0  0  0  0  0  0  0  0  0  0
    3.7892   -0.3306    0.0000 O   0  0  0  0  0  0  0  0  0  0  0  0
    2.3762    1.8496    0.0000 Cl  0  0  0  0  0  0  0  0  0  0  0  0
   -0.1413    0.2180    0.0000 C   0  0  0  0  0  0  0  0  0  0  0  0
   -1.4001   -0.5978    0.0000 C   0  0  0  0  0  0  0  0  0  0  0  0
   -2.7359    0.0845    0.0000 C   0  0  0  0  0  0  0  0  0  0  0  0
   -2.8131    1.5825    0.0000 O   0  0  0  0  0  0  0  0  0  0  0  0
   -3.9947   -0.7313    0.0000 O   0  0  0  0  0  0  0  0  0  0  0  0
  2  1  1  1
  2  3  1  0
  3  4  2  0
  3  5  1  0
  2  6  1  0
  6  7  1  0
  7  8  1  0
  8  9  2  0
  8 10  1  0
M  END
>  <rName>  (1826) 
Glu-Cl

>  <PQ_SYMBOL>  (1826) 
Glu-Cl

>  <FULL_NAME>  (1826) 
(S)-4-amino-5-chloro-5-oxopentanoic acid

>  <IUPAC_CONDENSED>  (1826) 
Glu-Cl

>  <IUPAC>  (1826) 
(4S)-4-amino-4-(chlorocarbonyl)butanoic acid

>  <TYPE>  (1826) 
Backbone

>  <CLASS>  (1826) 
gamma

>  <ANALOG>  (1826) 
X

>  <MOL_WT>  (1826) 
165.576

>  <LOGP>  (1826) 
-0.056100000000000094

>  <TPSA>  (1826) 
80.39

>  <POPULARITY>  (1826) 
3.0

>  <PROTECTED>  (1826) 
TRUE

>  <SMILES>  (1826) 
N[C@H](C(=O)Cl)CCC(=O)O

>  <INCHIKEY>  (1826) 
MNCCGMMMOFFNMM-VKHMYHEASA-N

$$$$
Glu-OBn
     RDKit          2D

 17 17  0  0  0  0  0  0  0  0999 V2000
   -1.5999    1.8238    0.0000 N   0  0  0  0  0  0  0  0  0  0  0  0
   -1.8047    0.3378    0.0000 C   0  0  0  0  0  0  0  0  0  0  0  0
   -3.1940   -0.2278    0.0000 C   0  0  0  0  0  0  0  0  0  0  0  0
   -4.3785    0.6926    0.0000 C   0  0  0  0  0  0  0  0  0  0  0  0
   -5.7677    0.1270    0.0000 C   0  0  0  0  0  0  0  0  0  0  0  0
   -5.9726   -1.3590    0.0000 O   0  0  0  0  0  0  0  0  0  0  0  0
   -6.9522    1.0473    0.0000 O   0  0  0  0  0  0  0  0  0  0  0  0
   -0.6202   -0.5825    0.0000 C   0  0  0  0  0  0  0  0  0  0  0  0
   -0.8251   -2.0685    0.0000 O   0  0  0  0  0  0  0  0  0  0  0  0
    0.7690   -0.0169    0.0000 O   0  0  0  0  0  0  0  0  0  0  0  0
    1.9535   -0.9373    0.0000 C   0  0  0  0  0  0  0  0  0  0  0  0
    3.3428   -0.3717    0.0000 C   0  0  0  0  0  0  0  0  0  0  0  0
    3.5476    1.1143    0.0000 C   0  0  0  0  0  0  0  0  0  0  0  0
    4.9369    1.6799    0.0000 C   0  0  0  0  0  0  0  0  0  0  0  0
    6.1213    0.7595    0.0000 C   0  0  0  0  0  0  0  0  0  0  0  0
    5.9165   -0.7264    0.0000 C   0  0  0  0  0  0  0  0  0  0  0  0
    4.5272   -1.2920    0.0000 C   0  0  0  0  0  0  0  0  0  0  0  0
  2  1  1  6
  2  3  1  0
  3  4  1  0
  4  5  1  0
  5  6  2  0
  5  7  1  0
  2  8  1  0
  8  9  2  0
  8 10  1  0
 10 11  1  0
 11 12  1  0
 12 13  2  0
 13 14  1  0
 14 15  2  0
 15 16  1  0
 16 17  2  0
 17 12  1  0
M  END
>  <rName>  (1827) 
Glu-OBn

>  <PQ_SYMBOL>  (1827) 
Glu-OBn

>  <FULL_NAME>  (1827) 
L-Glutamic acid alpha-benzyl ester

>  <IUPAC_CONDENSED>  (1827) 
Glu-OBn

>  <IUPAC>  (1827) 
(4S)-4-amino-4-(benzyloxycarbonyl)butanoic acid

>  <TYPE>  (1827) 
C-term cap

>  <CLASS>  (1827) 
c_cap

>  <ANALOG>  (1827) 
X

>  <MOL_WT>  (1827) 
237.255

>  <LOGP>  (1827) 
0.9218999999999997

>  <TPSA>  (1827) 
89.62000000000002

>  <POPULARITY>  (1827) 
7.0

>  <PROTECTED>  (1827) 
TRUE

>  <SMILES>  (1827) 
N[C@@H](CCC(=O)O)C(=O)OCc1ccccc1

>  <INCHIKEY>  (1827) 
HFZKKJHBHCZXTQ-JTQLQIEISA-N

$$$$
Glu-OMe
     RDKit          2D

 11 10  0  0  0  0  0  0  0  0999 V2000
    0.7523   -2.0298    0.0000 N   0  0  0  0  0  0  0  0  0  0  0  0
    0.7201   -0.5301    0.0000 C   0  0  0  0  0  0  0  0  0  0  0  0
    2.0028    0.2476    0.0000 C   0  0  0  0  0  0  0  0  0  0  0  0
    1.9706    1.7472    0.0000 O   0  0  0  0  0  0  0  0  0  0  0  0
    3.3176   -0.4744    0.0000 O   0  0  0  0  0  0  0  0  0  0  0  0
    4.6002    0.3033    0.0000 C   0  0  0  0  0  0  0  0  0  0  0  0
   -0.5947    0.1918    0.0000 C   0  0  0  0  0  0  0  0  0  0  0  0
   -1.8774   -0.5859    0.0000 C   0  0  0  0  0  0  0  0  0  0  0  0
   -3.1922    0.1361    0.0000 C   0  0  0  0  0  0  0  0  0  0  0  0
   -3.2244    1.6357    0.0000 O   0  0  0  0  0  0  0  0  0  0  0  0
   -4.4748   -0.6416    0.0000 O   0  0  0  0  0  0  0  0  0  0  0  0
  2  1  1  1
  2  3  1  0
  3  4  2  0
  3  5  1  0
  5  6  1  0
  2  7  1  0
  7  8  1  0
  8  9  1  0
  9 10  2  0
  9 11  1  0
M  END
>  <rName>  (1828) 
Glu-OMe

>  <PQ_SYMBOL>  (1828) 
Glu-OMe

>  <FULL_NAME>  (1828) 
(S)-4-amino-5-methoxy-5-oxopentanoic acid

>  <IUPAC_CONDENSED>  (1828) 
Glu-OMe

>  <IUPAC>  (1828) 
(4S)-4-amino-4-(methoxycarbonyl)butanoic acid

>  <TYPE>  (1828) 
Backbone

>  <CLASS>  (1828) 
gamma

>  <ANALOG>  (1828) 
X

>  <MOL_WT>  (1828) 
161.157

>  <LOGP>  (1828) 
-0.6484999999999999

>  <TPSA>  (1828) 
89.62000000000002

>  <POPULARITY>  (1828) 
12.4

>  <PROTECTED>  (1828) 
TRUE

>  <SMILES>  (1828) 
N[C@H](C(=O)OC)CCC(=O)O

>  <INCHIKEY>  (1828) 
SEWIYICDCVPBEW-BYPYZUCNSA-N

$$$$
Glu-OSu
     RDKit          2D

 17 17  0  0  0  0  0  0  0  0999 V2000
   -1.4054   -2.2591    0.0000 N   0  0  0  0  0  0  0  0  0  0  0  0
   -1.3265   -0.7612    0.0000 C   0  0  0  0  0  0  0  0  0  0  0  0
    0.0102   -0.0805    0.0000 C   0  0  0  0  0  0  0  0  0  0  0  0
    0.0891    1.4174    0.0000 O   0  0  0  0  0  0  0  0  0  0  0  0
    1.2680   -0.8978    0.0000 O   0  0  0  0  0  0  0  0  0  0  0  0
    2.6047   -0.2172    0.0000 N   0  0  0  0  0  0  0  0  0  0  0  0
    3.9410   -0.8986    0.0000 C   0  0  0  0  0  0  0  0  0  0  0  0
    4.1753   -2.3802    0.0000 O   0  0  0  0  0  0  0  0  0  0  0  0
    5.0020    0.1618    0.0000 C   0  0  0  0  0  0  0  0  0  0  0  0
    4.3214    1.4985    0.0000 C   0  0  0  0  0  0  0  0  0  0  0  0
    2.8398    1.2643    0.0000 C   0  0  0  0  0  0  0  0  0  0  0  0
    1.7794    2.3252    0.0000 O   0  0  0  0  0  0  0  0  0  0  0  0
   -2.5842    0.0561    0.0000 C   0  0  0  0  0  0  0  0  0  0  0  0
   -3.9209   -0.6245    0.0000 C   0  0  0  0  0  0  0  0  0  0  0  0
   -5.1787    0.1928    0.0000 C   0  0  0  0  0  0  0  0  0  0  0  0
   -5.0998    1.6907    0.0000 O   0  0  0  0  0  0  0  0  0  0  0  0
   -6.5154   -0.4878    0.0000 O   0  0  0  0  0  0  0  0  0  0  0  0
  2  1  1  1
  2  3  1  0
  3  4  2  0
  3  5  1  0
  5  6  1  0
  6  7  1  0
  7  8  2  0
  7  9  1  0
  9 10  1  0
 10 11  1  0
 11 12  2  0
  2 13  1  0
 13 14  1  0
 14 15  1  0
 15 16  2  0
 15 17  1  0
 11  6  1  0
M  END
>  <rName>  (1829) 
Glu-OSu

>  <PQ_SYMBOL>  (1829) 
Glu-OSu

>  <FULL_NAME>  (1829) 
(S)-4-amino-5-((2,5-dioxopyrrolidin-1-yl)oxy)-5-oxopentanoic acid

>  <IUPAC_CONDENSED>  (1829) 
Glu-OSu

>  <IUPAC>  (1829) 
(4S)-4-amino-4-(((2,5-dioxopyrrolidin-1-yl)oxy)carbonyl)butanoic acid

>  <TYPE>  (1829) 
Backbone

>  <CLASS>  (1829) 
gamma

>  <ANALOG>  (1829) 
X

>  <MOL_WT>  (1829) 
244.20299999999995

>  <LOGP>  (1829) 
-1.2143000000000006

>  <TPSA>  (1829) 
127.00000000000001

>  <POPULARITY>  (1829) 
3.1

>  <PROTECTED>  (1829) 
TRUE

>  <SMILES>  (1829) 
N[C@H](C(=O)ON1(C(=O)CCC1=O))CCC(=O)O

>  <INCHIKEY>  (1829) 
RJJBAKLTINWYFX-YFKPBYRVSA-N

$$$$
Glu-al
     RDKit          2D

  9  8  0  0  0  0  0  0  0  0999 V2000
    1.7016   -1.5966    0.0000 N   0  0  0  0  0  0  0  0  0  0  0  0
    1.4770   -0.1135    0.0000 C   0  0  0  0  0  0  0  0  0  0  0  0
    2.6491    0.8225    0.0000 C   0  0  0  0  0  0  0  0  0  0  0  0
    4.0458    0.2755    0.0000 O   0  0  0  0  0  0  0  0  0  0  0  0
    0.0803    0.4336    0.0000 C   0  0  0  0  0  0  0  0  0  0  0  0
   -1.0918   -0.5025    0.0000 C   0  0  0  0  0  0  0  0  0  0  0  0
   -2.4885    0.0446    0.0000 C   0  0  0  0  0  0  0  0  0  0  0  0
   -2.7130    1.5277    0.0000 O   0  0  0  0  0  0  0  0  0  0  0  0
   -3.6606   -0.8914    0.0000 O   0  0  0  0  0  0  0  0  0  0  0  0
  2  1  1  1
  2  3  1  0
  3  4  2  0
  2  5  1  0
  5  6  1  0
  6  7  1  0
  7  8  2  0
  7  9  1  0
M  END
>  <rName>  (1830) 
Glu-al

>  <PQ_SYMBOL>  (1830) 
Glu-al

>  <FULL_NAME>  (1830) 
(4S)-4-Amino-5-oxopentanoic acid

>  <IUPAC_CONDENSED>  (1830) 
Glu-al

>  <IUPAC>  (1830) 
(4S)-4-amino-5-oxopentanoic acid

>  <TYPE>  (1830) 
Backbone

>  <CLASS>  (1830) 
gamma

>  <ANALOG>  (1830) 
X

>  <MOL_WT>  (1830) 
131.131

>  <LOGP>  (1830) 
-0.6226000000000003

>  <TPSA>  (1830) 
80.39

>  <POPULARITY>  (1830) 
15.6

>  <PROTECTED>  (1830) 
TRUE

>  <SMILES>  (1830) 
N[C@H](C=O)CCC(=O)O

>  <INCHIKEY>  (1830) 
MPUUQNGXJSEWTF-BYPYZUCNSA-N

$$$$
Glu_EDANS
     RDKit          2D

 27 28  0  0  0  0  0  0  0  0999 V2000
   -8.1968    1.9909    0.0000 N   0  0  0  0  0  0  0  0  0  0  0  0
   -8.2205    0.4911    0.0000 C   0  0  0  0  0  0  0  0  0  0  0  0
   -6.9335   -0.2793    0.0000 C   0  0  0  0  0  0  0  0  0  0  0  0
   -5.6228    0.4501    0.0000 C   0  0  0  0  0  0  0  0  0  0  0  0
   -4.3357   -0.3204    0.0000 C   0  0  0  0  0  0  0  0  0  0  0  0
   -4.3594   -1.8202    0.0000 O   0  0  0  0  0  0  0  0  0  0  0  0
   -3.0250    0.4090    0.0000 N   0  0  0  0  0  0  0  0  0  0  0  0
   -1.7380   -0.3615    0.0000 C   0  0  0  0  0  0  0  0  0  0  0  0
   -0.4272    0.3679    0.0000 C   0  0  0  0  0  0  0  0  0  0  0  0
    0.8598   -0.4025    0.0000 N   0  0  0  0  0  0  0  0  0  0  0  0
    2.1705    0.3268    0.0000 C   0  0  0  0  0  0  0  0  0  0  0  0
    2.1942    1.8267    0.0000 C   0  0  0  0  0  0  0  0  0  0  0  0
    3.5049    2.5560    0.0000 C   0  0  0  0  0  0  0  0  0  0  0  0
    4.7920    1.7856    0.0000 C   0  0  0  0  0  0  0  0  0  0  0  0
    4.7683    0.2858    0.0000 C   0  0  0  0  0  0  0  0  0  0  0  0
    6.0553   -0.4847    0.0000 C   0  0  0  0  0  0  0  0  0  0  0  0
    6.0316   -1.9845    0.0000 C   0  0  0  0  0  0  0  0  0  0  0  0
    4.7208   -2.7139    0.0000 C   0  0  0  0  0  0  0  0  0  0  0  0
    3.4338   -1.9434    0.0000 C   0  0  0  0  0  0  0  0  0  0  0  0
    3.4575   -0.4436    0.0000 C   0  0  0  0  0  0  0  0  0  0  0  0
    7.3660    0.2447    0.0000 S   0  0  0  0  0  0  0  0  0  0  0  0
    8.0954   -1.0660    0.0000 O   0  0  0  0  0  0  0  0  0  0  0  0
    6.6366    1.5554    0.0000 O   0  0  0  0  0  0  0  0  0  0  0  0
    8.6767    0.9741    0.0000 O   0  0  0  0  0  0  0  0  0  0  0  0
   -9.5312   -0.2382    0.0000 C   0  0  0  0  0  0  0  0  0  0  0  0
   -9.5550   -1.7380    0.0000 O   0  0  0  0  0  0  0  0  0  0  0  0
  -10.8183    0.5322    0.0000 O   0  0  0  0  0  0  0  0  0  0  0  0
  2  1  1  1
  2  3  1  0
  3  4  1  0
  4  5  1  0
  5  6  2  0
  5  7  1  0
  7  8  1  0
  8  9  1  0
  9 10  1  0
 10 11  1  0
 11 12  2  0
 12 13  1  0
 13 14  2  0
 14 15  1  0
 15 16  2  0
 16 17  1  0
 17 18  2  0
 18 19  1  0
 19 20  2  0
 16 21  1  0
 21 22  2  0
 21 23  2  0
 21 24  1  0
  2 25  1  0
 25 26  2  0
 25 27  1  0
 20 15  1  0
 20 11  1  0
M  END
>  <rName>  (1831) 
Glu_EDANS

>  <PQ_SYMBOL>  (1831) 
Glu_EDANS

>  <FULL_NAME>  (1831) 
N5-(2-((5-sulfonaphthalen-1-yl)amino)ethyl)-L-glutamine

>  <IUPAC_CONDENSED>  (1831) 
Glu(EDANS)

>  <IUPAC>  (1831) 
(2S)-2-amino-4-((2-((5-sulfonaphthalen-1-yl)amino)ethyl)carbamoyl)butanoic acid

>  <TYPE>  (1831) 
Backbone

>  <CLASS>  (1831) 
alpha

>  <ANALOG>  (1831) 
Gln

>  <MOL_WT>  (1831) 
395.4370000000001

>  <LOGP>  (1831) 
0.8067

>  <TPSA>  (1831) 
158.82

>  <POPULARITY>  (1831) 
5.2

>  <PROTECTED>  (1831) 
TRUE

>  <SMILES>  (1831) 
N[C@@H](CCC(=O)NCCNc2(cccc1(c(cccc12)S(=O)(=O)O)))C(=O)O

>  <INCHIKEY>  (1831) 
OMZFNWJGXBGMIA-ZDUSSCGKSA-N

$$$$
Glu_OBn
     RDKit          2D

 17 17  0  0  0  0  0  0  0  0999 V2000
   -4.0665    2.0731    0.0000 N   0  0  0  0  0  0  0  0  0  0  0  0
   -4.2402    0.5832    0.0000 C   0  0  0  0  0  0  0  0  0  0  0  0
   -3.0367   -0.3122    0.0000 C   0  0  0  0  0  0  0  0  0  0  0  0
   -1.6596    0.2823    0.0000 C   0  0  0  0  0  0  0  0  0  0  0  0
   -0.4561   -0.6131    0.0000 C   0  0  0  0  0  0  0  0  0  0  0  0
   -0.6299   -2.1030    0.0000 O   0  0  0  0  0  0  0  0  0  0  0  0
    0.9210   -0.0186    0.0000 O   0  0  0  0  0  0  0  0  0  0  0  0
    2.1245   -0.9140    0.0000 C   0  0  0  0  0  0  0  0  0  0  0  0
    3.5016   -0.3194    0.0000 C   0  0  0  0  0  0  0  0  0  0  0  0
    3.6753    1.1705    0.0000 C   0  0  0  0  0  0  0  0  0  0  0  0
    5.0525    1.7650    0.0000 C   0  0  0  0  0  0  0  0  0  0  0  0
    6.2559    0.8696    0.0000 C   0  0  0  0  0  0  0  0  0  0  0  0
    6.0822   -0.6203    0.0000 C   0  0  0  0  0  0  0  0  0  0  0  0
    4.7050   -1.2148    0.0000 C   0  0  0  0  0  0  0  0  0  0  0  0
   -5.6173   -0.0113    0.0000 C   0  0  0  0  0  0  0  0  0  0  0  0
   -5.7910   -1.5012    0.0000 O   0  0  0  0  0  0  0  0  0  0  0  0
   -6.8208    0.8841    0.0000 O   0  0  0  0  0  0  0  0  0  0  0  0
  2  1  1  1
  2  3  1  0
  3  4  1  0
  4  5  1  0
  5  6  2  0
  5  7  1  0
  7  8  1  0
  8  9  1  0
  9 10  2  0
 10 11  1  0
 11 12  2  0
 12 13  1  0
 13 14  2  0
  2 15  1  0
 15 16  2  0
 15 17  1  0
 14  9  1  0
M  END
>  <rName>  (1832) 
Glu_OBn

>  <PQ_SYMBOL>  (1832) 
Glu_OBn

>  <FULL_NAME>  (1832) 
L-Glutamic acid gamma-benzyl ester

>  <IUPAC_CONDENSED>  (1832) 
Glu(OBn)

>  <IUPAC>  (1832) 
(2S)-2-amino-4-(benzyloxycarbonyl)butanoic acid

>  <TYPE>  (1832) 
Backbone

>  <CLASS>  (1832) 
alpha

>  <ANALOG>  (1832) 
Glu

>  <MOL_WT>  (1832) 
237.25500000000002

>  <LOGP>  (1832) 
0.9218999999999999

>  <TPSA>  (1832) 
89.62000000000002

>  <POPULARITY>  (1832) 
11.2

>  <PROTECTED>  (1832) 
TRUE

>  <SMILES>  (1832) 
N[C@@H](CCC(=O)OCc1(ccccc1))C(=O)O

>  <INCHIKEY>  (1832) 
BGGHCRNCRWQABU-JTQLQIEISA-N

$$$$
Glu_OEt
     RDKit          2D

 12 11  0  0  0  0  0  0  0  0999 V2000
   -2.1767    1.9873    0.0000 N   0  0  0  0  0  0  0  0  0  0  0  0
   -2.1680    0.4873    0.0000 C   0  0  0  0  0  0  0  0  0  0  0  0
   -0.8645   -0.2551    0.0000 C   0  0  0  0  0  0  0  0  0  0  0  0
    0.4301    0.5025    0.0000 C   0  0  0  0  0  0  0  0  0  0  0  0
    1.7335   -0.2399    0.0000 C   0  0  0  0  0  0  0  0  0  0  0  0
    1.7423   -1.7398    0.0000 O   0  0  0  0  0  0  0  0  0  0  0  0
    3.0281    0.5177    0.0000 O   0  0  0  0  0  0  0  0  0  0  0  0
    4.3315   -0.2247    0.0000 C   0  0  0  0  0  0  0  0  0  0  0  0
    5.6261    0.5329    0.0000 C   0  0  0  0  0  0  0  0  0  0  0  0
   -3.4626   -0.2703    0.0000 C   0  0  0  0  0  0  0  0  0  0  0  0
   -3.4538   -1.7702    0.0000 O   0  0  0  0  0  0  0  0  0  0  0  0
   -4.7660    0.4721    0.0000 O   0  0  0  0  0  0  0  0  0  0  0  0
  2  1  1  1
  2  3  1  0
  3  4  1  0
  4  5  1  0
  5  6  2  0
  5  7  1  0
  7  8  1  0
  8  9  1  0
  2 10  1  0
 10 11  2  0
 10 12  1  0
M  END
>  <rName>  (1833) 
Glu_OEt

>  <PQ_SYMBOL>  (1833) 
Glu_OEt

>  <FULL_NAME>  (1833) 
(S)-2-amino-5-ethoxy-5-oxopentanoic acid

>  <IUPAC_CONDENSED>  (1833) 
Glu(OEt)

>  <IUPAC>  (1833) 
(2S)-2-amino-4-(ethoxycarbonyl)butanoic acid

>  <TYPE>  (1833) 
Backbone

>  <CLASS>  (1833) 
alpha

>  <ANALOG>  (1833) 
Glu

>  <MOL_WT>  (1833) 
175.18399999999997

>  <LOGP>  (1833) 
-0.25840000000000046

>  <TPSA>  (1833) 
89.62000000000002

>  <POPULARITY>  (1833) 
7.4

>  <PROTECTED>  (1833) 
TRUE

>  <SMILES>  (1833) 
N[C@@H](CCC(=O)OCC)C(=O)O

>  <INCHIKEY>  (1833) 
XMQUEQJCYRFIQS-YFKPBYRVSA-N

$$$$
Glu_OEt-
     RDKit          2D

 12 11  0  0  0  0  0  0  0  0999 V2000
   -2.1767    1.9873    0.0000 N   0  0  0  0  0  0  0  0  0  0  0  0
   -2.1680    0.4873    0.0000 C   0  0  0  0  0  0  0  0  0  0  0  0
   -0.8645   -0.2551    0.0000 C   0  0  0  0  0  0  0  0  0  0  0  0
    0.4301    0.5025    0.0000 C   0  0  0  0  0  0  0  0  0  0  0  0
    1.7335   -0.2399    0.0000 C   0  0  0  0  0  0  0  0  0  0  0  0
    1.7423   -1.7398    0.0000 O   0  0  0  0  0  0  0  0  0  0  0  0
    3.0281    0.5177    0.0000 O   0  0  0  0  0  0  0  0  0  0  0  0
    4.3315   -0.2247    0.0000 C   0  0  0  0  0  0  0  0  0  0  0  0
    5.6261    0.5329    0.0000 C   0  0  0  0  0  0  0  0  0  0  0  0
   -3.4626   -0.2703    0.0000 C   0  0  0  0  0  0  0  0  0  0  0  0
   -3.4538   -1.7702    0.0000 O   0  0  0  0  0  0  0  0  0  0  0  0
   -4.7660    0.4721    0.0000 O   0  0  0  0  0  0  0  0  0  0  0  0
  2  1  1  1
  2  3  1  0
  3  4  1  0
  4  5  1  0
  5  6  2  0
  5  7  1  0
  7  8  1  0
  8  9  1  0
  2 10  1  0
 10 11  2  0
 10 12  1  0
M  END
>  <rName>  (1834) 
Glu_OEt-

>  <PQ_SYMBOL>  (1834) 
Glu_OEt-

>  <FULL_NAME>  (1834) 
(2S)-2-amino-5-ethoxy-5-oxopentanoic acid

>  <IUPAC_CONDENSED>  (1834) 
Glu(OEt)-

>  <IUPAC>  (1834) 
(2S)-2-amino-4-(ethoxycarbonyl)butanoic acid

>  <TYPE>  (1834) 
N-term cap

>  <CLASS>  (1834) 
n_cap

>  <ANALOG>  (1834) 
X

>  <MOL_WT>  (1834) 
175.18399999999997

>  <LOGP>  (1834) 
-0.25840000000000046

>  <TPSA>  (1834) 
89.62000000000002

>  <POPULARITY>  (1834) 
9.3

>  <PROTECTED>  (1834) 
TRUE

>  <SMILES>  (1834) 
N[C@@H](CCC(=O)OCC)C(=O)O

>  <INCHIKEY>  (1834) 
XMQUEQJCYRFIQS-YFKPBYRVSA-N

$$$$
Glu_OMe
     RDKit          2D

 11 10  0  0  0  0  0  0  0  0999 V2000
    1.7502    1.9632    0.0000 N   0  0  0  0  0  0  0  0  0  0  0  0
    1.6777    0.4649    0.0000 C   0  0  0  0  0  0  0  0  0  0  0  0
    0.3440   -0.2214    0.0000 C   0  0  0  0  0  0  0  0  0  0  0  0
   -0.9173    0.5905    0.0000 C   0  0  0  0  0  0  0  0  0  0  0  0
   -2.2511   -0.0959    0.0000 C   0  0  0  0  0  0  0  0  0  0  0  0
   -2.3235   -1.5941    0.0000 O   0  0  0  0  0  0  0  0  0  0  0  0
   -3.5123    0.7160    0.0000 O   0  0  0  0  0  0  0  0  0  0  0  0
   -4.8461    0.0297    0.0000 C   0  0  0  0  0  0  0  0  0  0  0  0
    2.9390   -0.3470    0.0000 C   0  0  0  0  0  0  0  0  0  0  0  0
    2.8665   -1.8452    0.0000 O   0  0  0  0  0  0  0  0  0  0  0  0
    4.2728    0.3394    0.0000 O   0  0  0  0  0  0  0  0  0  0  0  0
  2  1  1  6
  2  3  1  0
  3  4  1  0
  4  5  1  0
  5  6  2  0
  5  7  1  0
  7  8  1  0
  2  9  1  0
  9 10  2  0
  9 11  1  0
M  END
>  <rName>  (1835) 
Glu_OMe

>  <PQ_SYMBOL>  (1835) 
Glu_OMe

>  <FULL_NAME>  (1835) 
5-Methylester-L-Glutamate

>  <IUPAC_CONDENSED>  (1835) 
Glu(OMe)

>  <IUPAC>  (1835) 
(2S)-2-amino-4-(methoxycarbonyl)butanoic acid

>  <TYPE>  (1835) 
Backbone

>  <CLASS>  (1835) 
alpha

>  <ANALOG>  (1835) 
Glu

>  <MOL_WT>  (1835) 
161.15699999999998

>  <LOGP>  (1835) 
-0.6484999999999999

>  <TPSA>  (1835) 
89.62000000000002

>  <POPULARITY>  (1835) 
19.1

>  <PROTECTED>  (1835) 
TRUE

>  <SMILES>  (1835) 
N[C@@H](CCC(=O)OC)C(=O)O

>  <INCHIKEY>  (1835) 
ZGEYCCHDTIDZAE-BYPYZUCNSA-N

$$$$
Glu_Oallyl
     RDKit          2D

 13 12  0  0  0  0  0  0  0  0999 V2000
    2.7270    1.9800    0.0000 N   0  0  0  0  0  0  0  0  0  0  0  0
    2.7052    0.4801    0.0000 C   0  0  0  0  0  0  0  0  0  0  0  0
    1.3955   -0.2510    0.0000 C   0  0  0  0  0  0  0  0  0  0  0  0
    0.1074    0.5177    0.0000 C   0  0  0  0  0  0  0  0  0  0  0  0
   -1.2023   -0.2134    0.0000 C   0  0  0  0  0  0  0  0  0  0  0  0
   -1.2240   -1.7132    0.0000 O   0  0  0  0  0  0  0  0  0  0  0  0
   -2.4904    0.5553    0.0000 O   0  0  0  0  0  0  0  0  0  0  0  0
   -3.8001   -0.1758    0.0000 C   0  0  0  0  0  0  0  0  0  0  0  0
   -5.0882    0.5930    0.0000 C   0  0  0  0  0  0  0  0  0  0  0  0
   -6.3979   -0.1382    0.0000 C   0  0  0  0  0  0  0  0  0  0  0  0
    3.9933   -0.2886    0.0000 C   0  0  0  0  0  0  0  0  0  0  0  0
    3.9716   -1.7885    0.0000 O   0  0  0  0  0  0  0  0  0  0  0  0
    5.3030    0.4425    0.0000 O   0  0  0  0  0  0  0  0  0  0  0  0
  2  1  1  6
  2  3  1  0
  3  4  1  0
  4  5  1  0
  5  6  2  0
  5  7  1  0
  7  8  1  0
  8  9  1  0
  9 10  2  0
  2 11  1  0
 11 12  2  0
 11 13  1  0
M  END
>  <rName>  (1836) 
Glu_Oallyl

>  <PQ_SYMBOL>  (1836) 
Glu_Oallyl

>  <FULL_NAME>  (1836) 
(S)-5-(allyloxy)-2-amino-5-oxopentanoic acid

>  <IUPAC_CONDENSED>  (1836) 
Glu(Oallyl)

>  <IUPAC>  (1836) 
(2S)-2-amino-4-(((prop-2-en-1-yl)oxy)carbonyl)butanoic acid

>  <TYPE>  (1836) 
Backbone

>  <CLASS>  (1836) 
alpha

>  <ANALOG>  (1836) 
Glu

>  <MOL_WT>  (1836) 
187.19499999999996

>  <LOGP>  (1836) 
-0.09230000000000033

>  <TPSA>  (1836) 
89.62000000000002

>  <POPULARITY>  (1836) 
5.7

>  <PROTECTED>  (1836) 
TRUE

>  <SMILES>  (1836) 
N[C@@H](CCC(=O)OCC=C)C(=O)O

>  <INCHIKEY>  (1836) 
VTLKWXRVMXKNBW-LURJTMIESA-N

$$$$
Glu_PEG3biotinyl
     RDKit          2D

 39 40  0  0  0  0  0  0  0  0999 V2000
  -17.0606    2.4120    0.0000 N   0  0  0  0  0  0  0  0  0  0  0  0
  -17.1485    0.9145    0.0000 C   0  0  0  0  0  0  0  0  0  0  0  0
  -15.8956    0.0898    0.0000 C   0  0  0  0  0  0  0  0  0  0  0  0
  -14.5549    0.7624    0.0000 C   0  0  0  0  0  0  0  0  0  0  0  0
  -13.3020   -0.0624    0.0000 C   0  0  0  0  0  0  0  0  0  0  0  0
  -13.3898   -1.5598    0.0000 O   0  0  0  0  0  0  0  0  0  0  0  0
  -11.9612    0.6103    0.0000 N   0  0  0  0  0  0  0  0  0  0  0  0
  -10.7083   -0.2145    0.0000 C   0  0  0  0  0  0  0  0  0  0  0  0
   -9.3676    0.4582    0.0000 C   0  0  0  0  0  0  0  0  0  0  0  0
   -8.1147   -0.3666    0.0000 C   0  0  0  0  0  0  0  0  0  0  0  0
   -6.7740    0.3060    0.0000 O   0  0  0  0  0  0  0  0  0  0  0  0
   -5.5211   -0.5188    0.0000 C   0  0  0  0  0  0  0  0  0  0  0  0
   -4.1804    0.1539    0.0000 C   0  0  0  0  0  0  0  0  0  0  0  0
   -2.9275   -0.6709    0.0000 O   0  0  0  0  0  0  0  0  0  0  0  0
   -1.5868    0.0018    0.0000 C   0  0  0  0  0  0  0  0  0  0  0  0
   -0.3339   -0.8230    0.0000 C   0  0  0  0  0  0  0  0  0  0  0  0
    1.0069   -0.1504    0.0000 O   0  0  0  0  0  0  0  0  0  0  0  0
    2.2598   -0.9751    0.0000 C   0  0  0  0  0  0  0  0  0  0  0  0
    3.6005   -0.3025    0.0000 C   0  0  0  0  0  0  0  0  0  0  0  0
    4.8534   -1.1273    0.0000 C   0  0  0  0  0  0  0  0  0  0  0  0
    6.1941   -0.4546    0.0000 N   0  0  0  0  0  0  0  0  0  0  0  0
    7.4470   -1.2794    0.0000 C   0  0  0  0  0  0  0  0  0  0  0  0
    7.3592   -2.7768    0.0000 O   0  0  0  0  0  0  0  0  0  0  0  0
    8.7877   -0.6067    0.0000 C   0  0  0  0  0  0  0  0  0  0  0  0
   10.0406   -1.4315    0.0000 C   0  0  0  0  0  0  0  0  0  0  0  0
   11.3813   -0.7589    0.0000 C   0  0  0  0  0  0  0  0  0  0  0  0
   12.6342   -1.5836    0.0000 C   0  0  0  0  0  0  0  0  0  0  0  0
   13.9750   -0.9110    0.0000 C   0  0  0  0  0  0  0  0  0  0  0  0
   15.3072   -1.6003    0.0000 S   0  0  0  0  0  0  0  0  0  0  0  0
   16.3744   -0.5462    0.0000 C   0  0  0  0  0  0  0  0  0  0  0  0
   15.7018    0.7945    0.0000 C   0  0  0  0  0  0  0  0  0  0  0  0
   15.9457    2.2745    0.0000 N   0  0  0  0  0  0  0  0  0  0  0  0
   14.6134    2.9638    0.0000 C   0  0  0  0  0  0  0  0  0  0  0  0
   14.3880    4.4468    0.0000 O   0  0  0  0  0  0  0  0  0  0  0  0
   13.5462    1.9098    0.0000 N   0  0  0  0  0  0  0  0  0  0  0  0
   14.2188    0.5691    0.0000 C   0  0  0  0  0  0  0  0  0  0  0  0
  -18.4892    0.2419    0.0000 C   0  0  0  0  0  0  0  0  0  0  0  0
  -18.5770   -1.2555    0.0000 O   0  0  0  0  0  0  0  0  0  0  0  0
  -19.7421    1.0667    0.0000 O   0  0  0  0  0  0  0  0  0  0  0  0
  2  1  1  1
  2  3  1  0
  3  4  1  0
  4  5  1  0
  5  6  2  0
  5  7  1  0
  7  8  1  0
  8  9  1  0
  9 10  1  0
 10 11  1  0
 11 12  1  0
 12 13  1  0
 13 14  1  0
 14 15  1  0
 15 16  1  0
 16 17  1  0
 17 18  1  0
 18 19  1  0
 19 20  1  0
 20 21  1  0
 21 22  1  0
 22 23  2  0
 22 24  1  0
 24 25  1  0
 25 26  1  0
 26 27  1  0
 28 27  1  1
 28 29  1  0
 29 30  1  0
 31 30  1  1
 31 32  1  0
 32 33  1  0
 33 34  2  0
 33 35  1  0
 36 35  1  1
  2 37  1  0
 37 38  2  0
 37 39  1  0
 36 28  1  0
 36 31  1  0
M  END
>  <rName>  (1837) 
Glu_PEG3biotinyl

>  <PQ_SYMBOL>  (1837) 
Glu_PEG3biotinyl

>  <FULL_NAME>  (1837) 
(S)-2-amino-5,21-dioxo-25-((3aS,4S,6aR)-2-oxohexahydro-1H-thieno[3,4-d]imidazol-4-yl)-10,13,16-trioxa-6,20-diazapentacosanoic acid

>  <IUPAC_CONDENSED>  (1837) 
Glu(PEG3-biotinyl)

>  <IUPAC>  (1837) 
(2S)-2-amino-4-((3-((2-((2-((3-(4-((1S,2S,5R)-7-oxo-3-thia-6,8-diazabicyclo[3.3.0]octan-2-yl)butylcarbonylamino)propyl)oxy)ethyl)oxy)ethyl)oxy)propyl)carbamoyl)butanoic acid

>  <TYPE>  (1837) 
Backbone

>  <CLASS>  (1837) 
alpha

>  <ANALOG>  (1837) 
Arg

>  <MOL_WT>  (1837) 
575.7290000000004

>  <LOGP>  (1837) 
-0.033299999999993224

>  <TPSA>  (1837) 
190.34

>  <POPULARITY>  (1837) 
4.8

>  <PROTECTED>  (1837) 
TRUE

>  <SMILES>  (1837) 
N[C@@H](CCC(=O)NCCCOCCOCCOCCCNC(=O)CCCC[C@@H]1(SC[C@@H]2(NC(=O)N[C@H]12)))C(=O)O

>  <INCHIKEY>  (1837) 
JVUXMWQRVFNDMC-MXBUBSDBSA-N

$$$$
Glu_b_bdiMe
     RDKit          2D

 12 11  0  0  0  0  0  0  0  0999 V2000
    2.3282    1.7504    0.0000 N   0  0  0  0  0  0  0  0  0  0  0  0
    1.4050    0.5681    0.0000 C   0  0  0  0  0  0  0  0  0  0  0  0
   -0.0804    0.7765    0.0000 C   0  0  0  0  0  0  0  0  0  0  0  0
    0.1279    2.2619    0.0000 C   0  0  0  0  0  0  0  0  0  0  0  0
   -0.2888   -0.7090    0.0000 C   0  0  0  0  0  0  0  0  0  0  0  0
   -1.5659    0.9848    0.0000 C   0  0  0  0  0  0  0  0  0  0  0  0
   -2.4891   -0.1974    0.0000 C   0  0  0  0  0  0  0  0  0  0  0  0
   -1.9268   -1.5881    0.0000 O   0  0  0  0  0  0  0  0  0  0  0  0
   -3.9745    0.0109    0.0000 O   0  0  0  0  0  0  0  0  0  0  0  0
    1.9673   -0.8225    0.0000 C   0  0  0  0  0  0  0  0  0  0  0  0
    1.0441   -2.0048    0.0000 O   0  0  0  0  0  0  0  0  0  0  0  0
    3.4528   -1.0309    0.0000 O   0  0  0  0  0  0  0  0  0  0  0  0
  2  1  1  6
  2  3  1  0
  3  4  1  0
  3  5  1  0
  3  6  1  0
  6  7  1  0
  7  8  2  0
  7  9  1  0
  2 10  1  0
 10 11  2  0
 10 12  1  0
M  END
>  <rName>  (1838) 
Glu_b_bdiMe

>  <PQ_SYMBOL>  (1838) 
Glu_b_bdiMe

>  <FULL_NAME>  (1838) 
3,3-Dimethylglutamic acid

>  <IUPAC_CONDENSED>  (1838) 
Glu(b,b-diMe)

>  <IUPAC>  (1838) 
(2S)-2-amino-3,3-dimethylpentanedioic acid

>  <TYPE>  (1838) 
Backbone

>  <CLASS>  (1838) 
alpha

>  <ANALOG>  (1838) 
Glu

>  <MOL_WT>  (1838) 
175.184

>  <LOGP>  (1838) 
-0.10080000000000033

>  <TPSA>  (1838) 
100.62000000000002

>  <POPULARITY>  (1838) 
2.2

>  <PROTECTED>  (1838) 
TRUE

>  <SMILES>  (1838) 
N[C@@H](C(C)(C)CC(=O)O)C(=O)O

>  <INCHIKEY>  (1838) 
KZIOHCWMCYWCOS-RXMQYKEDSA-N

$$$$
Gly-CF3
     RDKit          2D

  8  7  0  0  0  0  0  0  0  0999 V2000
    2.9299    0.3147    0.0000 N   0  0  0  0  0  0  0  0  0  0  0  0
    1.4922    0.7422    0.0000 C   0  0  0  0  0  0  0  0  0  0  0  0
    0.4030   -0.2892    0.0000 C   0  0  0  0  0  0  0  0  0  0  0  0
    0.7517   -1.7482    0.0000 O   0  0  0  0  0  0  0  0  0  0  0  0
   -1.0348    0.1383    0.0000 C   0  0  0  0  0  0  0  0  0  0  0  0
   -2.4726    0.5658    0.0000 F   0  0  0  0  0  0  0  0  0  0  0  0
   -1.4623   -1.2995    0.0000 F   0  0  0  0  0  0  0  0  0  0  0  0
   -0.6073    1.5761    0.0000 F   0  0  0  0  0  0  0  0  0  0  0  0
  1  2  1  0
  2  3  1  0
  3  4  2  0
  3  5  1  0
  5  6  1  0
  5  7  1  0
  5  8  1  0
M  END
>  <rName>  (1839) 
Gly-CF3

>  <PQ_SYMBOL>  (1839) 
Gly-CF3

>  <FULL_NAME>  (1839) 
3-amino-1,1,1-trifluoropropan-2-one

>  <IUPAC_CONDENSED>  (1839) 
Gly-CF3

>  <IUPAC>  (1839) 
1-amino-3,3,3-trifluoropropan-2-one

>  <TYPE>  (1839) 
C-term cap

>  <CLASS>  (1839) 
c_cap

>  <ANALOG>  (1839) 
X

>  <MOL_WT>  (1839) 
127.06500000000001

>  <LOGP>  (1839) 
0.07650000000000001

>  <TPSA>  (1839) 
43.09

>  <POPULARITY>  (1839) 
11.2

>  <PROTECTED>  (1839) 
TRUE

>  <SMILES>  (1839) 
NCC(=O)C(F)(F)F

>  <INCHIKEY>  (1839) 
OXSMZTRDGVTACF-UHFFFAOYSA-N

$$$$
Gly-Gaba_3OH_3Me
     RDKit          2D

 13 12  0  0  0  0  0  0  0  0999 V2000
   -1.0404   -0.0481    0.0000 N   0  0  0  0  0  0  0  0  0  0  0  0
   -2.5366    0.0595    0.0000 C   0  0  0  0  0  0  0  0  0  0  0  0
   -3.1915    1.4090    0.0000 O   0  0  0  0  0  0  0  0  0  0  0  0
   -3.3778   -1.1824    0.0000 C   0  0  0  0  0  0  0  0  0  0  0  0
   -4.8739   -1.0749    0.0000 N   0  0  0  0  0  0  0  0  0  0  0  0
   -0.1992    1.1938    0.0000 C   0  0  0  0  0  0  0  0  0  0  0  0
    1.2969    1.0863    0.0000 C   0  0  0  0  0  0  0  0  0  0  0  0
    2.7931    0.9787    0.0000 O   0  0  0  0  0  0  0  0  0  0  0  0
    1.4045    2.5824    0.0000 C   0  0  0  0  0  0  0  0  0  0  0  0
    1.1894   -0.4099    0.0000 C   0  0  0  0  0  0  0  0  0  0  0  0
    2.4313   -1.2511    0.0000 C   0  0  0  0  0  0  0  0  0  0  0  0
    3.7807   -0.5962    0.0000 O   0  0  0  0  0  0  0  0  0  0  0  0
    2.3237   -2.7472    0.0000 O   0  0  0  0  0  0  0  0  0  0  0  0
  1  2  1  0
  2  3  2  0
  2  4  1  0
  4  5  1  0
  1  6  1  0
  6  7  1  0
  7  8  1  0
  7  9  1  0
  7 10  1  0
 10 11  1  0
 11 12  2  0
 11 13  1  0
M  END
>  <rName>  (1840) 
Gly-Gaba_3OH_3Me

>  <PQ_SYMBOL>  (1840) 
Gly-Gaba_3OH_3Me

>  <FULL_NAME>  (1840) 
4-(2-Aminoacetamido)-3-hydroxy-3-methylbutanoic acid

>  <IUPAC_CONDENSED>  (1840) 
Gly-Gaba(3-OH,3-Me)

>  <IUPAC>  (1840) 
4-aminomethylcarbonylamino-3-hydroxy-3-methylbutanoic acid

>  <TYPE>  (1840) 
Backbone

>  <CLASS>  (1840) 
gamma

>  <ANALOG>  (1840) 
X

>  <MOL_WT>  (1840) 
190.19899999999998

>  <LOGP>  (1840) 
-1.7129999999999992

>  <TPSA>  (1840) 
112.65000000000002

>  <POPULARITY>  (1840) 
4.8

>  <PROTECTED>  (1840) 
TRUE

>  <SMILES>  (1840) 
N(C(=O)CN)CC(O)(C)CC(=O)O

>  <INCHIKEY>  (1840) 
MYYAFGMNWFLEDJ-UHFFFAOYSA-N

$$$$
Gly-Gly
     RDKit          2D

  9  8  0  0  0  0  0  0  0  0999 V2000
    0.0803    0.4336    0.0000 N   0  0  0  0  0  0  0  0  0  0  0  0
    1.4770   -0.1135    0.0000 C   0  0  0  0  0  0  0  0  0  0  0  0
    1.7016   -1.5966    0.0000 O   0  0  0  0  0  0  0  0  0  0  0  0
    2.6491    0.8225    0.0000 C   0  0  0  0  0  0  0  0  0  0  0  0
    4.0458    0.2755    0.0000 N   0  0  0  0  0  0  0  0  0  0  0  0
   -1.0918   -0.5025    0.0000 C   0  0  0  0  0  0  0  0  0  0  0  0
   -2.4885    0.0446    0.0000 C   0  0  0  0  0  0  0  0  0  0  0  0
   -2.7130    1.5277    0.0000 O   0  0  0  0  0  0  0  0  0  0  0  0
   -3.6606   -0.8914    0.0000 O   0  0  0  0  0  0  0  0  0  0  0  0
  1  2  1  0
  2  3  2  0
  2  4  1  0
  4  5  1  0
  1  6  1  0
  6  7  1  0
  7  8  2  0
  7  9  1  0
M  END
>  <rName>  (1841) 
Gly-Gly

>  <PQ_SYMBOL>  (1841) 
Gly-Gly

>  <FULL_NAME>  (1841) 
Glycylglycine

>  <IUPAC_CONDENSED>  (1841) 
Gly-Gly

>  <IUPAC>  (1841) 
2-aminomethylcarbonylaminoacetic acid

>  <TYPE>  (1841) 
Backbone

>  <CLASS>  (1841) 
alpha

>  <ANALOG>  (1841) 
Gly

>  <MOL_WT>  (1841) 
132.119

>  <LOGP>  (1841) 
-1.8540999999999999

>  <TPSA>  (1841) 
92.42

>  <POPULARITY>  (1841) 
18.8

>  <PROTECTED>  (1841) 
TRUE

>  <SMILES>  (1841) 
N(C(=O)CN)CC(=O)O

>  <INCHIKEY>  (1841) 
YMAWOPBAYDPSLA-UHFFFAOYSA-N

$$$$
Gly-Me
     RDKit          2D

  5  4  0  0  0  0  0  0  0  0999 V2000
    2.0785   -0.0000    0.0000 N   0  0  0  0  0  0  0  0  0  0  0  0
    0.7794   -0.7500    0.0000 C   0  0  0  0  0  0  0  0  0  0  0  0
   -0.5196    0.0000    0.0000 C   0  0  0  0  0  0  0  0  0  0  0  0
   -1.8187   -0.7500    0.0000 C   0  0  0  0  0  0  0  0  0  0  0  0
   -0.5196    1.5000    0.0000 O   0  0  0  0  0  0  0  0  0  0  0  0
  1  2  1  0
  2  3  1  0
  3  4  1  0
  3  5  2  0
M  END
>  <rName>  (1842) 
Gly-Me

>  <PQ_SYMBOL>  (1842) 
Gly-Me

>  <FULL_NAME>  (1842) 
Glycine methyl

>  <IUPAC_CONDENSED>  (1842) 
Gly-Me

>  <IUPAC>  (1842) 
1-aminopropan-2-one

>  <TYPE>  (1842) 
C-term cap

>  <CLASS>  (1842) 
c_cap

>  <ANALOG>  (1842) 
X

>  <MOL_WT>  (1842) 
73.09499999999998

>  <LOGP>  (1842) 
-0.4659000000000002

>  <TPSA>  (1842) 
43.09

>  <POPULARITY>  (1842) 
19.9

>  <PROTECTED>  (1842) 
TRUE

>  <SMILES>  (1842) 
NCC(C)=O

>  <INCHIKEY>  (1842) 
BCDGQXUMWHRQCB-UHFFFAOYSA-N

$$$$
Gly-OBn
     RDKit          2D

 12 12  0  0  0  0  0  0  0  0999 V2000
   -5.2230    0.5318    0.0000 N   0  0  0  0  0  0  0  0  0  0  0  0
   -3.7809    0.9446    0.0000 C   0  0  0  0  0  0  0  0  0  0  0  0
   -2.7024   -0.0979    0.0000 C   0  0  0  0  0  0  0  0  0  0  0  0
   -3.0660   -1.5532    0.0000 O   0  0  0  0  0  0  0  0  0  0  0  0
   -1.2603    0.3149    0.0000 O   0  0  0  0  0  0  0  0  0  0  0  0
   -0.1818   -0.7276    0.0000 C   0  0  0  0  0  0  0  0  0  0  0  0
    1.2603   -0.3149    0.0000 C   0  0  0  0  0  0  0  0  0  0  0  0
    1.6239    1.1404    0.0000 C   0  0  0  0  0  0  0  0  0  0  0  0
    3.0660    1.5532    0.0000 C   0  0  0  0  0  0  0  0  0  0  0  0
    4.1445    0.5107    0.0000 C   0  0  0  0  0  0  0  0  0  0  0  0
    3.7809   -0.9446    0.0000 C   0  0  0  0  0  0  0  0  0  0  0  0
    2.3388   -1.3574    0.0000 C   0  0  0  0  0  0  0  0  0  0  0  0
  1  2  1  0
  2  3  1  0
  3  4  2  0
  3  5  1  0
  5  6  1  0
  6  7  1  0
  7  8  2  0
  8  9  1  0
  9 10  2  0
 10 11  1  0
 11 12  2  0
 12  7  1  0
M  END
>  <rName>  (1843) 
Gly-OBn

>  <PQ_SYMBOL>  (1843) 
Gly-OBn

>  <FULL_NAME>  (1843) 
Glycine benzyl ester

>  <IUPAC_CONDENSED>  (1843) 
Gly-OBn

>  <IUPAC>  (1843) 
benzyl 2-aminoacetate

>  <TYPE>  (1843) 
C-term cap

>  <CLASS>  (1843) 
c_cap

>  <ANALOG>  (1843) 
X

>  <MOL_WT>  (1843) 
165.192

>  <LOGP>  (1843) 
0.6884999999999997

>  <TPSA>  (1843) 
52.32000000000001

>  <POPULARITY>  (1843) 
16.0

>  <PROTECTED>  (1843) 
TRUE

>  <SMILES>  (1843) 
NCC(=O)OCc1ccccc1

>  <INCHIKEY>  (1843) 
JXYACYYPACQCDM-UHFFFAOYSA-N

$$$$
Gly-OEt
     RDKit          2D

  7  6  0  0  0  0  0  0  0  0999 V2000
    3.1507   -0.1928    0.0000 N   0  0  0  0  0  0  0  0  0  0  0  0
    1.7864   -0.8161    0.0000 C   0  0  0  0  0  0  0  0  0  0  0  0
    0.5644    0.0538    0.0000 C   0  0  0  0  0  0  0  0  0  0  0  0
    0.7068    1.5470    0.0000 O   0  0  0  0  0  0  0  0  0  0  0  0
   -0.8000   -0.5695    0.0000 O   0  0  0  0  0  0  0  0  0  0  0  0
   -2.0220    0.3004    0.0000 C   0  0  0  0  0  0  0  0  0  0  0  0
   -3.3863   -0.3229    0.0000 C   0  0  0  0  0  0  0  0  0  0  0  0
  1  2  1  0
  2  3  1  0
  3  4  2  0
  3  5  1  0
  5  6  1  0
  6  7  1  0
M  END
>  <rName>  (1844) 
Gly-OEt

>  <PQ_SYMBOL>  (1844) 
Gly-OEt

>  <FULL_NAME>  (1844) 
ethyl 2-aminoacetate

>  <IUPAC_CONDENSED>  (1844) 
Gly-OEt

>  <IUPAC>  (1844) 
ethyl 2-aminoacetate

>  <TYPE>  (1844) 
C-term cap

>  <CLASS>  (1844) 
c_cap

>  <ANALOG>  (1844) 
X

>  <MOL_WT>  (1844) 
103.121

>  <LOGP>  (1844) 
-0.49180000000000024

>  <TPSA>  (1844) 
52.32000000000001

>  <POPULARITY>  (1844) 
29.9

>  <PROTECTED>  (1844) 
TRUE

>  <SMILES>  (1844) 
NCC(=O)OCC

>  <INCHIKEY>  (1844) 
NTNZTEQNFHNYBC-UHFFFAOYSA-N

$$$$
Gly-OMe
     RDKit          2D

  6  5  0  0  0  0  0  0  0  0999 V2000
    2.5981   -0.0000    0.0000 N   0  0  0  0  0  0  0  0  0  0  0  0
    1.2990    0.7500    0.0000 C   0  0  0  0  0  0  0  0  0  0  0  0
    0.0000   -0.0000    0.0000 C   0  0  0  0  0  0  0  0  0  0  0  0
    0.0000   -1.5000    0.0000 O   0  0  0  0  0  0  0  0  0  0  0  0
   -1.2990    0.7500    0.0000 O   0  0  0  0  0  0  0  0  0  0  0  0
   -2.5981    0.0000    0.0000 C   0  0  0  0  0  0  0  0  0  0  0  0
  1  2  1  0
  2  3  1  0
  3  4  2  0
  3  5  1  0
  5  6  1  0
M  END
>  <rName>  (1845) 
Gly-OMe

>  <PQ_SYMBOL>  (1845) 
Gly-OMe

>  <FULL_NAME>  (1845) 
Glycine methyl ester

>  <IUPAC_CONDENSED>  (1845) 
Gly-OMe

>  <IUPAC>  (1845) 
methyl 2-aminoacetate

>  <TYPE>  (1845) 
C-term cap

>  <CLASS>  (1845) 
c_cap

>  <ANALOG>  (1845) 
X

>  <MOL_WT>  (1845) 
89.094

>  <LOGP>  (1845) 
-0.8819000000000001

>  <TPSA>  (1845) 
52.32000000000001

>  <POPULARITY>  (1845) 
28.5

>  <PROTECTED>  (1845) 
TRUE

>  <SMILES>  (1845) 
NCC(=O)OC

>  <INCHIKEY>  (1845) 
KQSSATDQUYCRGS-UHFFFAOYSA-N

$$$$
Gly-OPh
     RDKit          2D

 11 11  0  0  0  0  0  0  0  0999 V2000
   -4.4974    0.2810    0.0000 N   0  0  0  0  0  0  0  0  0  0  0  0
   -3.3282   -0.6586    0.0000 C   0  0  0  0  0  0  0  0  0  0  0  0
   -1.9298   -0.1157    0.0000 C   0  0  0  0  0  0  0  0  0  0  0  0
   -1.7008    1.3667    0.0000 O   0  0  0  0  0  0  0  0  0  0  0  0
   -0.7606   -1.0553    0.0000 O   0  0  0  0  0  0  0  0  0  0  0  0
    0.6378   -0.5125    0.0000 C   0  0  0  0  0  0  0  0  0  0  0  0
    0.8669    0.9699    0.0000 C   0  0  0  0  0  0  0  0  0  0  0  0
    2.2652    1.5127    0.0000 C   0  0  0  0  0  0  0  0  0  0  0  0
    3.4345    0.5731    0.0000 C   0  0  0  0  0  0  0  0  0  0  0  0
    3.2054   -0.9093    0.0000 C   0  0  0  0  0  0  0  0  0  0  0  0
    1.8070   -1.4521    0.0000 C   0  0  0  0  0  0  0  0  0  0  0  0
  1  2  1  0
  2  3  1  0
  3  4  2  0
  3  5  1  0
  5  6  1  0
  6  7  2  0
  7  8  1  0
  8  9  2  0
  9 10  1  0
 10 11  2  0
 11  6  1  0
M  END
>  <rName>  (1846) 
Gly-OPh

>  <PQ_SYMBOL>  (1846) 
Gly-OPh

>  <FULL_NAME>  (1846) 
Glycine phenyl ester

>  <IUPAC_CONDENSED>  (1846) 
Gly-OPh

>  <IUPAC>  (1846) 
phenyl 2-aminoacetate

>  <TYPE>  (1846) 
C-term cap

>  <CLASS>  (1846) 
c_cap

>  <ANALOG>  (1846) 
X

>  <MOL_WT>  (1846) 
151.165

>  <LOGP>  (1846) 
0.5506999999999997

>  <TPSA>  (1846) 
52.32000000000001

>  <POPULARITY>  (1846) 
12.4

>  <PROTECTED>  (1846) 
TRUE

>  <SMILES>  (1846) 
NCC(=O)Oc1ccccc1

>  <INCHIKEY>  (1846) 
BXPNTXBBAVYAMD-UHFFFAOYSA-N

$$$$
Gly-OPh_4NO2
     RDKit          2D

 14 14  0  0  0  0  0  0  0  0999 V2000
   -5.5892    0.7003    0.0000 N   0  0  0  0  0  0  0  0  0  0  0  0
   -4.5452   -0.3768    0.0000 C   0  0  0  0  0  0  0  0  0  0  0  0
   -3.0905   -0.0112    0.0000 C   0  0  0  0  0  0  0  0  0  0  0  0
   -2.6797    1.4314    0.0000 O   0  0  0  0  0  0  0  0  0  0  0  0
   -2.0465   -1.0883    0.0000 O   0  0  0  0  0  0  0  0  0  0  0  0
   -0.5917   -0.7227    0.0000 C   0  0  0  0  0  0  0  0  0  0  0  0
   -0.1809    0.7199    0.0000 C   0  0  0  0  0  0  0  0  0  0  0  0
    1.2739    1.0855    0.0000 C   0  0  0  0  0  0  0  0  0  0  0  0
    2.3178    0.0084    0.0000 C   0  0  0  0  0  0  0  0  0  0  0  0
    1.9071   -1.4342    0.0000 C   0  0  0  0  0  0  0  0  0  0  0  0
    0.4523   -1.7998    0.0000 C   0  0  0  0  0  0  0  0  0  0  0  0
    3.7726    0.3740    0.0000 N   0  0  0  0  0  0  0  0  0  0  0  0
    4.1834    1.8167    0.0000 O   0  0  0  0  0  0  0  0  0  0  0  0
    4.8166   -0.7031    0.0000 O   0  0  0  0  0  0  0  0  0  0  0  0
  1  2  1  0
  2  3  1  0
  3  4  2  0
  3  5  1  0
  5  6  1  0
  6  7  1  0
  7  8  2  0
  8  9  1  0
  9 10  2  0
 10 11  1  0
  9 12  1  0
 12 13  2  0
 12 14  1  0
 11  6  2  0
M  CHG  2  12   1  14  -1
M  END
>  <rName>  (1847) 
Gly-OPh_4NO2

>  <PQ_SYMBOL>  (1847) 
Gly-OPh_4NO2

>  <FULL_NAME>  (1847) 
(4-nitrophenyl) 2-aminoacetate

>  <IUPAC_CONDENSED>  (1847) 
Gly-OPh(4-NO2)

>  <IUPAC>  (1847) 
4-nitrophenyl 2-aminoacetate

>  <TYPE>  (1847) 
C-term cap

>  <CLASS>  (1847) 
c_cap

>  <ANALOG>  (1847) 
X

>  <MOL_WT>  (1847) 
196.16199999999998

>  <LOGP>  (1847) 
0.45889999999999986

>  <TPSA>  (1847) 
95.46000000000001

>  <POPULARITY>  (1847) 
7.5

>  <PROTECTED>  (1847) 
TRUE

>  <SMILES>  (1847) 
NCC(=O)Oc1ccc(cc1)[N+](=O)[O-]

>  <INCHIKEY>  (1847) 
KGONNPXPJQKSGN-UHFFFAOYSA-N

$$$$
Gly-SH
     RDKit          2D

  5  4  0  0  0  0  0  0  0  0999 V2000
   -2.0785    0.0000    0.0000 N   0  0  0  0  0  0  0  0  0  0  0  0
   -0.7794   -0.7500    0.0000 C   0  0  0  0  0  0  0  0  0  0  0  0
    0.5196   -0.0000    0.0000 C   0  0  0  0  0  0  0  0  0  0  0  0
    1.8187   -0.7500    0.0000 O   0  0  0  0  0  0  0  0  0  0  0  0
    0.5196    1.5000    0.0000 S   0  0  0  0  0  0  0  0  0  0  0  0
  1  2  1  0
  2  3  1  0
  3  4  2  0
  3  5  1  0
M  END
>  <rName>  (1848) 
Gly-SH

>  <PQ_SYMBOL>  (1848) 
Gly-SH

>  <FULL_NAME>  (1848) 
THIOGLYCIN

>  <IUPAC_CONDENSED>  (1848) 
Gly-SH

>  <IUPAC>  (1848) 
2-amino-1-sulfanylethan-1-one

>  <TYPE>  (1848) 
C-term cap

>  <CLASS>  (1848) 
c_cap

>  <ANALOG>  (1848) 
X

>  <MOL_WT>  (1848) 
91.13499999999999

>  <LOGP>  (1848) 
-0.5985

>  <TPSA>  (1848) 
43.09

>  <POPULARITY>  (1848) 
23.7

>  <PROTECTED>  (1848) 
FALSE

>  <SMILES>  (1848) 
NCC(=O)S

>  <INCHIKEY>  (1848) 
CYFJIBWZIQDUSZ-UHFFFAOYSA-N

$$$$
Gly-Val
     RDKit          2D

 12 11  0  0  0  0  0  0  0  0999 V2000
    0.4014    1.0131    0.0000 N   0  0  0  0  0  0  0  0  0  0  0  0
    1.7233    0.3043    0.0000 C   0  0  0  0  0  0  0  0  0  0  0  0
    1.7705   -1.1949    0.0000 O   0  0  0  0  0  0  0  0  0  0  0  0
    2.9981    1.0948    0.0000 C   0  0  0  0  0  0  0  0  0  0  0  0
    4.3201    0.3860    0.0000 N   0  0  0  0  0  0  0  0  0  0  0  0
   -0.8735    0.2226    0.0000 C   0  0  0  0  0  0  0  0  0  0  0  0
   -2.1954    0.9314    0.0000 C   0  0  0  0  0  0  0  0  0  0  0  0
   -2.2426    2.4307    0.0000 C   0  0  0  0  0  0  0  0  0  0  0  0
   -3.4702    0.1409    0.0000 C   0  0  0  0  0  0  0  0  0  0  0  0
   -0.8263   -1.2766    0.0000 C   0  0  0  0  0  0  0  0  0  0  0  0
   -2.1011   -2.0671    0.0000 O   0  0  0  0  0  0  0  0  0  0  0  0
    0.4957   -1.9854    0.0000 O   0  0  0  0  0  0  0  0  0  0  0  0
  1  2  1  0
  2  3  2  0
  2  4  1  0
  4  5  1  0
  6  1  1  6
  6  7  1  0
  7  8  1  0
  7  9  1  0
  6 10  1  0
 10 11  2  0
 10 12  1  0
M  END
>  <rName>  (1849) 
Gly-Val

>  <PQ_SYMBOL>  (1849) 
Gly-Val

>  <FULL_NAME>  (1849) 
glycyl-L-valine

>  <IUPAC_CONDENSED>  (1849) 
Gly-Val

>  <IUPAC>  (1849) 
(2S)-2-aminomethylcarbonylamino-3-methylbutanoic acid

>  <TYPE>  (1849) 
Backbone

>  <CLASS>  (1849) 
alpha

>  <ANALOG>  (1849) 
Val

>  <MOL_WT>  (1849) 
174.19999999999996

>  <LOGP>  (1849) 
-0.8295000000000003

>  <TPSA>  (1849) 
92.42

>  <POPULARITY>  (1849) 
16.1

>  <PROTECTED>  (1849) 
TRUE

>  <SMILES>  (1849) 
N(C(=O)CN)[C@@H](C(C)C)C(=O)O

>  <INCHIKEY>  (1849) 
STKYPAFSDFAEPH-LURJTMIESA-N

$$$$
Gly-al
     RDKit          2D

  4  3  0  0  0  0  0  0  0  0999 V2000
    1.9796   -0.1365    0.0000 N   0  0  0  0  0  0  0  0  0  0  0  0
    0.5994    0.4508    0.0000 C   0  0  0  0  0  0  0  0  0  0  0  0
   -0.5994   -0.4508    0.0000 C   0  0  0  0  0  0  0  0  0  0  0  0
   -1.9796    0.1365    0.0000 O   0  0  0  0  0  0  0  0  0  0  0  0
  1  2  1  0
  2  3  1  0
  3  4  2  0
M  END
>  <rName>  (1850) 
Gly-al

>  <PQ_SYMBOL>  (1850) 
Gly-al

>  <FULL_NAME>  (1850) 
2-aminoacetaldehyde

>  <IUPAC_CONDENSED>  (1850) 
Gly-al

>  <IUPAC>  (1850) 
2-aminoethanal

>  <TYPE>  (1850) 
C-term cap

>  <CLASS>  (1850) 
c_cap

>  <ANALOG>  (1850) 
X

>  <MOL_WT>  (1850) 
59.068

>  <LOGP>  (1850) 
-0.8560000000000001

>  <TPSA>  (1850) 
43.09

>  <POPULARITY>  (1850) 
32.9

>  <PROTECTED>  (1850) 
FALSE

>  <SMILES>  (1850) 
NCC=O

>  <INCHIKEY>  (1850) 
LYIIBVSRGJSHAV-UHFFFAOYSA-N

$$$$
Gly-camptothecin
     RDKit          2D

 30 34  0  0  0  0  0  0  0  0999 V2000
   -2.0401   -5.1800    0.0000 N   0  0  0  0  0  0  0  0  0  0  0  0
   -1.6011   -3.7456    0.0000 C   0  0  0  0  0  0  0  0  0  0  0  0
   -2.6238   -2.6483    0.0000 C   0  0  0  0  0  0  0  0  0  0  0  0
   -4.0855   -2.9854    0.0000 O   0  0  0  0  0  0  0  0  0  0  0  0
   -2.1849   -1.2140    0.0000 O   0  0  0  0  0  0  0  0  0  0  0  0
   -3.2076   -0.1167    0.0000 C   0  0  0  0  0  0  0  0  0  0  0  0
   -4.1106   -1.3144    0.0000 C   0  0  0  0  0  0  0  0  0  0  0  0
   -5.5994   -1.1312    0.0000 C   0  0  0  0  0  0  0  0  0  0  0  0
   -1.9494    0.6999    0.0000 C   0  0  0  0  0  0  0  0  0  0  0  0
   -0.6130    0.0186    0.0000 C   0  0  0  0  0  0  0  0  0  0  0  0
    0.6452    0.8352    0.0000 C   0  0  0  0  0  0  0  0  0  0  0  0
    2.0940    0.4466    0.0000 C   0  0  0  0  0  0  0  0  0  0  0  0
    2.7746   -0.8901    0.0000 N   0  0  0  0  0  0  0  0  0  0  0  0
    4.2725   -0.9690    0.0000 C   0  0  0  0  0  0  0  0  0  0  0  0
    4.9531   -2.3057    0.0000 C   0  0  0  0  0  0  0  0  0  0  0  0
    6.4511   -2.3846    0.0000 C   0  0  0  0  0  0  0  0  0  0  0  0
    7.2684   -1.1268    0.0000 C   0  0  0  0  0  0  0  0  0  0  0  0
    6.5877    0.2099    0.0000 C   0  0  0  0  0  0  0  0  0  0  0  0
    5.0898    0.2888    0.0000 C   0  0  0  0  0  0  0  0  0  0  0  0
    4.4092    1.6255    0.0000 C   0  0  0  0  0  0  0  0  0  0  0  0
    2.9113    1.7044    0.0000 C   0  0  0  0  0  0  0  0  0  0  0  0
    1.9676    2.8704    0.0000 C   0  0  0  0  0  0  0  0  0  0  0  0
    0.5671    2.3332    0.0000 N   0  0  0  0  0  0  0  0  0  0  0  0
   -0.7693    3.0145    0.0000 C   0  0  0  0  0  0  0  0  0  0  0  0
   -0.8474    4.5125    0.0000 O   0  0  0  0  0  0  0  0  0  0  0  0
   -2.0275    2.1979    0.0000 C   0  0  0  0  0  0  0  0  0  0  0  0
   -3.3638    2.8792    0.0000 C   0  0  0  0  0  0  0  0  0  0  0  0
   -4.6220    2.0626    0.0000 O   0  0  0  0  0  0  0  0  0  0  0  0
   -4.5439    0.5646    0.0000 C   0  0  0  0  0  0  0  0  0  0  0  0
   -5.8021   -0.2520    0.0000 O   0  0  0  0  0  0  0  0  0  0  0  0
  1  2  1  0
  2  3  1  0
  3  4  2  0
  3  5  1  0
  5  6  1  0
  6  7  1  1
  7  8  1  0
  6  9  1  0
  9 10  1  0
 10 11  2  0
 11 12  1  0
 12 13  2  0
 13 14  1  0
 14 15  2  0
 15 16  1  0
 16 17  2  0
 17 18  1  0
 18 19  2  0
 19 20  1  0
 20 21  2  0
 21 22  1  0
 22 23  1  0
 23 24  1  0
 24 25  2  0
 24 26  1  0
 26 27  1  0
 27 28  1  0
 28 29  1  0
 29 30  2  0
 19 14  1  0
 21 12  1  0
 23 11  1  0
 26  9  2  0
 29  6  1  0
M  END
>  <rName>  (1851) 
Gly-camptothecin

>  <PQ_SYMBOL>  (1851) 
Gly-camptothecin

>  <FULL_NAME>  (1851) 
[(19S)-19-ethyl-14,18-dioxo-17-oxa-3,13-diazapentacyclo[11.8.0.02,11.04,9.015,20]henicosa-1(21),2,4,6,8,10,15(20)-heptaen-19-yl] 2-aminoacetate

>  <IUPAC_CONDENSED>  (1851) 
Gly-camptothecin

>  <IUPAC>  (1851) 
(5S)-5-ethyl-6,10-dioxo-7-oxa-11,21-diazapentacyclo[11.8.0.0^{15,20}.0^{2,11}.0^{4,9}]henicosa-1(21),2,4(9),13,15,17,19-heptaen-5-yl 2-aminoacetate

>  <TYPE>  (1851) 
C-term cap

>  <CLASS>  (1851) 
c_cap

>  <ANALOG>  (1851) 
X

>  <MOL_WT>  (1851) 
405.41000000000025

>  <LOGP>  (1851) 
1.5891999999999997

>  <TPSA>  (1851) 
113.51000000000002

>  <POPULARITY>  (1851) 
10.1

>  <PROTECTED>  (1851) 
TRUE

>  <SMILES>  (1851) 
NCC(=O)O[C@@]5(CC)c4cc3c2nc1ccccc1cc2Cn3c(=O)c4COC5=O

>  <INCHIKEY>  (1851) 
JMZZXKLQQWGKQV-QFIPXVFZSA-N

$$$$
Gly_13benzodioxol5yl
     RDKit          2D

 14 15  0  0  0  0  0  0  0  0999 V2000
    2.3976    2.1566    0.0000 N   0  0  0  0  0  0  0  0  0  0  0  0
    2.1137    0.6837    0.0000 C   0  0  0  0  0  0  0  0  0  0  0  0
    0.6962    0.1932    0.0000 C   0  0  0  0  0  0  0  0  0  0  0  0
    0.4123   -1.2797    0.0000 C   0  0  0  0  0  0  0  0  0  0  0  0
   -1.0052   -1.7703    0.0000 C   0  0  0  0  0  0  0  0  0  0  0  0
   -2.1388   -0.7880    0.0000 C   0  0  0  0  0  0  0  0  0  0  0  0
   -3.6274   -0.9732    0.0000 O   0  0  0  0  0  0  0  0  0  0  0  0
   -4.2634    0.3853    0.0000 C   0  0  0  0  0  0  0  0  0  0  0  0
   -3.1680    1.4100    0.0000 O   0  0  0  0  0  0  0  0  0  0  0  0
   -1.8549    0.6849    0.0000 C   0  0  0  0  0  0  0  0  0  0  0  0
   -0.4374    1.1755    0.0000 C   0  0  0  0  0  0  0  0  0  0  0  0
    3.2473   -0.2986    0.0000 C   0  0  0  0  0  0  0  0  0  0  0  0
    2.9634   -1.7715    0.0000 O   0  0  0  0  0  0  0  0  0  0  0  0
    4.6648    0.1920    0.0000 O   0  0  0  0  0  0  0  0  0  0  0  0
  2  1  1  6
  2  3  1  0
  3  4  1  0
  4  5  2  0
  5  6  1  0
  6  7  1  0
  7  8  1  0
  8  9  1  0
  9 10  1  0
 10 11  1  0
  2 12  1  0
 12 13  2  0
 12 14  1  0
 10  6  2  0
 11  3  2  0
M  END
>  <rName>  (1852) 
Gly_13benzodioxol5yl

>  <PQ_SYMBOL>  (1852) 
Gly_13benzodioxol5yl

>  <FULL_NAME>  (1852) 
(S)-2-Amino-2-(benzo[D][1,3]dioxol-5-YL)acetic acid

>  <IUPAC_CONDENSED>  (1852) 
Gly(1,3-benzodioxol-5-yl)

>  <IUPAC>  (1852) 
(2S)-2-amino-2-(7,9-dioxabicyclo[4.3.0]nona-1,3,5-trien-3-yl)acetic acid

>  <TYPE>  (1852) 
Backbone

>  <CLASS>  (1852) 
alpha

>  <ANALOG>  (1852) 
X

>  <MOL_WT>  (1852) 
195.17399999999998

>  <LOGP>  (1852) 
0.4997

>  <TPSA>  (1852) 
81.78

>  <POPULARITY>  (1852) 
4.5

>  <PROTECTED>  (1852) 
TRUE

>  <SMILES>  (1852) 
N[C@@H](c2(ccc1(OCOc1c2)))C(=O)O

>  <INCHIKEY>  (1852) 
VFERSVITJKMHLM-QMMMGPOBSA-N

$$$$
Gly_1Acpiperidin4yl
     RDKit          2D

 14 14  0  0  0  0  0  0  0  0999 V2000
   -2.9275   -1.9768    0.0000 N   0  0  0  0  0  0  0  0  0  0  0  0
   -2.3537   -0.5909    0.0000 C   0  0  0  0  0  0  0  0  0  0  0  0
   -0.8665   -0.3950    0.0000 C   0  0  0  0  0  0  0  0  0  0  0  0
   -0.2927    0.9909    0.0000 C   0  0  0  0  0  0  0  0  0  0  0  0
    1.1945    1.1869    0.0000 C   0  0  0  0  0  0  0  0  0  0  0  0
    2.1077   -0.0030    0.0000 N   0  0  0  0  0  0  0  0  0  0  0  0
    1.5339   -1.3889    0.0000 C   0  0  0  0  0  0  0  0  0  0  0  0
    0.0468   -1.5849    0.0000 C   0  0  0  0  0  0  0  0  0  0  0  0
    3.5949    0.1930    0.0000 C   0  0  0  0  0  0  0  0  0  0  0  0
    4.1687    1.5789    0.0000 O   0  0  0  0  0  0  0  0  0  0  0  0
    4.5082   -0.9970    0.0000 C   0  0  0  0  0  0  0  0  0  0  0  0
   -3.2670    0.5990    0.0000 C   0  0  0  0  0  0  0  0  0  0  0  0
   -2.6931    1.9849    0.0000 O   0  0  0  0  0  0  0  0  0  0  0  0
   -4.7541    0.4030    0.0000 O   0  0  0  0  0  0  0  0  0  0  0  0
  2  1  1  6
  2  3  1  0
  3  4  1  0
  4  5  1  0
  5  6  1  0
  6  7  1  0
  7  8  1  0
  6  9  1  0
  9 10  2  0
  9 11  1  0
  2 12  1  0
 12 13  2  0
 12 14  1  0
  8  3  1  0
M  END
>  <rName>  (1853) 
Gly_1Acpiperidin4yl

>  <PQ_SYMBOL>  (1853) 
Gly_1Acpiperidin4yl

>  <FULL_NAME>  (1853) 
Gly(1-Ac-piperidin-4-yl)

>  <IUPAC_CONDENSED>  (1853) 
Gly(1-Ac-piperidin-4-yl)

>  <IUPAC>  (1853) 
(2S)-2-(1-(acetyl)piperidin-4-yl)-2-aminoacetic acid

>  <TYPE>  (1853) 
Backbone

>  <CLASS>  (1853) 
alpha

>  <ANALOG>  (1853) 
Lys

>  <MOL_WT>  (1853) 
200.238

>  <LOGP>  (1853) 
-0.34320000000000045

>  <TPSA>  (1853) 
83.63

>  <POPULARITY>  (1853) 
2.2

>  <PROTECTED>  (1853) 
TRUE

>  <SMILES>  (1853) 
N[C@@H](C1(CCN(CC1)C(=O)C))C(=O)O

>  <INCHIKEY>  (1853) 
IHNZCJGFTFBPLE-QMMMGPOBSA-N

$$$$
Gly_1Mepiperidin4yl
     RDKit          2D

 12 12  0  0  0  0  0  0  0  0999 V2000
   -2.1139   -2.0272    0.0000 N   0  0  0  0  0  0  0  0  0  0  0  0
   -1.6041   -0.6165    0.0000 C   0  0  0  0  0  0  0  0  0  0  0  0
   -0.1275   -0.3527    0.0000 C   0  0  0  0  0  0  0  0  0  0  0  0
    0.3824    1.0580    0.0000 C   0  0  0  0  0  0  0  0  0  0  0  0
    1.8590    1.3219    0.0000 C   0  0  0  0  0  0  0  0  0  0  0  0
    2.8258    0.1750    0.0000 N   0  0  0  0  0  0  0  0  0  0  0  0
    4.3024    0.4388    0.0000 C   0  0  0  0  0  0  0  0  0  0  0  0
    2.3159   -1.2357    0.0000 C   0  0  0  0  0  0  0  0  0  0  0  0
    0.8393   -1.4995    0.0000 C   0  0  0  0  0  0  0  0  0  0  0  0
   -2.5709    0.5304    0.0000 C   0  0  0  0  0  0  0  0  0  0  0  0
   -2.0610    1.9411    0.0000 O   0  0  0  0  0  0  0  0  0  0  0  0
   -4.0475    0.2665    0.0000 O   0  0  0  0  0  0  0  0  0  0  0  0
  2  1  1  6
  2  3  1  0
  3  4  1  0
  4  5  1  0
  5  6  1  0
  6  7  1  0
  6  8  1  0
  8  9  1  0
  2 10  1  0
 10 11  2  0
 10 12  1  0
  9  3  1  0
M  END
>  <rName>  (1854) 
Gly_1Mepiperidin4yl

>  <PQ_SYMBOL>  (1854) 
Gly_1Mepiperidin4yl

>  <FULL_NAME>  (1854) 
(2S)-2-amino-2-(1-methylpiperidin-4-yl)acetic acid

>  <IUPAC_CONDENSED>  (1854) 
Gly(1-Me-piperidin-4-yl)

>  <IUPAC>  (1854) 
(2S)-2-amino-2-(1-methylpiperidin-4-yl)acetic acid

>  <TYPE>  (1854) 
Backbone

>  <CLASS>  (1854) 
alpha

>  <ANALOG>  (1854) 
Lys

>  <MOL_WT>  (1854) 
172.228

>  <LOGP>  (1854) 
-0.2599000000000001

>  <TPSA>  (1854) 
66.56

>  <POPULARITY>  (1854) 
2.2

>  <PROTECTED>  (1854) 
TRUE

>  <SMILES>  (1854) 
N[C@@H](C1(CCN(C)CC1))C(=O)O

>  <INCHIKEY>  (1854) 
NTKJCVVBECENES-ZETCQYMHSA-N

$$$$
Gly_2bromoallyl
     RDKit          2D

  9  8  0  0  0  0  0  0  0  0999 V2000
   -0.2826   -1.7410    0.0000 N   0  0  0  0  0  0  0  0  0  0  0  0
   -0.5402   -0.2633    0.0000 C   0  0  0  0  0  0  0  0  0  0  0  0
    0.6108    0.6986    0.0000 C   0  0  0  0  0  0  0  0  0  0  0  0
    2.0193    0.1828    0.0000 C   0  0  0  0  0  0  0  0  0  0  0  0
    3.1703    1.1447    0.0000 C   0  0  0  0  0  0  0  0  0  0  0  0
    2.2769   -1.2950    0.0000 Br  0  0  0  0  0  0  0  0  0  0  0  0
   -1.9487    0.2525    0.0000 C   0  0  0  0  0  0  0  0  0  0  0  0
   -2.2062    1.7302    0.0000 O   0  0  0  0  0  0  0  0  0  0  0  0
   -3.0997   -0.7094    0.0000 O   0  0  0  0  0  0  0  0  0  0  0  0
  2  1  1  6
  2  3  1  0
  3  4  1  0
  4  5  2  0
  4  6  1  0
  2  7  1  0
  7  8  2  0
  7  9  1  0
M  END
>  <rName>  (1855) 
Gly_2bromoallyl

>  <PQ_SYMBOL>  (1855) 
Gly_2bromoallyl

>  <FULL_NAME>  (1855) 
(S)-2-Amino-4-bromopent-4-enoic acid

>  <IUPAC_CONDENSED>  (1855) 
Gly(2-bromoallyl)

>  <IUPAC>  (1855) 
(2S)-2-amino-4-bromopent-4-enoic acid

>  <TYPE>  (1855) 
Backbone

>  <CLASS>  (1855) 
alpha

>  <ANALOG>  (1855) 
X

>  <MOL_WT>  (1855) 
194.028

>  <LOGP>  (1855) 
0.6969999999999998

>  <TPSA>  (1855) 
63.32000000000001

>  <POPULARITY>  (1855) 
13.1

>  <PROTECTED>  (1855) 
TRUE

>  <SMILES>  (1855) 
N[C@@H](CC(=C)Br)C(=O)O

>  <INCHIKEY>  (1855) 
YTCSGBSYHNQHFD-BYPYZUCNSA-N

$$$$
Gly_4piperidyl
     RDKit          2D

 11 11  0  0  0  0  0  0  0  0999 V2000
   -1.6031   -2.0851    0.0000 N   0  0  0  0  0  0  0  0  0  0  0  0
   -1.1770   -0.6469    0.0000 C   0  0  0  0  0  0  0  0  0  0  0  0
    0.2816   -0.2968    0.0000 C   0  0  0  0  0  0  0  0  0  0  0  0
    0.7077    1.1415    0.0000 C   0  0  0  0  0  0  0  0  0  0  0  0
    2.1662    1.4916    0.0000 C   0  0  0  0  0  0  0  0  0  0  0  0
    3.1987    0.4035    0.0000 N   0  0  0  0  0  0  0  0  0  0  0  0
    2.7726   -1.0347    0.0000 C   0  0  0  0  0  0  0  0  0  0  0  0
    1.3141   -1.3849    0.0000 C   0  0  0  0  0  0  0  0  0  0  0  0
   -2.2095    0.4412    0.0000 C   0  0  0  0  0  0  0  0  0  0  0  0
   -1.7834    1.8794    0.0000 O   0  0  0  0  0  0  0  0  0  0  0  0
   -3.6680    0.0911    0.0000 O   0  0  0  0  0  0  0  0  0  0  0  0
  2  1  1  6
  2  3  1  0
  3  4  1  0
  4  5  1  0
  5  6  1  0
  6  7  1  0
  7  8  1  0
  2  9  1  0
  9 10  2  0
  9 11  1  0
  8  3  1  0
M  END
>  <rName>  (1856) 
Gly_4piperidyl

>  <PQ_SYMBOL>  (1856) 
Gly_4piperidyl

>  <FULL_NAME>  (1856) 
(2S)-2-amino-2-piperidin-4-ylacetic acid

>  <IUPAC_CONDENSED>  (1856) 
Gly(4-piperidyl)

>  <IUPAC>  (1856) 
(2S)-2-amino-2-(piperidin-4-yl)acetic acid

>  <TYPE>  (1856) 
Backbone

>  <CLASS>  (1856) 
alpha

>  <ANALOG>  (1856) 
Lys

>  <MOL_WT>  (1856) 
158.20100000000002

>  <LOGP>  (1856) 
-0.6021000000000001

>  <TPSA>  (1856) 
75.35

>  <POPULARITY>  (1856) 
12.0

>  <PROTECTED>  (1856) 
TRUE

>  <SMILES>  (1856) 
N[C@@H](C1(CCNCC1))C(=O)O

>  <INCHIKEY>  (1856) 
SRMWKNUAAAAUED-LURJTMIESA-N

$$$$
Gly_Bn_3NO2
     RDKit          2D

 15 15  0  0  0  0  0  0  0  0999 V2000
   -2.6461    1.6149    0.0000 N   0  0  0  0  0  0  0  0  0  0  0  0
   -2.6827    0.1154    0.0000 C   0  0  0  0  0  0  0  0  0  0  0  0
   -1.4023   -0.6660    0.0000 C   0  0  0  0  0  0  0  0  0  0  0  0
   -0.0854    0.0521    0.0000 C   0  0  0  0  0  0  0  0  0  0  0  0
   -0.0488    1.5516    0.0000 C   0  0  0  0  0  0  0  0  0  0  0  0
    1.2681    2.2698    0.0000 C   0  0  0  0  0  0  0  0  0  0  0  0
    2.5485    1.4884    0.0000 C   0  0  0  0  0  0  0  0  0  0  0  0
    2.5119   -0.0112    0.0000 C   0  0  0  0  0  0  0  0  0  0  0  0
    1.1950   -0.7293    0.0000 C   0  0  0  0  0  0  0  0  0  0  0  0
    3.7923   -0.7926    0.0000 N   0  0  0  0  0  0  0  0  0  0  0  0
    5.1093   -0.0745    0.0000 O   0  0  0  0  0  0  0  0  0  0  0  0
    3.7558   -2.2922    0.0000 O   0  0  0  0  0  0  0  0  0  0  0  0
   -3.9996   -0.6028    0.0000 C   0  0  0  0  0  0  0  0  0  0  0  0
   -4.0361   -2.1023    0.0000 O   0  0  0  0  0  0  0  0  0  0  0  0
   -5.2800    0.1787    0.0000 O   0  0  0  0  0  0  0  0  0  0  0  0
  1  2  1  0
  2  3  2  3
  3  4  1  0
  4  5  1  0
  5  6  2  0
  6  7  1  0
  7  8  2  0
  8  9  1  0
  8 10  1  0
 10 11  2  0
 10 12  1  0
  2 13  1  0
 13 14  2  0
 13 15  1  0
  9  4  2  0
M  CHG  2  10   1  12  -1
M  END
>  <rName>  (1857) 
Gly_Bn_3NO2

>  <PQ_SYMBOL>  (1857) 
Gly_Bn_3NO2

>  <FULL_NAME>  (1857) 
2-amino-3-(3-nitrophenyl)prop-2-enoic acid

>  <IUPAC_CONDENSED>  (1857) 
Gly(Bn(3-NO2))

>  <IUPAC>  (1857) 
2-amino-3-(3-nitrophenyl)prop-2-enoic acid

>  <TYPE>  (1857) 
Backbone

>  <CLASS>  (1857) 
alpha

>  <ANALOG>  (1857) 
Phe

>  <MOL_WT>  (1857) 
208.17299999999994

>  <LOGP>  (1857) 
0.9790000000000001

>  <TPSA>  (1857) 
106.46

>  <POPULARITY>  (1857) 
4.2

>  <PROTECTED>  (1857) 
FALSE

>  <SMILES>  (1857) 
NC(=Cc1(cccc(c1)[N+](=O)[O-]))C(=O)O

>  <INCHIKEY>  (1857) 
XVEGZFITLIOXOZ-UHFFFAOYSA-N

$$$$
Gly_Bn_4OMe
     RDKit          2D

 14 14  0  0  0  0  0  0  0  0999 V2000
   -2.0397    1.6757    0.0000 N   0  0  0  0  0  0  0  0  0  0  0  0
   -2.4395    0.2299    0.0000 C   0  0  0  0  0  0  0  0  0  0  0  0
   -1.3873   -0.8392    0.0000 C   0  0  0  0  0  0  0  0  0  0  0  0
    0.0646   -0.4625    0.0000 C   0  0  0  0  0  0  0  0  0  0  0  0
    0.4644    0.9832    0.0000 C   0  0  0  0  0  0  0  0  0  0  0  0
    1.9164    1.3598    0.0000 C   0  0  0  0  0  0  0  0  0  0  0  0
    2.9685    0.2907    0.0000 C   0  0  0  0  0  0  0  0  0  0  0  0
    4.4205    0.6674    0.0000 O   0  0  0  0  0  0  0  0  0  0  0  0
    5.4726   -0.4017    0.0000 C   0  0  0  0  0  0  0  0  0  0  0  0
    2.5687   -1.1550    0.0000 C   0  0  0  0  0  0  0  0  0  0  0  0
    1.1168   -1.5316    0.0000 C   0  0  0  0  0  0  0  0  0  0  0  0
   -3.8914   -0.1467    0.0000 C   0  0  0  0  0  0  0  0  0  0  0  0
   -4.2912   -1.5924    0.0000 O   0  0  0  0  0  0  0  0  0  0  0  0
   -4.9436    0.9224    0.0000 O   0  0  0  0  0  0  0  0  0  0  0  0
  1  2  1  0
  2  3  2  3
  3  4  1  0
  4  5  1  0
  5  6  2  0
  6  7  1  0
  7  8  1  0
  8  9  1  0
  7 10  2  0
 10 11  1  0
  2 12  1  0
 12 13  2  0
 12 14  1  0
 11  4  2  0
M  END
>  <rName>  (1858) 
Gly_Bn_4OMe

>  <PQ_SYMBOL>  (1858) 
Gly_Bn_4OMe

>  <FULL_NAME>  (1858) 
2-amino-3-(4-methoxyphenyl)prop-2-enoic acid

>  <IUPAC_CONDENSED>  (1858) 
Gly(Bn(4-OMe))

>  <IUPAC>  (1858) 
2-amino-3-(4-methoxyphenyl)prop-2-enoic acid

>  <TYPE>  (1858) 
Backbone

>  <CLASS>  (1858) 
alpha

>  <ANALOG>  (1858) 
Tyr

>  <MOL_WT>  (1858) 
193.202

>  <LOGP>  (1858) 
1.0794000000000001

>  <TPSA>  (1858) 
72.55

>  <POPULARITY>  (1858) 
6.6

>  <PROTECTED>  (1858) 
FALSE

>  <SMILES>  (1858) 
NC(=Cc1(ccc(OC)cc1))C(=O)O

>  <INCHIKEY>  (1858) 
VBLXRBFONPGLBL-UHFFFAOYSA-N

$$$$
Gly_CF3_CO2H
     RDKit          2D

 12 11  0  0  0  0  0  0  0  0999 V2000
   -0.0000    2.0136    0.0000 N   0  0  0  0  0  0  0  0  0  0  0  0
   -0.0000    0.5136    0.0000 C   0  0  0  0  0  0  0  0  0  0  0  0
   -1.5000    0.5136    0.0000 C   0  0  0  0  0  0  0  0  0  0  0  0
   -2.4028   -0.6843    0.0000 O   0  0  0  0  0  0  0  0  0  0  0  0
   -2.2500    1.8127    0.0000 O   0  0  0  0  0  0  0  0  0  0  0  0
    0.0000   -0.9864    0.0000 C   0  0  0  0  0  0  0  0  0  0  0  0
    0.0000   -2.4864    0.0000 F   0  0  0  0  0  0  0  0  0  0  0  0
   -1.4888   -1.1692    0.0000 F   0  0  0  0  0  0  0  0  0  0  0  0
    1.4888   -1.1692    0.0000 F   0  0  0  0  0  0  0  0  0  0  0  0
    1.5000    0.5136    0.0000 C   0  0  0  0  0  0  0  0  0  0  0  0
    2.4028   -0.6843    0.0000 O   0  0  0  0  0  0  0  0  0  0  0  0
    2.2500    1.8127    0.0000 O   0  0  0  0  0  0  0  0  0  0  0  0
  1  2  1  0
  2  3  1  0
  3  4  2  0
  3  5  1  0
  2  6  1  0
  6  7  1  0
  6  8  1  0
  6  9  1  0
  2 10  1  0
 10 11  2  0
 10 12  1  0
M  END
>  <rName>  (1859) 
Gly_CF3_CO2H

>  <PQ_SYMBOL>  (1859) 
Gly_CF3_CO2H

>  <FULL_NAME>  (1859) 
2-Alpha-Carboxy-(3,3,3-Trifluoro)-L-Alanine

>  <IUPAC_CONDENSED>  (1859) 
Gly(CF3,CO2H)

>  <IUPAC>  (1859) 
2-amino-2-(trifluoromethyl)malonic acid

>  <TYPE>  (1859) 
Backbone

>  <CLASS>  (1859) 
alpha

>  <ANALOG>  (1859) 
X

>  <MOL_WT>  (1859) 
187.073

>  <LOGP>  (1859) 
-0.5846

>  <TPSA>  (1859) 
100.62000000000002

>  <POPULARITY>  (1859) 
0.6

>  <PROTECTED>  (1859) 
FALSE

>  <SMILES>  (1859) 
NC(C(=O)O)(C(F)(F)F)C(=O)O

>  <INCHIKEY>  (1859) 
CNSZRAUOSJANBF-UHFFFAOYSA-N

$$$$
Gly_CO2H
     RDKit          2D

  8  7  0  0  0  0  0  0  0  0999 V2000
   -0.0000   -2.0625    0.0000 N   0  0  0  0  0  0  0  0  0  0  0  0
   -0.0000   -0.5625    0.0000 C   0  0  0  0  0  0  0  0  0  0  0  0
    1.2990    0.1875    0.0000 C   0  0  0  0  0  0  0  0  0  0  0  0
    1.2990    1.6875    0.0000 O   0  0  0  0  0  0  0  0  0  0  0  0
    2.5981   -0.5625    0.0000 O   0  0  0  0  0  0  0  0  0  0  0  0
   -1.2990    0.1875    0.0000 C   0  0  0  0  0  0  0  0  0  0  0  0
   -1.2990    1.6875    0.0000 O   0  0  0  0  0  0  0  0  0  0  0  0
   -2.5981   -0.5625    0.0000 O   0  0  0  0  0  0  0  0  0  0  0  0
  1  2  1  0
  2  3  1  0
  3  4  2  0
  3  5  1  0
  2  6  1  0
  6  7  2  0
  6  8  1  0
M  END
>  <rName>  (1860) 
Gly_CO2H

>  <PQ_SYMBOL>  (1860) 
Gly_CO2H

>  <FULL_NAME>  (1860) 
L-Aminomalonic acid

>  <IUPAC_CONDENSED>  (1860) 
Gly(CO2H)

>  <IUPAC>  (1860) 
2-aminopropanedioic acid

>  <TYPE>  (1860) 
Backbone

>  <CLASS>  (1860) 
alpha

>  <ANALOG>  (1860) 
X

>  <MOL_WT>  (1860) 
119.07599999999998

>  <LOGP>  (1860) 
-1.5171000000000001

>  <TPSA>  (1860) 
100.62000000000002

>  <POPULARITY>  (1860) 
20.5

>  <PROTECTED>  (1860) 
FALSE

>  <SMILES>  (1860) 
NC(C(=O)O)C(=O)O

>  <INCHIKEY>  (1860) 
JINBYESILADKFW-UHFFFAOYSA-N

$$$$
Gly_Me_cPr
     RDKit          2D

  9  9  0  0  0  0  0  0  0  0999 V2000
   -0.1081   -2.0917    0.0000 N   0  0  0  0  0  0  0  0  0  0  0  0
    0.4107   -0.6843    0.0000 C   0  0  0  0  0  0  0  0  0  0  0  0
    1.8181   -1.2030    0.0000 C   0  0  0  0  0  0  0  0  0  0  0  0
   -0.9967   -0.1655    0.0000 C   0  0  0  0  0  0  0  0  0  0  0  0
   -1.9562    0.9875    0.0000 C   0  0  0  0  0  0  0  0  0  0  0  0
   -2.4750   -0.4199    0.0000 C   0  0  0  0  0  0  0  0  0  0  0  0
    0.9295    0.7232    0.0000 C   0  0  0  0  0  0  0  0  0  0  0  0
   -0.0300    1.8762    0.0000 O   0  0  0  0  0  0  0  0  0  0  0  0
    2.4077    0.9776    0.0000 O   0  0  0  0  0  0  0  0  0  0  0  0
  1  2  1  0
  2  3  1  6
  2  4  1  0
  4  5  1  0
  5  6  1  0
  2  7  1  0
  7  8  2  0
  7  9  1  0
  6  4  1  0
M  END
>  <rName>  (1861) 
Gly_Me_cPr

>  <PQ_SYMBOL>  (1861) 
Gly_Me_cPr

>  <FULL_NAME>  (1861) 
(S)-2-amino-2-cyclopropylpropanoic acid

>  <IUPAC_CONDENSED>  (1861) 
Gly(Me,cPr)

>  <IUPAC>  (1861) 
(2S)-2-amino-2-cyclopropylpropanoic acid

>  <TYPE>  (1861) 
Backbone

>  <CLASS>  (1861) 
alpha

>  <ANALOG>  (1861) 
X

>  <MOL_WT>  (1861) 
129.15900000000002

>  <LOGP>  (1861) 
0.19839999999999985

>  <TPSA>  (1861) 
63.32000000000001

>  <POPULARITY>  (1861) 
10.7

>  <PROTECTED>  (1861) 
TRUE

>  <SMILES>  (1861) 
N[C@@](C)(C1(CC1))C(=O)O

>  <INCHIKEY>  (1861) 
VRFYYCFVOBCXDL-LURJTMIESA-N

$$$$
Gly_Me_ethynyl
     RDKit          2D

  8  7  0  0  0  0  0  0  0  0999 V2000
    0.4018    2.0574    0.0000 N   0  0  0  0  0  0  0  0  0  0  0  0
   -0.1444    0.6604    0.0000 C   0  0  0  0  0  0  0  0  0  0  0  0
   -1.5414    1.2066    0.0000 C   0  0  0  0  0  0  0  0  0  0  0  0
    1.2526    0.1142    0.0000 C   0  0  0  0  0  0  0  0  0  0  0  0
    2.6496   -0.4320    0.0000 C   0  0  0  0  0  0  0  0  0  0  0  0
   -0.6906   -0.7366    0.0000 C   0  0  0  0  0  0  0  0  0  0  0  0
   -2.1736   -0.9621    0.0000 O   0  0  0  0  0  0  0  0  0  0  0  0
    0.2461   -1.9081    0.0000 O   0  0  0  0  0  0  0  0  0  0  0  0
  1  2  1  0
  2  3  1  6
  2  4  1  0
  4  5  3  0
  2  6  1  0
  6  7  2  0
  6  8  1  0
M  END
>  <rName>  (1862) 
Gly_Me_ethynyl

>  <PQ_SYMBOL>  (1862) 
Gly_Me_ethynyl

>  <FULL_NAME>  (1862) 
2-Ethynyl-D-alanine

>  <IUPAC_CONDENSED>  (1862) 
Gly(Me,ethynyl)

>  <IUPAC>  (1862) 
(2S)-2-amino-2-methylbut-3-ynoic acid

>  <TYPE>  (1862) 
Backbone

>  <CLASS>  (1862) 
alpha

>  <ANALOG>  (1862) 
Val

>  <MOL_WT>  (1862) 
113.11599999999997

>  <LOGP>  (1862) 
-0.5784000000000002

>  <TPSA>  (1862) 
63.32000000000001

>  <POPULARITY>  (1862) 
2.2

>  <PROTECTED>  (1862) 
TRUE

>  <SMILES>  (1862) 
N[C@@](C)(C#C)C(=O)O

>  <INCHIKEY>  (1862) 
CDDYDNDKMRLQEC-YFKPBYRVSA-N

$$$$
Gly_Pr_Pr
     RDKit          2D

 11 10  0  0  0  0  0  0  0  0999 V2000
   -0.0000    1.4367    0.0000 N   0  0  0  0  0  0  0  0  0  0  0  0
   -0.0000   -0.0633    0.0000 C   0  0  0  0  0  0  0  0  0  0  0  0
   -1.5000   -0.0633    0.0000 C   0  0  0  0  0  0  0  0  0  0  0  0
   -2.2500    1.2358    0.0000 C   0  0  0  0  0  0  0  0  0  0  0  0
   -3.7500    1.2358    0.0000 C   0  0  0  0  0  0  0  0  0  0  0  0
    1.5000   -0.0633    0.0000 C   0  0  0  0  0  0  0  0  0  0  0  0
    2.2500    1.2358    0.0000 C   0  0  0  0  0  0  0  0  0  0  0  0
    3.7500    1.2358    0.0000 C   0  0  0  0  0  0  0  0  0  0  0  0
    0.0000   -1.5633    0.0000 C   0  0  0  0  0  0  0  0  0  0  0  0
   -1.2990   -2.3133    0.0000 O   0  0  0  0  0  0  0  0  0  0  0  0
    1.2990   -2.3133    0.0000 O   0  0  0  0  0  0  0  0  0  0  0  0
  1  2  1  0
  2  3  1  0
  3  4  1  0
  4  5  1  0
  2  6  1  0
  6  7  1  0
  7  8  1  0
  2  9  1  0
  9 10  2  0
  9 11  1  0
M  END
>  <rName>  (1863) 
Gly_Pr_Pr

>  <PQ_SYMBOL>  (1863) 
Gly_Pr_Pr

>  <FULL_NAME>  (1863) 
Dipropylglycine

>  <IUPAC_CONDENSED>  (1863) 
Gly(Pr,Pr)

>  <IUPAC>  (1863) 
2-amino-2-propylpentanoic acid

>  <TYPE>  (1863) 
Backbone

>  <CLASS>  (1863) 
alpha

>  <ANALOG>  (1863) 
Leu

>  <MOL_WT>  (1863) 
159.229

>  <LOGP>  (1863) 
1.3687

>  <TPSA>  (1863) 
63.32000000000001

>  <POPULARITY>  (1863) 
19.7

>  <PROTECTED>  (1863) 
TRUE

>  <SMILES>  (1863) 
NC(CCC)(CCC)C(=O)O

>  <INCHIKEY>  (1863) 
CZHCGMZJLLOYJW-UHFFFAOYSA-N

$$$$
Gly_adamantyl
     RDKit          2D

 15 17  0  0  0  0  0  0  0  0999 V2000
   -1.4385   -1.9134    0.0000 N   0  0  0  0  0  0  0  0  0  0  0  0
   -1.3594   -0.4155    0.0000 C   0  0  0  0  0  0  0  0  0  0  0  0
   -0.0227    0.2650    0.0000 C   0  0  0  0  0  0  0  0  0  0  0  0
    1.2350   -0.5525    0.0000 C   0  0  0  0  0  0  0  0  0  0  0  0
    2.5718    0.1280    0.0000 C   0  0  0  0  0  0  0  0  0  0  0  0
    2.6509    1.6259    0.0000 C   0  0  0  0  0  0  0  0  0  0  0  0
    1.3932    2.4433    0.0000 C   0  0  0  0  0  0  0  0  0  0  0  0
    0.4755   -0.7136    0.0000 C   0  0  0  0  0  0  0  0  0  0  0  0
    1.1559   -2.0504    0.0000 C   0  0  0  0  0  0  0  0  0  0  0  0
    2.4927   -1.3700    0.0000 C   0  0  0  0  0  0  0  0  0  0  0  0
   -0.1018   -1.2330    0.0000 C   0  0  0  0  0  0  0  0  0  0  0  0
    0.0564    1.7629    0.0000 C   0  0  0  0  0  0  0  0  0  0  0  0
   -2.6171    0.4020    0.0000 C   0  0  0  0  0  0  0  0  0  0  0  0
   -2.5380    1.8999    0.0000 O   0  0  0  0  0  0  0  0  0  0  0  0
   -3.9539   -0.2785    0.0000 O   0  0  0  0  0  0  0  0  0  0  0  0
  2  1  1  6
  2  3  1  0
  3  4  1  0
  4  5  1  0
  5  6  1  0
  6  7  1  0
  7  8  1  0
  8  9  1  0
  9 10  1  0
  9 11  1  0
  7 12  1  0
  2 13  1  0
 13 14  2  0
 13 15  1  0
 10  5  1  0
 11  3  1  0
 12  3  1  0
M  END
>  <rName>  (1864) 
Gly_adamantyl

>  <PQ_SYMBOL>  (1864) 
Gly_adamantyl

>  <FULL_NAME>  (1864) 
(S)-2-(adamantan-1-yl)-2-aminoacetic acid

>  <IUPAC_CONDENSED>  (1864) 
Gly(adamantyl)

>  <IUPAC>  (1864) 
(2S)-2-(adamantan-1-yl)-2-aminoacetic acid

>  <TYPE>  (1864) 
Backbone

>  <CLASS>  (1864) 
alpha

>  <ANALOG>  (1864) 
X

>  <MOL_WT>  (1864) 
209.28899999999993

>  <LOGP>  (1864) 
1.6147

>  <TPSA>  (1864) 
63.32000000000001

>  <POPULARITY>  (1864) 
9.9

>  <PROTECTED>  (1864) 
TRUE

>  <SMILES>  (1864) 
N[C@@H](C32(CC1(CC(CC(C1)C2)C3)))C(=O)O

>  <INCHIKEY>  (1864) 
NJRFVURYVWPLKB-PZLWRYNDSA-N

$$$$
Gly_allyl
     RDKit          2D

  8  7  0  0  0  0  0  0  0  0999 V2000
   -0.2517   -1.8862    0.0000 N   0  0  0  0  0  0  0  0  0  0  0  0
   -0.3100   -0.3873    0.0000 C   0  0  0  0  0  0  0  0  0  0  0  0
    0.9590    0.4126    0.0000 C   0  0  0  0  0  0  0  0  0  0  0  0
    2.2862   -0.2864    0.0000 C   0  0  0  0  0  0  0  0  0  0  0  0
    3.5551    0.5134    0.0000 C   0  0  0  0  0  0  0  0  0  0  0  0
   -1.6371    0.3117    0.0000 C   0  0  0  0  0  0  0  0  0  0  0  0
   -1.6954    1.8105    0.0000 O   0  0  0  0  0  0  0  0  0  0  0  0
   -2.9061   -0.4882    0.0000 O   0  0  0  0  0  0  0  0  0  0  0  0
  2  1  1  6
  2  3  1  0
  3  4  1  0
  4  5  2  0
  2  6  1  0
  6  7  2  0
  6  8  1  0
M  END
>  <rName>  (1865) 
Gly_allyl

>  <PQ_SYMBOL>  (1865) 
Gly_allyl

>  <FULL_NAME>  (1865) 
L-Allylglycine

>  <IUPAC_CONDENSED>  (1865) 
Gly(allyl)

>  <IUPAC>  (1865) 
(2S)-2-aminopent-4-enoic acid

>  <TYPE>  (1865) 
Backbone

>  <CLASS>  (1865) 
alpha

>  <ANALOG>  (1865) 
Val

>  <MOL_WT>  (1865) 
115.13199999999999

>  <LOGP>  (1865) 
-0.025600000000000345

>  <TPSA>  (1865) 
63.32000000000001

>  <POPULARITY>  (1865) 
26.5

>  <PROTECTED>  (1865) 
TRUE

>  <SMILES>  (1865) 
N[C@@H](CC=C)C(=O)O

>  <INCHIKEY>  (1865) 
WNNNWFKQCKFSDK-BYPYZUCNSA-N

$$$$
Gly_allyl_allyl
     RDKit          2D

 11 10  0  0  0  0  0  0  0  0999 V2000
   -0.0000    1.4367    0.0000 N   0  0  0  0  0  0  0  0  0  0  0  0
   -0.0000   -0.0633    0.0000 C   0  0  0  0  0  0  0  0  0  0  0  0
   -1.5000   -0.0633    0.0000 C   0  0  0  0  0  0  0  0  0  0  0  0
   -2.2500    1.2358    0.0000 C   0  0  0  0  0  0  0  0  0  0  0  0
   -3.7500    1.2358    0.0000 C   0  0  0  0  0  0  0  0  0  0  0  0
    1.5000   -0.0633    0.0000 C   0  0  0  0  0  0  0  0  0  0  0  0
    2.2500    1.2358    0.0000 C   0  0  0  0  0  0  0  0  0  0  0  0
    3.7500    1.2358    0.0000 C   0  0  0  0  0  0  0  0  0  0  0  0
    0.0000   -1.5633    0.0000 C   0  0  0  0  0  0  0  0  0  0  0  0
   -1.2990   -2.3133    0.0000 O   0  0  0  0  0  0  0  0  0  0  0  0
    1.2990   -2.3133    0.0000 O   0  0  0  0  0  0  0  0  0  0  0  0
  1  2  1  0
  2  3  1  0
  3  4  1  0
  4  5  2  0
  2  6  1  0
  6  7  1  0
  7  8  2  0
  2  9  1  0
  9 10  2  0
  9 11  1  0
M  END
>  <rName>  (1866) 
Gly_allyl_allyl

>  <PQ_SYMBOL>  (1866) 
Gly_allyl_allyl

>  <FULL_NAME>  (1866) 
2-allyl-2-aminopent-4-enoic acid

>  <IUPAC_CONDENSED>  (1866) 
Gly(allyl,allyl)

>  <IUPAC>  (1866) 
2-amino-2-(prop-2-en-1-yl)pent-4-enoic acid

>  <TYPE>  (1866) 
Backbone

>  <CLASS>  (1866) 
alpha

>  <ANALOG>  (1866) 
Leu

>  <MOL_WT>  (1866) 
155.197

>  <LOGP>  (1866) 
0.9207000000000001

>  <TPSA>  (1866) 
63.32000000000001

>  <POPULARITY>  (1866) 
5.2

>  <PROTECTED>  (1866) 
TRUE

>  <SMILES>  (1866) 
NC(CC=C)(CC=C)C(=O)O

>  <INCHIKEY>  (1866) 
VRYCIOSKXNZGLD-UHFFFAOYSA-N

$$$$
Gly_benzofuran2yl
     RDKit          2D

 14 15  0  0  0  0  0  0  0  0999 V2000
   -2.8664   -1.9991    0.0000 N   0  0  0  0  0  0  0  0  0  0  0  0
   -2.3059   -0.6077    0.0000 C   0  0  0  0  0  0  0  0  0  0  0  0
   -0.8208   -0.3974    0.0000 C   0  0  0  0  0  0  0  0  0  0  0  0
    0.2224   -1.4753    0.0000 C   0  0  0  0  0  0  0  0  0  0  0  0
    1.5699   -0.8163    0.0000 C   0  0  0  0  0  0  0  0  0  0  0  0
    2.9612   -1.3767    0.0000 C   0  0  0  0  0  0  0  0  0  0  0  0
    4.1423   -0.4520    0.0000 C   0  0  0  0  0  0  0  0  0  0  0  0
    3.9319    1.0332    0.0000 C   0  0  0  0  0  0  0  0  0  0  0  0
    2.5406    1.5936    0.0000 C   0  0  0  0  0  0  0  0  0  0  0  0
    1.3595    0.6689    0.0000 C   0  0  0  0  0  0  0  0  0  0  0  0
   -0.1180    0.9278    0.0000 O   0  0  0  0  0  0  0  0  0  0  0  0
   -3.2307    0.5733    0.0000 C   0  0  0  0  0  0  0  0  0  0  0  0
   -2.6702    1.9647    0.0000 O   0  0  0  0  0  0  0  0  0  0  0  0
   -4.7159    0.3630    0.0000 O   0  0  0  0  0  0  0  0  0  0  0  0
  2  1  1  6
  2  3  1  0
  3  4  2  0
  4  5  1  0
  5  6  2  0
  6  7  1  0
  7  8  2  0
  8  9  1  0
  9 10  2  0
 10 11  1  0
  2 12  1  0
 12 13  2  0
 12 14  1  0
 10  5  1  0
 11  3  1  0
M  END
>  <rName>  (1867) 
Gly_benzofuran2yl

>  <PQ_SYMBOL>  (1867) 
Gly_benzofuran2yl

>  <FULL_NAME>  (1867) 
(S)-2-Amino-2-(benzofuran-2-YL)acetic acid

>  <IUPAC_CONDENSED>  (1867) 
Gly(benzofuran-2-yl)

>  <IUPAC>  (1867) 
(2S)-2-amino-2-(1-benzofuran-2-yl)acetic acid

>  <TYPE>  (1867) 
Backbone

>  <CLASS>  (1867) 
alpha

>  <ANALOG>  (1867) 
X

>  <MOL_WT>  (1867) 
191.18599999999995

>  <LOGP>  (1867) 
1.5172

>  <TPSA>  (1867) 
76.46

>  <POPULARITY>  (1867) 
2.2

>  <PROTECTED>  (1867) 
TRUE

>  <SMILES>  (1867) 
N[C@@H](c2(cc1(ccccc1o2)))C(=O)O

>  <INCHIKEY>  (1867) 
PQSKXCUSMBAOPA-VIFPVBQESA-N

$$$$
Gly_bicyclo111pentylmethyl
     RDKit          2D

 11 12  0  0  0  0  0  0  0  0999 V2000
   -0.8386    1.6923    0.0000 N   0  0  0  0  0  0  0  0  0  0  0  0
   -1.2062    0.2380    0.0000 C   0  0  0  0  0  0  0  0  0  0  0  0
   -0.1307   -0.8075    0.0000 C   0  0  0  0  0  0  0  0  0  0  0  0
    1.3126   -0.3988    0.0000 C   0  0  0  0  0  0  0  0  0  0  0  0
    2.6221   -1.1304    0.0000 C   0  0  0  0  0  0  0  0  0  0  0  0
    3.3536    0.1791    0.0000 C   0  0  0  0  0  0  0  0  0  0  0  0
    2.0441    0.9107    0.0000 C   0  0  0  0  0  0  0  0  0  0  0  0
    2.2348    0.2372    0.0000 C   0  0  0  0  0  0  0  0  0  0  0  0
   -2.6495   -0.1706    0.0000 C   0  0  0  0  0  0  0  0  0  0  0  0
   -3.0172   -1.6249    0.0000 O   0  0  0  0  0  0  0  0  0  0  0  0
   -3.7251    0.8749    0.0000 O   0  0  0  0  0  0  0  0  0  0  0  0
  2  1  1  1
  2  3  1  0
  3  4  1  0
  4  5  1  0
  5  6  1  0
  6  7  1  0
  6  8  1  0
  2  9  1  0
  9 10  2  0
  9 11  1  0
  7  4  1  0
  8  4  1  0
M  END
>  <rName>  (1868) 
Gly_bicyclo111pentylmethyl

>  <PQ_SYMBOL>  (1868) 
Gly_bicyclo111pentylmethyl

>  <FULL_NAME>  (1868) 
(2S)-2-amino-3-(1-bicyclo[1.1.1]pentanyl)propanoic acid

>  <IUPAC_CONDENSED>  (1868) 
Gly(bicyclo[1.1.1]pentylmethyl)

>  <IUPAC>  (1868) 
(2S)-2-amino-3-(bicyclo[1.1.1]pentan-1-yl)propanoic acid

>  <TYPE>  (1868) 
Backbone

>  <CLASS>  (1868) 
alpha

>  <ANALOG>  (1868) 
Ala

>  <MOL_WT>  (1868) 
155.197

>  <LOGP>  (1868) 
0.5884999999999998

>  <TPSA>  (1868) 
63.32000000000001

>  <POPULARITY>  (1868) 
5.3

>  <PROTECTED>  (1868) 
TRUE

>  <SMILES>  (1868) 
N[C@@H](CC12(CC(C1)C2))C(=O)O

>  <INCHIKEY>  (1868) 
IENPWSBMRBJIBM-PIJYJLRNSA-N

$$$$
Gly_cBu
     RDKit          2D

  9  9  0  0  0  0  0  0  0  0999 V2000
   -0.9174   -2.0793    0.0000 N   0  0  0  0  0  0  0  0  0  0  0  0
   -0.5683   -0.6205    0.0000 C   0  0  0  0  0  0  0  0  0  0  0  0
    0.8696   -0.1934    0.0000 C   0  0  0  0  0  0  0  0  0  0  0  0
    1.5845    1.1253    0.0000 C   0  0  0  0  0  0  0  0  0  0  0  0
    2.9032    0.4104    0.0000 C   0  0  0  0  0  0  0  0  0  0  0  0
    2.1884   -0.9083    0.0000 C   0  0  0  0  0  0  0  0  0  0  0  0
   -1.6571    0.4113    0.0000 C   0  0  0  0  0  0  0  0  0  0  0  0
   -1.3079    1.8701    0.0000 O   0  0  0  0  0  0  0  0  0  0  0  0
   -3.0950   -0.0157    0.0000 O   0  0  0  0  0  0  0  0  0  0  0  0
  2  1  1  6
  2  3  1  0
  3  4  1  0
  4  5  1  0
  5  6  1  0
  2  7  1  0
  7  8  2  0
  7  9  1  0
  6  3  1  0
M  END
>  <rName>  (1869) 
Gly_cBu

>  <PQ_SYMBOL>  (1869) 
Gly_cBu

>  <FULL_NAME>  (1869) 
2-cyclobutyl-L-glycine

>  <IUPAC_CONDENSED>  (1869) 
Gly(cBu)

>  <IUPAC>  (1869) 
(2S)-2-amino-2-cyclobutylacetic acid

>  <TYPE>  (1869) 
Backbone

>  <CLASS>  (1869) 
alpha

>  <ANALOG>  (1869) 
X

>  <MOL_WT>  (1869) 
129.15900000000002

>  <LOGP>  (1869) 
0.19839999999999985

>  <TPSA>  (1869) 
63.32000000000001

>  <POPULARITY>  (1869) 
7.4

>  <PROTECTED>  (1869) 
TRUE

>  <SMILES>  (1869) 
N[C@@H](C1(CCC1))C(=O)O

>  <INCHIKEY>  (1869) 
FZENWFNLDOYYFB-YFKPBYRVSA-N

$$$$
Gly_cBu_33diF
     RDKit          2D

 11 11  0  0  0  0  0  0  0  0999 V2000
   -1.8222   -2.0532    0.0000 N   0  0  0  0  0  0  0  0  0  0  0  0
   -1.3433   -0.6317    0.0000 C   0  0  0  0  0  0  0  0  0  0  0  0
    0.1272   -0.3358    0.0000 C   0  0  0  0  0  0  0  0  0  0  0  0
    0.9578    0.9133    0.0000 C   0  0  0  0  0  0  0  0  0  0  0  0
    2.2069    0.0828    0.0000 C   0  0  0  0  0  0  0  0  0  0  0  0
    3.0374    1.3318    0.0000 F   0  0  0  0  0  0  0  0  0  0  0  0
    3.4559   -0.7478    0.0000 F   0  0  0  0  0  0  0  0  0  0  0  0
    1.3763   -1.1663    0.0000 C   0  0  0  0  0  0  0  0  0  0  0  0
   -2.3348    0.4938    0.0000 C   0  0  0  0  0  0  0  0  0  0  0  0
   -1.8559    1.9153    0.0000 O   0  0  0  0  0  0  0  0  0  0  0  0
   -3.8053    0.1979    0.0000 O   0  0  0  0  0  0  0  0  0  0  0  0
  2  1  1  6
  2  3  1  0
  3  4  1  0
  4  5  1  0
  5  6  1  0
  5  7  1  0
  5  8  1  0
  2  9  1  0
  9 10  2  0
  9 11  1  0
  8  3  1  0
M  END
>  <rName>  (1870) 
Gly_cBu_33diF

>  <PQ_SYMBOL>  (1870) 
Gly_cBu_33diF

>  <FULL_NAME>  (1870) 
(2S)-2-amino-2-(3,3-difluorocyclobutyl)acetic acid

>  <IUPAC_CONDENSED>  (1870) 
Gly(cBu(3,3-diF))

>  <IUPAC>  (1870) 
(2S)-2-amino-2-(3,3-difluorocyclobutyl)acetic acid

>  <TYPE>  (1870) 
Backbone

>  <CLASS>  (1870) 
alpha

>  <ANALOG>  (1870) 
X

>  <MOL_WT>  (1870) 
165.139

>  <LOGP>  (1870) 
0.44359999999999994

>  <TPSA>  (1870) 
63.32000000000001

>  <POPULARITY>  (1870) 
2.2

>  <PROTECTED>  (1870) 
TRUE

>  <SMILES>  (1870) 
N[C@@H](C1(CC(F)(F)C1))C(=O)O

>  <INCHIKEY>  (1870) 
WBCIBLSVJVPMDK-BYPYZUCNSA-N

$$$$
Gly_cHept
     RDKit          2D

 12 12  0  0  0  0  0  0  0  0999 V2000
   -1.9165   -2.0857    0.0000 N   0  0  0  0  0  0  0  0  0  0  0  0
   -1.4640   -0.6556    0.0000 C   0  0  0  0  0  0  0  0  0  0  0  0
    0.0008   -0.3324    0.0000 C   0  0  0  0  0  0  0  0  0  0  0  0
    0.9275   -1.5119    0.0000 C   0  0  0  0  0  0  0  0  0  0  0  0
    2.4275   -1.5227    0.0000 C   0  0  0  0  0  0  0  0  0  0  0  0
    3.3712   -0.3568    0.0000 C   0  0  0  0  0  0  0  0  0  0  0  0
    3.0480    1.1080    0.0000 C   0  0  0  0  0  0  0  0  0  0  0  0
    1.7013    1.7686    0.0000 C   0  0  0  0  0  0  0  0  0  0  0  0
    0.3452    1.1275    0.0000 C   0  0  0  0  0  0  0  0  0  0  0  0
   -2.4762    0.4513    0.0000 C   0  0  0  0  0  0  0  0  0  0  0  0
   -2.0238    1.8815    0.0000 O   0  0  0  0  0  0  0  0  0  0  0  0
   -3.9410    0.1282    0.0000 O   0  0  0  0  0  0  0  0  0  0  0  0
  2  1  1  6
  2  3  1  0
  3  4  1  0
  4  5  1  0
  5  6  1  0
  6  7  1  0
  7  8  1  0
  8  9  1  0
  2 10  1  0
 10 11  2  0
 10 12  1  0
  9  3  1  0
M  END
>  <rName>  (1871) 
Gly_cHept

>  <PQ_SYMBOL>  (1871) 
Gly_cHept

>  <FULL_NAME>  (1871) 
(S)-2-amino-2-cycloheptylacetic acid

>  <IUPAC_CONDENSED>  (1871) 
Gly(cHept)

>  <IUPAC>  (1871) 
(2S)-2-amino-2-cycloheptylacetic acid

>  <TYPE>  (1871) 
Backbone

>  <CLASS>  (1871) 
alpha

>  <ANALOG>  (1871) 
X

>  <MOL_WT>  (1871) 
171.24

>  <LOGP>  (1871) 
1.3687

>  <TPSA>  (1871) 
63.32000000000001

>  <POPULARITY>  (1871) 
6.9

>  <PROTECTED>  (1871) 
TRUE

>  <SMILES>  (1871) 
N[C@@H](C1(CCCCCC1))C(=O)O

>  <INCHIKEY>  (1871) 
GMLQOIMQMLOTNY-QMMMGPOBSA-N

$$$$
Gly_cPent
     RDKit          2D

 10 10  0  0  0  0  0  0  0  0999 V2000
   -1.2726   -2.0834    0.0000 N   0  0  0  0  0  0  0  0  0  0  0  0
   -0.8797   -0.6358    0.0000 C   0  0  0  0  0  0  0  0  0  0  0  0
    0.5705   -0.2522    0.0000 C   0  0  0  0  0  0  0  0  0  0  0  0
    1.7331   -1.2000    0.0000 C   0  0  0  0  0  0  0  0  0  0  0  0
    2.9938   -0.3872    0.0000 C   0  0  0  0  0  0  0  0  0  0  0  0
    2.6103    1.0630    0.0000 C   0  0  0  0  0  0  0  0  0  0  0  0
    1.1126    1.1464    0.0000 C   0  0  0  0  0  0  0  0  0  0  0  0
   -1.9369    0.4284    0.0000 C   0  0  0  0  0  0  0  0  0  0  0  0
   -1.5439    1.8760    0.0000 O   0  0  0  0  0  0  0  0  0  0  0  0
   -3.3870    0.0449    0.0000 O   0  0  0  0  0  0  0  0  0  0  0  0
  2  1  1  6
  2  3  1  0
  3  4  1  0
  4  5  1  0
  5  6  1  0
  6  7  1  0
  2  8  1  0
  8  9  2  0
  8 10  1  0
  7  3  1  0
M  END
>  <rName>  (1872) 
Gly_cPent

>  <PQ_SYMBOL>  (1872) 
Gly_cPent

>  <FULL_NAME>  (1872) 
L-Cyclopentylglycine

>  <IUPAC_CONDENSED>  (1872) 
Gly(cPent)

>  <IUPAC>  (1872) 
(2S)-2-amino-2-cyclopentylacetic acid

>  <TYPE>  (1872) 
Backbone

>  <CLASS>  (1872) 
alpha

>  <ANALOG>  (1872) 
X

>  <MOL_WT>  (1872) 
143.186

>  <LOGP>  (1872) 
0.5884999999999998

>  <TPSA>  (1872) 
63.32000000000001

>  <POPULARITY>  (1872) 
24.0

>  <PROTECTED>  (1872) 
TRUE

>  <SMILES>  (1872) 
N[C@@H](C1(CCCC1))C(=O)O

>  <INCHIKEY>  (1872) 
XBPKRVHTESHFAA-LURJTMIESA-N

$$$$
Gly_cPr
     RDKit          2D

  8  8  0  0  0  0  0  0  0  0999 V2000
   -0.5237   -2.0692    0.0000 N   0  0  0  0  0  0  0  0  0  0  0  0
   -0.2372   -0.5968    0.0000 C   0  0  0  0  0  0  0  0  0  0  0  0
    1.1811   -0.1087    0.0000 C   0  0  0  0  0  0  0  0  0  0  0  0
    2.6535   -0.3952    0.0000 C   0  0  0  0  0  0  0  0  0  0  0  0
    2.1655    1.0231    0.0000 C   0  0  0  0  0  0  0  0  0  0  0  0
   -1.3691    0.3875    0.0000 C   0  0  0  0  0  0  0  0  0  0  0  0
   -1.0826    1.8599    0.0000 O   0  0  0  0  0  0  0  0  0  0  0  0
   -2.7875   -0.1006    0.0000 O   0  0  0  0  0  0  0  0  0  0  0  0
  2  1  1  6
  2  3  1  0
  3  4  1  0
  4  5  1  0
  2  6  1  0
  6  7  2  0
  6  8  1  0
  5  3  1  0
M  END
>  <rName>  (1873) 
Gly_cPr

>  <PQ_SYMBOL>  (1873) 
Gly_cPr

>  <FULL_NAME>  (1873) 
L-Cyclopropylglycine

>  <IUPAC_CONDENSED>  (1873) 
Gly(cPr)

>  <IUPAC>  (1873) 
(2S)-2-amino-2-cyclopropylacetic acid

>  <TYPE>  (1873) 
Backbone

>  <CLASS>  (1873) 
alpha

>  <ANALOG>  (1873) 
X

>  <MOL_WT>  (1873) 
115.13199999999999

>  <LOGP>  (1873) 
-0.19170000000000004

>  <TPSA>  (1873) 
63.32000000000001

>  <POPULARITY>  (1873) 
15.4

>  <PROTECTED>  (1873) 
TRUE

>  <SMILES>  (1873) 
N[C@@H](C1(CC1))C(=O)O

>  <INCHIKEY>  (1873) 
BUSBCPMSNBMUMT-BYPYZUCNSA-N

$$$$
Gly_cPr_1Me
     RDKit          2D

  9  9  0  0  0  0  0  0  0  0999 V2000
   -0.4315   -2.1188    0.0000 N   0  0  0  0  0  0  0  0  0  0  0  0
   -0.2399   -0.6311    0.0000 C   0  0  0  0  0  0  0  0  0  0  0  0
    1.1444   -0.0533    0.0000 C   0  0  0  0  0  0  0  0  0  0  0  0
    1.9538   -1.3161    0.0000 C   0  0  0  0  0  0  0  0  0  0  0  0
    2.2475    0.9632    0.0000 C   0  0  0  0  0  0  0  0  0  0  0  0
    0.8156    1.4103    0.0000 C   0  0  0  0  0  0  0  0  0  0  0  0
   -1.4324    0.2787    0.0000 C   0  0  0  0  0  0  0  0  0  0  0  0
   -1.2408    1.7664    0.0000 O   0  0  0  0  0  0  0  0  0  0  0  0
   -2.8167   -0.2992    0.0000 O   0  0  0  0  0  0  0  0  0  0  0  0
  2  1  1  6
  2  3  1  0
  3  4  1  0
  3  5  1  0
  5  6  1  0
  2  7  1  0
  7  8  2  0
  7  9  1  0
  6  3  1  0
M  END
>  <rName>  (1874) 
Gly_cPr_1Me

>  <PQ_SYMBOL>  (1874) 
Gly_cPr_1Me

>  <FULL_NAME>  (1874) 
2-(1-Methylcyclopropyl)glycine, (S)-

>  <IUPAC_CONDENSED>  (1874) 
Gly(cPr(1-Me))

>  <IUPAC>  (1874) 
(2S)-2-amino-2-(1-methylcyclopropyl)acetic acid

>  <TYPE>  (1874) 
Backbone

>  <CLASS>  (1874) 
alpha

>  <ANALOG>  (1874) 
X

>  <MOL_WT>  (1874) 
129.159

>  <LOGP>  (1874) 
0.19839999999999985

>  <TPSA>  (1874) 
63.32000000000001

>  <POPULARITY>  (1874) 
2.2

>  <PROTECTED>  (1874) 
TRUE

>  <SMILES>  (1874) 
N[C@@H](C1(C)(CC1))C(=O)O

>  <INCHIKEY>  (1874) 
BCTQUNGXIVZUSB-SCSAIBSYSA-N

$$$$
Gly_cPr_cPr
     RDKit          2D

 11 12  0  0  0  0  0  0  0  0999 V2000
   -0.0000    1.9091    0.0000 N   0  0  0  0  0  0  0  0  0  0  0  0
   -0.0000    0.4091    0.0000 C   0  0  0  0  0  0  0  0  0  0  0  0
   -1.5000    0.4091    0.0000 C   0  0  0  0  0  0  0  0  0  0  0  0
   -2.7990   -0.3409    0.0000 C   0  0  0  0  0  0  0  0  0  0  0  0
   -2.7990    1.1591    0.0000 C   0  0  0  0  0  0  0  0  0  0  0  0
    1.5000    0.4091    0.0000 C   0  0  0  0  0  0  0  0  0  0  0  0
    2.7990    1.1591    0.0000 C   0  0  0  0  0  0  0  0  0  0  0  0
    2.7990   -0.3409    0.0000 C   0  0  0  0  0  0  0  0  0  0  0  0
    0.0000   -1.0909    0.0000 C   0  0  0  0  0  0  0  0  0  0  0  0
   -1.2990   -1.8409    0.0000 O   0  0  0  0  0  0  0  0  0  0  0  0
    1.2990   -1.8409    0.0000 O   0  0  0  0  0  0  0  0  0  0  0  0
  1  2  1  0
  2  3  1  0
  3  4  1  0
  4  5  1  0
  2  6  1  0
  6  7  1  0
  7  8  1  0
  2  9  1  0
  9 10  2  0
  9 11  1  0
  5  3  1  0
  8  6  1  0
M  END
>  <rName>  (1875) 
Gly_cPr_cPr

>  <PQ_SYMBOL>  (1875) 
Gly_cPr_cPr

>  <FULL_NAME>  (1875) 
2-Amino-2,2-dicyclopropylacetic acid

>  <IUPAC_CONDENSED>  (1875) 
Gly(cPr,cPr)

>  <IUPAC>  (1875) 
2-amino-2,2-dicyclopropylacetic acid

>  <TYPE>  (1875) 
Backbone

>  <CLASS>  (1875) 
alpha

>  <ANALOG>  (1875) 
X

>  <MOL_WT>  (1875) 
155.197

>  <LOGP>  (1875) 
0.5884999999999998

>  <TPSA>  (1875) 
63.32000000000001

>  <POPULARITY>  (1875) 
4.6

>  <PROTECTED>  (1875) 
TRUE

>  <SMILES>  (1875) 
NC(C1(CC1))(C2(CC2))C(=O)O

>  <INCHIKEY>  (1875) 
XURKQOZJWNQCDW-UHFFFAOYSA-N

$$$$
Gly_diMe
     RDKit          2D

  8  8  0  0  0  0  0  0  0  0999 V2000
    0.2785   -1.7061    0.0000 N   0  0  0  0  0  0  0  0  0  0  0  0
   -0.2785   -0.3134    0.0000 C   0  0  0  0  0  0  0  0  0  0  0  0
   -1.6713   -0.8704    0.0000 C   0  0  0  0  0  0  0  0  0  0  0  0
   -2.2283    0.5223    0.0000 N   0  0  0  0  0  0  0  0  0  0  0  0
   -0.8356    1.0794    0.0000 C   0  0  0  0  0  0  0  0  0  0  0  0
    1.1142    0.2437    0.0000 C   0  0  0  0  0  0  0  0  0  0  0  0
    1.3281    1.7284    0.0000 O   0  0  0  0  0  0  0  0  0  0  0  0
    2.2930   -0.6839    0.0000 O   0  0  0  0  0  0  0  0  0  0  0  0
  1  2  1  0
  2  3  1  0
  3  4  1  0
  4  5  1  0
  2  6  1  0
  6  7  2  0
  6  8  1  0
  5  2  1  0
M  END
>  <rName>  (1876) 
Gly_diMe

>  <PQ_SYMBOL>  (1876) 
Gly_diMe

>  <FULL_NAME>  (1876) 
3-aminoazetidine-3-carboxylic acid

>  <IUPAC_CONDENSED>  (1876) 
Gly(diMe)

>  <IUPAC>  (1876) 
3-aminoazetidine-3-carboxylic acid

>  <TYPE>  (1876) 
Backbone

>  <CLASS>  (1876) 
alpha

>  <ANALOG>  (1876) 
X

>  <MOL_WT>  (1876) 
116.11999999999999

>  <LOGP>  (1876) 
-1.6282999999999996

>  <TPSA>  (1876) 
75.35

>  <POPULARITY>  (1876) 
8.8

>  <PROTECTED>  (1876) 
TRUE

>  <SMILES>  (1876) 
NC1(CNC1)C(=O)O

>  <INCHIKEY>  (1876) 
DFSBPJSOVRGSTO-UHFFFAOYSA-N

$$$$
Gly_imidazol4yl
     RDKit          2D

 10 10  0  0  0  0  0  0  0  0999 V2000
   -1.2726   -2.0834    0.0000 N   0  0  0  0  0  0  0  0  0  0  0  0
   -0.8797   -0.6358    0.0000 C   0  0  0  0  0  0  0  0  0  0  0  0
    0.5705   -0.2522    0.0000 C   0  0  0  0  0  0  0  0  0  0  0  0
    1.7331   -1.2000    0.0000 C   0  0  0  0  0  0  0  0  0  0  0  0
    2.9938   -0.3872    0.0000 N   0  0  0  0  0  0  0  0  0  0  0  0
    2.6103    1.0630    0.0000 C   0  0  0  0  0  0  0  0  0  0  0  0
    1.1126    1.1464    0.0000 N   0  0  0  0  0  0  0  0  0  0  0  0
   -1.9369    0.4284    0.0000 C   0  0  0  0  0  0  0  0  0  0  0  0
   -1.5439    1.8760    0.0000 O   0  0  0  0  0  0  0  0  0  0  0  0
   -3.3870    0.0449    0.0000 O   0  0  0  0  0  0  0  0  0  0  0  0
  2  1  1  6
  2  3  1  0
  3  4  2  0
  4  5  1  0
  5  6  2  0
  6  7  1  0
  2  8  1  0
  8  9  2  0
  8 10  1  0
  7  3  1  0
M  END
>  <rName>  (1877) 
Gly_imidazol4yl

>  <PQ_SYMBOL>  (1877) 
Gly_imidazol4yl

>  <FULL_NAME>  (1877) 
(2S)-2-amino-2-(1H-imidazol-5-yl)acetic acid

>  <IUPAC_CONDENSED>  (1877) 
Gly(imidazol-4-yl)

>  <IUPAC>  (1877) 
(2S)-2-amino-2-(1H-imidazol-5-yl)acetic acid

>  <TYPE>  (1877) 
Backbone

>  <CLASS>  (1877) 
alpha

>  <ANALOG>  (1877) 
X

>  <MOL_WT>  (1877) 
141.13

>  <LOGP>  (1877) 
-0.5059000000000002

>  <TPSA>  (1877) 
92.0

>  <POPULARITY>  (1877) 
2.2

>  <PROTECTED>  (1877) 
TRUE

>  <SMILES>  (1877) 
N[C@@H](c1(cnc[nH]1))C(=O)O

>  <INCHIKEY>  (1877) 
CXGIFAVNSNJADH-BYPYZUCNSA-N

$$$$
Gly_indan2yl
     RDKit          2D

 14 15  0  0  0  0  0  0  0  0999 V2000
   -2.8664   -1.9991    0.0000 N   0  0  0  0  0  0  0  0  0  0  0  0
   -2.3059   -0.6077    0.0000 C   0  0  0  0  0  0  0  0  0  0  0  0
   -0.8208   -0.3974    0.0000 C   0  0  0  0  0  0  0  0  0  0  0  0
    0.2224   -1.4753    0.0000 C   0  0  0  0  0  0  0  0  0  0  0  0
    1.5699   -0.8163    0.0000 C   0  0  0  0  0  0  0  0  0  0  0  0
    2.9612   -1.3767    0.0000 C   0  0  0  0  0  0  0  0  0  0  0  0
    4.1423   -0.4520    0.0000 C   0  0  0  0  0  0  0  0  0  0  0  0
    3.9319    1.0332    0.0000 C   0  0  0  0  0  0  0  0  0  0  0  0
    2.5406    1.5936    0.0000 C   0  0  0  0  0  0  0  0  0  0  0  0
    1.3595    0.6689    0.0000 C   0  0  0  0  0  0  0  0  0  0  0  0
   -0.1180    0.9278    0.0000 C   0  0  0  0  0  0  0  0  0  0  0  0
   -3.2307    0.5733    0.0000 C   0  0  0  0  0  0  0  0  0  0  0  0
   -2.6702    1.9647    0.0000 O   0  0  0  0  0  0  0  0  0  0  0  0
   -4.7159    0.3630    0.0000 O   0  0  0  0  0  0  0  0  0  0  0  0
  2  1  1  6
  2  3  1  0
  3  4  1  0
  4  5  1  0
  5  6  2  0
  6  7  1  0
  7  8  2  0
  8  9  1  0
  9 10  2  0
 10 11  1  0
  2 12  1  0
 12 13  2  0
 12 14  1  0
 10  5  1  0
 11  3  1  0
M  END
>  <rName>  (1878) 
Gly_indan2yl

>  <PQ_SYMBOL>  (1878) 
Gly_indan2yl

>  <FULL_NAME>  (1878) 
L-2-Indanylglycine

>  <IUPAC_CONDENSED>  (1878) 
Gly(indan-2-yl)

>  <IUPAC>  (1878) 
(2S)-2-amino-2-(indan-2-yl)acetic acid

>  <TYPE>  (1878) 
Backbone

>  <CLASS>  (1878) 
alpha

>  <ANALOG>  (1878) 
Phe

>  <MOL_WT>  (1878) 
191.22999999999996

>  <LOGP>  (1878) 
0.8132999999999999

>  <TPSA>  (1878) 
63.32000000000001

>  <POPULARITY>  (1878) 
14.1

>  <PROTECTED>  (1878) 
TRUE

>  <SMILES>  (1878) 
N[C@@H](C2(Cc1(ccccc1C2)))C(=O)O

>  <INCHIKEY>  (1878) 
GUDHMDVRURNAHL-JTQLQIEISA-N

$$$$
Gly_indol2yl
     RDKit          2D

 15 16  0  0  0  0  0  0  0  0999 V2000
   -2.6183   -1.7023    0.0000 N   0  0  0  0  0  0  0  0  0  0  0  0
   -2.5622   -0.2034    0.0000 C   0  0  0  0  0  0  0  0  0  0  0  0
   -1.2360    0.4975    0.0000 C   0  0  0  0  0  0  0  0  0  0  0  0
    0.0341   -0.3006    0.0000 C   0  0  0  0  0  0  0  0  0  0  0  0
    0.1349   -1.7972    0.0000 C   0  0  0  0  0  0  0  0  0  0  0  0
    1.5895   -2.1637    0.0000 N   0  0  0  0  0  0  0  0  0  0  0  0
    2.3875   -0.8937    0.0000 C   0  0  0  0  0  0  0  0  0  0  0  0
    3.8654   -0.6369    0.0000 C   0  0  0  0  0  0  0  0  0  0  0  0
    4.3820    0.7713    0.0000 C   0  0  0  0  0  0  0  0  0  0  0  0
    3.4207    1.9228    0.0000 C   0  0  0  0  0  0  0  0  0  0  0  0
    1.9429    1.6661    0.0000 C   0  0  0  0  0  0  0  0  0  0  0  0
    1.4263    0.2578    0.0000 C   0  0  0  0  0  0  0  0  0  0  0  0
   -3.8322    0.5947    0.0000 C   0  0  0  0  0  0  0  0  0  0  0  0
   -3.7761    2.0937    0.0000 O   0  0  0  0  0  0  0  0  0  0  0  0
   -5.1584   -0.1061    0.0000 O   0  0  0  0  0  0  0  0  0  0  0  0
  1  2  1  0
  2  3  2  0
  3  4  1  0
  4  5  2  0
  5  6  1  0
  6  7  1  0
  7  8  2  0
  8  9  1  0
  9 10  2  0
 10 11  1  0
 11 12  2  0
  2 13  1  0
 13 14  2  0
 13 15  1  0
 12  4  1  0
 12  7  1  0
M  END
>  <rName>  (1879) 
Gly_indol2yl

>  <PQ_SYMBOL>  (1879) 
Gly_indol2yl

>  <FULL_NAME>  (1879) 
(2Z)-2-amino-3-(1H-indol-3-yl)prop-2-enoic acid

>  <IUPAC_CONDENSED>  (1879) 
Gly(indol-2-yl)

>  <IUPAC>  (1879) 
(2Z)-2-amino-3-(1H-indol-3-yl)prop-2-enoic acid

>  <TYPE>  (1879) 
N-term cap

>  <CLASS>  (1879) 
n_cap

>  <ANALOG>  (1879) 
X

>  <MOL_WT>  (1879) 
202.213

>  <LOGP>  (1879) 
1.5521

>  <TPSA>  (1879) 
79.11

>  <POPULARITY>  (1879) 
1.3

>  <PROTECTED>  (1879) 
FALSE

>  <SMILES>  (1879) 
N/C(=C\c1c[nH]c2ccccc12)C(=O)O

>  <INCHIKEY>  (1879) 
HXAJMKJPBQFASJ-UITAMQMPSA-N

$$$$
Gly_naphth1yl
     RDKit          2D

 15 16  0  0  0  0  0  0  0  0999 V2000
   -1.3992    2.1845    0.0000 N   0  0  0  0  0  0  0  0  0  0  0  0
   -1.7078    0.7166    0.0000 C   0  0  0  0  0  0  0  0  0  0  0  0
   -0.5908   -0.2846    0.0000 C   0  0  0  0  0  0  0  0  0  0  0  0
   -0.8993   -1.7525    0.0000 C   0  0  0  0  0  0  0  0  0  0  0  0
    0.2177   -2.7537    0.0000 C   0  0  0  0  0  0  0  0  0  0  0  0
    1.6432   -2.2869    0.0000 C   0  0  0  0  0  0  0  0  0  0  0  0
    1.9517   -0.8190    0.0000 C   0  0  0  0  0  0  0  0  0  0  0  0
    3.3773   -0.3522    0.0000 C   0  0  0  0  0  0  0  0  0  0  0  0
    3.6858    1.1157    0.0000 C   0  0  0  0  0  0  0  0  0  0  0  0
    2.5688    2.1169    0.0000 C   0  0  0  0  0  0  0  0  0  0  0  0
    1.1433    1.6501    0.0000 C   0  0  0  0  0  0  0  0  0  0  0  0
    0.8347    0.1822    0.0000 C   0  0  0  0  0  0  0  0  0  0  0  0
   -3.1333    0.2498    0.0000 C   0  0  0  0  0  0  0  0  0  0  0  0
   -3.4418   -1.2181    0.0000 O   0  0  0  0  0  0  0  0  0  0  0  0
   -4.2503    1.2510    0.0000 O   0  0  0  0  0  0  0  0  0  0  0  0
  2  1  1  1
  2  3  1  0
  3  4  2  0
  4  5  1  0
  5  6  2  0
  6  7  1  0
  7  8  2  0
  8  9  1  0
  9 10  2  0
 10 11  1  0
 11 12  2  0
  2 13  1  0
 13 14  2  0
 13 15  1  0
 12  3  1  0
 12  7  1  0
M  END
>  <rName>  (1880) 
Gly_naphth1yl

>  <PQ_SYMBOL>  (1880) 
Gly_naphth1yl

>  <FULL_NAME>  (1880) 
(S)-Amino-naphthalen-1-yl-acetic acid

>  <IUPAC_CONDENSED>  (1880) 
Gly(naphth-1-yl)

>  <IUPAC>  (1880) 
(2S)-2-amino-2-naphthalen-1-ylacetic acid

>  <TYPE>  (1880) 
Backbone

>  <CLASS>  (1880) 
alpha

>  <ANALOG>  (1880) 
X

>  <MOL_WT>  (1880) 
201.22499999999997

>  <LOGP>  (1880) 
1.9242000000000001

>  <TPSA>  (1880) 
63.32000000000001

>  <POPULARITY>  (1880) 
2.2

>  <PROTECTED>  (1880) 
TRUE

>  <SMILES>  (1880) 
N[C@@H](c1(cccc2(ccccc12)))C(=O)O

>  <INCHIKEY>  (1880) 
SCDZHZMVNQDLCM-NSHDSACASA-N

$$$$
Gly_naphth2yl
     RDKit          2D

 15 16  0  0  0  0  0  0  0  0999 V2000
   -3.4053   -1.7128    0.0000 N   0  0  0  0  0  0  0  0  0  0  0  0
   -2.5492   -0.4811    0.0000 C   0  0  0  0  0  0  0  0  0  0  0  0
   -1.0545   -0.6067    0.0000 C   0  0  0  0  0  0  0  0  0  0  0  0
   -0.4159   -1.9639    0.0000 C   0  0  0  0  0  0  0  0  0  0  0  0
    1.0789   -2.0895    0.0000 C   0  0  0  0  0  0  0  0  0  0  0  0
    1.9350   -0.8578    0.0000 C   0  0  0  0  0  0  0  0  0  0  0  0
    3.4297   -0.9834    0.0000 C   0  0  0  0  0  0  0  0  0  0  0  0
    4.2858    0.2483    0.0000 C   0  0  0  0  0  0  0  0  0  0  0  0
    3.6472    1.6056    0.0000 C   0  0  0  0  0  0  0  0  0  0  0  0
    2.1525    1.7311    0.0000 C   0  0  0  0  0  0  0  0  0  0  0  0
    1.2964    0.4995    0.0000 C   0  0  0  0  0  0  0  0  0  0  0  0
   -0.1984    0.6250    0.0000 C   0  0  0  0  0  0  0  0  0  0  0  0
   -3.1878    0.8762    0.0000 C   0  0  0  0  0  0  0  0  0  0  0  0
   -2.3317    2.1078    0.0000 O   0  0  0  0  0  0  0  0  0  0  0  0
   -4.6826    1.0017    0.0000 O   0  0  0  0  0  0  0  0  0  0  0  0
  2  1  1  6
  2  3  1  0
  3  4  1  0
  4  5  2  0
  5  6  1  0
  6  7  2  0
  7  8  1  0
  8  9  2  0
  9 10  1  0
 10 11  2  0
 11 12  1  0
  2 13  1  0
 13 14  2  0
 13 15  1  0
 11  6  1  0
 12  3  2  0
M  END
>  <rName>  (1881) 
Gly_naphth2yl

>  <PQ_SYMBOL>  (1881) 
Gly_naphth2yl

>  <FULL_NAME>  (1881) 
(S)-Amino-naphthalen-2-YL-acetic acid

>  <IUPAC_CONDENSED>  (1881) 
Gly(naphth-2-yl)

>  <IUPAC>  (1881) 
(2S)-2-amino-2-(naphthalen-2-yl)acetic acid

>  <TYPE>  (1881) 
Backbone

>  <CLASS>  (1881) 
alpha

>  <ANALOG>  (1881) 
X

>  <MOL_WT>  (1881) 
201.22499999999997

>  <LOGP>  (1881) 
1.9242000000000001

>  <TPSA>  (1881) 
63.32000000000001

>  <POPULARITY>  (1881) 
13.2

>  <PROTECTED>  (1881) 
TRUE

>  <SMILES>  (1881) 
N[C@@H](c2(ccc1(ccccc1c2)))C(=O)O

>  <INCHIKEY>  (1881) 
XAJPMFUAJFQIIT-NSHDSACASA-N

$$$$
Gly_tBu
     RDKit          2D

  9  8  0  0  0  0  0  0  0  0999 V2000
    0.1862    2.0800    0.0000 N   0  0  0  0  0  0  0  0  0  0  0  0
    0.1560    0.5803    0.0000 C   0  0  0  0  0  0  0  0  0  0  0  0
   -1.1578   -0.1434    0.0000 C   0  0  0  0  0  0  0  0  0  0  0  0
   -1.8815    1.1705    0.0000 C   0  0  0  0  0  0  0  0  0  0  0  0
   -0.4341   -1.4573    0.0000 C   0  0  0  0  0  0  0  0  0  0  0  0
   -2.4717   -0.8671    0.0000 C   0  0  0  0  0  0  0  0  0  0  0  0
    1.4397   -0.1957    0.0000 C   0  0  0  0  0  0  0  0  0  0  0  0
    1.4095   -1.6954    0.0000 O   0  0  0  0  0  0  0  0  0  0  0  0
    2.7536    0.5280    0.0000 O   0  0  0  0  0  0  0  0  0  0  0  0
  2  1  1  6
  2  3  1  0
  3  4  1  0
  3  5  1  0
  3  6  1  0
  2  7  1  0
  7  8  2  0
  7  9  1  0
M  END
>  <rName>  (1882) 
Gly_tBu

>  <PQ_SYMBOL>  (1882) 
Gly_tBu

>  <FULL_NAME>  (1882) 
3-Methyl-L-Valine

>  <IUPAC_CONDENSED>  (1882) 
Gly(tBu)

>  <IUPAC>  (1882) 
(2S)-2-amino-3,3-dimethylbutanoic acid

>  <TYPE>  (1882) 
Backbone

>  <CLASS>  (1882) 
alpha

>  <ANALOG>  (1882) 
Val

>  <MOL_WT>  (1882) 
131.17499999999998

>  <LOGP>  (1882) 
0.44439999999999985

>  <TPSA>  (1882) 
63.32000000000001

>  <POPULARITY>  (1882) 
41.6

>  <PROTECTED>  (1882) 
TRUE

>  <SMILES>  (1882) 
N[C@@H](C(C)(C)C)C(=O)O

>  <INCHIKEY>  (1882) 
NPDBDJFLKKQMCM-SCSAIBSYSA-N

$$$$
Gly_tetrahydropyran4yl
     RDKit          2D

 11 11  0  0  0  0  0  0  0  0999 V2000
   -1.6031   -2.0851    0.0000 N   0  0  0  0  0  0  0  0  0  0  0  0
   -1.1770   -0.6469    0.0000 C   0  0  0  0  0  0  0  0  0  0  0  0
    0.2816   -0.2968    0.0000 C   0  0  0  0  0  0  0  0  0  0  0  0
    0.7077    1.1415    0.0000 C   0  0  0  0  0  0  0  0  0  0  0  0
    2.1662    1.4916    0.0000 C   0  0  0  0  0  0  0  0  0  0  0  0
    3.1987    0.4035    0.0000 O   0  0  0  0  0  0  0  0  0  0  0  0
    2.7726   -1.0347    0.0000 C   0  0  0  0  0  0  0  0  0  0  0  0
    1.3141   -1.3849    0.0000 C   0  0  0  0  0  0  0  0  0  0  0  0
   -2.2095    0.4412    0.0000 C   0  0  0  0  0  0  0  0  0  0  0  0
   -1.7834    1.8794    0.0000 O   0  0  0  0  0  0  0  0  0  0  0  0
   -3.6680    0.0911    0.0000 O   0  0  0  0  0  0  0  0  0  0  0  0
  2  1  1  6
  2  3  1  0
  3  4  1  0
  4  5  1  0
  5  6  1  0
  6  7  1  0
  7  8  1  0
  2  9  1  0
  9 10  2  0
  9 11  1  0
  8  3  1  0
M  END
>  <rName>  (1883) 
Gly_tetrahydropyran4yl

>  <PQ_SYMBOL>  (1883) 
Gly_tetrahydropyran4yl

>  <FULL_NAME>  (1883) 
(S)-2-amino-2-(tetrahydro-2H-pyran-4-yl)acetic acid

>  <IUPAC_CONDENSED>  (1883) 
Gly(tetrahydropyran-4-yl)

>  <IUPAC>  (1883) 
(2S)-2-amino-2-(oxan-4-yl)acetic acid

>  <TYPE>  (1883) 
Backbone

>  <CLASS>  (1883) 
alpha

>  <ANALOG>  (1883) 
X

>  <MOL_WT>  (1883) 
159.185

>  <LOGP>  (1883) 
-0.17510000000000053

>  <TPSA>  (1883) 
72.55

>  <POPULARITY>  (1883) 
8.0

>  <PROTECTED>  (1883) 
TRUE

>  <SMILES>  (1883) 
N[C@@H](C1(CCOCC1))C(=O)O

>  <INCHIKEY>  (1883) 
XLZJPHKIECMDPG-LURJTMIESA-N

$$$$
Gly_thien2yl
     RDKit          2D

 10 10  0  0  0  0  0  0  0  0999 V2000
   -1.2726   -2.0834    0.0000 N   0  0  0  0  0  0  0  0  0  0  0  0
   -0.8797   -0.6358    0.0000 C   0  0  0  0  0  0  0  0  0  0  0  0
    0.5705   -0.2522    0.0000 C   0  0  0  0  0  0  0  0  0  0  0  0
    1.7331   -1.2000    0.0000 C   0  0  0  0  0  0  0  0  0  0  0  0
    2.9938   -0.3872    0.0000 C   0  0  0  0  0  0  0  0  0  0  0  0
    2.6103    1.0630    0.0000 C   0  0  0  0  0  0  0  0  0  0  0  0
    1.1126    1.1464    0.0000 S   0  0  0  0  0  0  0  0  0  0  0  0
   -1.9369    0.4284    0.0000 C   0  0  0  0  0  0  0  0  0  0  0  0
   -1.5439    1.8760    0.0000 O   0  0  0  0  0  0  0  0  0  0  0  0
   -3.3870    0.0449    0.0000 O   0  0  0  0  0  0  0  0  0  0  0  0
  2  1  1  6
  2  3  1  0
  3  4  2  0
  4  5  1  0
  5  6  2  0
  6  7  1  0
  2  8  1  0
  8  9  2  0
  8 10  1  0
  7  3  1  0
M  END
>  <rName>  (1884) 
Gly_thien2yl

>  <PQ_SYMBOL>  (1884) 
Gly_thien2yl

>  <FULL_NAME>  (1884) 
(2R)-2-amino-2-thiophen-2-ylacetic acid

>  <IUPAC_CONDENSED>  (1884) 
Gly(thien-2-yl)

>  <IUPAC>  (1884) 
(2R)-2-amino-2-(thiophen-2-yl)acetic acid

>  <TYPE>  (1884) 
Backbone

>  <CLASS>  (1884) 
alpha

>  <ANALOG>  (1884) 
X

>  <MOL_WT>  (1884) 
157.194

>  <LOGP>  (1884) 
0.8325000000000002

>  <TPSA>  (1884) 
63.32000000000001

>  <POPULARITY>  (1884) 
11.5

>  <PROTECTED>  (1884) 
TRUE

>  <SMILES>  (1884) 
N[C@@H](c1(cccs1))C(=O)O

>  <INCHIKEY>  (1884) 
XLMSKXASROPJNG-YFKPBYRVSA-N

$$$$
Gly_thien3yl
     RDKit          2D

 10 10  0  0  0  0  0  0  0  0999 V2000
   -1.2726   -2.0834    0.0000 N   0  0  0  0  0  0  0  0  0  0  0  0
   -0.8797   -0.6358    0.0000 C   0  0  0  0  0  0  0  0  0  0  0  0
    0.5705   -0.2522    0.0000 C   0  0  0  0  0  0  0  0  0  0  0  0
    1.7331   -1.2000    0.0000 C   0  0  0  0  0  0  0  0  0  0  0  0
    2.9938   -0.3872    0.0000 C   0  0  0  0  0  0  0  0  0  0  0  0
    2.6103    1.0630    0.0000 S   0  0  0  0  0  0  0  0  0  0  0  0
    1.1126    1.1464    0.0000 C   0  0  0  0  0  0  0  0  0  0  0  0
   -1.9369    0.4284    0.0000 C   0  0  0  0  0  0  0  0  0  0  0  0
   -1.5439    1.8760    0.0000 O   0  0  0  0  0  0  0  0  0  0  0  0
   -3.3870    0.0449    0.0000 O   0  0  0  0  0  0  0  0  0  0  0  0
  2  1  1  6
  2  3  1  0
  3  4  1  0
  4  5  2  0
  5  6  1  0
  6  7  1  0
  2  8  1  0
  8  9  2  0
  8 10  1  0
  7  3  2  0
M  END
>  <rName>  (1885) 
Gly_thien3yl

>  <PQ_SYMBOL>  (1885) 
Gly_thien3yl

>  <FULL_NAME>  (1885) 
L-alpha-(3-Thienyl)glycine

>  <IUPAC_CONDENSED>  (1885) 
Gly(thien-3-yl)

>  <IUPAC>  (1885) 
(2S)-2-amino-2-(thiophen-3-yl)acetic acid

>  <TYPE>  (1885) 
Backbone

>  <CLASS>  (1885) 
alpha

>  <ANALOG>  (1885) 
X

>  <MOL_WT>  (1885) 
157.194

>  <LOGP>  (1885) 
0.8325000000000002

>  <TPSA>  (1885) 
63.32000000000001

>  <POPULARITY>  (1885) 
6.5

>  <PROTECTED>  (1885) 
TRUE

>  <SMILES>  (1885) 
N[C@@H](c1(ccsc1))C(=O)O

>  <INCHIKEY>  (1885) 
BVGBBSAQOQTNGF-YFKPBYRVSA-N

$$$$
Gly_vinyl
     RDKit          2D

  7  6  0  0  0  0  0  0  0  0999 V2000
   -0.5797   -1.7367    0.0000 N   0  0  0  0  0  0  0  0  0  0  0  0
   -0.2514   -0.2730    0.0000 C   0  0  0  0  0  0  0  0  0  0  0  0
   -1.3548    0.7431    0.0000 C   0  0  0  0  0  0  0  0  0  0  0  0
   -2.7865    0.2956    0.0000 C   0  0  0  0  0  0  0  0  0  0  0  0
    1.1803    0.1745    0.0000 C   0  0  0  0  0  0  0  0  0  0  0  0
    1.5086    1.6381    0.0000 O   0  0  0  0  0  0  0  0  0  0  0  0
    2.2837   -0.8417    0.0000 O   0  0  0  0  0  0  0  0  0  0  0  0
  2  1  1  1
  2  3  1  0
  3  4  2  0
  2  5  1  0
  5  6  2  0
  5  7  1  0
M  END
>  <rName>  (1886) 
Gly_vinyl

>  <PQ_SYMBOL>  (1886) 
Gly_vinyl

>  <FULL_NAME>  (1886) 
L-Vinylglycine

>  <IUPAC_CONDENSED>  (1886) 
Gly(vinyl)

>  <IUPAC>  (1886) 
(2S)-2-aminobut-3-enoic acid

>  <TYPE>  (1886) 
Backbone

>  <CLASS>  (1886) 
alpha

>  <ANALOG>  (1886) 
Ala

>  <MOL_WT>  (1886) 
101.10499999999999

>  <LOGP>  (1886) 
-0.41570000000000024

>  <TPSA>  (1886) 
63.32000000000001

>  <POPULARITY>  (1886) 
14.8

>  <PROTECTED>  (1886) 
TRUE

>  <SMILES>  (1886) 
N[C@@H](C=C)C(=O)O

>  <INCHIKEY>  (1886) 
RQVLGLPAZTUBKX-VKHMYHEASA-N

$$$$
H
     RDKit          2D

 11 11  0  0  0  0  0  0  0  0999 V2000
   -0.9461    1.6947    0.0000 N   0  0  0  0  0  0  0  0  0  0  0  0
   -1.3100    0.2395    0.0000 C   0  0  0  0  0  0  0  0  0  0  0  0
   -0.2317   -0.8032    0.0000 C   0  0  0  0  0  0  0  0  0  0  0  0
    1.2105   -0.3908    0.0000 C   0  0  0  0  0  0  0  0  0  0  0  0
    2.3919   -1.3151    0.0000 C   0  0  0  0  0  0  0  0  0  0  0  0
    3.6360   -0.4772    0.0000 N   0  0  0  0  0  0  0  0  0  0  0  0
    3.2236    0.9650    0.0000 C   0  0  0  0  0  0  0  0  0  0  0  0
    1.7245    1.0184    0.0000 N   0  0  0  0  0  0  0  0  0  0  0  0
   -2.7522   -0.1729    0.0000 C   0  0  0  0  0  0  0  0  0  0  0  0
   -3.1161   -1.6281    0.0000 O   0  0  0  0  0  0  0  0  0  0  0  0
   -3.8304    0.8698    0.0000 O   0  0  0  0  0  0  0  0  0  0  0  0
  2  1  1  1
  2  3  1  0
  3  4  1  0
  4  5  2  0
  5  6  1  0
  6  7  2  0
  7  8  1  0
  2  9  1  0
  9 10  2  0
  9 11  1  0
  8  4  1  0
M  END
>  <rName>  (1887) 
H

>  <PQ_SYMBOL>  (1887) 
H

>  <FULL_NAME>  (1887) 
L-Histidine

>  <IUPAC_CONDENSED>  (1887) 
His

>  <IUPAC>  (1887) 
(2S)-2-amino-3-(1H-imidazol-5-yl)propanoic acid

>  <TYPE>  (1887) 
Backbone

>  <CLASS>  (1887) 
alpha

>  <ANALOG>  (1887) 
His

>  <MOL_WT>  (1887) 
155.15699999999998

>  <LOGP>  (1887) 
-0.6359000000000001

>  <TPSA>  (1887) 
92.0

>  <POPULARITY>  (1887) 
93.4

>  <PROTECTED>  (1887) 
TRUE

>  <SMILES>  (1887) 
N[C@@H](Cc1(cnc[nH]1))C(=O)O

>  <INCHIKEY>  (1887) 
HNDVDQJCIGZPNO-YFKPBYRVSA-N

$$$$
H2NCO-Met
     RDKit          2D

 12 11  0  0  0  0  0  0  0  0999 V2000
    4.8960    0.9832    0.0000 C   0  0  0  0  0  0  0  0  0  0  0  0
    3.8477   -0.0896    0.0000 S   0  0  0  0  0  0  0  0  0  0  0  0
    2.3944    0.2818    0.0000 C   0  0  0  0  0  0  0  0  0  0  0  0
    1.3460   -0.7910    0.0000 C   0  0  0  0  0  0  0  0  0  0  0  0
   -0.1072   -0.4195    0.0000 C   0  0  0  0  0  0  0  0  0  0  0  0
   -0.5122    1.0248    0.0000 N   0  0  0  0  0  0  0  0  0  0  0  0
   -1.9654    1.3963    0.0000 C   0  0  0  0  0  0  0  0  0  0  0  0
   -3.0138    0.3234    0.0000 O   0  0  0  0  0  0  0  0  0  0  0  0
   -2.3704    2.8406    0.0000 N   0  0  0  0  0  0  0  0  0  0  0  0
   -1.1556   -1.4924    0.0000 C   0  0  0  0  0  0  0  0  0  0  0  0
   -0.7507   -2.9367    0.0000 O   0  0  0  0  0  0  0  0  0  0  0  0
   -2.6089   -1.1209    0.0000 O   0  0  0  0  0  0  0  0  0  0  0  0
  1  2  1  0
  2  3  1  0
  3  4  1  0
  5  4  1  1
  5  6  1  0
  6  7  1  0
  7  8  2  0
  7  9  1  0
  5 10  1  0
 10 11  2  0
 10 12  1  0
M  END
>  <rName>  (1888) 
H2NCO-Met

>  <PQ_SYMBOL>  (1888) 
H2NCO-Met

>  <FULL_NAME>  (1888) 
(2S)-2-(carbamoylamino)-4-methylsulfanylbutanoic acid

>  <IUPAC_CONDENSED>  (1888) 
H2NCO-Met

>  <IUPAC>  (1888) 
(2S)-2-(carbamoylamino)-4-(methylsulfanyl)butanoic acid

>  <TYPE>  (1888) 
N-term cap

>  <CLASS>  (1888) 
n_cap

>  <ANALOG>  (1888) 
X

>  <MOL_WT>  (1888) 
192.23999999999998

>  <LOGP>  (1888) 
-0.13900000000000023

>  <TPSA>  (1888) 
92.42

>  <POPULARITY>  (1888) 
8.4

>  <PROTECTED>  (1888) 
TRUE

>  <SMILES>  (1888) 
CSCC[C@H](NC(=O)N)C(=O)O

>  <INCHIKEY>  (1888) 
DEWDMTSMCKXBNP-BYPYZUCNSA-N

$$$$
H2NCO-Phe
     RDKit          2D

 15 15  0  0  0  0  0  0  0  0999 V2000
   -4.2373   -0.8803    0.0000 C   0  0  0  0  0  0  0  0  0  0  0  0
   -4.2481    0.6196    0.0000 C   0  0  0  0  0  0  0  0  0  0  0  0
   -2.9544    1.3789    0.0000 C   0  0  0  0  0  0  0  0  0  0  0  0
   -1.6501    0.6382    0.0000 C   0  0  0  0  0  0  0  0  0  0  0  0
   -1.6393   -0.8618    0.0000 C   0  0  0  0  0  0  0  0  0  0  0  0
   -2.9330   -1.6210    0.0000 C   0  0  0  0  0  0  0  0  0  0  0  0
   -0.3564    1.3975    0.0000 C   0  0  0  0  0  0  0  0  0  0  0  0
    0.9480    0.6568    0.0000 C   0  0  0  0  0  0  0  0  0  0  0  0
    0.9587   -0.8432    0.0000 N   0  0  0  0  0  0  0  0  0  0  0  0
    2.2631   -1.5838    0.0000 C   0  0  0  0  0  0  0  0  0  0  0  0
    3.5567   -0.8246    0.0000 O   0  0  0  0  0  0  0  0  0  0  0  0
    2.2738   -3.0838    0.0000 N   0  0  0  0  0  0  0  0  0  0  0  0
    2.2416    1.4161    0.0000 C   0  0  0  0  0  0  0  0  0  0  0  0
    2.2309    2.9160    0.0000 O   0  0  0  0  0  0  0  0  0  0  0  0
    3.5460    0.6754    0.0000 O   0  0  0  0  0  0  0  0  0  0  0  0
  1  2  2  0
  2  3  1  0
  3  4  2  0
  4  5  1  0
  5  6  2  0
  4  7  1  0
  8  7  1  1
  8  9  1  0
  9 10  1  0
 10 11  2  0
 10 12  1  0
  8 13  1  0
 13 14  2  0
 13 15  1  0
  6  1  1  0
M  END
>  <rName>  (1889) 
H2NCO-Phe

>  <PQ_SYMBOL>  (1889) 
H2NCO-Phe

>  <FULL_NAME>  (1889) 
(2S)-2-(carbamoylamino)-3-phenylpropanoic acid

>  <IUPAC_CONDENSED>  (1889) 
H2NCO-Phe

>  <IUPAC>  (1889) 
(2S)-2-(carbamoylamino)-3-phenylpropanoic acid

>  <TYPE>  (1889) 
N-term cap

>  <CLASS>  (1889) 
n_cap

>  <ANALOG>  (1889) 
X

>  <MOL_WT>  (1889) 
208.21699999999996

>  <LOGP>  (1889) 
0.35060000000000013

>  <TPSA>  (1889) 
92.42

>  <POPULARITY>  (1889) 
12.5

>  <PROTECTED>  (1889) 
TRUE

>  <SMILES>  (1889) 
c1ccc(cc1)C[C@H](NC(=O)N)C(=O)O

>  <INCHIKEY>  (1889) 
IPWQOZCSQLTKOI-QMMMGPOBSA-N

$$$$
H2NCO-Tyr
     RDKit          2D

 16 16  0  0  0  0  0  0  0  0999 V2000
   -5.2973   -1.0901    0.0000 O   0  0  0  0  0  0  0  0  0  0  0  0
   -3.9437   -0.4437    0.0000 C   0  0  0  0  0  0  0  0  0  0  0  0
   -3.8267    1.0517    0.0000 C   0  0  0  0  0  0  0  0  0  0  0  0
   -2.4731    1.6981    0.0000 C   0  0  0  0  0  0  0  0  0  0  0  0
   -1.2366    0.8491    0.0000 C   0  0  0  0  0  0  0  0  0  0  0  0
   -1.3536   -0.6464    0.0000 C   0  0  0  0  0  0  0  0  0  0  0  0
   -2.7072   -1.2928    0.0000 C   0  0  0  0  0  0  0  0  0  0  0  0
    0.1170    1.4954    0.0000 C   0  0  0  0  0  0  0  0  0  0  0  0
    1.3536    0.6464    0.0000 C   0  0  0  0  0  0  0  0  0  0  0  0
    1.2366   -0.8491    0.0000 N   0  0  0  0  0  0  0  0  0  0  0  0
    2.4731   -1.6981    0.0000 C   0  0  0  0  0  0  0  0  0  0  0  0
    3.8267   -1.0517    0.0000 O   0  0  0  0  0  0  0  0  0  0  0  0
    2.3561   -3.1935    0.0000 N   0  0  0  0  0  0  0  0  0  0  0  0
    2.7072    1.2928    0.0000 C   0  0  0  0  0  0  0  0  0  0  0  0
    2.8242    2.7882    0.0000 O   0  0  0  0  0  0  0  0  0  0  0  0
    3.9437    0.4437    0.0000 O   0  0  0  0  0  0  0  0  0  0  0  0
  1  2  1  0
  2  3  1  0
  3  4  2  0
  4  5  1  0
  5  6  2  0
  6  7  1  0
  5  8  1  0
  9  8  1  1
  9 10  1  0
 10 11  1  0
 11 12  2  0
 11 13  1  0
  9 14  1  0
 14 15  2  0
 14 16  1  0
  7  2  2  0
M  END
>  <rName>  (1890) 
H2NCO-Tyr

>  <PQ_SYMBOL>  (1890) 
H2NCO-Tyr

>  <FULL_NAME>  (1890) 
(2S)-2-(carbamoylamino)-3-(4-hydroxyphenyl)propanoic acid

>  <IUPAC_CONDENSED>  (1890) 
H2NCO-Tyr

>  <IUPAC>  (1890) 
(2S)-2-(carbamoylamino)-3-(4-hydroxyphenyl)propanoic acid

>  <TYPE>  (1890) 
N-term cap

>  <CLASS>  (1890) 
n_cap

>  <ANALOG>  (1890) 
X

>  <MOL_WT>  (1890) 
224.21599999999998

>  <LOGP>  (1890) 
0.05619999999999986

>  <TPSA>  (1890) 
112.64999999999999

>  <POPULARITY>  (1890) 
12.5

>  <PROTECTED>  (1890) 
TRUE

>  <SMILES>  (1890) 
Oc1ccc(cc1)C[C@H](NC(=O)N)C(=O)O

>  <INCHIKEY>  (1890) 
PNLKYZVGQWCHBH-QMMMGPOBSA-N

$$$$
H2NEt-bAla_3Me
     RDKit          2D

 10 10  0  0  0  0  0  0  0  0999 V2000
    1.3040   -1.4730    0.0000 N   0  0  0  0  0  0  0  0  0  0  0  0
    0.1701   -0.4910    0.0000 C   0  0  0  0  0  0  0  0  0  0  0  0
    0.4536    0.9820    0.0000 C   0  0  0  0  0  0  0  0  0  0  0  0
    1.8709    1.4730    0.0000 N   0  0  0  0  0  0  0  0  0  0  0  0
    3.0048    0.4910    0.0000 C   0  0  0  0  0  0  0  0  0  0  0  0
    2.7213   -0.9820    0.0000 C   0  0  0  0  0  0  0  0  0  0  0  0
   -1.2473   -0.9820    0.0000 C   0  0  0  0  0  0  0  0  0  0  0  0
   -2.3812   -0.0000    0.0000 C   0  0  0  0  0  0  0  0  0  0  0  0
   -2.0977    1.4730    0.0000 O   0  0  0  0  0  0  0  0  0  0  0  0
   -3.7985   -0.4910    0.0000 O   0  0  0  0  0  0  0  0  0  0  0  0
  1  2  1  0
  2  3  1  0
  3  4  1  0
  4  5  1  0
  5  6  1  0
  2  7  1  0
  7  8  1  0
  8  9  2  0
  8 10  1  0
  6  1  1  0
M  END
>  <rName>  (1891) 
H2NEt-bAla_3Me

>  <PQ_SYMBOL>  (1891) 
H2NEt-bAla_3Me

>  <FULL_NAME>  (1891) 
2-(piperazin-2-yl)acetic acid

>  <IUPAC_CONDENSED>  (1891) 
H2NEt-bAla(3-Me)

>  <IUPAC>  (1891) 
2-(piperazin-2-yl)acetic acid

>  <TYPE>  (1891) 
Backbone

>  <CLASS>  (1891) 
beta

>  <ANALOG>  (1891) 
Pro

>  <MOL_WT>  (1891) 
144.174

>  <LOGP>  (1891) 
-0.9774999999999996

>  <TPSA>  (1891) 
61.36

>  <POPULARITY>  (1891) 
10.7

>  <PROTECTED>  (1891) 
TRUE

>  <SMILES>  (1891) 
N1C(CNCC1)CC(=O)O

>  <INCHIKEY>  (1891) 
VGEOCVZKPBSYQC-UHFFFAOYSA-N

$$$$
HO-Gly
     RDKit          2D

  6  5  0  0  0  0  0  0  0  0999 V2000
   -1.4825    0.3386    0.0000 N   0  0  0  0  0  0  0  0  0  0  0  0
   -2.8748   -0.2197    0.0000 O   0  0  0  0  0  0  0  0  0  0  0  0
   -0.3029   -0.5880    0.0000 C   0  0  0  0  0  0  0  0  0  0  0  0
    1.0893   -0.0297    0.0000 C   0  0  0  0  0  0  0  0  0  0  0  0
    1.3020    1.4551    0.0000 O   0  0  0  0  0  0  0  0  0  0  0  0
    2.2689   -0.9563    0.0000 O   0  0  0  0  0  0  0  0  0  0  0  0
  1  2  1  0
  1  3  1  0
  3  4  1  0
  4  5  2  0
  4  6  1  0
M  END
>  <rName>  (1892) 
HO-Gly

>  <PQ_SYMBOL>  (1892) 
HO-Gly

>  <FULL_NAME>  (1892) 
N-hydroxyglycine

>  <IUPAC_CONDENSED>  (1892) 
HO-Gly

>  <IUPAC>  (1892) 
2-(hydroxyamino)acetic acid

>  <TYPE>  (1892) 
Backbone

>  <CLASS>  (1892) 
alpha

>  <ANALOG>  (1892) 
Gly

>  <MOL_WT>  (1892) 
91.06599999999999

>  <LOGP>  (1892) 
-0.9502000000000002

>  <TPSA>  (1892) 
69.56

>  <POPULARITY>  (1892) 
8.9

>  <PROTECTED>  (1892) 
TRUE

>  <SMILES>  (1892) 
N(O)CC(=O)O

>  <INCHIKEY>  (1892) 
NPWGWQRXHVJJRD-UHFFFAOYSA-N

$$$$
HO-bAla
     RDKit          2D

  7  6  0  0  0  0  0  0  0  0999 V2000
    2.2602   -0.5139    0.0000 N   0  0  0  0  0  0  0  0  0  0  0  0
    3.5140    0.3095    0.0000 O   0  0  0  0  0  0  0  0  0  0  0  0
    0.9202    0.1603    0.0000 C   0  0  0  0  0  0  0  0  0  0  0  0
   -0.3336   -0.6631    0.0000 C   0  0  0  0  0  0  0  0  0  0  0  0
   -1.6736    0.0110    0.0000 C   0  0  0  0  0  0  0  0  0  0  0  0
   -1.7598    1.5085    0.0000 O   0  0  0  0  0  0  0  0  0  0  0  0
   -2.9274   -0.8124    0.0000 O   0  0  0  0  0  0  0  0  0  0  0  0
  1  2  1  0
  1  3  1  0
  3  4  1  0
  4  5  1  0
  5  6  2  0
  5  7  1  0
M  END
>  <rName>  (1893) 
HO-bAla

>  <PQ_SYMBOL>  (1893) 
HO-bAla

>  <FULL_NAME>  (1893) 
3-(Hydroxyamino)propanoic acid

>  <IUPAC_CONDENSED>  (1893) 
HO-bAla

>  <IUPAC>  (1893) 
3-(hydroxyamino)propanoic acid

>  <TYPE>  (1893) 
Backbone

>  <CLASS>  (1893) 
beta

>  <ANALOG>  (1893) 
Gly

>  <MOL_WT>  (1893) 
105.09299999999999

>  <LOGP>  (1893) 
-0.5601000000000003

>  <TPSA>  (1893) 
69.56

>  <POPULARITY>  (1893) 
12.4

>  <PROTECTED>  (1893) 
TRUE

>  <SMILES>  (1893) 
N(O)CCC(=O)O

>  <INCHIKEY>  (1893) 
FHDIEOHZERBGBK-UHFFFAOYSA-N

$$$$
HOCOCH2-bAla-NH2
     RDKit          2D

 10  9  0  0  0  0  0  0  0  0999 V2000
    0.6897   -0.2947    0.0000 N   0  0  0  0  0  0  0  0  0  0  0  0
   -0.6897    0.2947    0.0000 C   0  0  0  0  0  0  0  0  0  0  0  0
   -1.8898   -0.6050    0.0000 C   0  0  0  0  0  0  0  0  0  0  0  0
   -3.2691   -0.0155    0.0000 C   0  0  0  0  0  0  0  0  0  0  0  0
   -3.4483    1.4737    0.0000 O   0  0  0  0  0  0  0  0  0  0  0  0
   -4.4693   -0.9153    0.0000 N   0  0  0  0  0  0  0  0  0  0  0  0
    1.8898    0.6050    0.0000 C   0  0  0  0  0  0  0  0  0  0  0  0
    3.2691    0.0155    0.0000 C   0  0  0  0  0  0  0  0  0  0  0  0
    3.4483   -1.4737    0.0000 O   0  0  0  0  0  0  0  0  0  0  0  0
    4.4693    0.9153    0.0000 O   0  0  0  0  0  0  0  0  0  0  0  0
  1  2  1  0
  2  3  1  0
  3  4  1  0
  4  5  2  0
  4  6  1  0
  1  7  1  0
  7  8  1  0
  8  9  2  0
  8 10  1  0
M  END
>  <rName>  (1894) 
HOCOCH2-bAla-NH2

>  <PQ_SYMBOL>  (1894) 
HOCOCH2-bAla-NH2

>  <FULL_NAME>  (1894) 
(3-amino-3-oxopropyl)glycine

>  <IUPAC_CONDENSED>  (1894) 
HOCOCH2-bAla-NH2

>  <IUPAC>  (1894) 
2-((3-amino-3-oxopropyl)amino)acetic acid

>  <TYPE>  (1894) 
Backbone

>  <CLASS>  (1894) 
alpha

>  <ANALOG>  (1894) 
Gly

>  <MOL_WT>  (1894) 
146.14600000000002

>  <LOGP>  (1894) 
-1.463999999999999

>  <TPSA>  (1894) 
92.42

>  <POPULARITY>  (1894) 
12.9

>  <PROTECTED>  (1894) 
TRUE

>  <SMILES>  (1894) 
N(CCC(=O)N)CC(=O)O

>  <INCHIKEY>  (1894) 
MNDBDVPDSHGIHR-UHFFFAOYSA-N

$$$$
HOCOCH2-bAla-ol
     RDKit          2D

  9  8  0  0  0  0  0  0  0  0999 V2000
    0.2960   -0.1534    0.0000 N   0  0  0  0  0  0  0  0  0  0  0  0
   -1.0358    0.5368    0.0000 C   0  0  0  0  0  0  0  0  0  0  0  0
   -2.2994   -0.2714    0.0000 C   0  0  0  0  0  0  0  0  0  0  0  0
   -3.6312    0.4188    0.0000 C   0  0  0  0  0  0  0  0  0  0  0  0
   -4.8948   -0.3895    0.0000 O   0  0  0  0  0  0  0  0  0  0  0  0
    1.5596    0.6549    0.0000 C   0  0  0  0  0  0  0  0  0  0  0  0
    2.8913   -0.0353    0.0000 C   0  0  0  0  0  0  0  0  0  0  0  0
    2.9595   -1.5338    0.0000 O   0  0  0  0  0  0  0  0  0  0  0  0
    4.1550    0.7729    0.0000 O   0  0  0  0  0  0  0  0  0  0  0  0
  1  2  1  0
  2  3  1  0
  3  4  1  0
  4  5  1  0
  1  6  1  0
  6  7  1  0
  7  8  2  0
  7  9  1  0
M  END
>  <rName>  (1895) 
HOCOCH2-bAla-ol

>  <PQ_SYMBOL>  (1895) 
HOCOCH2-bAla-ol

>  <FULL_NAME>  (1895) 
2-(3-hydroxypropylamino)acetic acid

>  <IUPAC_CONDENSED>  (1895) 
HOCOCH2-bAla-ol

>  <IUPAC>  (1895) 
2-((3-hydroxypropyl)amino)acetic acid

>  <TYPE>  (1895) 
N-term cap

>  <CLASS>  (1895) 
n_cap

>  <ANALOG>  (1895) 
X

>  <MOL_WT>  (1895) 
133.147

>  <LOGP>  (1895) 
-0.9570000000000003

>  <TPSA>  (1895) 
69.56

>  <POPULARITY>  (1895) 
17.7

>  <PROTECTED>  (1895) 
TRUE

>  <SMILES>  (1895) 
N(CCCO)CC(=O)O

>  <INCHIKEY>  (1895) 
QIVWFDDLWNUYST-UHFFFAOYSA-N

$$$$
HOEt-bAla
     RDKit          2D

  9  8  0  0  0  0  0  0  0  0999 V2000
    1.0358    0.5368    0.0000 N   0  0  0  0  0  0  0  0  0  0  0  0
    2.2994   -0.2714    0.0000 C   0  0  0  0  0  0  0  0  0  0  0  0
    3.6312    0.4188    0.0000 C   0  0  0  0  0  0  0  0  0  0  0  0
    4.8948   -0.3895    0.0000 O   0  0  0  0  0  0  0  0  0  0  0  0
   -0.2960   -0.1534    0.0000 C   0  0  0  0  0  0  0  0  0  0  0  0
   -1.5596    0.6549    0.0000 C   0  0  0  0  0  0  0  0  0  0  0  0
   -2.8913   -0.0353    0.0000 C   0  0  0  0  0  0  0  0  0  0  0  0
   -2.9595   -1.5338    0.0000 O   0  0  0  0  0  0  0  0  0  0  0  0
   -4.1550    0.7729    0.0000 O   0  0  0  0  0  0  0  0  0  0  0  0
  1  2  1  0
  2  3  1  0
  3  4  1  0
  1  5  1  0
  5  6  1  0
  6  7  1  0
  7  8  2  0
  7  9  1  0
M  END
>  <rName>  (1896) 
HOEt-bAla

>  <PQ_SYMBOL>  (1896) 
HOEt-bAla

>  <FULL_NAME>  (1896) 
N-(2-hydroxyethyl)-beta-alanine

>  <IUPAC_CONDENSED>  (1896) 
HOEt-bAla

>  <IUPAC>  (1896) 
3-((2-hydroxyethyl)amino)propanoic acid

>  <TYPE>  (1896) 
Backbone

>  <CLASS>  (1896) 
beta

>  <ANALOG>  (1896) 
Gly

>  <MOL_WT>  (1896) 
133.14700000000002

>  <LOGP>  (1896) 
-0.9570000000000003

>  <TPSA>  (1896) 
69.56

>  <POPULARITY>  (1896) 
18.2

>  <PROTECTED>  (1896) 
TRUE

>  <SMILES>  (1896) 
N(CCO)CCC(=O)O

>  <INCHIKEY>  (1896) 
PPDDDJFBMYJHBK-UHFFFAOYSA-N

$$$$
Hcy
     RDKit          2D

  8  7  0  0  0  0  0  0  0  0999 V2000
   -0.2517   -1.8862    0.0000 N   0  0  0  0  0  0  0  0  0  0  0  0
   -0.3100   -0.3873    0.0000 C   0  0  0  0  0  0  0  0  0  0  0  0
    0.9590    0.4126    0.0000 C   0  0  0  0  0  0  0  0  0  0  0  0
    2.2862   -0.2864    0.0000 C   0  0  0  0  0  0  0  0  0  0  0  0
    3.5551    0.5134    0.0000 S   0  0  0  0  0  0  0  0  0  0  0  0
   -1.6371    0.3117    0.0000 C   0  0  0  0  0  0  0  0  0  0  0  0
   -1.6954    1.8105    0.0000 O   0  0  0  0  0  0  0  0  0  0  0  0
   -2.9061   -0.4882    0.0000 O   0  0  0  0  0  0  0  0  0  0  0  0
  2  1  1  6
  2  3  1  0
  3  4  1  0
  4  5  1  0
  2  6  1  0
  6  7  2  0
  6  8  1  0
M  END
>  <rName>  (1897) 
Hcy

>  <PQ_SYMBOL>  (1897) 
Hcy

>  <FULL_NAME>  (1897) 
Homo-L-Cysteine

>  <IUPAC_CONDENSED>  (1897) 
Hcy

>  <IUPAC>  (1897) 
(2S)-2-amino-4-sulfanylbutanoic acid

>  <TYPE>  (1897) 
Backbone

>  <CLASS>  (1897) 
alpha

>  <ANALOG>  (1897) 
Cys

>  <MOL_WT>  (1897) 
135.188

>  <LOGP>  (1897) 
-0.28180000000000033

>  <TPSA>  (1897) 
63.32000000000001

>  <POPULARITY>  (1897) 
43.5

>  <PROTECTED>  (1897) 
TRUE

>  <SMILES>  (1897) 
N[C@@H](CCS)C(=O)O

>  <INCHIKEY>  (1897) 
FFFHZYDWPBMWHY-VKHMYHEASA-N

$$$$
Hcy_Et
     RDKit          2D

 10  9  0  0  0  0  0  0  0  0999 V2000
   -1.4166   -1.8843    0.0000 N   0  0  0  0  0  0  0  0  0  0  0  0
   -1.4265   -0.3844    0.0000 C   0  0  0  0  0  0  0  0  0  0  0  0
   -0.1324    0.3741    0.0000 C   0  0  0  0  0  0  0  0  0  0  0  0
    1.1716   -0.3673    0.0000 C   0  0  0  0  0  0  0  0  0  0  0  0
    2.4657    0.3912    0.0000 S   0  0  0  0  0  0  0  0  0  0  0  0
    3.7696   -0.3503    0.0000 C   0  0  0  0  0  0  0  0  0  0  0  0
    5.0637    0.4082    0.0000 C   0  0  0  0  0  0  0  0  0  0  0  0
   -2.7304    0.3571    0.0000 C   0  0  0  0  0  0  0  0  0  0  0  0
   -2.7402    1.8571    0.0000 O   0  0  0  0  0  0  0  0  0  0  0  0
   -4.0245   -0.4014    0.0000 O   0  0  0  0  0  0  0  0  0  0  0  0
  2  1  1  6
  2  3  1  0
  3  4  1  0
  4  5  1  0
  5  6  1  0
  6  7  1  0
  2  8  1  0
  8  9  2  0
  8 10  1  0
M  END
>  <rName>  (1898) 
Hcy_Et

>  <PQ_SYMBOL>  (1898) 
Hcy_Et

>  <FULL_NAME>  (1898) 
L-Ethionine, S-Ethyl-Homo-L-Cysteine

>  <IUPAC_CONDENSED>  (1898) 
Hcy(Et)

>  <IUPAC>  (1898) 
(2S)-2-amino-4-(ethylsulfanyl)butanoic acid

>  <TYPE>  (1898) 
Backbone

>  <CLASS>  (1898) 
alpha

>  <ANALOG>  (1898) 
Met

>  <MOL_WT>  (1898) 
163.242

>  <LOGP>  (1898) 
0.5414999999999996

>  <TPSA>  (1898) 
63.32000000000001

>  <POPULARITY>  (1898) 
17.0

>  <PROTECTED>  (1898) 
TRUE

>  <SMILES>  (1898) 
N[C@@H](CCSCC)C(=O)O

>  <INCHIKEY>  (1898) 
GGLZPLKKBSSKCX-YFKPBYRVSA-N

$$$$
Hcy_O2
     RDKit          2D

 16 15  0  0  0  0  0  0  0  0999 V2000
    3.9671   -1.6030    0.0000 N   0  0  0  0  0  0  0  0  0  0  0  0
    3.3713   -0.2264    0.0000 C   0  0  0  0  0  0  0  0  0  0  0  0
    1.8812   -0.0541    0.0000 C   0  0  0  0  0  0  0  0  0  0  0  0
    0.9870   -1.2584    0.0000 C   0  0  0  0  0  0  0  0  0  0  0  0
   -0.5031   -1.0861    0.0000 S   0  0  0  0  0  0  0  0  0  0  0  0
   -0.3308    0.4040    0.0000 O   0  0  0  0  0  0  0  0  0  0  0  0
   -0.6754   -2.5761    0.0000 O   0  0  0  0  0  0  0  0  0  0  0  0
   -1.9932   -0.9137    0.0000 O   0  0  0  0  0  0  0  0  0  0  0  0
   -2.5890    0.4629    0.0000 C   0  0  0  0  0  0  0  0  0  0  0  0
   -4.0790    0.6352    0.0000 C   0  0  0  0  0  0  0  0  0  0  0  0
   -3.9067    2.1253    0.0000 C   0  0  0  0  0  0  0  0  0  0  0  0
   -4.2514   -0.8549    0.0000 C   0  0  0  0  0  0  0  0  0  0  0  0
   -5.5691    0.8075    0.0000 C   0  0  0  0  0  0  0  0  0  0  0  0
    4.2656    0.9778    0.0000 C   0  0  0  0  0  0  0  0  0  0  0  0
    3.6698    2.3544    0.0000 O   0  0  0  0  0  0  0  0  0  0  0  0
    5.7557    0.8055    0.0000 O   0  0  0  0  0  0  0  0  0  0  0  0
  2  1  1  1
  2  3  1  0
  3  4  1  0
  4  5  1  0
  5  6  2  0
  5  7  2  0
  5  8  1  0
  8  9  1  0
  9 10  1  0
 10 11  1  0
 10 12  1  0
 10 13  1  0
  2 14  1  0
 14 15  2  0
 14 16  1  0
M  END
>  <rName>  (1899) 
Hcy_O2

>  <PQ_SYMBOL>  (1899) 
Hcy_O2

>  <FULL_NAME>  (1899) 
(2S)-2-amino-4-(2,2-dimethylpropoxysulfonyl)butanoic acid

>  <IUPAC_CONDENSED>  (1899) 
Hcy(O2)

>  <IUPAC>  (1899) 
(2S)-2-amino-4-(((2,2-dimethylpropyl)oxy)sulfonyl)butanoic acid

>  <TYPE>  (1899) 
Backbone

>  <CLASS>  (1899) 
alpha

>  <ANALOG>  (1899) 
X

>  <MOL_WT>  (1899) 
253.31999999999996

>  <LOGP>  (1899) 
0.18089999999999978

>  <TPSA>  (1899) 
106.69000000000001

>  <POPULARITY>  (1899) 
4.0

>  <PROTECTED>  (1899) 
TRUE

>  <SMILES>  (1899) 
N[C@@H](CCS(=O)(=O)OCC(C)(C)C)C(=O)O

>  <INCHIKEY>  (1899) 
WZLPJZWCKJXUAA-ZETCQYMHSA-N

$$$$
His-Gly
     RDKit          2D

 15 15  0  0  0  0  0  0  0  0999 V2000
   -2.1844    0.1240    0.0000 N   0  0  0  0  0  0  0  0  0  0  0  0
   -0.9540   -0.7340    0.0000 C   0  0  0  0  0  0  0  0  0  0  0  0
   -1.0819   -2.2285    0.0000 O   0  0  0  0  0  0  0  0  0  0  0  0
    0.4042   -0.0975    0.0000 C   0  0  0  0  0  0  0  0  0  0  0  0
    0.5321    1.3971    0.0000 N   0  0  0  0  0  0  0  0  0  0  0  0
    1.6346   -0.9555    0.0000 C   0  0  0  0  0  0  0  0  0  0  0  0
    2.9929   -0.3190    0.0000 C   0  0  0  0  0  0  0  0  0  0  0  0
    4.3062   -1.0437    0.0000 C   0  0  0  0  0  0  0  0  0  0  0  0
    5.4012   -0.0186    0.0000 N   0  0  0  0  0  0  0  0  0  0  0  0
    4.7647    1.3396    0.0000 C   0  0  0  0  0  0  0  0  0  0  0  0
    3.2763    1.1540    0.0000 N   0  0  0  0  0  0  0  0  0  0  0  0
   -3.5426   -0.5125    0.0000 C   0  0  0  0  0  0  0  0  0  0  0  0
   -4.7730    0.3455    0.0000 C   0  0  0  0  0  0  0  0  0  0  0  0
   -4.6451    1.8401    0.0000 O   0  0  0  0  0  0  0  0  0  0  0  0
   -6.1312   -0.2910    0.0000 O   0  0  0  0  0  0  0  0  0  0  0  0
  1  2  1  0
  2  3  2  0
  2  4  1  0
  4  5  1  1
  4  6  1  0
  6  7  1  0
  7  8  2  0
  8  9  1  0
  9 10  1  0
 10 11  2  0
  1 12  1  0
 12 13  1  0
 13 14  2  0
 13 15  1  0
 11  7  1  0
M  END
>  <rName>  (1900) 
His-Gly

>  <PQ_SYMBOL>  (1900) 
His-Gly

>  <FULL_NAME>  (1900) 
L-histidylglycine

>  <IUPAC_CONDENSED>  (1900) 
His-Gly

>  <IUPAC>  (1900) 
2-((1S)-1-amino-2-(1H-imidazol-4-yl)ethylcarbonylamino)acetic acid

>  <TYPE>  (1900) 
Backbone

>  <CLASS>  (1900) 
alpha

>  <ANALOG>  (1900) 
Gly

>  <MOL_WT>  (1900) 
212.209

>  <LOGP>  (1900) 
-1.5196999999999998

>  <TPSA>  (1900) 
121.10000000000001

>  <POPULARITY>  (1900) 
12.0

>  <PROTECTED>  (1900) 
TRUE

>  <SMILES>  (1900) 
N(C(=O)[C@@H](N)Cc1(c[nH]cn1))CC(=O)O

>  <INCHIKEY>  (1900) 
LYCVKHSJGDMDLM-LURJTMIESA-N

$$$$
His-NH2
     RDKit          2D

 11 11  0  0  0  0  0  0  0  0999 V2000
   -0.9461    1.6947    0.0000 N   0  0  0  0  0  0  0  0  0  0  0  0
   -1.3100    0.2395    0.0000 C   0  0  0  0  0  0  0  0  0  0  0  0
   -2.7522   -0.1729    0.0000 C   0  0  0  0  0  0  0  0  0  0  0  0
   -3.1161   -1.6281    0.0000 O   0  0  0  0  0  0  0  0  0  0  0  0
   -3.8304    0.8698    0.0000 N   0  0  0  0  0  0  0  0  0  0  0  0
   -0.2317   -0.8032    0.0000 C   0  0  0  0  0  0  0  0  0  0  0  0
    1.2105   -0.3908    0.0000 C   0  0  0  0  0  0  0  0  0  0  0  0
    2.3919   -1.3151    0.0000 C   0  0  0  0  0  0  0  0  0  0  0  0
    3.6360   -0.4772    0.0000 N   0  0  0  0  0  0  0  0  0  0  0  0
    3.2236    0.9650    0.0000 C   0  0  0  0  0  0  0  0  0  0  0  0
    1.7245    1.0184    0.0000 N   0  0  0  0  0  0  0  0  0  0  0  0
  2  1  1  1
  2  3  1  0
  3  4  2  0
  3  5  1  0
  2  6  1  0
  6  7  1  0
  7  8  2  0
  8  9  1  0
  9 10  1  0
 10 11  2  0
 11  7  1  0
M  END
>  <rName>  (1901) 
His-NH2

>  <PQ_SYMBOL>  (1901) 
His-NH2

>  <FULL_NAME>  (1901) 
L-HISTIDINE AMIDE

>  <IUPAC_CONDENSED>  (1901) 
His-NH2

>  <IUPAC>  (1901) 
(2S)-2-amino-3-(1H-imidazol-4-yl)propanamide

>  <TYPE>  (1901) 
C-term cap

>  <CLASS>  (1901) 
c_cap

>  <ANALOG>  (1901) 
X

>  <MOL_WT>  (1901) 
154.173

>  <LOGP>  (1901) 
-1.2351999999999999

>  <TPSA>  (1901) 
97.79

>  <POPULARITY>  (1901) 
15.1

>  <PROTECTED>  (1901) 
FALSE

>  <SMILES>  (1901) 
N[C@H](C(=O)N)Cc1c[nH]cn1

>  <INCHIKEY>  (1901) 
UMMQVDUMUMBTAV-YFKPBYRVSA-N

$$$$
His-OBn
     RDKit          2D

 18 19  0  0  0  0  0  0  0  0999 V2000
   -1.5514    1.2620    0.0000 N   0  0  0  0  0  0  0  0  0  0  0  0
   -1.5730   -0.2378    0.0000 C   0  0  0  0  0  0  0  0  0  0  0  0
   -2.8828   -0.9690    0.0000 C   0  0  0  0  0  0  0  0  0  0  0  0
   -4.1708   -0.2003    0.0000 C   0  0  0  0  0  0  0  0  0  0  0  0
   -5.5498   -0.7905    0.0000 C   0  0  0  0  0  0  0  0  0  0  0  0
   -6.5373    0.3386    0.0000 N   0  0  0  0  0  0  0  0  0  0  0  0
   -5.7686    1.6266    0.0000 C   0  0  0  0  0  0  0  0  0  0  0  0
   -4.3061    1.2936    0.0000 N   0  0  0  0  0  0  0  0  0  0  0  0
   -0.2850   -1.0065    0.0000 C   0  0  0  0  0  0  0  0  0  0  0  0
   -0.3067   -2.5064    0.0000 O   0  0  0  0  0  0  0  0  0  0  0  0
    1.0248   -0.2754    0.0000 O   0  0  0  0  0  0  0  0  0  0  0  0
    2.3128   -1.0441    0.0000 C   0  0  0  0  0  0  0  0  0  0  0  0
    3.6226   -0.3129    0.0000 C   0  0  0  0  0  0  0  0  0  0  0  0
    4.9106   -1.0816    0.0000 C   0  0  0  0  0  0  0  0  0  0  0  0
    6.2204   -0.3505    0.0000 C   0  0  0  0  0  0  0  0  0  0  0  0
    6.2421    1.1494    0.0000 C   0  0  0  0  0  0  0  0  0  0  0  0
    4.9540    1.9180    0.0000 C   0  0  0  0  0  0  0  0  0  0  0  0
    3.6443    1.1869    0.0000 C   0  0  0  0  0  0  0  0  0  0  0  0
  2  1  1  6
  2  3  1  0
  3  4  1  0
  4  5  2  0
  5  6  1  0
  6  7  1  0
  7  8  2  0
  2  9  1  0
  9 10  2  0
  9 11  1  0
 11 12  1  0
 12 13  1  0
 13 14  2  0
 14 15  1  0
 15 16  2  0
 16 17  1  0
 17 18  2  0
 18 13  1  0
  8  4  1  0
M  END
>  <rName>  (1902) 
His-OBn

>  <PQ_SYMBOL>  (1902) 
His-OBn

>  <FULL_NAME>  (1902) 
Histidine benzyl ester

>  <IUPAC_CONDENSED>  (1902) 
His-OBn

>  <IUPAC>  (1902) 
benzyl (2S)-2-amino-3-(1H-imidazol-4-yl)propanoate

>  <TYPE>  (1902) 
C-term cap

>  <CLASS>  (1902) 
c_cap

>  <ANALOG>  (1902) 
X

>  <MOL_WT>  (1902) 
245.28199999999998

>  <LOGP>  (1902) 
1.0228999999999993

>  <TPSA>  (1902) 
81.00000000000001

>  <POPULARITY>  (1902) 
5.7

>  <PROTECTED>  (1902) 
TRUE

>  <SMILES>  (1902) 
N[C@@H](Cc2(c[nH]cn2))C(=O)OCc1ccccc1

>  <INCHIKEY>  (1902) 
AXIQMEOYYYWDKF-LBPRGKRZSA-N

$$$$
His-OEt
     RDKit          2D

 13 13  0  0  0  0  0  0  0  0999 V2000
   -0.1895    1.5333    0.0000 N   0  0  0  0  0  0  0  0  0  0  0  0
   -0.4221    0.0515    0.0000 C   0  0  0  0  0  0  0  0  0  0  0  0
   -1.8218   -0.4879    0.0000 C   0  0  0  0  0  0  0  0  0  0  0  0
   -2.0545   -1.9698    0.0000 O   0  0  0  0  0  0  0  0  0  0  0  0
   -2.9888    0.4545    0.0000 O   0  0  0  0  0  0  0  0  0  0  0  0
   -4.3884   -0.0849    0.0000 C   0  0  0  0  0  0  0  0  0  0  0  0
   -5.5554    0.8575    0.0000 C   0  0  0  0  0  0  0  0  0  0  0  0
    0.7448   -0.8909    0.0000 C   0  0  0  0  0  0  0  0  0  0  0  0
    2.1445   -0.3515    0.0000 C   0  0  0  0  0  0  0  0  0  0  0  0
    3.4036   -1.1668    0.0000 C   0  0  0  0  0  0  0  0  0  0  0  0
    4.5680   -0.2213    0.0000 N   0  0  0  0  0  0  0  0  0  0  0  0
    4.0286    1.1784    0.0000 C   0  0  0  0  0  0  0  0  0  0  0  0
    2.5308    1.0979    0.0000 N   0  0  0  0  0  0  0  0  0  0  0  0
  2  1  1  1
  2  3  1  0
  3  4  2  0
  3  5  1  0
  5  6  1  0
  6  7  1  0
  2  8  1  0
  8  9  1  0
  9 10  2  0
 10 11  1  0
 11 12  1  0
 12 13  2  0
 13  9  1  0
M  END
>  <rName>  (1903) 
His-OEt

>  <PQ_SYMBOL>  (1903) 
His-OEt

>  <FULL_NAME>  (1903) 
ethyl (2S)-2-amino-3-(1H-imidazol-5-yl)propanoate

>  <IUPAC_CONDENSED>  (1903) 
His-OEt

>  <IUPAC>  (1903) 
ethyl (2S)-2-amino-3-(1H-imidazol-4-yl)propanoate

>  <TYPE>  (1903) 
C-term cap

>  <CLASS>  (1903) 
c_cap

>  <ANALOG>  (1903) 
X

>  <MOL_WT>  (1903) 
183.21100000000004

>  <LOGP>  (1903) 
-0.15740000000000037

>  <TPSA>  (1903) 
81.00000000000001

>  <POPULARITY>  (1903) 
6.7

>  <PROTECTED>  (1903) 
TRUE

>  <SMILES>  (1903) 
N[C@H](C(=O)OCC)Cc1c[nH]cn1

>  <INCHIKEY>  (1903) 
ACHWEOLUTJAHLV-ZETCQYMHSA-N

$$$$
His-OMe
     RDKit          2D

 12 12  0  0  0  0  0  0  0  0999 V2000
   -0.5508    1.6424    0.0000 N   0  0  0  0  0  0  0  0  0  0  0  0
   -0.8757    0.1780    0.0000 C   0  0  0  0  0  0  0  0  0  0  0  0
   -2.3063   -0.2728    0.0000 C   0  0  0  0  0  0  0  0  0  0  0  0
   -2.6312   -1.7372    0.0000 O   0  0  0  0  0  0  0  0  0  0  0  0
   -3.4121    0.7407    0.0000 O   0  0  0  0  0  0  0  0  0  0  0  0
   -4.8427    0.2899    0.0000 C   0  0  0  0  0  0  0  0  0  0  0  0
    0.2301   -0.8355    0.0000 C   0  0  0  0  0  0  0  0  0  0  0  0
    1.6607   -0.3846    0.0000 C   0  0  0  0  0  0  0  0  0  0  0  0
    2.8664   -1.2770    0.0000 C   0  0  0  0  0  0  0  0  0  0  0  0
    4.0877   -0.4062    0.0000 N   0  0  0  0  0  0  0  0  0  0  0  0
    3.6368    1.0245    0.0000 C   0  0  0  0  0  0  0  0  0  0  0  0
    2.1369    1.0378    0.0000 N   0  0  0  0  0  0  0  0  0  0  0  0
  2  1  1  1
  2  3  1  0
  3  4  2  0
  3  5  1  0
  5  6  1  0
  2  7  1  0
  7  8  1  0
  8  9  2  0
  9 10  1  0
 10 11  1  0
 11 12  2  0
 12  8  1  0
M  END
>  <rName>  (1904) 
His-OMe

>  <PQ_SYMBOL>  (1904) 
His-OMe

>  <FULL_NAME>  (1904) 
Histidine methyl ester

>  <IUPAC_CONDENSED>  (1904) 
His-OMe

>  <IUPAC>  (1904) 
methyl (2S)-2-amino-3-(1H-imidazol-4-yl)propanoate

>  <TYPE>  (1904) 
C-term cap

>  <CLASS>  (1904) 
c_cap

>  <ANALOG>  (1904) 
X

>  <MOL_WT>  (1904) 
169.184

>  <LOGP>  (1904) 
-0.5475000000000003

>  <TPSA>  (1904) 
81.00000000000001

>  <POPULARITY>  (1904) 
18.9

>  <PROTECTED>  (1904) 
TRUE

>  <SMILES>  (1904) 
N[C@H](C(=O)OC)Cc1c[nH]cn1

>  <INCHIKEY>  (1904) 
BXRMEWOQUXOLDH-LURJTMIESA-N

$$$$
His-al
     RDKit          2D

 10 10  0  0  0  0  0  0  0  0999 V2000
   -1.4194    1.3834    0.0000 N   0  0  0  0  0  0  0  0  0  0  0  0
   -1.6201   -0.1031    0.0000 C   0  0  0  0  0  0  0  0  0  0  0  0
   -3.0078   -0.6725    0.0000 C   0  0  0  0  0  0  0  0  0  0  0  0
   -4.1948    0.2446    0.0000 O   0  0  0  0  0  0  0  0  0  0  0  0
   -0.4331   -1.0202    0.0000 C   0  0  0  0  0  0  0  0  0  0  0  0
    0.9546   -0.4508    0.0000 C   0  0  0  0  0  0  0  0  0  0  0  0
    2.2309   -1.2388    0.0000 C   0  0  0  0  0  0  0  0  0  0  0  0
    3.3748   -0.2685    0.0000 N   0  0  0  0  0  0  0  0  0  0  0  0
    2.8054    1.1193    0.0000 C   0  0  0  0  0  0  0  0  0  0  0  0
    1.3096    1.0066    0.0000 N   0  0  0  0  0  0  0  0  0  0  0  0
  2  1  1  1
  2  3  1  0
  3  4  2  0
  2  5  1  0
  5  6  1  0
  6  7  2  0
  7  8  1  0
  8  9  1  0
  9 10  2  0
 10  6  1  0
M  END
>  <rName>  (1905) 
His-al

>  <PQ_SYMBOL>  (1905) 
His-al

>  <FULL_NAME>  (1905) 
(2S)-2-amino-3-(1H-imidazol-5-yl)propanal

>  <IUPAC_CONDENSED>  (1905) 
His-al

>  <IUPAC>  (1905) 
(2S)-2-amino-3-(1H-imidazol-4-yl)propanal

>  <TYPE>  (1905) 
C-term cap

>  <CLASS>  (1905) 
c_cap

>  <ANALOG>  (1905) 
X

>  <MOL_WT>  (1905) 
139.158

>  <LOGP>  (1905) 
-0.5216000000000007

>  <TPSA>  (1905) 
71.77000000000001

>  <POPULARITY>  (1905) 
27.0

>  <PROTECTED>  (1905) 
TRUE

>  <SMILES>  (1905) 
N[C@H](C=O)Cc1c[nH]cn1

>  <INCHIKEY>  (1905) 
VYOIELONWKIZJS-YFKPBYRVSA-N

$$$$
His-ol
     RDKit          2D

 10 10  0  0  0  0  0  0  0  0999 V2000
   -1.4194    1.3834    0.0000 N   0  0  0  0  0  0  0  0  0  0  0  0
   -1.6201   -0.1031    0.0000 C   0  0  0  0  0  0  0  0  0  0  0  0
   -3.0078   -0.6725    0.0000 C   0  0  0  0  0  0  0  0  0  0  0  0
   -4.1948    0.2446    0.0000 O   0  0  0  0  0  0  0  0  0  0  0  0
   -0.4331   -1.0202    0.0000 C   0  0  0  0  0  0  0  0  0  0  0  0
    0.9546   -0.4508    0.0000 C   0  0  0  0  0  0  0  0  0  0  0  0
    2.2309   -1.2388    0.0000 C   0  0  0  0  0  0  0  0  0  0  0  0
    3.3748   -0.2685    0.0000 N   0  0  0  0  0  0  0  0  0  0  0  0
    2.8054    1.1193    0.0000 C   0  0  0  0  0  0  0  0  0  0  0  0
    1.3096    1.0066    0.0000 N   0  0  0  0  0  0  0  0  0  0  0  0
  2  1  1  1
  2  3  1  0
  3  4  1  0
  2  5  1  0
  5  6  1  0
  6  7  2  0
  7  8  1  0
  8  9  1  0
  9 10  2  0
 10  6  1  0
M  END
>  <rName>  (1906) 
His-ol

>  <PQ_SYMBOL>  (1906) 
His-ol

>  <FULL_NAME>  (1906) 
L-histidinol

>  <IUPAC_CONDENSED>  (1906) 
His-ol

>  <IUPAC>  (1906) 
(2S)-2-amino-3-(1H-imidazol-4-yl)propan-1-ol

>  <TYPE>  (1906) 
C-term cap

>  <CLASS>  (1906) 
c_cap

>  <ANALOG>  (1906) 
X

>  <MOL_WT>  (1906) 
141.17399999999998

>  <LOGP>  (1906) 
-0.7282000000000004

>  <TPSA>  (1906) 
74.93

>  <POPULARITY>  (1906) 
16.1

>  <PROTECTED>  (1906) 
FALSE

>  <SMILES>  (1906) 
N[C@H](CO)Cc1c[nH]cn1

>  <INCHIKEY>  (1906) 
ZQISRDCJNBUVMM-YFKPBYRVSA-N

$$$$
His1-tetrazol-5-yl-al
     RDKit          2D

 15 16  0  0  0  0  0  0  0  0999 V2000
   -3.6056    1.3111    0.0000 N   0  0  0  0  0  0  0  0  0  0  0  0
   -3.6450   -0.1884    0.0000 C   0  0  0  0  0  0  0  0  0  0  0  0
   -4.9633   -0.9040    0.0000 C   0  0  0  0  0  0  0  0  0  0  0  0
   -6.2422   -0.1201    0.0000 O   0  0  0  0  0  0  0  0  0  0  0  0
   -2.3661   -0.9723    0.0000 C   0  0  0  0  0  0  0  0  0  0  0  0
   -1.0478   -0.2567    0.0000 C   0  0  0  0  0  0  0  0  0  0  0  0
    0.3060   -0.9026    0.0000 C   0  0  0  0  0  0  0  0  0  0  0  0
    1.3386    0.1853    0.0000 N   0  0  0  0  0  0  0  0  0  0  0  0
    0.6230    1.5036    0.0000 C   0  0  0  0  0  0  0  0  0  0  0  0
   -0.8519    1.2305    0.0000 N   0  0  0  0  0  0  0  0  0  0  0  0
    2.8258   -0.0106    0.0000 C   0  0  0  0  0  0  0  0  0  0  0  0
    3.8584    1.0773    0.0000 N   0  0  0  0  0  0  0  0  0  0  0  0
    5.2122    0.4314    0.0000 N   0  0  0  0  0  0  0  0  0  0  0  0
    5.0163   -1.0557    0.0000 N   0  0  0  0  0  0  0  0  0  0  0  0
    3.5414   -1.3289    0.0000 N   0  0  0  0  0  0  0  0  0  0  0  0
  2  1  1  1
  2  3  1  0
  3  4  2  0
  2  5  1  0
  5  6  1  0
  6  7  2  0
  7  8  1  0
  8  9  1  0
  9 10  2  0
  8 11  1  0
 11 12  2  0
 12 13  1  0
 13 14  1  0
 14 15  2  0
 15 11  1  0
 10  6  1  0
M  END
>  <rName>  (1907) 
His1-tetrazol-5-yl-al

>  <PQ_SYMBOL>  (1907) 
His1-tetrazol-5-yl-al

>  <FULL_NAME>  (1907) 
(2S)-2-AMINO-3-[1-(1H-TETRAAZOL-5-YL)-1H-IMIDAZOL-4-YL]PROPANAL

>  <IUPAC_CONDENSED>  (1907) 
His(1-tetrazol-5-yl)-al

>  <IUPAC>  (1907) 
(2S)-2-amino-3-(1-(2H-tetrazol-5-yl)-1H-imidazol-4-yl)propanal

>  <TYPE>  (1907) 
C-term cap

>  <CLASS>  (1907) 
c_cap

>  <ANALOG>  (1907) 
X

>  <MOL_WT>  (1907) 
207.197

>  <LOGP>  (1907) 
-1.5459

>  <TPSA>  (1907) 
115.37

>  <POPULARITY>  (1907) 
3.3

>  <PROTECTED>  (1907) 
FALSE

>  <SMILES>  (1907) 
N[C@H](C=O)Cc2cn(cn2)c1n[nH]nn1

>  <INCHIKEY>  (1907) 
OOFNCFXOGMDAEN-YFKPBYRVSA-N

$$$$
His_13didecyl
     RDKit          2D

 31 31  0  0  0  0  0  0  0  0999 V2000
   -2.8033   -2.9551    0.0000 N   0  0  0  0  0  0  0  0  0  0  0  0
   -1.7335   -4.0065    0.0000 C   0  0  0  0  0  0  0  0  0  0  0  0
   -0.2880   -3.6057    0.0000 C   0  0  0  0  0  0  0  0  0  0  0  0
    0.0876   -2.1535    0.0000 C   0  0  0  0  0  0  0  0  0  0  0  0
    1.4833   -1.6039    0.0000 C   0  0  0  0  0  0  0  0  0  0  0  0
    1.3918   -0.1067    0.0000 N   0  0  0  0  0  0  0  0  0  0  0  0
   -0.0604    0.2690    0.0000 C   0  0  0  0  0  0  0  0  0  0  0  0
   -0.8664   -0.9960    0.0000 N   0  0  0  0  0  0  0  0  0  0  0  0
   -2.3636   -1.0875    0.0000 C   0  0  0  0  0  0  0  0  0  0  0  0
   -3.1914    0.1634    0.0000 C   0  0  0  0  0  0  0  0  0  0  0  0
   -4.6886    0.0719    0.0000 C   0  0  0  0  0  0  0  0  0  0  0  0
   -5.5165    1.3228    0.0000 C   0  0  0  0  0  0  0  0  0  0  0  0
   -7.0137    1.2313    0.0000 C   0  0  0  0  0  0  0  0  0  0  0  0
   -7.8415    2.4822    0.0000 C   0  0  0  0  0  0  0  0  0  0  0  0
   -9.3387    2.3907    0.0000 C   0  0  0  0  0  0  0  0  0  0  0  0
  -10.1665    3.6416    0.0000 C   0  0  0  0  0  0  0  0  0  0  0  0
  -11.6637    3.5501    0.0000 C   0  0  0  0  0  0  0  0  0  0  0  0
  -12.4915    4.8010    0.0000 C   0  0  0  0  0  0  0  0  0  0  0  0
    2.5493    0.8474    0.0000 C   0  0  0  0  0  0  0  0  0  0  0  0
    3.9543    0.3220    0.0000 C   0  0  0  0  0  0  0  0  0  0  0  0
    5.1118    1.2760    0.0000 C   0  0  0  0  0  0  0  0  0  0  0  0
    6.5168    0.7506    0.0000 C   0  0  0  0  0  0  0  0  0  0  0  0
    7.6743    1.7046    0.0000 C   0  0  0  0  0  0  0  0  0  0  0  0
    9.0793    1.1792    0.0000 C   0  0  0  0  0  0  0  0  0  0  0  0
   10.2368    2.1333    0.0000 C   0  0  0  0  0  0  0  0  0  0  0  0
   11.6417    1.6078    0.0000 C   0  0  0  0  0  0  0  0  0  0  0  0
   12.7992    2.5619    0.0000 C   0  0  0  0  0  0  0  0  0  0  0  0
   14.2042    2.0365    0.0000 C   0  0  0  0  0  0  0  0  0  0  0  0
   -2.1092   -5.4587    0.0000 C   0  0  0  0  0  0  0  0  0  0  0  0
   -1.0394   -6.5101    0.0000 O   0  0  0  0  0  0  0  0  0  0  0  0
   -3.5546   -5.8595    0.0000 O   0  0  0  0  0  0  0  0  0  0  0  0
  2  1  1  1
  2  3  1  0
  3  4  1  0
  4  5  2  0
  5  6  1  0
  6  7  2  0
  7  8  1  0
  8  9  1  0
  9 10  1  0
 10 11  1  0
 11 12  1  0
 12 13  1  0
 13 14  1  0
 14 15  1  0
 15 16  1  0
 16 17  1  0
 17 18  1  0
  6 19  1  0
 19 20  1  0
 20 21  1  0
 21 22  1  0
 22 23  1  0
 23 24  1  0
 24 25  1  0
 25 26  1  0
 26 27  1  0
 27 28  1  0
  2 29  1  0
 29 30  2  0
 29 31  1  0
  8  4  1  0
M  CHG  1   6   1
M  END
>  <rName>  (1908) 
His_13didecyl

>  <PQ_SYMBOL>  (1908) 
His_13didecyl

>  <FULL_NAME>  (1908) 
His(1,3-didecyl)

>  <IUPAC_CONDENSED>  (1908) 
His(1,3-didecyl)

>  <IUPAC>  (1908) 
(2S)-2-amino-3-(1,3-didecyl-imidazol-3-ium-5-yl)propanoic acid

>  <TYPE>  (1908) 
Backbone

>  <CLASS>  (1908) 
alpha

>  <ANALOG>  (1908) 
His

>  <MOL_WT>  (1908) 
436.7050000000003

>  <LOGP>  (1908) 
6.011400000000005

>  <TPSA>  (1908) 
72.13

>  <POPULARITY>  (1908) 
2.2

>  <PROTECTED>  (1908) 
TRUE

>  <SMILES>  (1908) 
N[C@@H](Cc1(c[n+](cn1CCCCCCCCCC)CCCCCCCCCC))C(=O)O

>  <INCHIKEY>  (1908) 
LLRHDERCLHQVRO-VWLOTQADSA-O

$$$$
His_1Bn
     RDKit          2D

 18 19  0  0  0  0  0  0  0  0999 V2000
   -3.5350    1.7533    0.0000 N   0  0  0  0  0  0  0  0  0  0  0  0
   -4.0246    0.3354    0.0000 C   0  0  0  0  0  0  0  0  0  0  0  0
   -3.0415   -0.7975    0.0000 C   0  0  0  0  0  0  0  0  0  0  0  0
   -1.5688   -0.5126    0.0000 C   0  0  0  0  0  0  0  0  0  0  0  0
   -0.4726   -1.5365    0.0000 C   0  0  0  0  0  0  0  0  0  0  0  0
    0.8399   -0.8104    0.0000 N   0  0  0  0  0  0  0  0  0  0  0  0
    0.5550    0.6623    0.0000 C   0  0  0  0  0  0  0  0  0  0  0  0
   -0.9337    0.8464    0.0000 N   0  0  0  0  0  0  0  0  0  0  0  0
    2.1989   -1.4455    0.0000 C   0  0  0  0  0  0  0  0  0  0  0  0
    3.4283   -0.5862    0.0000 C   0  0  0  0  0  0  0  0  0  0  0  0
    4.7872   -1.2213    0.0000 C   0  0  0  0  0  0  0  0  0  0  0  0
    6.0167   -0.3620    0.0000 C   0  0  0  0  0  0  0  0  0  0  0  0
    5.8873    1.1324    0.0000 C   0  0  0  0  0  0  0  0  0  0  0  0
    4.5283    1.7675    0.0000 C   0  0  0  0  0  0  0  0  0  0  0  0
    3.2989    0.9082    0.0000 C   0  0  0  0  0  0  0  0  0  0  0  0
   -5.4973    0.0504    0.0000 C   0  0  0  0  0  0  0  0  0  0  0  0
   -5.9868   -1.3674    0.0000 O   0  0  0  0  0  0  0  0  0  0  0  0
   -6.4804    1.1834    0.0000 O   0  0  0  0  0  0  0  0  0  0  0  0
  2  1  1  1
  2  3  1  0
  3  4  1  0
  4  5  2  0
  5  6  1  0
  6  7  1  0
  7  8  2  0
  6  9  1  0
  9 10  1  0
 10 11  2  0
 11 12  1  0
 12 13  2  0
 13 14  1  0
 14 15  2  0
  2 16  1  0
 16 17  2  0
 16 18  1  0
  8  4  1  0
 15 10  1  0
M  END
>  <rName>  (1909) 
His_1Bn

>  <PQ_SYMBOL>  (1909) 
His_1Bn

>  <FULL_NAME>  (1909) 
(2S)-2-amino-3-(1-benzylimidazol-4-yl)propanoic acid

>  <IUPAC_CONDENSED>  (1909) 
His(1-Bn)

>  <IUPAC>  (1909) 
(2S)-2-amino-3-(1-benzyl-1H-imidazol-4-yl)propanoic acid

>  <TYPE>  (1909) 
Backbone

>  <CLASS>  (1909) 
alpha

>  <ANALOG>  (1909) 
His

>  <MOL_WT>  (1909) 
245.282

>  <LOGP>  (1909) 
0.8857999999999997

>  <TPSA>  (1909) 
81.14

>  <POPULARITY>  (1909) 
12.1

>  <PROTECTED>  (1909) 
TRUE

>  <SMILES>  (1909) 
N[C@@H](Cc1(cn(cn1)Cc2(ccccc2)))C(=O)O

>  <INCHIKEY>  (1909) 
NMXSWQMJOZUQKY-LBPRGKRZSA-N

$$$$
His_1Me
     RDKit          2D

 12 12  0  0  0  0  0  0  0  0999 V2000
   -1.4659    1.6962    0.0000 N   0  0  0  0  0  0  0  0  0  0  0  0
   -1.7460    0.2226    0.0000 C   0  0  0  0  0  0  0  0  0  0  0  0
   -0.6098   -0.7568    0.0000 C   0  0  0  0  0  0  0  0  0  0  0  0
    0.8064   -0.2625    0.0000 C   0  0  0  0  0  0  0  0  0  0  0  0
    2.0387   -1.1177    0.0000 C   0  0  0  0  0  0  0  0  0  0  0  0
    3.2329   -0.2100    0.0000 N   0  0  0  0  0  0  0  0  0  0  0  0
    4.6692   -0.6425    0.0000 C   0  0  0  0  0  0  0  0  0  0  0  0
    2.7386    1.2062    0.0000 C   0  0  0  0  0  0  0  0  0  0  0  0
    1.2389    1.1738    0.0000 N   0  0  0  0  0  0  0  0  0  0  0  0
   -3.1622   -0.2717    0.0000 C   0  0  0  0  0  0  0  0  0  0  0  0
   -3.4423   -1.7453    0.0000 O   0  0  0  0  0  0  0  0  0  0  0  0
   -4.2984    0.7077    0.0000 O   0  0  0  0  0  0  0  0  0  0  0  0
  2  1  1  1
  2  3  1  0
  3  4  1  0
  4  5  2  0
  5  6  1  0
  6  7  1  0
  6  8  1  0
  8  9  2  0
  2 10  1  0
 10 11  2  0
 10 12  1  0
  9  4  1  0
M  END
>  <rName>  (1910) 
His_1Me

>  <PQ_SYMBOL>  (1910) 
His_1Me

>  <FULL_NAME>  (1910) 
1-Methyl-L-Histidine

>  <IUPAC_CONDENSED>  (1910) 
His(1-Me)

>  <IUPAC>  (1910) 
(2S)-2-amino-3-(1-methyl-1H-imidazol-4-yl)propanoic acid

>  <TYPE>  (1910) 
Backbone

>  <CLASS>  (1910) 
alpha

>  <ANALOG>  (1910) 
His

>  <MOL_WT>  (1910) 
169.184

>  <LOGP>  (1910) 
-0.6255000000000002

>  <TPSA>  (1910) 
81.14

>  <POPULARITY>  (1910) 
41.2

>  <PROTECTED>  (1910) 
TRUE

>  <SMILES>  (1910) 
N[C@@H](Cc1(cn(C)cn1))C(=O)O

>  <INCHIKEY>  (1910) 
BRMWTNUJHUMWMS-LURJTMIESA-N

$$$$
His_1Ph
     RDKit          2D

 17 18  0  0  0  0  0  0  0  0999 V2000
   -3.5579    1.6404    0.0000 N   0  0  0  0  0  0  0  0  0  0  0  0
   -3.6670    0.1444    0.0000 C   0  0  0  0  0  0  0  0  0  0  0  0
   -2.4259   -0.6981    0.0000 C   0  0  0  0  0  0  0  0  0  0  0  0
   -1.0758   -0.0446    0.0000 C   0  0  0  0  0  0  0  0  0  0  0  0
    0.2465   -0.7527    0.0000 C   0  0  0  0  0  0  0  0  0  0  0  0
    1.3286    0.2860    0.0000 N   0  0  0  0  0  0  0  0  0  0  0  0
    0.6751    1.6362    0.0000 C   0  0  0  0  0  0  0  0  0  0  0  0
   -0.8109    1.4318    0.0000 N   0  0  0  0  0  0  0  0  0  0  0  0
    2.8051    0.0211    0.0000 C   0  0  0  0  0  0  0  0  0  0  0  0
    3.3139   -1.3899    0.0000 C   0  0  0  0  0  0  0  0  0  0  0  0
    4.7903   -1.6548    0.0000 C   0  0  0  0  0  0  0  0  0  0  0  0
    5.7579   -0.5086    0.0000 C   0  0  0  0  0  0  0  0  0  0  0  0
    5.2491    0.9025    0.0000 C   0  0  0  0  0  0  0  0  0  0  0  0
    3.7727    1.1673    0.0000 C   0  0  0  0  0  0  0  0  0  0  0  0
   -5.0171   -0.5092    0.0000 C   0  0  0  0  0  0  0  0  0  0  0  0
   -5.1262   -2.0052    0.0000 O   0  0  0  0  0  0  0  0  0  0  0  0
   -6.2582    0.3333    0.0000 O   0  0  0  0  0  0  0  0  0  0  0  0
  2  1  1  1
  2  3  1  0
  3  4  1  0
  4  5  2  0
  5  6  1  0
  6  7  1  0
  7  8  2  0
  6  9  1  0
  9 10  2  0
 10 11  1  0
 11 12  2  0
 12 13  1  0
 13 14  2  0
  2 15  1  0
 15 16  2  0
 15 17  1  0
  8  4  1  0
 14  9  1  0
M  END
>  <rName>  (1911) 
His_1Ph

>  <PQ_SYMBOL>  (1911) 
His_1Ph

>  <FULL_NAME>  (1911) 
(2S)-2-amino-3-(1-phenylimidazol-4-yl)propanoic acid

>  <IUPAC_CONDENSED>  (1911) 
His(1-Ph)

>  <IUPAC>  (1911) 
(2S)-2-amino-3-(1-phenylimidazol-4-yl)propanoic acid

>  <TYPE>  (1911) 
Backbone

>  <CLASS>  (1911) 
alpha

>  <ANALOG>  (1911) 
His

>  <MOL_WT>  (1911) 
231.25500000000002

>  <LOGP>  (1911) 
0.8266999999999998

>  <TPSA>  (1911) 
81.14

>  <POPULARITY>  (1911) 
2.2

>  <PROTECTED>  (1911) 
TRUE

>  <SMILES>  (1911) 
N[C@@H](Cc1(cn(cn1)c2(ccccc2)))C(=O)O

>  <INCHIKEY>  (1911) 
DLCSYAFXMKRAMK-NSHDSACASA-N

$$$$
His_1Ph_24diNO2
     RDKit          2D

 23 24  0  0  0  0  0  0  0  0999 V2000
   -4.9672    1.3627    0.0000 N   0  0  0  0  0  0  0  0  0  0  0  0
   -5.0786   -0.1331    0.0000 C   0  0  0  0  0  0  0  0  0  0  0  0
   -3.8388   -0.9775    0.0000 C   0  0  0  0  0  0  0  0  0  0  0  0
   -2.4877   -0.3261    0.0000 C   0  0  0  0  0  0  0  0  0  0  0  0
   -1.1665   -1.0362    0.0000 C   0  0  0  0  0  0  0  0  0  0  0  0
   -0.0828    0.0009    0.0000 N   0  0  0  0  0  0  0  0  0  0  0  0
   -0.7342    1.3520    0.0000 C   0  0  0  0  0  0  0  0  0  0  0  0
   -2.2206    1.1500    0.0000 N   0  0  0  0  0  0  0  0  0  0  0  0
    1.3933   -0.2662    0.0000 C   0  0  0  0  0  0  0  0  0  0  0  0
    1.8999   -1.6781    0.0000 C   0  0  0  0  0  0  0  0  0  0  0  0
    3.3759   -1.9452    0.0000 C   0  0  0  0  0  0  0  0  0  0  0  0
    4.3453   -0.8005    0.0000 C   0  0  0  0  0  0  0  0  0  0  0  0
    3.8386    0.6113    0.0000 C   0  0  0  0  0  0  0  0  0  0  0  0
    2.3626    0.8785    0.0000 C   0  0  0  0  0  0  0  0  0  0  0  0
    1.8559    2.2903    0.0000 N   0  0  0  0  0  0  0  0  0  0  0  0
    0.3799    2.5574    0.0000 O   0  0  0  0  0  0  0  0  0  0  0  0
    2.8253    3.4350    0.0000 O   0  0  0  0  0  0  0  0  0  0  0  0
    5.8213   -1.0676    0.0000 N   0  0  0  0  0  0  0  0  0  0  0  0
    6.7907    0.0771    0.0000 O   0  0  0  0  0  0  0  0  0  0  0  0
    6.3280   -2.4795    0.0000 O   0  0  0  0  0  0  0  0  0  0  0  0
   -6.4297   -0.7846    0.0000 C   0  0  0  0  0  0  0  0  0  0  0  0
   -6.5411   -2.2805    0.0000 O   0  0  0  0  0  0  0  0  0  0  0  0
   -7.6695    0.0598    0.0000 O   0  0  0  0  0  0  0  0  0  0  0  0
  2  1  1  1
  2  3  1  0
  3  4  1  0
  4  5  2  0
  5  6  1  0
  6  7  1  0
  7  8  2  0
  6  9  1  0
  9 10  1  0
 10 11  2  0
 11 12  1  0
 12 13  2  0
 13 14  1  0
 14 15  1  0
 15 16  2  0
 15 17  1  0
 12 18  1  0
 18 19  2  0
 18 20  1  0
  2 21  1  0
 21 22  2  0
 21 23  1  0
  8  4  1  0
 14  9  2  0
M  CHG  4  15   1  17  -1  18   1  20  -1
M  END
>  <rName>  (1912) 
His_1Ph_24diNO2

>  <PQ_SYMBOL>  (1912) 
His_1Ph_24diNO2

>  <FULL_NAME>  (1912) 
1-(2,4-Dinitrophenyl)-L-histidine

>  <IUPAC_CONDENSED>  (1912) 
His(1-Ph(2,4-diNO2))

>  <IUPAC>  (1912) 
(2S)-2-amino-3-[1-(2,4-dinitrophenyl)imidazol-4-yl]propanoic acid

>  <TYPE>  (1912) 
Backbone

>  <CLASS>  (1912) 
alpha

>  <ANALOG>  (1912) 
His

>  <MOL_WT>  (1912) 
321.2490000000001

>  <LOGP>  (1912) 
0.6430999999999996

>  <TPSA>  (1912) 
167.42

>  <POPULARITY>  (1912) 
2.2

>  <PROTECTED>  (1912) 
TRUE

>  <SMILES>  (1912) 
N[C@@H](Cc1(cn(cn1)c2(ccc(cc2[N+](=O)[O-])[N+](=O)[O-])))C(=O)O

>  <INCHIKEY>  (1912) 
IEPQCXGWBMQBJZ-VIFPVBQESA-N

$$$$
His_1SO2NH2
     RDKit          2D

 17 17  0  0  0  0  0  0  0  0999 V2000
   -3.3587    1.6617    0.0000 N   0  0  0  0  0  0  0  0  0  0  0  0
   -3.4911    0.1676    0.0000 C   0  0  0  0  0  0  0  0  0  0  0  0
   -2.2633   -0.6941    0.0000 C   0  0  0  0  0  0  0  0  0  0  0  0
   -0.9032   -0.0617    0.0000 C   0  0  0  0  0  0  0  0  0  0  0  0
    0.4080   -0.7903    0.0000 C   0  0  0  0  0  0  0  0  0  0  0  0
    1.5061    0.2315    0.0000 N   0  0  0  0  0  0  0  0  0  0  0  0
    0.8737    1.5916    0.0000 C   0  0  0  0  0  0  0  0  0  0  0  0
   -0.6154    1.4104    0.0000 N   0  0  0  0  0  0  0  0  0  0  0  0
    2.9782   -0.0564    0.0000 S   0  0  0  0  0  0  0  0  0  0  0  0
    3.2661    1.4158    0.0000 O   0  0  0  0  0  0  0  0  0  0  0  0
    2.6904   -1.5285    0.0000 O   0  0  0  0  0  0  0  0  0  0  0  0
    4.4504   -0.3442    0.0000 N   0  0  0  0  0  0  0  0  0  0  0  0
    5.4357    0.7868    0.0000 C   0  0  0  0  0  0  0  0  0  0  0  0
    4.9372   -1.7630    0.0000 C   0  0  0  0  0  0  0  0  0  0  0  0
   -4.8513   -0.4649    0.0000 C   0  0  0  0  0  0  0  0  0  0  0  0
   -4.9836   -1.9590    0.0000 O   0  0  0  0  0  0  0  0  0  0  0  0
   -6.0791    0.3968    0.0000 O   0  0  0  0  0  0  0  0  0  0  0  0
  2  1  1  1
  2  3  1  0
  3  4  1  0
  4  5  2  0
  5  6  1  0
  6  7  1  0
  7  8  2  0
  6  9  1  0
  9 10  2  0
  9 11  2  0
  9 12  1  0
 12 13  1  0
 12 14  1  0
  2 15  1  0
 15 16  2  0
 15 17  1  0
  8  4  1  0
M  END
>  <rName>  (1913) 
His_1SO2NH2

>  <PQ_SYMBOL>  (1913) 
His_1SO2NH2

>  <FULL_NAME>  (1913) 
Nt-(N,N-dimethylsulfamoyl)-L-histidine

>  <IUPAC_CONDENSED>  (1913) 
His(1-SO2NH2)

>  <IUPAC>  (1913) 
(2S)-2-amino-3-(1-(dimethylsulfamoyl)-1H-imidazol-4-yl)propanoic acid

>  <TYPE>  (1913) 
Backbone

>  <CLASS>  (1913) 
alpha

>  <ANALOG>  (1913) 
His

>  <MOL_WT>  (1913) 
262.29099999999994

>  <LOGP>  (1913) 
-1.5079999999999978

>  <TPSA>  (1913) 
118.52

>  <POPULARITY>  (1913) 
2.9

>  <PROTECTED>  (1913) 
TRUE

>  <SMILES>  (1913) 
N[C@@H](Cc1(cn(cn1)S(=O)(=O)N(C)C))C(=O)O

>  <INCHIKEY>  (1913) 
PIJAOVMYMMZDIS-ZETCQYMHSA-N

$$$$
His_2Me
     RDKit          2D

 12 12  0  0  0  0  0  0  0  0999 V2000
   -1.1070    1.6556    0.0000 N   0  0  0  0  0  0  0  0  0  0  0  0
   -1.6374    0.2525    0.0000 C   0  0  0  0  0  0  0  0  0  0  0  0
   -0.6875   -0.9084    0.0000 C   0  0  0  0  0  0  0  0  0  0  0  0
    0.7928   -0.6662    0.0000 C   0  0  0  0  0  0  0  0  0  0  0  0
    1.8589   -1.7215    0.0000 C   0  0  0  0  0  0  0  0  0  0  0  0
    3.1919   -1.0337    0.0000 N   0  0  0  0  0  0  0  0  0  0  0  0
    2.9497    0.4466    0.0000 C   0  0  0  0  0  0  0  0  0  0  0  0
    4.0050    1.5127    0.0000 C   0  0  0  0  0  0  0  0  0  0  0  0
    1.4670    0.6737    0.0000 N   0  0  0  0  0  0  0  0  0  0  0  0
   -3.1177    0.0103    0.0000 C   0  0  0  0  0  0  0  0  0  0  0  0
   -3.6481   -1.3928    0.0000 O   0  0  0  0  0  0  0  0  0  0  0  0
   -4.0676    1.1712    0.0000 O   0  0  0  0  0  0  0  0  0  0  0  0
  2  1  1  1
  2  3  1  0
  3  4  1  0
  4  5  2  0
  5  6  1  0
  6  7  2  0
  7  8  1  0
  7  9  1  0
  2 10  1  0
 10 11  2  0
 10 12  1  0
  9  4  1  0
M  END
>  <rName>  (1914) 
His_2Me

>  <PQ_SYMBOL>  (1914) 
His_2Me

>  <FULL_NAME>  (1914) 
(2S)-2-amino-3-(2-methyl-1H-imidazol-5-yl)propanoic acid

>  <IUPAC_CONDENSED>  (1914) 
His(2-Me)

>  <IUPAC>  (1914) 
(2S)-2-amino-3-(2-methyl-1H-imidazol-5-yl)propanoic acid

>  <TYPE>  (1914) 
Backbone

>  <CLASS>  (1914) 
alpha

>  <ANALOG>  (1914) 
His

>  <MOL_WT>  (1914) 
169.184

>  <LOGP>  (1914) 
-0.32748000000000027

>  <TPSA>  (1914) 
92.0

>  <POPULARITY>  (1914) 
11.5

>  <PROTECTED>  (1914) 
TRUE

>  <SMILES>  (1914) 
N[C@@H](Cc1(cnc(C)[nH]1))C(=O)O

>  <INCHIKEY>  (1914) 
QNNKCRYTUGINFA-LURJTMIESA-N

$$$$
His_2OH
     RDKit          2D

 12 12  0  0  0  0  0  0  0  0999 V2000
   -1.1070    1.6556    0.0000 N   0  0  0  0  0  0  0  0  0  0  0  0
   -1.6374    0.2525    0.0000 C   0  0  0  0  0  0  0  0  0  0  0  0
   -0.6875   -0.9084    0.0000 C   0  0  0  0  0  0  0  0  0  0  0  0
    0.7928   -0.6662    0.0000 C   0  0  0  0  0  0  0  0  0  0  0  0
    1.8589   -1.7215    0.0000 C   0  0  0  0  0  0  0  0  0  0  0  0
    3.1919   -1.0337    0.0000 N   0  0  0  0  0  0  0  0  0  0  0  0
    2.9497    0.4466    0.0000 C   0  0  0  0  0  0  0  0  0  0  0  0
    4.0050    1.5127    0.0000 O   0  0  0  0  0  0  0  0  0  0  0  0
    1.4670    0.6737    0.0000 N   0  0  0  0  0  0  0  0  0  0  0  0
   -3.1177    0.0103    0.0000 C   0  0  0  0  0  0  0  0  0  0  0  0
   -3.6481   -1.3928    0.0000 O   0  0  0  0  0  0  0  0  0  0  0  0
   -4.0676    1.1712    0.0000 O   0  0  0  0  0  0  0  0  0  0  0  0
  2  1  1  1
  2  3  1  0
  3  4  1  0
  4  5  2  0
  5  6  1  0
  6  7  1  0
  7  8  1  0
  7  9  2  0
  2 10  1  0
 10 11  2  0
 10 12  1  0
  9  4  1  0
M  END
>  <rName>  (1915) 
His_2OH

>  <PQ_SYMBOL>  (1915) 
His_2OH

>  <FULL_NAME>  (1915) 
(2S)-2-amino-3-(2-hydroxy-1H-imidazol-4-yl)propanoic acid

>  <IUPAC_CONDENSED>  (1915) 
His(2-OH)

>  <IUPAC>  (1915) 
(2S)-2-amino-3-(2-hydroxy-1H-imidazol-4-yl)propanoic acid

>  <TYPE>  (1915) 
Backbone

>  <CLASS>  (1915) 
alpha

>  <ANALOG>  (1915) 
His

>  <MOL_WT>  (1915) 
171.15599999999998

>  <LOGP>  (1915) 
-0.9303000000000003

>  <TPSA>  (1915) 
112.23

>  <POPULARITY>  (1915) 
3.5

>  <PROTECTED>  (1915) 
TRUE

>  <SMILES>  (1915) 
N[C@@H](Cc1(c[nH]c(O)n1))C(=O)O

>  <INCHIKEY>  (1915) 
KXHSJJRXZAKKRP-BYPYZUCNSA-N

$$$$
His_2SH
     RDKit          2D

 12 12  0  0  0  0  0  0  0  0999 V2000
   -1.1070    1.6556    0.0000 N   0  0  0  0  0  0  0  0  0  0  0  0
   -1.6374    0.2525    0.0000 C   0  0  0  0  0  0  0  0  0  0  0  0
   -0.6875   -0.9084    0.0000 C   0  0  0  0  0  0  0  0  0  0  0  0
    0.7928   -0.6662    0.0000 C   0  0  0  0  0  0  0  0  0  0  0  0
    1.8589   -1.7215    0.0000 C   0  0  0  0  0  0  0  0  0  0  0  0
    3.1919   -1.0337    0.0000 N   0  0  0  0  0  0  0  0  0  0  0  0
    2.9497    0.4466    0.0000 C   0  0  0  0  0  0  0  0  0  0  0  0
    4.0050    1.5127    0.0000 S   0  0  0  0  0  0  0  0  0  0  0  0
    1.4670    0.6737    0.0000 N   0  0  0  0  0  0  0  0  0  0  0  0
   -3.1177    0.0103    0.0000 C   0  0  0  0  0  0  0  0  0  0  0  0
   -3.6481   -1.3928    0.0000 O   0  0  0  0  0  0  0  0  0  0  0  0
   -4.0676    1.1712    0.0000 O   0  0  0  0  0  0  0  0  0  0  0  0
  2  1  1  1
  2  3  1  0
  3  4  1  0
  4  5  2  0
  5  6  1  0
  6  7  1  0
  7  8  2  0
  7  9  1  0
  2 10  1  0
 10 11  2  0
 10 12  1  0
  9  4  1  0
M  END
>  <rName>  (1916) 
His_2SH

>  <PQ_SYMBOL>  (1916) 
His_2SH

>  <FULL_NAME>  (1916) 
(alphaS)-alpha-Amino-2,3-dihydro-2-thioxo-1H-imidazole-4-propanoic acid

>  <IUPAC_CONDENSED>  (1916) 
His(2-SH)

>  <IUPAC>  (1916) 
(2S)-2-amino-3-(2-sulfanylidene-1,3-dihydroimidazol-4-yl)propanoic acid

>  <TYPE>  (1916) 
Backbone

>  <CLASS>  (1916) 
alpha

>  <ANALOG>  (1916) 
His

>  <MOL_WT>  (1916) 
187.224

>  <LOGP>  (1916) 
0.026689999999999936

>  <TPSA>  (1916) 
94.9

>  <POPULARITY>  (1916) 
2.2

>  <PROTECTED>  (1916) 
TRUE

>  <SMILES>  (1916) 
N[C@@H](Cc1(c[nH]c(=S)[nH]1))C(=O)O

>  <INCHIKEY>  (1916) 
FVNKWWBXNSNIAR-BYPYZUCNSA-N

$$$$
His_3Me
     RDKit          2D

 12 12  0  0  0  0  0  0  0  0999 V2000
   -0.9675    1.5404    0.0000 N   0  0  0  0  0  0  0  0  0  0  0  0
   -1.3813    0.0986    0.0000 C   0  0  0  0  0  0  0  0  0  0  0  0
   -0.3395   -0.9807    0.0000 C   0  0  0  0  0  0  0  0  0  0  0  0
    1.1160   -0.6181    0.0000 C   0  0  0  0  0  0  0  0  0  0  0  0
    2.2649   -1.5825    0.0000 C   0  0  0  0  0  0  0  0  0  0  0  0
    3.5371   -0.7879    0.0000 N   0  0  0  0  0  0  0  0  0  0  0  0
    3.1745    0.6676    0.0000 C   0  0  0  0  0  0  0  0  0  0  0  0
    1.6782    0.7725    0.0000 N   0  0  0  0  0  0  0  0  0  0  0  0
    0.8836    2.0448    0.0000 C   0  0  0  0  0  0  0  0  0  0  0  0
   -2.8368   -0.2640    0.0000 C   0  0  0  0  0  0  0  0  0  0  0  0
   -3.2506   -1.7058    0.0000 O   0  0  0  0  0  0  0  0  0  0  0  0
   -3.8786    0.8152    0.0000 O   0  0  0  0  0  0  0  0  0  0  0  0
  2  1  1  1
  2  3  1  0
  3  4  1  0
  4  5  2  0
  5  6  1  0
  6  7  2  0
  7  8  1  0
  8  9  1  0
  2 10  1  0
 10 11  2  0
 10 12  1  0
  8  4  1  0
M  END
>  <rName>  (1917) 
His_3Me

>  <PQ_SYMBOL>  (1917) 
His_3Me

>  <FULL_NAME>  (1917) 
3-Methyl-L-Histidine

>  <IUPAC_CONDENSED>  (1917) 
His(3-Me)

>  <IUPAC>  (1917) 
(2S)-2-amino-3-(1-methyl-1H-imidazol-5-yl)propanoic acid

>  <TYPE>  (1917) 
Backbone

>  <CLASS>  (1917) 
alpha

>  <ANALOG>  (1917) 
His

>  <MOL_WT>  (1917) 
169.184

>  <LOGP>  (1917) 
-0.6255000000000002

>  <TPSA>  (1917) 
81.14

>  <POPULARITY>  (1917) 
33.9

>  <PROTECTED>  (1917) 
TRUE

>  <SMILES>  (1917) 
N[C@@H](Cc1(cncn1C))C(=O)O

>  <INCHIKEY>  (1917) 
JDHILDINMRGULE-LURJTMIESA-N

$$$$
His_3MeOH
     RDKit          2D

 13 13  0  0  0  0  0  0  0  0999 V2000
   -0.9462    1.3906    0.0000 N   0  0  0  0  0  0  0  0  0  0  0  0
   -1.5120    0.0014    0.0000 C   0  0  0  0  0  0  0  0  0  0  0  0
   -0.5918   -1.1832    0.0000 C   0  0  0  0  0  0  0  0  0  0  0  0
    0.8941   -0.9787    0.0000 C   0  0  0  0  0  0  0  0  0  0  0  0
    1.9331   -2.0606    0.0000 C   0  0  0  0  0  0  0  0  0  0  0  0
    3.2831   -1.4069    0.0000 N   0  0  0  0  0  0  0  0  0  0  0  0
    3.0786    0.0791    0.0000 C   0  0  0  0  0  0  0  0  0  0  0  0
    1.6021    0.3438    0.0000 N   0  0  0  0  0  0  0  0  0  0  0  0
    0.9483    1.6938    0.0000 C   0  0  0  0  0  0  0  0  0  0  0  0
    1.7906    2.9350    0.0000 O   0  0  0  0  0  0  0  0  0  0  0  0
   -2.9980   -0.2032    0.0000 C   0  0  0  0  0  0  0  0  0  0  0  0
   -3.5638   -1.5924    0.0000 O   0  0  0  0  0  0  0  0  0  0  0  0
   -3.9181    0.9814    0.0000 O   0  0  0  0  0  0  0  0  0  0  0  0
  2  1  1  1
  2  3  1  0
  3  4  1  0
  4  5  2  0
  5  6  1  0
  6  7  2  0
  7  8  1  0
  8  9  1  0
  9 10  1  0
  2 11  1  0
 11 12  2  0
 11 13  1  0
  8  4  1  0
M  END
>  <rName>  (1918) 
His_3MeOH

>  <PQ_SYMBOL>  (1918) 
His_3MeOH

>  <FULL_NAME>  (1918) 
His(3-Bom)

>  <IUPAC_CONDENSED>  (1918) 
His(3-MeOH)

>  <IUPAC>  (1918) 
(2S)-2-amino-3-(1-(hydroxymethyl)-1H-imidazol-5-yl)propanoic acid

>  <TYPE>  (1918) 
Backbone

>  <CLASS>  (1918) 
alpha

>  <ANALOG>  (1918) 
His

>  <MOL_WT>  (1918) 
185.183

>  <LOGP>  (1918) 
-1.2127000000000006

>  <TPSA>  (1918) 
101.36999999999999

>  <POPULARITY>  (1918) 
5.4

>  <PROTECTED>  (1918) 
TRUE

>  <SMILES>  (1918) 
N[C@@H](Cc1(cncn1CO))C(=O)O

>  <INCHIKEY>  (1918) 
QOVYHJHBWOQAQB-LURJTMIESA-N

$$$$
His_5Me
     RDKit          2D

 12 12  0  0  0  0  0  0  0  0999 V2000
    1.3420    1.7952    0.0000 N   0  0  0  0  0  0  0  0  0  0  0  0
    1.5471    0.3093    0.0000 C   0  0  0  0  0  0  0  0  0  0  0  0
    0.3629   -0.6113    0.0000 C   0  0  0  0  0  0  0  0  0  0  0  0
   -1.0265   -0.0460    0.0000 C   0  0  0  0  0  0  0  0  0  0  0  0
   -1.3859    1.4103    0.0000 N   0  0  0  0  0  0  0  0  0  0  0  0
   -2.8819    1.5186    0.0000 C   0  0  0  0  0  0  0  0  0  0  0  0
   -3.4473    0.1292    0.0000 N   0  0  0  0  0  0  0  0  0  0  0  0
   -2.3005   -0.8378    0.0000 C   0  0  0  0  0  0  0  0  0  0  0  0
   -2.4088   -2.3339    0.0000 C   0  0  0  0  0  0  0  0  0  0  0  0
    2.9365   -0.2560    0.0000 C   0  0  0  0  0  0  0  0  0  0  0  0
    3.1417   -1.7420    0.0000 O   0  0  0  0  0  0  0  0  0  0  0  0
    4.1208    0.6646    0.0000 O   0  0  0  0  0  0  0  0  0  0  0  0
  2  1  1  6
  2  3  1  0
  3  4  1  0
  4  5  1  0
  5  6  1  0
  6  7  2  0
  7  8  1  0
  8  9  1  0
  2 10  1  0
 10 11  2  0
 10 12  1  0
  8  4  2  0
M  END
>  <rName>  (1919) 
His_5Me

>  <PQ_SYMBOL>  (1919) 
His_5Me

>  <FULL_NAME>  (1919) 
(S)-2-amino-3-(4-methyl-1H-imidazol-5-yl)propanoic acid

>  <IUPAC_CONDENSED>  (1919) 
His(5-Me)

>  <IUPAC>  (1919) 
(2S)-2-amino-3-(4-methyl-1H-imidazol-5-yl)propanoic acid

>  <TYPE>  (1919) 
Backbone

>  <CLASS>  (1919) 
alpha

>  <ANALOG>  (1919) 
His

>  <MOL_WT>  (1919) 
169.184

>  <LOGP>  (1919) 
-0.3274800000000007

>  <TPSA>  (1919) 
92.00000000000001

>  <POPULARITY>  (1919) 
7.1

>  <PROTECTED>  (1919) 
TRUE

>  <SMILES>  (1919) 
N[C@@H](Cc1([nH]cnc1C))C(=O)O

>  <INCHIKEY>  (1919) 
UAFOEWLJICDDGE-YFKPBYRVSA-N

$$$$
Hse
     RDKit          2D

  8  7  0  0  0  0  0  0  0  0999 V2000
   -0.2517   -1.8862    0.0000 N   0  0  0  0  0  0  0  0  0  0  0  0
   -0.3100   -0.3873    0.0000 C   0  0  0  0  0  0  0  0  0  0  0  0
    0.9590    0.4126    0.0000 C   0  0  0  0  0  0  0  0  0  0  0  0
    2.2862   -0.2864    0.0000 C   0  0  0  0  0  0  0  0  0  0  0  0
    3.5551    0.5134    0.0000 O   0  0  0  0  0  0  0  0  0  0  0  0
   -1.6371    0.3117    0.0000 C   0  0  0  0  0  0  0  0  0  0  0  0
   -1.6954    1.8105    0.0000 O   0  0  0  0  0  0  0  0  0  0  0  0
   -2.9061   -0.4882    0.0000 O   0  0  0  0  0  0  0  0  0  0  0  0
  2  1  1  6
  2  3  1  0
  3  4  1  0
  4  5  1  0
  2  6  1  0
  6  7  2  0
  6  8  1  0
M  END
>  <rName>  (1920) 
Hse

>  <PQ_SYMBOL>  (1920) 
Hse

>  <FULL_NAME>  (1920) 
Homo-L-serine

>  <IUPAC_CONDENSED>  (1920) 
Hse

>  <IUPAC>  (1920) 
(2S)-2-amino-4-hydroxybutanoic acid

>  <TYPE>  (1920) 
Backbone

>  <CLASS>  (1920) 
alpha

>  <ANALOG>  (1920) 
Ser

>  <MOL_WT>  (1920) 
119.11999999999998

>  <LOGP>  (1920) 
-1.2192999999999998

>  <TPSA>  (1920) 
83.55

>  <POPULARITY>  (1920) 
40.3

>  <PROTECTED>  (1920) 
TRUE

>  <SMILES>  (1920) 
N[C@@H](CCO)C(=O)O

>  <INCHIKEY>  (1920) 
UKAUYVFTDYCKQA-VKHMYHEASA-N

$$$$
Hse_CH2CF3
     RDKit          2D

 13 12  0  0  0  0  0  0  0  0999 V2000
    2.7828    1.9007    0.0000 N   0  0  0  0  0  0  0  0  0  0  0  0
    2.7179    0.4021    0.0000 C   0  0  0  0  0  0  0  0  0  0  0  0
    1.3877   -0.2910    0.0000 C   0  0  0  0  0  0  0  0  0  0  0  0
    0.1223    0.5144    0.0000 C   0  0  0  0  0  0  0  0  0  0  0  0
   -1.2080   -0.1787    0.0000 O   0  0  0  0  0  0  0  0  0  0  0  0
   -2.4734    0.6267    0.0000 C   0  0  0  0  0  0  0  0  0  0  0  0
   -3.8036   -0.0664    0.0000 C   0  0  0  0  0  0  0  0  0  0  0  0
   -5.1339   -0.7595    0.0000 F   0  0  0  0  0  0  0  0  0  0  0  0
   -4.4968    1.2639    0.0000 F   0  0  0  0  0  0  0  0  0  0  0  0
   -3.1105   -1.3966    0.0000 F   0  0  0  0  0  0  0  0  0  0  0  0
    3.9833   -0.4034    0.0000 C   0  0  0  0  0  0  0  0  0  0  0  0
    3.9185   -1.9020    0.0000 O   0  0  0  0  0  0  0  0  0  0  0  0
    5.3136    0.2898    0.0000 O   0  0  0  0  0  0  0  0  0  0  0  0
  2  1  1  6
  2  3  1  0
  3  4  1  0
  4  5  1  0
  5  6  1  0
  6  7  1  0
  7  8  1  0
  7  9  1  0
  7 10  1  0
  2 11  1  0
 11 12  2  0
 11 13  1  0
M  END
>  <rName>  (1921) 
Hse_CH2CF3

>  <PQ_SYMBOL>  (1921) 
Hse_CH2CF3

>  <FULL_NAME>  (1921) 
(2S)-2-amino-4-(2,2,2-trifluoroethoxy)butanoic acid

>  <IUPAC_CONDENSED>  (1921) 
Hse(CH2CF3)

>  <IUPAC>  (1921) 
(2S)-2-amino-4-(2,2,2-trifluoroethoxy)butanoic acid

>  <TYPE>  (1921) 
Backbone

>  <CLASS>  (1921) 
alpha

>  <ANALOG>  (1921) 
Ser

>  <MOL_WT>  (1921) 
201.14399999999998

>  <LOGP>  (1921) 
0.3672999999999999

>  <TPSA>  (1921) 
72.55

>  <POPULARITY>  (1921) 
2.2

>  <PROTECTED>  (1921) 
TRUE

>  <SMILES>  (1921) 
N[C@@H](CCOCC(F)(F)F)C(=O)O

>  <INCHIKEY>  (1921) 
UXDYGIBAJYJFCB-BYPYZUCNSA-N

$$$$
Hse_Et
     RDKit          2D

 10  9  0  0  0  0  0  0  0  0999 V2000
   -1.4166   -1.8843    0.0000 N   0  0  0  0  0  0  0  0  0  0  0  0
   -1.4265   -0.3844    0.0000 C   0  0  0  0  0  0  0  0  0  0  0  0
   -0.1324    0.3741    0.0000 C   0  0  0  0  0  0  0  0  0  0  0  0
    1.1716   -0.3673    0.0000 C   0  0  0  0  0  0  0  0  0  0  0  0
    2.4657    0.3912    0.0000 O   0  0  0  0  0  0  0  0  0  0  0  0
    3.7696   -0.3503    0.0000 C   0  0  0  0  0  0  0  0  0  0  0  0
    5.0637    0.4082    0.0000 C   0  0  0  0  0  0  0  0  0  0  0  0
   -2.7304    0.3571    0.0000 C   0  0  0  0  0  0  0  0  0  0  0  0
   -2.7402    1.8571    0.0000 O   0  0  0  0  0  0  0  0  0  0  0  0
   -4.0245   -0.4014    0.0000 O   0  0  0  0  0  0  0  0  0  0  0  0
  2  1  1  6
  2  3  1  0
  3  4  1  0
  4  5  1  0
  5  6  1  0
  6  7  1  0
  2  8  1  0
  8  9  2  0
  8 10  1  0
M  END
>  <rName>  (1922) 
Hse_Et

>  <PQ_SYMBOL>  (1922) 
Hse_Et

>  <FULL_NAME>  (1922) 
O-ethyl-L-homoserine

>  <IUPAC_CONDENSED>  (1922) 
Hse(Et)

>  <IUPAC>  (1922) 
(2S)-2-amino-4-ethoxybutanoic acid

>  <TYPE>  (1922) 
Backbone

>  <CLASS>  (1922) 
alpha

>  <ANALOG>  (1922) 
Ser

>  <MOL_WT>  (1922) 
147.174

>  <LOGP>  (1922) 
-0.17510000000000053

>  <TPSA>  (1922) 
72.55

>  <POPULARITY>  (1922) 
12.4

>  <PROTECTED>  (1922) 
TRUE

>  <SMILES>  (1922) 
N[C@@H](CCOCC)C(=O)O

>  <INCHIKEY>  (1922) 
YCSFMOVBARTLBW-YFKPBYRVSA-N

$$$$
Hse_EtOMe
     RDKit          2D

 12 11  0  0  0  0  0  0  0  0999 V2000
    2.5981    1.8750    0.0000 N   0  0  0  0  0  0  0  0  0  0  0  0
    2.5981    0.3750    0.0000 C   0  0  0  0  0  0  0  0  0  0  0  0
    1.2990   -0.3750    0.0000 C   0  0  0  0  0  0  0  0  0  0  0  0
    0.0000    0.3750    0.0000 C   0  0  0  0  0  0  0  0  0  0  0  0
   -1.2990   -0.3750    0.0000 O   0  0  0  0  0  0  0  0  0  0  0  0
   -2.5981    0.3750    0.0000 C   0  0  0  0  0  0  0  0  0  0  0  0
   -3.8971   -0.3750    0.0000 C   0  0  0  0  0  0  0  0  0  0  0  0
   -5.1962    0.3750    0.0000 O   0  0  0  0  0  0  0  0  0  0  0  0
   -6.4952   -0.3750    0.0000 C   0  0  0  0  0  0  0  0  0  0  0  0
    3.8971   -0.3750    0.0000 C   0  0  0  0  0  0  0  0  0  0  0  0
    3.8971   -1.8750    0.0000 O   0  0  0  0  0  0  0  0  0  0  0  0
    5.1962    0.3750    0.0000 O   0  0  0  0  0  0  0  0  0  0  0  0
  2  1  1  6
  2  3  1  0
  3  4  1  0
  4  5  1  0
  5  6  1  0
  6  7  1  0
  7  8  1  0
  8  9  1  0
  2 10  1  0
 10 11  2  0
 10 12  1  0
M  END
>  <rName>  (1923) 
Hse_EtOMe

>  <PQ_SYMBOL>  (1923) 
Hse_EtOMe

>  <FULL_NAME>  (1923) 
O-(2-Methoxyethyl)-L-homoserine

>  <IUPAC_CONDENSED>  (1923) 
Hse(EtOMe)

>  <IUPAC>  (1923) 
(2S)-2-amino-4-(2-methoxyethoxy)butanoic acid

>  <TYPE>  (1923) 
Backbone

>  <CLASS>  (1923) 
alpha

>  <ANALOG>  (1923) 
Ser

>  <MOL_WT>  (1923) 
177.2

>  <LOGP>  (1923) 
-0.5486

>  <TPSA>  (1923) 
81.78

>  <POPULARITY>  (1923) 
2.2

>  <PROTECTED>  (1923) 
TRUE

>  <SMILES>  (1923) 
N[C@@H](CCOCCOC)C(=O)O

>  <INCHIKEY>  (1923) 
QAHGFIIGXSSIJF-LURJTMIESA-N

$$$$
Hse_Me
     RDKit          2D

  9  8  0  0  0  0  0  0  0  0999 V2000
    0.7616   -1.8791    0.0000 N   0  0  0  0  0  0  0  0  0  0  0  0
    0.8459   -0.3815    0.0000 C   0  0  0  0  0  0  0  0  0  0  0  0
   -0.4089    0.4403    0.0000 C   0  0  0  0  0  0  0  0  0  0  0  0
   -1.7480   -0.2354    0.0000 C   0  0  0  0  0  0  0  0  0  0  0  0
   -3.0029    0.5864    0.0000 O   0  0  0  0  0  0  0  0  0  0  0  0
   -4.3420   -0.0894    0.0000 C   0  0  0  0  0  0  0  0  0  0  0  0
    2.1851    0.2943    0.0000 C   0  0  0  0  0  0  0  0  0  0  0  0
    2.2694    1.7919    0.0000 O   0  0  0  0  0  0  0  0  0  0  0  0
    3.4399   -0.5275    0.0000 O   0  0  0  0  0  0  0  0  0  0  0  0
  2  1  1  1
  2  3  1  0
  3  4  1  0
  4  5  1  0
  5  6  1  0
  2  7  1  0
  7  8  2  0
  7  9  1  0
M  END
>  <rName>  (1924) 
Hse_Me

>  <PQ_SYMBOL>  (1924) 
Hse_Me

>  <FULL_NAME>  (1924) 
O-Methyl-L-Homoserine

>  <IUPAC_CONDENSED>  (1924) 
Hse(Me)

>  <IUPAC>  (1924) 
(2S)-2-amino-4-methoxybutanoic acid

>  <TYPE>  (1924) 
Backbone

>  <CLASS>  (1924) 
alpha

>  <ANALOG>  (1924) 
Ser

>  <MOL_WT>  (1924) 
133.147

>  <LOGP>  (1924) 
-0.5652000000000004

>  <TPSA>  (1924) 
72.55

>  <POPULARITY>  (1924) 
20.1

>  <PROTECTED>  (1924) 
TRUE

>  <SMILES>  (1924) 
N[C@@H](CCOC)C(=O)O

>  <INCHIKEY>  (1924) 
KFHRMMHGGBCRIV-BYPYZUCNSA-N

$$$$
Hse_Ph
     RDKit          2D

 14 14  0  0  0  0  0  0  0  0999 V2000
   -2.7125    1.8435    0.0000 N   0  0  0  0  0  0  0  0  0  0  0  0
   -2.9490    0.3623    0.0000 C   0  0  0  0  0  0  0  0  0  0  0  0
   -1.7844   -0.5831    0.0000 C   0  0  0  0  0  0  0  0  0  0  0  0
   -0.3834   -0.0473    0.0000 C   0  0  0  0  0  0  0  0  0  0  0  0
    0.7812   -0.9927    0.0000 O   0  0  0  0  0  0  0  0  0  0  0  0
    2.1822   -0.4569    0.0000 C   0  0  0  0  0  0  0  0  0  0  0  0
    2.4187    1.0244    0.0000 C   0  0  0  0  0  0  0  0  0  0  0  0
    3.8197    1.5602    0.0000 C   0  0  0  0  0  0  0  0  0  0  0  0
    4.9842    0.6148    0.0000 C   0  0  0  0  0  0  0  0  0  0  0  0
    4.7478   -0.8664    0.0000 C   0  0  0  0  0  0  0  0  0  0  0  0
    3.3467   -1.4023    0.0000 C   0  0  0  0  0  0  0  0  0  0  0  0
   -4.3500   -0.1735    0.0000 C   0  0  0  0  0  0  0  0  0  0  0  0
   -4.5865   -1.6548    0.0000 O   0  0  0  0  0  0  0  0  0  0  0  0
   -5.5146    0.7719    0.0000 O   0  0  0  0  0  0  0  0  0  0  0  0
  2  1  1  1
  2  3  1  0
  3  4  1  0
  4  5  1  0
  5  6  1  0
  6  7  2  0
  7  8  1  0
  8  9  2  0
  9 10  1  0
 10 11  2  0
  2 12  1  0
 12 13  2  0
 12 14  1  0
 11  6  1  0
M  END
>  <rName>  (1925) 
Hse_Ph

>  <PQ_SYMBOL>  (1925) 
Hse_Ph

>  <FULL_NAME>  (1925) 
(2S)-2-amino-4-phenoxybutanoic acid

>  <IUPAC_CONDENSED>  (1925) 
Hse(Ph)

>  <IUPAC>  (1925) 
(2S)-2-amino-4-phenoxybutanoic acid

>  <TYPE>  (1925) 
Backbone

>  <CLASS>  (1925) 
alpha

>  <ANALOG>  (1925) 
Ser

>  <MOL_WT>  (1925) 
195.218

>  <LOGP>  (1925) 
0.8674

>  <TPSA>  (1925) 
72.55

>  <POPULARITY>  (1925) 
12.4

>  <PROTECTED>  (1925) 
TRUE

>  <SMILES>  (1925) 
N[C@@H](CCOc1(ccccc1))C(=O)O

>  <INCHIKEY>  (1925) 
OZTJTXTWPFGIHY-VIFPVBQESA-N

$$$$
Hse_Pr
     RDKit          2D

 11 10  0  0  0  0  0  0  0  0999 V2000
    1.9630   -1.8884    0.0000 N   0  0  0  0  0  0  0  0  0  0  0  0
    1.9989   -0.3888    0.0000 C   0  0  0  0  0  0  0  0  0  0  0  0
    0.7181    0.3920    0.0000 C   0  0  0  0  0  0  0  0  0  0  0  0
   -0.5985   -0.3267    0.0000 C   0  0  0  0  0  0  0  0  0  0  0  0
   -1.8792    0.4541    0.0000 O   0  0  0  0  0  0  0  0  0  0  0  0
   -3.1958   -0.2646    0.0000 C   0  0  0  0  0  0  0  0  0  0  0  0
   -4.4765    0.5162    0.0000 C   0  0  0  0  0  0  0  0  0  0  0  0
   -5.7931   -0.2025    0.0000 C   0  0  0  0  0  0  0  0  0  0  0  0
    3.3155    0.3299    0.0000 C   0  0  0  0  0  0  0  0  0  0  0  0
    3.3513    1.8295    0.0000 O   0  0  0  0  0  0  0  0  0  0  0  0
    4.5962   -0.4509    0.0000 O   0  0  0  0  0  0  0  0  0  0  0  0
  2  1  1  1
  2  3  1  0
  3  4  1  0
  4  5  1  0
  5  6  1  0
  6  7  1  0
  7  8  1  0
  2  9  1  0
  9 10  2  0
  9 11  1  0
M  END
>  <rName>  (1926) 
Hse_Pr

>  <PQ_SYMBOL>  (1926) 
Hse_Pr

>  <FULL_NAME>  (1926) 
O-Propyl-L-homoserine

>  <IUPAC_CONDENSED>  (1926) 
Hse(Pr)

>  <IUPAC>  (1926) 
(2S)-2-amino-4-propoxybutanoic acid

>  <TYPE>  (1926) 
Backbone

>  <CLASS>  (1926) 
alpha

>  <ANALOG>  (1926) 
Ser

>  <MOL_WT>  (1926) 
161.201

>  <LOGP>  (1926) 
0.21499999999999936

>  <TPSA>  (1926) 
72.55

>  <POPULARITY>  (1926) 
2.2

>  <PROTECTED>  (1926) 
TRUE

>  <SMILES>  (1926) 
N[C@@H](CCOCCC)C(=O)O

>  <INCHIKEY>  (1926) 
XZHHXWIVPJZZES-LURJTMIESA-N

$$$$
Hse_allyl
     RDKit          2D

 11 10  0  0  0  0  0  0  0  0999 V2000
    1.9630   -1.8884    0.0000 N   0  0  0  0  0  0  0  0  0  0  0  0
    1.9989   -0.3888    0.0000 C   0  0  0  0  0  0  0  0  0  0  0  0
    0.7181    0.3920    0.0000 C   0  0  0  0  0  0  0  0  0  0  0  0
   -0.5985   -0.3267    0.0000 C   0  0  0  0  0  0  0  0  0  0  0  0
   -1.8792    0.4541    0.0000 O   0  0  0  0  0  0  0  0  0  0  0  0
   -3.1958   -0.2646    0.0000 C   0  0  0  0  0  0  0  0  0  0  0  0
   -4.4765    0.5162    0.0000 C   0  0  0  0  0  0  0  0  0  0  0  0
   -5.7931   -0.2025    0.0000 C   0  0  0  0  0  0  0  0  0  0  0  0
    3.3155    0.3299    0.0000 C   0  0  0  0  0  0  0  0  0  0  0  0
    3.3513    1.8295    0.0000 O   0  0  0  0  0  0  0  0  0  0  0  0
    4.5962   -0.4509    0.0000 O   0  0  0  0  0  0  0  0  0  0  0  0
  2  1  1  1
  2  3  1  0
  3  4  1  0
  4  5  1  0
  5  6  1  0
  6  7  1  0
  7  8  2  0
  2  9  1  0
  9 10  2  0
  9 11  1  0
M  END
>  <rName>  (1927) 
Hse_allyl

>  <PQ_SYMBOL>  (1927) 
Hse_allyl

>  <FULL_NAME>  (1927) 
O-allyl-L-homoserine

>  <IUPAC_CONDENSED>  (1927) 
Hse(allyl)

>  <IUPAC>  (1927) 
(2S)-2-amino-4-((prop-2-en-1-yl)oxy)butanoic acid

>  <TYPE>  (1927) 
Backbone

>  <CLASS>  (1927) 
alpha

>  <ANALOG>  (1927) 
Ser

>  <MOL_WT>  (1927) 
159.185

>  <LOGP>  (1927) 
-0.009000000000000397

>  <TPSA>  (1927) 
72.55

>  <POPULARITY>  (1927) 
5.7

>  <PROTECTED>  (1927) 
TRUE

>  <SMILES>  (1927) 
N[C@@H](CCOCC=C)C(=O)O

>  <INCHIKEY>  (1927) 
PWVANPLCFRYAIN-LURJTMIESA-N

$$$$
Hse_guanidino
     RDKit          2D

 12 11  0  0  0  0  0  0  0  0999 V2000
    2.4617    1.9005    0.0000 N   0  0  0  0  0  0  0  0  0  0  0  0
    2.4001    0.4018    0.0000 C   0  0  0  0  0  0  0  0  0  0  0  0
    1.0713   -0.2943    0.0000 C   0  0  0  0  0  0  0  0  0  0  0  0
   -0.1958    0.5085    0.0000 C   0  0  0  0  0  0  0  0  0  0  0  0
   -1.5245   -0.1875    0.0000 O   0  0  0  0  0  0  0  0  0  0  0  0
   -2.7917    0.6152    0.0000 N   0  0  0  0  0  0  0  0  0  0  0  0
   -4.1204   -0.0808    0.0000 C   0  0  0  0  0  0  0  0  0  0  0  0
   -5.3876    0.7219    0.0000 N   0  0  0  0  0  0  0  0  0  0  0  0
   -4.1820   -1.5796    0.0000 N   0  0  0  0  0  0  0  0  0  0  0  0
    3.6672   -0.4010    0.0000 C   0  0  0  0  0  0  0  0  0  0  0  0
    3.6056   -1.8997    0.0000 O   0  0  0  0  0  0  0  0  0  0  0  0
    4.9960    0.2950    0.0000 O   0  0  0  0  0  0  0  0  0  0  0  0
  2  1  1  6
  2  3  1  0
  3  4  1  0
  4  5  1  0
  5  6  1  0
  6  7  2  0
  7  8  1  0
  7  9  1  0
  2 10  1  0
 10 11  2  0
 10 12  1  0
M  END
>  <rName>  (1928) 
Hse_guanidino

>  <PQ_SYMBOL>  (1928) 
Hse_guanidino

>  <FULL_NAME>  (1928) 
L-Canavanine

>  <IUPAC_CONDENSED>  (1928) 
Hse(guanidino)

>  <IUPAC>  (1928) 
(2S)-2-amino-4-(((diaminomethylidene)amino)oxy)butanoic acid

>  <TYPE>  (1928) 
Backbone

>  <CLASS>  (1928) 
alpha

>  <ANALOG>  (1928) 
Arg

>  <MOL_WT>  (1928) 
176.176

>  <LOGP>  (1928) 
-2.0065999999999997

>  <TPSA>  (1928) 
136.95

>  <POPULARITY>  (1928) 
19.7

>  <PROTECTED>  (1928) 
TRUE

>  <SMILES>  (1928) 
N[C@@H](CCON=C(N)N)C(=O)O

>  <INCHIKEY>  (1928) 
FSBIGDSBMBYOPN-VKHMYHEASA-N

$$$$
Hse_iPr
     RDKit          2D

 11 10  0  0  0  0  0  0  0  0999 V2000
    1.6269   -1.8430    0.0000 N   0  0  0  0  0  0  0  0  0  0  0  0
    1.7489   -0.3480    0.0000 C   0  0  0  0  0  0  0  0  0  0  0  0
    0.5152    0.5052    0.0000 C   0  0  0  0  0  0  0  0  0  0  0  0
   -0.8406   -0.1366    0.0000 C   0  0  0  0  0  0  0  0  0  0  0  0
   -2.0743    0.7166    0.0000 O   0  0  0  0  0  0  0  0  0  0  0  0
   -3.4300    0.0748    0.0000 C   0  0  0  0  0  0  0  0  0  0  0  0
   -4.6637    0.9280    0.0000 C   0  0  0  0  0  0  0  0  0  0  0  0
   -3.5521   -1.4203    0.0000 C   0  0  0  0  0  0  0  0  0  0  0  0
    3.1047    0.2938    0.0000 C   0  0  0  0  0  0  0  0  0  0  0  0
    3.2267    1.7889    0.0000 O   0  0  0  0  0  0  0  0  0  0  0  0
    4.3384   -0.5594    0.0000 O   0  0  0  0  0  0  0  0  0  0  0  0
  2  1  1  1
  2  3  1  0
  3  4  1  0
  4  5  1  0
  5  6  1  0
  6  7  1  0
  6  8  1  0
  2  9  1  0
  9 10  2  0
  9 11  1  0
M  END
>  <rName>  (1929) 
Hse_iPr

>  <PQ_SYMBOL>  (1929) 
Hse_iPr

>  <FULL_NAME>  (1929) 
(2S)-2-amino-4-(propan-2-yloxy)butanoic acid

>  <IUPAC_CONDENSED>  (1929) 
Hse(iPr)

>  <IUPAC>  (1929) 
(2S)-2-amino-4-propan-2-yloxybutanoic acid

>  <TYPE>  (1929) 
Backbone

>  <CLASS>  (1929) 
alpha

>  <ANALOG>  (1929) 
Ser

>  <MOL_WT>  (1929) 
161.201

>  <LOGP>  (1929) 
0.21339999999999953

>  <TPSA>  (1929) 
72.55

>  <POPULARITY>  (1929) 
2.2

>  <PROTECTED>  (1929) 
TRUE

>  <SMILES>  (1929) 
N[C@@H](CCOC(C)C)C(=O)O

>  <INCHIKEY>  (1929) 
KEWOOHRWEASFEP-LURJTMIESA-N

$$$$
Hse_prop2ynyl
     RDKit          2D

 11 10  0  0  0  0  0  0  0  0999 V2000
   -2.1124    1.8649    0.0000 N   0  0  0  0  0  0  0  0  0  0  0  0
   -2.0306    0.3672    0.0000 C   0  0  0  0  0  0  0  0  0  0  0  0
   -0.6927   -0.3109    0.0000 C   0  0  0  0  0  0  0  0  0  0  0  0
    0.5636    0.5087    0.0000 C   0  0  0  0  0  0  0  0  0  0  0  0
    1.9016   -0.1694    0.0000 O   0  0  0  0  0  0  0  0  0  0  0  0
    3.1578    0.6503    0.0000 C   0  0  0  0  0  0  0  0  0  0  0  0
    4.4958   -0.0278    0.0000 C   0  0  0  0  0  0  0  0  0  0  0  0
    5.8338   -0.7059    0.0000 C   0  0  0  0  0  0  0  0  0  0  0  0
   -3.2869   -0.4525    0.0000 C   0  0  0  0  0  0  0  0  0  0  0  0
   -3.2051   -1.9503    0.0000 O   0  0  0  0  0  0  0  0  0  0  0  0
   -4.6248    0.2256    0.0000 O   0  0  0  0  0  0  0  0  0  0  0  0
  2  1  1  1
  2  3  1  0
  3  4  1  0
  4  5  1  0
  5  6  1  0
  6  7  1  0
  7  8  3  0
  2  9  1  0
  9 10  2  0
  9 11  1  0
M  END
>  <rName>  (1930) 
Hse_prop2ynyl

>  <PQ_SYMBOL>  (1930) 
Hse_prop2ynyl

>  <FULL_NAME>  (1930) 
(2S)-2-amino-4-prop-2-ynoxybutanoic acid

>  <IUPAC_CONDENSED>  (1930) 
Hse(prop-2-ynyl)

>  <IUPAC>  (1930) 
(2S)-2-amino-4-prop-2-ynoxybutanoic acid

>  <TYPE>  (1930) 
Backbone

>  <CLASS>  (1930) 
alpha

>  <ANALOG>  (1930) 
Ser

>  <MOL_WT>  (1930) 
157.16899999999998

>  <LOGP>  (1930) 
-0.5618000000000003

>  <TPSA>  (1930) 
72.55

>  <POPULARITY>  (1930) 
3.5

>  <PROTECTED>  (1930) 
TRUE

>  <SMILES>  (1930) 
N[C@@H](CCOCC#C)C(=O)O

>  <INCHIKEY>  (1930) 
XPQORHGGOJETQM-LURJTMIESA-N

$$$$
Hsl
     RDKit          2D

  7  7  0  0  0  0  0  0  0  0999 V2000
    1.6042   -1.6317    0.0000 N   0  0  0  0  0  0  0  0  0  0  0  0
    0.3906   -0.7500    0.0000 C   0  0  0  0  0  0  0  0  0  0  0  0
    0.3906    0.7500    0.0000 C   0  0  0  0  0  0  0  0  0  0  0  0
    1.6042    1.6317    0.0000 O   0  0  0  0  0  0  0  0  0  0  0  0
   -1.0360    1.2135    0.0000 O   0  0  0  0  0  0  0  0  0  0  0  0
   -1.9176   -0.0000    0.0000 C   0  0  0  0  0  0  0  0  0  0  0  0
   -1.0360   -1.2135    0.0000 C   0  0  0  0  0  0  0  0  0  0  0  0
  2  1  1  1
  2  3  1  0
  3  4  2  0
  3  5  1  0
  5  6  1  0
  6  7  1  0
  7  2  1  0
M  END
>  <rName>  (1931) 
Hsl

>  <PQ_SYMBOL>  (1931) 
Hsl

>  <FULL_NAME>  (1931) 
HOMOSERINE LACTONE

>  <IUPAC_CONDENSED>  (1931) 
Hsl

>  <IUPAC>  (1931) 
(3S)-3-aminooxolan-2-one

>  <TYPE>  (1931) 
C-term cap

>  <CLASS>  (1931) 
c_cap

>  <ANALOG>  (1931) 
X

>  <MOL_WT>  (1931) 
101.105

>  <LOGP>  (1931) 
-0.7394000000000001

>  <TPSA>  (1931) 
52.32000000000001

>  <POPULARITY>  (1931) 
15.6

>  <PROTECTED>  (1931) 
FALSE

>  <SMILES>  (1931) 
N[C@@H]1C(=O)OCC1

>  <INCHIKEY>  (1931) 
QJPWUUJVYOJNMH-VKHMYHEASA-N

$$$$
Hyp
     RDKit          2D

  9  9  0  0  0  0  0  0  0  0999 V2000
   -0.1792   -1.4541    0.0000 N   0  0  0  0  0  0  0  0  0  0  0  0
    0.4598   -0.0969    0.0000 C   0  0  0  0  0  0  0  0  0  0  0  0
   -0.6334    0.9301    0.0000 C   0  0  0  0  0  0  0  0  0  0  0  0
   -1.9481    0.2077    0.0000 C   0  0  0  0  0  0  0  0  0  0  0  0
   -3.3052    0.8467    0.0000 O   0  0  0  0  0  0  0  0  0  0  0  0
   -1.6673   -1.2657    0.0000 C   0  0  0  0  0  0  0  0  0  0  0  0
    1.9333    0.1838    0.0000 C   0  0  0  0  0  0  0  0  0  0  0  0
    2.4269    1.6003    0.0000 O   0  0  0  0  0  0  0  0  0  0  0  0
    2.9132   -0.9519    0.0000 O   0  0  0  0  0  0  0  0  0  0  0  0
  1  2  1  0
  2  3  1  0
  3  4  1  0
  4  5  1  6
  4  6  1  0
  2  7  1  1
  7  8  2  0
  7  9  1  0
  6  1  1  0
M  END
>  <rName>  (1932) 
Hyp

>  <PQ_SYMBOL>  (1932) 
Hyp

>  <FULL_NAME>  (1932) 
trans-4-Hydroxy-L-proline

>  <IUPAC_CONDENSED>  (1932) 
Hyp

>  <IUPAC>  (1932) 
(2S,4R)-4-hydroxypyrrolidine-2-carboxylic acid

>  <TYPE>  (1932) 
Backbone

>  <CLASS>  (1932) 
alpha

>  <ANALOG>  (1932) 
Pro

>  <MOL_WT>  (1932) 
131.131

>  <LOGP>  (1932) 
-1.2062000000000004

>  <TPSA>  (1932) 
69.56

>  <POPULARITY>  (1932) 
56.0

>  <PROTECTED>  (1932) 
TRUE

>  <SMILES>  (1932) 
N1[C@@H](C[C@@H](O)C1)C(=O)O

>  <INCHIKEY>  (1932) 
PMMYEEVYMWASQN-DMTCNVIQSA-N

$$$$
Hyp-NH2
     RDKit          2D

  9  9  0  0  0  0  0  0  0  0999 V2000
    0.1792   -1.4541    0.0000 N   0  0  0  0  0  0  0  0  0  0  0  0
    1.6673   -1.2657    0.0000 C   0  0  0  0  0  0  0  0  0  0  0  0
    1.9481    0.2077    0.0000 C   0  0  0  0  0  0  0  0  0  0  0  0
    0.6334    0.9301    0.0000 C   0  0  0  0  0  0  0  0  0  0  0  0
   -0.4598   -0.0969    0.0000 C   0  0  0  0  0  0  0  0  0  0  0  0
   -1.9333    0.1838    0.0000 C   0  0  0  0  0  0  0  0  0  0  0  0
   -2.9132   -0.9519    0.0000 O   0  0  0  0  0  0  0  0  0  0  0  0
   -2.4269    1.6003    0.0000 N   0  0  0  0  0  0  0  0  0  0  0  0
    3.3052    0.8467    0.0000 O   0  0  0  0  0  0  0  0  0  0  0  0
  1  2  1  0
  2  3  1  0
  3  4  1  0
  4  5  1  0
  5  6  1  6
  6  7  2  0
  6  8  1  0
  3  9  1  1
  5  1  1  0
M  END
>  <rName>  (1933) 
Hyp-NH2

>  <PQ_SYMBOL>  (1933) 
Hyp-NH2

>  <FULL_NAME>  (1933) 
(2~{S},4~{R})-4-oxidanylpyrrolidine-2-carboxamide

>  <IUPAC_CONDENSED>  (1933) 
Hyp-NH2

>  <IUPAC>  (1933) 
(2S,4R)-4-hydroxypyrrolidine-2-carboxamide

>  <TYPE>  (1933) 
C-term cap

>  <CLASS>  (1933) 
c_cap

>  <ANALOG>  (1933) 
X

>  <MOL_WT>  (1933) 
130.14700000000002

>  <LOGP>  (1933) 
-1.8054999999999992

>  <TPSA>  (1933) 
75.35000000000001

>  <POPULARITY>  (1933) 
10.2

>  <PROTECTED>  (1933) 
FALSE

>  <SMILES>  (1933) 
N1C[C@@H](C[C@H]1C(=O)N)O

>  <INCHIKEY>  (1933) 
OJSXAYGYRGXDSQ-DMTCNVIQSA-N

$$$$
Hyp_3guanidinopropyl
     RDKit          2D

 16 16  0  0  0  0  0  0  0  0999 V2000
    4.1463   -1.2863    0.0000 N   0  0  0  0  0  0  0  0  0  0  0  0
    3.7207    0.1520    0.0000 C   0  0  0  0  0  0  0  0  0  0  0  0
    2.2212    0.1916    0.0000 C   0  0  0  0  0  0  0  0  0  0  0  0
    1.7201   -1.2222    0.0000 C   0  0  0  0  0  0  0  0  0  0  0  0
    0.2818   -1.6479    0.0000 O   0  0  0  0  0  0  0  0  0  0  0  0
   -0.8060   -0.6151    0.0000 C   0  0  0  0  0  0  0  0  0  0  0  0
   -2.2444   -1.0407    0.0000 C   0  0  0  0  0  0  0  0  0  0  0  0
   -3.3322   -0.0079    0.0000 C   0  0  0  0  0  0  0  0  0  0  0  0
   -4.7705   -0.4336    0.0000 N   0  0  0  0  0  0  0  0  0  0  0  0
   -5.8583    0.5992    0.0000 C   0  0  0  0  0  0  0  0  0  0  0  0
   -7.2966    0.1735    0.0000 N   0  0  0  0  0  0  0  0  0  0  0  0
   -5.5078    2.0577    0.0000 N   0  0  0  0  0  0  0  0  0  0  0  0
    2.9099   -2.1356    0.0000 C   0  0  0  0  0  0  0  0  0  0  0  0
    4.6341    1.3418    0.0000 C   0  0  0  0  0  0  0  0  0  0  0  0
    4.0604    2.7278    0.0000 O   0  0  0  0  0  0  0  0  0  0  0  0
    6.1212    1.1457    0.0000 O   0  0  0  0  0  0  0  0  0  0  0  0
  1  2  1  0
  2  3  1  0
  3  4  1  0
  4  5  1  6
  5  6  1  0
  6  7  1  0
  7  8  1  0
  8  9  1  0
  9 10  2  0
 10 11  1  0
 10 12  1  0
  4 13  1  0
  2 14  1  1
 14 15  2  0
 14 16  1  0
 13  1  1  0
M  END
>  <rName>  (1934) 
Hyp_3guanidinopropyl

>  <PQ_SYMBOL>  (1934) 
Hyp_3guanidinopropyl

>  <FULL_NAME>  (1934) 
Hyp(3-guanidinopropyl)

>  <IUPAC_CONDENSED>  (1934) 
Hyp(3-guanidinopropyl)

>  <IUPAC>  (1934) 
(2S,4R)-4-((3-((diaminomethylidene)amino)propyl)oxy)pyrrolidine-2-carboxylic acid

>  <TYPE>  (1934) 
Backbone

>  <CLASS>  (1934) 
alpha

>  <ANALOG>  (1934) 
Pro

>  <MOL_WT>  (1934) 
230.268

>  <LOGP>  (1934) 
-1.5183999999999975

>  <TPSA>  (1934) 
122.96

>  <POPULARITY>  (1934) 
2.2

>  <PROTECTED>  (1934) 
TRUE

>  <SMILES>  (1934) 
N1[C@@H](C[C@@H](OCCCN=C(N)N)C1)C(=O)O

>  <INCHIKEY>  (1934) 
RJYIJTFPAGVNQS-RQJHMYQMSA-N

$$$$
Hyp_4piperidyl
     RDKit          2D

 15 16  0  0  0  0  0  0  0  0999 V2000
   -1.9780    1.3585    0.0000 N   0  0  0  0  0  0  0  0  0  0  0  0
   -2.7771    0.0891    0.0000 C   0  0  0  0  0  0  0  0  0  0  0  0
   -1.8168   -1.0632    0.0000 C   0  0  0  0  0  0  0  0  0  0  0  0
   -0.4242   -0.5059    0.0000 C   0  0  0  0  0  0  0  0  0  0  0  0
    0.8452   -1.3051    0.0000 O   0  0  0  0  0  0  0  0  0  0  0  0
    2.1720   -0.6053    0.0000 C   0  0  0  0  0  0  0  0  0  0  0  0
    3.4414   -1.4044    0.0000 C   0  0  0  0  0  0  0  0  0  0  0  0
    4.7682   -0.7047    0.0000 C   0  0  0  0  0  0  0  0  0  0  0  0
    4.8256    0.7942    0.0000 N   0  0  0  0  0  0  0  0  0  0  0  0
    3.5562    1.5934    0.0000 C   0  0  0  0  0  0  0  0  0  0  0  0
    2.2294    0.8936    0.0000 C   0  0  0  0  0  0  0  0  0  0  0  0
   -0.5238    0.9908    0.0000 C   0  0  0  0  0  0  0  0  0  0  0  0
   -4.2738   -0.0105    0.0000 C   0  0  0  0  0  0  0  0  0  0  0  0
   -4.9359   -1.3565    0.0000 O   0  0  0  0  0  0  0  0  0  0  0  0
   -5.1084    1.2359    0.0000 O   0  0  0  0  0  0  0  0  0  0  0  0
  1  2  1  0
  2  3  1  0
  3  4  1  0
  4  5  1  6
  5  6  1  0
  6  7  1  0
  7  8  1  0
  8  9  1  0
  9 10  1  0
 10 11  1  0
  4 12  1  0
  2 13  1  1
 13 14  2  0
 13 15  1  0
 11  6  1  0
 12  1  1  0
M  END
>  <rName>  (1935) 
Hyp_4piperidyl

>  <PQ_SYMBOL>  (1935) 
Hyp_4piperidyl

>  <FULL_NAME>  (1935) 
Hyp(4-piperidyl)

>  <IUPAC_CONDENSED>  (1935) 
Hyp(4-piperidyl)

>  <IUPAC>  (1935) 
(2S,4R)-4-((piperidin-4-yl)oxy)pyrrolidine-2-carboxylic acid

>  <TYPE>  (1935) 
Backbone

>  <CLASS>  (1935) 
alpha

>  <ANALOG>  (1935) 
Pro

>  <MOL_WT>  (1935) 
214.26499999999996

>  <LOGP>  (1935) 
-0.42989999999999934

>  <TPSA>  (1935) 
70.59

>  <POPULARITY>  (1935) 
2.2

>  <PROTECTED>  (1935) 
TRUE

>  <SMILES>  (1935) 
N2[C@@H](C[C@@H](OC1(CCNCC1))C2)C(=O)O

>  <INCHIKEY>  (1935) 
NBQNNKGFNNZOAL-BDAKNGLRSA-N

$$$$
Hyp_Bn
     RDKit          2D

 16 17  0  0  0  0  0  0  0  0999 V2000
   -3.4311    1.5647    0.0000 N   0  0  0  0  0  0  0  0  0  0  0  0
   -3.3806    0.0656    0.0000 C   0  0  0  0  0  0  0  0  0  0  0  0
   -1.9392   -0.3496    0.0000 C   0  0  0  0  0  0  0  0  0  0  0  0
   -1.0989    0.8929    0.0000 C   0  0  0  0  0  0  0  0  0  0  0  0
    0.4003    0.9434    0.0000 O   0  0  0  0  0  0  0  0  0  0  0  0
    1.1936   -0.3297    0.0000 C   0  0  0  0  0  0  0  0  0  0  0  0
    2.6927   -0.2792    0.0000 C   0  0  0  0  0  0  0  0  0  0  0  0
    3.4860   -1.5522    0.0000 C   0  0  0  0  0  0  0  0  0  0  0  0
    4.9852   -1.5017    0.0000 C   0  0  0  0  0  0  0  0  0  0  0  0
    5.6910   -0.1782    0.0000 C   0  0  0  0  0  0  0  0  0  0  0  0
    4.8977    1.0949    0.0000 C   0  0  0  0  0  0  0  0  0  0  0  0
    3.3986    1.0444    0.0000 C   0  0  0  0  0  0  0  0  0  0  0  0
   -2.0209    2.0760    0.0000 C   0  0  0  0  0  0  0  0  0  0  0  0
   -4.5637   -0.8564    0.0000 C   0  0  0  0  0  0  0  0  0  0  0  0
   -4.3568   -2.3421    0.0000 O   0  0  0  0  0  0  0  0  0  0  0  0
   -5.9538   -0.2928    0.0000 O   0  0  0  0  0  0  0  0  0  0  0  0
  1  2  1  0
  2  3  1  0
  3  4  1  0
  4  5  1  6
  5  6  1  0
  6  7  1  0
  7  8  2  0
  8  9  1  0
  9 10  2  0
 10 11  1  0
 11 12  2  0
  4 13  1  0
  2 14  1  1
 14 15  2  0
 14 16  1  0
 12  7  1  0
 13  1  1  0
M  END
>  <rName>  (1936) 
Hyp_Bn

>  <PQ_SYMBOL>  (1936) 
Hyp_Bn

>  <FULL_NAME>  (1936) 
(4R)-4-(Phenylmethoxy)-L-Proline

>  <IUPAC_CONDENSED>  (1936) 
Hyp(Bn)

>  <IUPAC>  (1936) 
(2S,4R)-4-benzyloxypyrrolidine-2-carboxylic acid

>  <TYPE>  (1936) 
Backbone

>  <CLASS>  (1936) 
alpha

>  <ANALOG>  (1936) 
Pro

>  <MOL_WT>  (1936) 
221.256

>  <LOGP>  (1936) 
1.0182999999999998

>  <TPSA>  (1936) 
58.56

>  <POPULARITY>  (1936) 
14.0

>  <PROTECTED>  (1936) 
TRUE

>  <SMILES>  (1936) 
N2[C@@H](C[C@@H](OCc1(ccccc1))C2)C(=O)O

>  <INCHIKEY>  (1936) 
RJFJRYVMVNICCP-MNOVXSKESA-N

$$$$
Hyp_Bn_24diCl
     RDKit          2D

 18 19  0  0  0  0  0  0  0  0999 V2000
   -3.9519    1.5060    0.0000 N   0  0  0  0  0  0  0  0  0  0  0  0
   -3.9252    0.0063    0.0000 C   0  0  0  0  0  0  0  0  0  0  0  0
   -2.4906   -0.4318    0.0000 C   0  0  0  0  0  0  0  0  0  0  0  0
   -1.6306    0.7972    0.0000 C   0  0  0  0  0  0  0  0  0  0  0  0
   -0.1309    0.8239    0.0000 O   0  0  0  0  0  0  0  0  0  0  0  0
    0.6421   -0.4616    0.0000 C   0  0  0  0  0  0  0  0  0  0  0  0
    2.1419   -0.4349    0.0000 C   0  0  0  0  0  0  0  0  0  0  0  0
    2.9149   -1.7204    0.0000 C   0  0  0  0  0  0  0  0  0  0  0  0
    4.4147   -1.6937    0.0000 C   0  0  0  0  0  0  0  0  0  0  0  0
    5.1414   -0.3815    0.0000 C   0  0  0  0  0  0  0  0  0  0  0  0
    6.6412   -0.3548    0.0000 Cl  0  0  0  0  0  0  0  0  0  0  0  0
    4.3684    0.9040    0.0000 C   0  0  0  0  0  0  0  0  0  0  0  0
    2.8687    0.8773    0.0000 C   0  0  0  0  0  0  0  0  0  0  0  0
    2.0957    2.1628    0.0000 Cl  0  0  0  0  0  0  0  0  0  0  0  0
   -2.5338    1.9949    0.0000 C   0  0  0  0  0  0  0  0  0  0  0  0
   -5.1228   -0.8969    0.0000 C   0  0  0  0  0  0  0  0  0  0  0  0
   -4.9395   -2.3856    0.0000 O   0  0  0  0  0  0  0  0  0  0  0  0
   -6.5038   -0.3112    0.0000 O   0  0  0  0  0  0  0  0  0  0  0  0
  1  2  1  0
  2  3  1  0
  3  4  1  0
  4  5  1  6
  5  6  1  0
  6  7  1  0
  7  8  1  0
  8  9  2  0
  9 10  1  0
 10 11  1  0
 10 12  2  0
 12 13  1  0
 13 14  1  0
  4 15  1  0
  2 16  1  1
 16 17  2  0
 16 18  1  0
 13  7  2  0
 15  1  1  0
M  END
>  <rName>  (1937) 
Hyp_Bn_24diCl

>  <PQ_SYMBOL>  (1937) 
Hyp_Bn_24diCl

>  <FULL_NAME>  (1937) 
Hyp(Bn(2,4-diCl))

>  <IUPAC_CONDENSED>  (1937) 
Hyp(Bn(2,4-diCl))

>  <IUPAC>  (1937) 
(2S,4R)-4-(((2,4-dichlorophenyl)methyl)oxy)pyrrolidine-2-carboxylic acid

>  <TYPE>  (1937) 
Backbone

>  <CLASS>  (1937) 
alpha

>  <ANALOG>  (1937) 
Pro

>  <MOL_WT>  (1937) 
290.146

>  <LOGP>  (1937) 
2.3251

>  <TPSA>  (1937) 
58.56

>  <POPULARITY>  (1937) 
2.2

>  <PROTECTED>  (1937) 
TRUE

>  <SMILES>  (1937) 
N2[C@@H](C[C@@H](OCc1(ccc(Cl)cc1Cl))C2)C(=O)O

>  <INCHIKEY>  (1937) 
AXBWOODQDZLRBT-KOLCDFICSA-N

$$$$
Hyp_Bn_24diF
     RDKit          2D

 18 19  0  0  0  0  0  0  0  0999 V2000
   -3.9519    1.5060    0.0000 N   0  0  0  0  0  0  0  0  0  0  0  0
   -3.9252    0.0063    0.0000 C   0  0  0  0  0  0  0  0  0  0  0  0
   -2.4906   -0.4318    0.0000 C   0  0  0  0  0  0  0  0  0  0  0  0
   -1.6306    0.7972    0.0000 C   0  0  0  0  0  0  0  0  0  0  0  0
   -0.1309    0.8239    0.0000 O   0  0  0  0  0  0  0  0  0  0  0  0
    0.6421   -0.4616    0.0000 C   0  0  0  0  0  0  0  0  0  0  0  0
    2.1419   -0.4349    0.0000 C   0  0  0  0  0  0  0  0  0  0  0  0
    2.9149   -1.7204    0.0000 C   0  0  0  0  0  0  0  0  0  0  0  0
    4.4147   -1.6937    0.0000 C   0  0  0  0  0  0  0  0  0  0  0  0
    5.1414   -0.3815    0.0000 C   0  0  0  0  0  0  0  0  0  0  0  0
    6.6412   -0.3548    0.0000 F   0  0  0  0  0  0  0  0  0  0  0  0
    4.3684    0.9040    0.0000 C   0  0  0  0  0  0  0  0  0  0  0  0
    2.8687    0.8773    0.0000 C   0  0  0  0  0  0  0  0  0  0  0  0
    2.0957    2.1628    0.0000 F   0  0  0  0  0  0  0  0  0  0  0  0
   -2.5338    1.9949    0.0000 C   0  0  0  0  0  0  0  0  0  0  0  0
   -5.1228   -0.8969    0.0000 C   0  0  0  0  0  0  0  0  0  0  0  0
   -4.9395   -2.3856    0.0000 O   0  0  0  0  0  0  0  0  0  0  0  0
   -6.5038   -0.3112    0.0000 O   0  0  0  0  0  0  0  0  0  0  0  0
  1  2  1  0
  2  3  1  0
  3  4  1  0
  4  5  1  6
  5  6  1  0
  6  7  1  0
  7  8  1  0
  8  9  2  0
  9 10  1  0
 10 11  1  0
 10 12  2  0
 12 13  1  0
 13 14  1  0
  4 15  1  0
  2 16  1  1
 16 17  2  0
 16 18  1  0
 13  7  2  0
 15  1  1  0
M  END
>  <rName>  (1938) 
Hyp_Bn_24diF

>  <PQ_SYMBOL>  (1938) 
Hyp_Bn_24diF

>  <FULL_NAME>  (1938) 
Hyp(Bn(2,4-diF))

>  <IUPAC_CONDENSED>  (1938) 
Hyp(Bn(2,4-diF))

>  <IUPAC>  (1938) 
(2S,4R)-4-(((2,4-difluorophenyl)methyl)oxy)pyrrolidine-2-carboxylic acid

>  <TYPE>  (1938) 
Backbone

>  <CLASS>  (1938) 
alpha

>  <ANALOG>  (1938) 
Pro

>  <MOL_WT>  (1938) 
257.23599999999993

>  <LOGP>  (1938) 
1.2965

>  <TPSA>  (1938) 
58.56

>  <POPULARITY>  (1938) 
2.2

>  <PROTECTED>  (1938) 
TRUE

>  <SMILES>  (1938) 
N2[C@@H](C[C@@H](OCc1(ccc(F)cc1F))C2)C(=O)O

>  <INCHIKEY>  (1938) 
CBJSCLYYCTZIAF-KOLCDFICSA-N

$$$$
Hyp_Bn_2F_4Br
     RDKit          2D

 18 19  0  0  0  0  0  0  0  0999 V2000
   -3.9519    1.5060    0.0000 N   0  0  0  0  0  0  0  0  0  0  0  0
   -3.9252    0.0063    0.0000 C   0  0  0  0  0  0  0  0  0  0  0  0
   -2.4906   -0.4318    0.0000 C   0  0  0  0  0  0  0  0  0  0  0  0
   -1.6306    0.7972    0.0000 C   0  0  0  0  0  0  0  0  0  0  0  0
   -0.1309    0.8239    0.0000 O   0  0  0  0  0  0  0  0  0  0  0  0
    0.6421   -0.4616    0.0000 C   0  0  0  0  0  0  0  0  0  0  0  0
    2.1419   -0.4349    0.0000 C   0  0  0  0  0  0  0  0  0  0  0  0
    2.9149   -1.7204    0.0000 C   0  0  0  0  0  0  0  0  0  0  0  0
    4.4147   -1.6937    0.0000 C   0  0  0  0  0  0  0  0  0  0  0  0
    5.1414   -0.3815    0.0000 C   0  0  0  0  0  0  0  0  0  0  0  0
    6.6412   -0.3548    0.0000 Br  0  0  0  0  0  0  0  0  0  0  0  0
    4.3684    0.9040    0.0000 C   0  0  0  0  0  0  0  0  0  0  0  0
    2.8687    0.8773    0.0000 C   0  0  0  0  0  0  0  0  0  0  0  0
    2.0957    2.1628    0.0000 F   0  0  0  0  0  0  0  0  0  0  0  0
   -2.5338    1.9949    0.0000 C   0  0  0  0  0  0  0  0  0  0  0  0
   -5.1228   -0.8969    0.0000 C   0  0  0  0  0  0  0  0  0  0  0  0
   -4.9395   -2.3856    0.0000 O   0  0  0  0  0  0  0  0  0  0  0  0
   -6.5038   -0.3112    0.0000 O   0  0  0  0  0  0  0  0  0  0  0  0
  1  2  1  0
  2  3  1  0
  3  4  1  0
  4  5  1  6
  5  6  1  0
  6  7  1  0
  7  8  1  0
  8  9  2  0
  9 10  1  0
 10 11  1  0
 10 12  2  0
 12 13  1  0
 13 14  1  0
  4 15  1  0
  2 16  1  1
 16 17  2  0
 16 18  1  0
 13  7  2  0
 15  1  1  0
M  END
>  <rName>  (1939) 
Hyp_Bn_2F_4Br

>  <PQ_SYMBOL>  (1939) 
Hyp_Bn_2F_4Br

>  <FULL_NAME>  (1939) 
Hyp(Bn(2-F,4-Br))

>  <IUPAC_CONDENSED>  (1939) 
Hyp(Bn(2-F,4-Br))

>  <IUPAC>  (1939) 
(2S,4R)-4-(((4-bromo-2-fluorophenyl)methyl)oxy)pyrrolidine-2-carboxylic acid

>  <TYPE>  (1939) 
Backbone

>  <CLASS>  (1939) 
alpha

>  <ANALOG>  (1939) 
Pro

>  <MOL_WT>  (1939) 
318.1420000000001

>  <LOGP>  (1939) 
1.9199

>  <TPSA>  (1939) 
58.56

>  <POPULARITY>  (1939) 
2.2

>  <PROTECTED>  (1939) 
TRUE

>  <SMILES>  (1939) 
N2[C@@H](C[C@@H](OCc1(ccc(Br)cc1F))C2)C(=O)O

>  <INCHIKEY>  (1939) 
VMDBOQHWNBGPHD-KOLCDFICSA-N

$$$$
Hyp_Bn_2F_4Cl
     RDKit          2D

 18 19  0  0  0  0  0  0  0  0999 V2000
   -3.9519    1.5060    0.0000 N   0  0  0  0  0  0  0  0  0  0  0  0
   -3.9252    0.0063    0.0000 C   0  0  0  0  0  0  0  0  0  0  0  0
   -2.4906   -0.4318    0.0000 C   0  0  0  0  0  0  0  0  0  0  0  0
   -1.6306    0.7972    0.0000 C   0  0  0  0  0  0  0  0  0  0  0  0
   -0.1309    0.8239    0.0000 O   0  0  0  0  0  0  0  0  0  0  0  0
    0.6421   -0.4616    0.0000 C   0  0  0  0  0  0  0  0  0  0  0  0
    2.1419   -0.4349    0.0000 C   0  0  0  0  0  0  0  0  0  0  0  0
    2.9149   -1.7204    0.0000 C   0  0  0  0  0  0  0  0  0  0  0  0
    4.4147   -1.6937    0.0000 C   0  0  0  0  0  0  0  0  0  0  0  0
    5.1414   -0.3815    0.0000 C   0  0  0  0  0  0  0  0  0  0  0  0
    6.6412   -0.3548    0.0000 Cl  0  0  0  0  0  0  0  0  0  0  0  0
    4.3684    0.9040    0.0000 C   0  0  0  0  0  0  0  0  0  0  0  0
    2.8687    0.8773    0.0000 C   0  0  0  0  0  0  0  0  0  0  0  0
    2.0957    2.1628    0.0000 F   0  0  0  0  0  0  0  0  0  0  0  0
   -2.5338    1.9949    0.0000 C   0  0  0  0  0  0  0  0  0  0  0  0
   -5.1228   -0.8969    0.0000 C   0  0  0  0  0  0  0  0  0  0  0  0
   -4.9395   -2.3856    0.0000 O   0  0  0  0  0  0  0  0  0  0  0  0
   -6.5038   -0.3112    0.0000 O   0  0  0  0  0  0  0  0  0  0  0  0
  1  2  1  0
  2  3  1  0
  3  4  1  0
  4  5  1  6
  5  6  1  0
  6  7  1  0
  7  8  1  0
  8  9  2  0
  9 10  1  0
 10 11  1  0
 10 12  2  0
 12 13  1  0
 13 14  1  0
  4 15  1  0
  2 16  1  1
 16 17  2  0
 16 18  1  0
 13  7  2  0
 15  1  1  0
M  END
>  <rName>  (1940) 
Hyp_Bn_2F_4Cl

>  <PQ_SYMBOL>  (1940) 
Hyp_Bn_2F_4Cl

>  <FULL_NAME>  (1940) 
Hyp(Bn(2-F,4-Cl))

>  <IUPAC_CONDENSED>  (1940) 
Hyp(Bn(2-F,4-Cl))

>  <IUPAC>  (1940) 
(2S,4R)-4-(((4-chloro-2-fluorophenyl)methyl)oxy)pyrrolidine-2-carboxylic acid

>  <TYPE>  (1940) 
Backbone

>  <CLASS>  (1940) 
alpha

>  <ANALOG>  (1940) 
Pro

>  <MOL_WT>  (1940) 
273.691

>  <LOGP>  (1940) 
1.8108

>  <TPSA>  (1940) 
58.56

>  <POPULARITY>  (1940) 
2.2

>  <PROTECTED>  (1940) 
TRUE

>  <SMILES>  (1940) 
N2[C@@H](C[C@@H](OCc1(ccc(Cl)cc1F))C2)C(=O)O

>  <INCHIKEY>  (1940) 
BTVZIQCSTJZIQJ-KOLCDFICSA-N

$$$$
Hyp_Bn_34diCl
     RDKit          2D

 18 19  0  0  0  0  0  0  0  0999 V2000
   -4.0794    1.6061    0.0000 N   0  0  0  0  0  0  0  0  0  0  0  0
   -4.0904    0.1062    0.0000 C   0  0  0  0  0  0  0  0  0  0  0  0
   -2.6673   -0.3678    0.0000 C   0  0  0  0  0  0  0  0  0  0  0  0
   -1.7767    0.8392    0.0000 C   0  0  0  0  0  0  0  0  0  0  0  0
   -0.2768    0.8282    0.0000 O   0  0  0  0  0  0  0  0  0  0  0  0
    0.4637   -0.4763    0.0000 C   0  0  0  0  0  0  0  0  0  0  0  0
    1.9636   -0.4874    0.0000 C   0  0  0  0  0  0  0  0  0  0  0  0
    2.7041   -1.7919    0.0000 C   0  0  0  0  0  0  0  0  0  0  0  0
    4.2040   -1.8029    0.0000 C   0  0  0  0  0  0  0  0  0  0  0  0
    4.9635   -0.5094    0.0000 C   0  0  0  0  0  0  0  0  0  0  0  0
    6.4635   -0.5205    0.0000 Cl  0  0  0  0  0  0  0  0  0  0  0  0
    4.2231    0.7951    0.0000 C   0  0  0  0  0  0  0  0  0  0  0  0
    4.9826    2.0886    0.0000 Cl  0  0  0  0  0  0  0  0  0  0  0  0
    2.7232    0.8061    0.0000 C   0  0  0  0  0  0  0  0  0  0  0  0
   -2.6495    2.0592    0.0000 C   0  0  0  0  0  0  0  0  0  0  0  0
   -5.3104   -0.7665    0.0000 C   0  0  0  0  0  0  0  0  0  0  0  0
   -5.1646   -2.2594    0.0000 O   0  0  0  0  0  0  0  0  0  0  0  0
   -6.6762   -0.1464    0.0000 O   0  0  0  0  0  0  0  0  0  0  0  0
  1  2  1  0
  2  3  1  0
  3  4  1  0
  4  5  1  6
  5  6  1  0
  6  7  1  0
  7  8  1  0
  8  9  2  0
  9 10  1  0
 10 11  1  0
 10 12  2  0
 12 13  1  0
 12 14  1  0
  4 15  1  0
  2 16  1  1
 16 17  2  0
 16 18  1  0
 14  7  2  0
 15  1  1  0
M  END
>  <rName>  (1941) 
Hyp_Bn_34diCl

>  <PQ_SYMBOL>  (1941) 
Hyp_Bn_34diCl

>  <FULL_NAME>  (1941) 
Hyp(Bn(3,4-diCl))

>  <IUPAC_CONDENSED>  (1941) 
Hyp(Bn(3,4-diCl))

>  <IUPAC>  (1941) 
(2S,4R)-4-(((3,4-dichlorophenyl)methyl)oxy)pyrrolidine-2-carboxylic acid

>  <TYPE>  (1941) 
Backbone

>  <CLASS>  (1941) 
alpha

>  <ANALOG>  (1941) 
Pro

>  <MOL_WT>  (1941) 
290.146

>  <LOGP>  (1941) 
2.3251

>  <TPSA>  (1941) 
58.56

>  <POPULARITY>  (1941) 
2.2

>  <PROTECTED>  (1941) 
TRUE

>  <SMILES>  (1941) 
N2[C@@H](C[C@@H](OCc1(ccc(Cl)c(Cl)c1))C2)C(=O)O

>  <INCHIKEY>  (1941) 
ITNDXYBUGLXAMV-KCJUWKMLSA-N

$$$$
Hyp_Bn_4Br
     RDKit          2D

 17 18  0  0  0  0  0  0  0  0999 V2000
   -3.8595    1.5588    0.0000 N   0  0  0  0  0  0  0  0  0  0  0  0
   -3.8038    0.0598    0.0000 C   0  0  0  0  0  0  0  0  0  0  0  0
   -2.3610   -0.3504    0.0000 C   0  0  0  0  0  0  0  0  0  0  0  0
   -1.5250    0.8951    0.0000 C   0  0  0  0  0  0  0  0  0  0  0  0
   -0.0260    0.9508    0.0000 O   0  0  0  0  0  0  0  0  0  0  0  0
    0.7717   -0.3195    0.0000 C   0  0  0  0  0  0  0  0  0  0  0  0
    2.2707   -0.2637    0.0000 C   0  0  0  0  0  0  0  0  0  0  0  0
    3.0684   -1.5340    0.0000 C   0  0  0  0  0  0  0  0  0  0  0  0
    4.5674   -1.4783    0.0000 C   0  0  0  0  0  0  0  0  0  0  0  0
    5.2686   -0.1523    0.0000 C   0  0  0  0  0  0  0  0  0  0  0  0
    6.7676   -0.0966    0.0000 Br  0  0  0  0  0  0  0  0  0  0  0  0
    4.4709    1.1180    0.0000 C   0  0  0  0  0  0  0  0  0  0  0  0
    2.9719    1.0623    0.0000 C   0  0  0  0  0  0  0  0  0  0  0  0
   -2.4511    2.0750    0.0000 C   0  0  0  0  0  0  0  0  0  0  0  0
   -4.9837   -0.8663    0.0000 C   0  0  0  0  0  0  0  0  0  0  0  0
   -4.7716   -2.3512    0.0000 O   0  0  0  0  0  0  0  0  0  0  0  0
   -6.3757   -0.3075    0.0000 O   0  0  0  0  0  0  0  0  0  0  0  0
  1  2  1  0
  2  3  1  0
  3  4  1  0
  4  5  1  6
  5  6  1  0
  6  7  1  0
  7  8  1  0
  8  9  2  0
  9 10  1  0
 10 11  1  0
 10 12  2  0
 12 13  1  0
  4 14  1  0
  2 15  1  1
 15 16  2  0
 15 17  1  0
 13  7  2  0
 14  1  1  0
M  END
>  <rName>  (1942) 
Hyp_Bn_4Br

>  <PQ_SYMBOL>  (1942) 
Hyp_Bn_4Br

>  <FULL_NAME>  (1942) 
(2S,4R)-4-[(4-bromophenyl)methoxy]pyrrolidine-2-carboxylic acid

>  <IUPAC_CONDENSED>  (1942) 
Hyp(Bn(4-Br))

>  <IUPAC>  (1942) 
(2S,4R)-4-[(4-bromophenyl)methoxy]pyrrolidine-2-carboxylic acid

>  <TYPE>  (1942) 
Backbone

>  <CLASS>  (1942) 
alpha

>  <ANALOG>  (1942) 
Pro

>  <MOL_WT>  (1942) 
300.15200000000004

>  <LOGP>  (1942) 
1.7808

>  <TPSA>  (1942) 
58.56

>  <POPULARITY>  (1942) 
2.2

>  <PROTECTED>  (1942) 
TRUE

>  <SMILES>  (1942) 
N2[C@@H](C[C@@H](OCc1(ccc(Br)cc1))C2)C(=O)O

>  <INCHIKEY>  (1942) 
XJXALAPUCIFRDX-MNOVXSKESA-N

$$$$
Hyp_Bn_4CF3
     RDKit          2D

 20 21  0  0  0  0  0  0  0  0999 V2000
   -4.9560    1.5502    0.0000 N   0  0  0  0  0  0  0  0  0  0  0  0
   -4.8941    0.0515    0.0000 C   0  0  0  0  0  0  0  0  0  0  0  0
   -3.4496   -0.3528    0.0000 C   0  0  0  0  0  0  0  0  0  0  0  0
   -2.6188    0.8960    0.0000 C   0  0  0  0  0  0  0  0  0  0  0  0
   -1.1200    0.9579    0.0000 O   0  0  0  0  0  0  0  0  0  0  0  0
   -0.3171   -0.3091    0.0000 C   0  0  0  0  0  0  0  0  0  0  0  0
    1.1816   -0.2472    0.0000 C   0  0  0  0  0  0  0  0  0  0  0  0
    1.9846   -1.5142    0.0000 C   0  0  0  0  0  0  0  0  0  0  0  0
    3.4833   -1.4523    0.0000 C   0  0  0  0  0  0  0  0  0  0  0  0
    4.1791   -0.1235    0.0000 C   0  0  0  0  0  0  0  0  0  0  0  0
    3.3761    1.1435    0.0000 C   0  0  0  0  0  0  0  0  0  0  0  0
    1.8774    1.0817    0.0000 C   0  0  0  0  0  0  0  0  0  0  0  0
    5.6778   -0.0616    0.0000 C   0  0  0  0  0  0  0  0  0  0  0  0
    7.1765    0.0003    0.0000 F   0  0  0  0  0  0  0  0  0  0  0  0
    5.7397   -1.5603    0.0000 F   0  0  0  0  0  0  0  0  0  0  0  0
    5.6159    1.4371    0.0000 F   0  0  0  0  0  0  0  0  0  0  0  0
   -3.5497    2.0722    0.0000 C   0  0  0  0  0  0  0  0  0  0  0  0
   -6.0702   -0.8795    0.0000 C   0  0  0  0  0  0  0  0  0  0  0  0
   -5.8520   -2.3636    0.0000 O   0  0  0  0  0  0  0  0  0  0  0  0
   -7.4646   -0.3265    0.0000 O   0  0  0  0  0  0  0  0  0  0  0  0
  1  2  1  0
  2  3  1  0
  3  4  1  0
  4  5  1  6
  5  6  1  0
  6  7  1  0
  7  8  1  0
  8  9  2  0
  9 10  1  0
 10 11  2  0
 11 12  1  0
 10 13  1  0
 13 14  1  0
 13 15  1  0
 13 16  1  0
  4 17  1  0
  2 18  1  1
 18 19  2  0
 18 20  1  0
 12  7  2  0
 17  1  1  0
M  END
>  <rName>  (1943) 
Hyp_Bn_4CF3

>  <PQ_SYMBOL>  (1943) 
Hyp_Bn_4CF3

>  <FULL_NAME>  (1943) 
Hyp(Bn(4-CF3))

>  <IUPAC_CONDENSED>  (1943) 
Hyp(Bn(4-CF3))

>  <IUPAC>  (1943) 
(2S,4R)-4-(((4-(trifluoromethyl)phenyl)methyl)oxy)pyrrolidine-2-carboxylic acid

>  <TYPE>  (1943) 
Backbone

>  <CLASS>  (1943) 
alpha

>  <ANALOG>  (1943) 
Pro

>  <MOL_WT>  (1943) 
289.253

>  <LOGP>  (1943) 
2.0371

>  <TPSA>  (1943) 
58.56

>  <POPULARITY>  (1943) 
2.2

>  <PROTECTED>  (1943) 
TRUE

>  <SMILES>  (1943) 
N2[C@@H](C[C@@H](OCc1(ccc(cc1)C(F)(F)F))C2)C(=O)O

>  <INCHIKEY>  (1943) 
XDXCHLXXKHCHMV-MNOVXSKESA-N

$$$$
Hyp_Bn_4CN
     RDKit          2D

 18 19  0  0  0  0  0  0  0  0999 V2000
   -4.3203    1.5567    0.0000 N   0  0  0  0  0  0  0  0  0  0  0  0
   -4.2631    0.0578    0.0000 C   0  0  0  0  0  0  0  0  0  0  0  0
   -2.8198   -0.3510    0.0000 C   0  0  0  0  0  0  0  0  0  0  0  0
   -1.9851    0.8953    0.0000 C   0  0  0  0  0  0  0  0  0  0  0  0
   -0.4862    0.9526    0.0000 O   0  0  0  0  0  0  0  0  0  0  0  0
    0.3128   -0.3169    0.0000 C   0  0  0  0  0  0  0  0  0  0  0  0
    1.8117   -0.2596    0.0000 C   0  0  0  0  0  0  0  0  0  0  0  0
    2.6108   -1.5291    0.0000 C   0  0  0  0  0  0  0  0  0  0  0  0
    4.1097   -1.4718    0.0000 C   0  0  0  0  0  0  0  0  0  0  0  0
    4.8095   -0.1451    0.0000 C   0  0  0  0  0  0  0  0  0  0  0  0
    6.3084   -0.0879    0.0000 C   0  0  0  0  0  0  0  0  0  0  0  0
    7.8073   -0.0306    0.0000 N   0  0  0  0  0  0  0  0  0  0  0  0
    4.0105    1.1244    0.0000 C   0  0  0  0  0  0  0  0  0  0  0  0
    2.5116    1.0671    0.0000 C   0  0  0  0  0  0  0  0  0  0  0  0
   -2.9125    2.0743    0.0000 C   0  0  0  0  0  0  0  0  0  0  0  0
   -5.4421   -0.8696    0.0000 C   0  0  0  0  0  0  0  0  0  0  0  0
   -5.2285   -2.3543    0.0000 O   0  0  0  0  0  0  0  0  0  0  0  0
   -6.8347   -0.3122    0.0000 O   0  0  0  0  0  0  0  0  0  0  0  0
  1  2  1  0
  2  3  1  0
  3  4  1  0
  4  5  1  6
  5  6  1  0
  6  7  1  0
  7  8  1  0
  8  9  2  0
  9 10  1  0
 10 11  1  0
 11 12  3  0
 10 13  2  0
 13 14  1  0
  4 15  1  0
  2 16  1  1
 16 17  2  0
 16 18  1  0
 14  7  2  0
 15  1  1  0
M  END
>  <rName>  (1944) 
Hyp_Bn_4CN

>  <PQ_SYMBOL>  (1944) 
Hyp_Bn_4CN

>  <FULL_NAME>  (1944) 
(2S,4R)-4-[(4-cyanophenyl)methoxy]pyrrolidine-2-carboxylic acid

>  <IUPAC_CONDENSED>  (1944) 
Hyp(Bn(4-CN))

>  <IUPAC>  (1944) 
(2S,4R)-4-[(4-cyanophenyl)methoxy]pyrrolidine-2-carboxylic acid

>  <TYPE>  (1944) 
Backbone

>  <CLASS>  (1944) 
alpha

>  <ANALOG>  (1944) 
Pro

>  <MOL_WT>  (1944) 
246.266

>  <LOGP>  (1944) 
0.88998

>  <TPSA>  (1944) 
82.35

>  <POPULARITY>  (1944) 
2.2

>  <PROTECTED>  (1944) 
TRUE

>  <SMILES>  (1944) 
N2[C@@H](C[C@@H](OCc1(ccc(C#N)cc1))C2)C(=O)O

>  <INCHIKEY>  (1944) 
LVUGGTSVNNTVKH-NEPJUHHUSA-N

$$$$
Hyp_Bn_4Cl
     RDKit          2D

 17 18  0  0  0  0  0  0  0  0999 V2000
   -3.8595    1.5588    0.0000 N   0  0  0  0  0  0  0  0  0  0  0  0
   -3.8038    0.0598    0.0000 C   0  0  0  0  0  0  0  0  0  0  0  0
   -2.3610   -0.3504    0.0000 C   0  0  0  0  0  0  0  0  0  0  0  0
   -1.5250    0.8951    0.0000 C   0  0  0  0  0  0  0  0  0  0  0  0
   -0.0260    0.9508    0.0000 O   0  0  0  0  0  0  0  0  0  0  0  0
    0.7717   -0.3195    0.0000 C   0  0  0  0  0  0  0  0  0  0  0  0
    2.2707   -0.2637    0.0000 C   0  0  0  0  0  0  0  0  0  0  0  0
    3.0684   -1.5340    0.0000 C   0  0  0  0  0  0  0  0  0  0  0  0
    4.5674   -1.4783    0.0000 C   0  0  0  0  0  0  0  0  0  0  0  0
    5.2686   -0.1523    0.0000 C   0  0  0  0  0  0  0  0  0  0  0  0
    6.7676   -0.0966    0.0000 Cl  0  0  0  0  0  0  0  0  0  0  0  0
    4.4709    1.1180    0.0000 C   0  0  0  0  0  0  0  0  0  0  0  0
    2.9719    1.0623    0.0000 C   0  0  0  0  0  0  0  0  0  0  0  0
   -2.4511    2.0750    0.0000 C   0  0  0  0  0  0  0  0  0  0  0  0
   -4.9837   -0.8663    0.0000 C   0  0  0  0  0  0  0  0  0  0  0  0
   -4.7716   -2.3512    0.0000 O   0  0  0  0  0  0  0  0  0  0  0  0
   -6.3757   -0.3075    0.0000 O   0  0  0  0  0  0  0  0  0  0  0  0
  1  2  1  0
  2  3  1  0
  3  4  1  0
  4  5  1  6
  5  6  1  0
  6  7  1  0
  7  8  1  0
  8  9  2  0
  9 10  1  0
 10 11  1  0
 10 12  2  0
 12 13  1  0
  4 14  1  0
  2 15  1  1
 15 16  2  0
 15 17  1  0
 13  7  2  0
 14  1  1  0
M  END
>  <rName>  (1945) 
Hyp_Bn_4Cl

>  <PQ_SYMBOL>  (1945) 
Hyp_Bn_4Cl

>  <FULL_NAME>  (1945) 
(2S,4R)-4-[(4-chlorophenyl)methoxy]pyrrolidine-2-carboxylic acid

>  <IUPAC_CONDENSED>  (1945) 
Hyp(Bn(4-Cl))

>  <IUPAC>  (1945) 
(2S,4R)-4-[(4-chlorophenyl)methoxy]pyrrolidine-2-carboxylic acid

>  <TYPE>  (1945) 
Backbone

>  <CLASS>  (1945) 
alpha

>  <ANALOG>  (1945) 
Pro

>  <MOL_WT>  (1945) 
255.701

>  <LOGP>  (1945) 
1.6717

>  <TPSA>  (1945) 
58.56

>  <POPULARITY>  (1945) 
2.2

>  <PROTECTED>  (1945) 
TRUE

>  <SMILES>  (1945) 
N2[C@@H](C[C@@H](OCc1(ccc(Cl)cc1))C2)C(=O)O

>  <INCHIKEY>  (1945) 
WRNNIFHHQUOJRN-MNOVXSKESA-N

$$$$
Hyp_Bn_4OCF3
     RDKit          2D

 21 22  0  0  0  0  0  0  0  0999 V2000
   -5.4904    1.3740    0.0000 N   0  0  0  0  0  0  0  0  0  0  0  0
   -5.2953   -0.1132    0.0000 C   0  0  0  0  0  0  0  0  0  0  0  0
   -3.8205   -0.3872    0.0000 C   0  0  0  0  0  0  0  0  0  0  0  0
   -3.1042    0.9307    0.0000 C   0  0  0  0  0  0  0  0  0  0  0  0
   -1.6170    1.1259    0.0000 O   0  0  0  0  0  0  0  0  0  0  0  0
   -0.7043   -0.0645    0.0000 C   0  0  0  0  0  0  0  0  0  0  0  0
    0.7829    0.1306    0.0000 C   0  0  0  0  0  0  0  0  0  0  0  0
    1.6956   -1.0598    0.0000 C   0  0  0  0  0  0  0  0  0  0  0  0
    3.1828   -0.8646    0.0000 C   0  0  0  0  0  0  0  0  0  0  0  0
    3.7574    0.5209    0.0000 C   0  0  0  0  0  0  0  0  0  0  0  0
    5.2447    0.7161    0.0000 O   0  0  0  0  0  0  0  0  0  0  0  0
    6.1573   -0.4743    0.0000 C   0  0  0  0  0  0  0  0  0  0  0  0
    7.0700   -1.6647    0.0000 F   0  0  0  0  0  0  0  0  0  0  0  0
    7.3477    0.4383    0.0000 F   0  0  0  0  0  0  0  0  0  0  0  0
    4.9669   -1.3869    0.0000 F   0  0  0  0  0  0  0  0  0  0  0  0
    2.8448    1.7114    0.0000 C   0  0  0  0  0  0  0  0  0  0  0  0
    1.3575    1.5162    0.0000 C   0  0  0  0  0  0  0  0  0  0  0  0
   -4.1363    2.0192    0.0000 C   0  0  0  0  0  0  0  0  0  0  0  0
   -6.3838   -1.1453    0.0000 C   0  0  0  0  0  0  0  0  0  0  0  0
   -6.0342   -2.6040    0.0000 O   0  0  0  0  0  0  0  0  0  0  0  0
   -7.8218   -0.7187    0.0000 O   0  0  0  0  0  0  0  0  0  0  0  0
  1  2  1  0
  2  3  1  0
  3  4  1  0
  4  5  1  6
  5  6  1  0
  6  7  1  0
  7  8  1  0
  8  9  2  0
  9 10  1  0
 10 11  1  0
 11 12  1  0
 12 13  1  0
 12 14  1  0
 12 15  1  0
 10 16  2  0
 16 17  1  0
  4 18  1  0
  2 19  1  1
 19 20  2  0
 19 21  1  0
 17  7  2  0
 18  1  1  0
M  END
>  <rName>  (1946) 
Hyp_Bn_4OCF3

>  <PQ_SYMBOL>  (1946) 
Hyp_Bn_4OCF3

>  <FULL_NAME>  (1946) 
Hyp(Bn(4-OCF3))

>  <IUPAC_CONDENSED>  (1946) 
Hyp(Bn(4-OCF3))

>  <IUPAC>  (1946) 
(2S,4R)-4-(((4-((trifluoromethyl)oxy)phenyl)methyl)oxy)pyrrolidine-2-carboxylic acid

>  <TYPE>  (1946) 
Backbone

>  <CLASS>  (1946) 
alpha

>  <ANALOG>  (1946) 
Pro

>  <MOL_WT>  (1946) 
305.25200000000007

>  <LOGP>  (1946) 
1.9168999999999998

>  <TPSA>  (1946) 
67.79

>  <POPULARITY>  (1946) 
2.2

>  <PROTECTED>  (1946) 
TRUE

>  <SMILES>  (1946) 
N2[C@@H](C[C@@H](OCc1(ccc(OC(F)(F)F)cc1))C2)C(=O)O

>  <INCHIKEY>  (1946) 
BLALVAYITFYNRS-MNOVXSKESA-N

$$$$
Hyp_Bn_4tBu
     RDKit          2D

 20 21  0  0  0  0  0  0  0  0999 V2000
   -4.9560    1.5502    0.0000 N   0  0  0  0  0  0  0  0  0  0  0  0
   -4.8941    0.0515    0.0000 C   0  0  0  0  0  0  0  0  0  0  0  0
   -3.4496   -0.3528    0.0000 C   0  0  0  0  0  0  0  0  0  0  0  0
   -2.6188    0.8960    0.0000 C   0  0  0  0  0  0  0  0  0  0  0  0
   -1.1200    0.9579    0.0000 O   0  0  0  0  0  0  0  0  0  0  0  0
   -0.3171   -0.3091    0.0000 C   0  0  0  0  0  0  0  0  0  0  0  0
    1.1816   -0.2472    0.0000 C   0  0  0  0  0  0  0  0  0  0  0  0
    1.9846   -1.5142    0.0000 C   0  0  0  0  0  0  0  0  0  0  0  0
    3.4833   -1.4523    0.0000 C   0  0  0  0  0  0  0  0  0  0  0  0
    4.1791   -0.1235    0.0000 C   0  0  0  0  0  0  0  0  0  0  0  0
    3.3761    1.1435    0.0000 C   0  0  0  0  0  0  0  0  0  0  0  0
    1.8774    1.0817    0.0000 C   0  0  0  0  0  0  0  0  0  0  0  0
    5.6778   -0.0616    0.0000 C   0  0  0  0  0  0  0  0  0  0  0  0
    5.7397   -1.5603    0.0000 C   0  0  0  0  0  0  0  0  0  0  0  0
    5.6159    1.4371    0.0000 C   0  0  0  0  0  0  0  0  0  0  0  0
    7.1765    0.0003    0.0000 C   0  0  0  0  0  0  0  0  0  0  0  0
   -3.5497    2.0722    0.0000 C   0  0  0  0  0  0  0  0  0  0  0  0
   -6.0702   -0.8795    0.0000 C   0  0  0  0  0  0  0  0  0  0  0  0
   -5.8520   -2.3636    0.0000 O   0  0  0  0  0  0  0  0  0  0  0  0
   -7.4646   -0.3265    0.0000 O   0  0  0  0  0  0  0  0  0  0  0  0
  1  2  1  0
  2  3  1  0
  3  4  1  0
  4  5  1  6
  5  6  1  0
  6  7  1  0
  7  8  1  0
  8  9  2  0
  9 10  1  0
 10 11  2  0
 11 12  1  0
 10 13  1  0
 13 14  1  0
 13 15  1  0
 13 16  1  0
  4 17  1  0
  2 18  1  1
 18 19  2  0
 18 20  1  0
 12  7  2  0
 17  1  1  0
M  END
>  <rName>  (1947) 
Hyp_Bn_4tBu

>  <PQ_SYMBOL>  (1947) 
Hyp_Bn_4tBu

>  <FULL_NAME>  (1947) 
Hyp(Bn(4-tBu))

>  <IUPAC_CONDENSED>  (1947) 
Hyp(Bn(4-tBu))

>  <IUPAC>  (1947) 
(2S,4R)-4-(((4-(tert-butyl)phenyl)methyl)oxy)pyrrolidine-2-carboxylic acid

>  <TYPE>  (1947) 
Backbone

>  <CLASS>  (1947) 
alpha

>  <ANALOG>  (1947) 
Pro

>  <MOL_WT>  (1947) 
277.364

>  <LOGP>  (1947) 
2.3158

>  <TPSA>  (1947) 
58.56

>  <POPULARITY>  (1947) 
2.2

>  <PROTECTED>  (1947) 
TRUE

>  <SMILES>  (1947) 
N2[C@@H](C[C@@H](OCc1(ccc(cc1)C(C)(C)C))C2)C(=O)O

>  <INCHIKEY>  (1947) 
HHDBERNNEVXNMB-KGLIPLIRSA-N

$$$$
Hyp_CF3
     RDKit          2D

 13 13  0  0  0  0  0  0  0  0999 V2000
    1.7738   -1.6971    0.0000 N   0  0  0  0  0  0  0  0  0  0  0  0
    1.7765   -0.1971    0.0000 C   0  0  0  0  0  0  0  0  0  0  0  0
    0.3507    0.2689    0.0000 C   0  0  0  0  0  0  0  0  0  0  0  0
   -0.5331   -0.9431    0.0000 C   0  0  0  0  0  0  0  0  0  0  0  0
   -2.0331   -0.9404    0.0000 O   0  0  0  0  0  0  0  0  0  0  0  0
   -2.7808    0.3600    0.0000 C   0  0  0  0  0  0  0  0  0  0  0  0
   -3.5285    1.6603    0.0000 F   0  0  0  0  0  0  0  0  0  0  0  0
   -4.0812   -0.3878    0.0000 F   0  0  0  0  0  0  0  0  0  0  0  0
   -1.4805    1.1077    0.0000 F   0  0  0  0  0  0  0  0  0  0  0  0
    0.3464   -2.1581    0.0000 C   0  0  0  0  0  0  0  0  0  0  0  0
    2.9916    0.6824    0.0000 C   0  0  0  0  0  0  0  0  0  0  0  0
    2.8374    2.1745    0.0000 O   0  0  0  0  0  0  0  0  0  0  0  0
    4.3608    0.0699    0.0000 O   0  0  0  0  0  0  0  0  0  0  0  0
  1  2  1  0
  2  3  1  0
  3  4  1  0
  4  5  1  6
  5  6  1  0
  6  7  1  0
  6  8  1  0
  6  9  1  0
  4 10  1  0
  2 11  1  1
 11 12  2  0
 11 13  1  0
 10  1  1  0
M  END
>  <rName>  (1948) 
Hyp_CF3

>  <PQ_SYMBOL>  (1948) 
Hyp_CF3

>  <FULL_NAME>  (1948) 
(2S,4R)-4-(trifluoromethoxy)pyrrolidine-2-carboxylic acid

>  <IUPAC_CONDENSED>  (1948) 
Hyp(CF3)

>  <IUPAC>  (1948) 
(2S,4R)-4-(trifluoromethoxy)pyrrolidine-2-carboxylic acid

>  <TYPE>  (1948) 
Backbone

>  <CLASS>  (1948) 
alpha

>  <ANALOG>  (1948) 
Pro

>  <MOL_WT>  (1948) 
199.128

>  <LOGP>  (1948) 
0.33790000000000003

>  <TPSA>  (1948) 
58.56

>  <POPULARITY>  (1948) 
2.2

>  <PROTECTED>  (1948) 
TRUE

>  <SMILES>  (1948) 
N1[C@@H](C[C@@H](OC(F)(F)F)C1)C(=O)O

>  <INCHIKEY>  (1948) 
KNQAAVYPDKAZPC-DMTCNVIQSA-N

$$$$
Hyp_CH2cHex
     RDKit          2D

 16 17  0  0  0  0  0  0  0  0999 V2000
   -3.4311    1.5647    0.0000 N   0  0  0  0  0  0  0  0  0  0  0  0
   -3.3806    0.0656    0.0000 C   0  0  0  0  0  0  0  0  0  0  0  0
   -1.9392   -0.3496    0.0000 C   0  0  0  0  0  0  0  0  0  0  0  0
   -1.0989    0.8929    0.0000 C   0  0  0  0  0  0  0  0  0  0  0  0
    0.4003    0.9434    0.0000 O   0  0  0  0  0  0  0  0  0  0  0  0
    1.1936   -0.3297    0.0000 C   0  0  0  0  0  0  0  0  0  0  0  0
    2.6927   -0.2792    0.0000 C   0  0  0  0  0  0  0  0  0  0  0  0
    3.4860   -1.5522    0.0000 C   0  0  0  0  0  0  0  0  0  0  0  0
    4.9852   -1.5017    0.0000 C   0  0  0  0  0  0  0  0  0  0  0  0
    5.6910   -0.1782    0.0000 C   0  0  0  0  0  0  0  0  0  0  0  0
    4.8977    1.0949    0.0000 C   0  0  0  0  0  0  0  0  0  0  0  0
    3.3986    1.0444    0.0000 C   0  0  0  0  0  0  0  0  0  0  0  0
   -2.0209    2.0760    0.0000 C   0  0  0  0  0  0  0  0  0  0  0  0
   -4.5637   -0.8564    0.0000 C   0  0  0  0  0  0  0  0  0  0  0  0
   -4.3568   -2.3421    0.0000 O   0  0  0  0  0  0  0  0  0  0  0  0
   -5.9538   -0.2928    0.0000 O   0  0  0  0  0  0  0  0  0  0  0  0
  1  2  1  0
  2  3  1  0
  3  4  1  0
  4  5  1  6
  5  6  1  0
  6  7  1  0
  7  8  1  0
  8  9  1  0
  9 10  1  0
 10 11  1  0
 11 12  1  0
  4 13  1  0
  2 14  1  1
 14 15  2  0
 14 16  1  0
 12  7  1  0
 13  1  1  0
M  END
>  <rName>  (1949) 
Hyp_CH2cHex

>  <PQ_SYMBOL>  (1949) 
Hyp_CH2cHex

>  <FULL_NAME>  (1949) 
Hyp(CH2cHex)

>  <IUPAC_CONDENSED>  (1949) 
Hyp(CH2cHex)

>  <IUPAC>  (1949) 
(2S,4R)-4-(cyclohexylmethoxy)pyrrolidine-2-carboxylic acid

>  <TYPE>  (1949) 
Backbone

>  <CLASS>  (1949) 
alpha

>  <ANALOG>  (1949) 
Pro

>  <MOL_WT>  (1949) 
227.30399999999995

>  <LOGP>  (1949) 
1.3983999999999999

>  <TPSA>  (1949) 
58.56

>  <POPULARITY>  (1949) 
2.2

>  <PROTECTED>  (1949) 
TRUE

>  <SMILES>  (1949) 
N2[C@@H](C[C@@H](OCC1(CCCCC1))C2)C(=O)O

>  <INCHIKEY>  (1949) 
AURJAGAFPDAMJF-MNOVXSKESA-N

$$$$
Hyp_CHF2
     RDKit          2D

 12 12  0  0  0  0  0  0  0  0999 V2000
    1.5111   -1.6952    0.0000 N   0  0  0  0  0  0  0  0  0  0  0  0
    1.5414   -0.1955    0.0000 C   0  0  0  0  0  0  0  0  0  0  0  0
    0.1245    0.2967    0.0000 C   0  0  0  0  0  0  0  0  0  0  0  0
   -0.7815   -0.8988    0.0000 C   0  0  0  0  0  0  0  0  0  0  0  0
   -2.2812   -0.8686    0.0000 O   0  0  0  0  0  0  0  0  0  0  0  0
   -3.0049    0.4453    0.0000 C   0  0  0  0  0  0  0  0  0  0  0  0
   -4.5046    0.4756    0.0000 F   0  0  0  0  0  0  0  0  0  0  0  0
   -2.2288    1.7290    0.0000 F   0  0  0  0  0  0  0  0  0  0  0  0
    0.0755   -2.1299    0.0000 C   0  0  0  0  0  0  0  0  0  0  0  0
    2.7725    0.6615    0.0000 C   0  0  0  0  0  0  0  0  0  0  0  0
    2.6458    2.1561    0.0000 O   0  0  0  0  0  0  0  0  0  0  0  0
    4.1302    0.0239    0.0000 O   0  0  0  0  0  0  0  0  0  0  0  0
  1  2  1  0
  2  3  1  0
  3  4  1  0
  4  5  1  6
  5  6  1  0
  6  7  1  0
  6  8  1  0
  4  9  1  0
  2 10  1  1
 10 11  2  0
 10 12  1  0
  9  1  1  0
M  END
>  <rName>  (1950) 
Hyp_CHF2

>  <PQ_SYMBOL>  (1950) 
Hyp_CHF2

>  <FULL_NAME>  (1950) 
(2S,4R)-4-(difluoromethoxy)pyrrolidine-2-carboxylic acid

>  <IUPAC_CONDENSED>  (1950) 
Hyp(CHF2)

>  <IUPAC>  (1950) 
(2S,4R)-4-((difluoromethyl)oxy)pyrrolidine-2-carboxylic acid

>  <TYPE>  (1950) 
Backbone

>  <CLASS>  (1950) 
alpha

>  <ANALOG>  (1950) 
Pro

>  <MOL_WT>  (1950) 
181.138

>  <LOGP>  (1950) 
0.0406999999999999

>  <TPSA>  (1950) 
58.56

>  <POPULARITY>  (1950) 
6.5

>  <PROTECTED>  (1950) 
TRUE

>  <SMILES>  (1950) 
N1[C@@H](C[C@@H](OC(F)F)C1)C(=O)O

>  <INCHIKEY>  (1950) 
YYWVQGXOBZCIRD-DMTCNVIQSA-N

$$$$
Hyp_CONHEtNH2
     RDKit          2D

 15 15  0  0  0  0  0  0  0  0999 V2000
    3.2154   -1.4592    0.0000 N   0  0  0  0  0  0  0  0  0  0  0  0
    2.9077    0.0089    0.0000 C   0  0  0  0  0  0  0  0  0  0  0  0
    1.4164    0.1699    0.0000 C   0  0  0  0  0  0  0  0  0  0  0  0
    0.8024   -1.1986    0.0000 C   0  0  0  0  0  0  0  0  0  0  0  0
   -0.6657   -1.5063    0.0000 O   0  0  0  0  0  0  0  0  0  0  0  0
   -1.6663   -0.3888    0.0000 C   0  0  0  0  0  0  0  0  0  0  0  0
   -1.1987    1.0365    0.0000 O   0  0  0  0  0  0  0  0  0  0  0  0
   -3.1344   -0.6965    0.0000 N   0  0  0  0  0  0  0  0  0  0  0  0
   -4.1349    0.4211    0.0000 C   0  0  0  0  0  0  0  0  0  0  0  0
   -5.6030    0.1134    0.0000 C   0  0  0  0  0  0  0  0  0  0  0  0
   -6.6035    1.2310    0.0000 N   0  0  0  0  0  0  0  0  0  0  0  0
    1.9142   -2.2055    0.0000 C   0  0  0  0  0  0  0  0  0  0  0  0
    3.9145    1.1208    0.0000 C   0  0  0  0  0  0  0  0  0  0  0  0
    3.4551    2.5487    0.0000 O   0  0  0  0  0  0  0  0  0  0  0  0
    5.3809    0.8047    0.0000 O   0  0  0  0  0  0  0  0  0  0  0  0
  1  2  1  0
  2  3  1  0
  3  4  1  0
  4  5  1  6
  5  6  1  0
  6  7  2  0
  6  8  1  0
  8  9  1  0
  9 10  1  0
 10 11  1  0
  4 12  1  0
  2 13  1  1
 13 14  2  0
 13 15  1  0
 12  1  1  0
M  END
>  <rName>  (1951) 
Hyp_CONHEtNH2

>  <PQ_SYMBOL>  (1951) 
Hyp_CONHEtNH2

>  <FULL_NAME>  (1951) 
(4R)-4-{[(2-Aminoethyl)carbamoyl]oxy}-L-proline

>  <IUPAC_CONDENSED>  (1951) 
Hyp(CONHEtNH2)

>  <IUPAC>  (1951) 
(2S,4R)-4-((2-aminoethyl)carbamoyloxy)pyrrolidine-2-carboxylic acid

>  <TYPE>  (1951) 
Backbone

>  <CLASS>  (1951) 
alpha

>  <ANALOG>  (1951) 
Pro

>  <MOL_WT>  (1951) 
217.22499999999997

>  <LOGP>  (1951) 
-1.513599999999999

>  <TPSA>  (1951) 
113.67999999999999

>  <POPULARITY>  (1951) 
16.5

>  <PROTECTED>  (1951) 
TRUE

>  <SMILES>  (1951) 
N1[C@@H](C[C@@H](OC(=O)NCCN)C1)C(=O)O

>  <INCHIKEY>  (1951) 
JPXWXGCURGFPEP-RITPCOANSA-N

$$$$
Hyp_Et
     RDKit          2D

 11 11  0  0  0  0  0  0  0  0999 V2000
    1.1920   -1.6300    0.0000 N   0  0  0  0  0  0  0  0  0  0  0  0
    1.3323   -0.1366    0.0000 C   0  0  0  0  0  0  0  0  0  0  0  0
   -0.0446    0.4584    0.0000 C   0  0  0  0  0  0  0  0  0  0  0  0
   -1.0360   -0.6674    0.0000 C   0  0  0  0  0  0  0  0  0  0  0  0
   -2.5294   -0.5270    0.0000 O   0  0  0  0  0  0  0  0  0  0  0  0
   -3.1546    0.8365    0.0000 C   0  0  0  0  0  0  0  0  0  0  0  0
   -4.6480    0.9768    0.0000 C   0  0  0  0  0  0  0  0  0  0  0  0
   -0.2717   -1.9580    0.0000 C   0  0  0  0  0  0  0  0  0  0  0  0
    2.6230    0.6277    0.0000 C   0  0  0  0  0  0  0  0  0  0  0  0
    2.6065    2.1276    0.0000 O   0  0  0  0  0  0  0  0  0  0  0  0
    3.9303   -0.1079    0.0000 O   0  0  0  0  0  0  0  0  0  0  0  0
  1  2  1  0
  2  3  1  0
  3  4  1  0
  4  5  1  6
  5  6  1  0
  6  7  1  0
  4  8  1  0
  2  9  1  1
  9 10  2  0
  9 11  1  0
  8  1  1  0
M  END
>  <rName>  (1952) 
Hyp_Et

>  <PQ_SYMBOL>  (1952) 
Hyp_Et

>  <FULL_NAME>  (1952) 
(4R)-4-(ethyloxy)-L-proline

>  <IUPAC_CONDENSED>  (1952) 
Hyp(Et)

>  <IUPAC>  (1952) 
(2S,4R)-4-ethoxypyrrolidine-2-carboxylic acid

>  <TYPE>  (1952) 
Backbone

>  <CLASS>  (1952) 
alpha

>  <ANALOG>  (1952) 
Pro

>  <MOL_WT>  (1952) 
159.185

>  <LOGP>  (1952) 
-0.1620000000000002

>  <TPSA>  (1952) 
58.56

>  <POPULARITY>  (1952) 
13.4

>  <PROTECTED>  (1952) 
TRUE

>  <SMILES>  (1952) 
N1[C@@H](C[C@@H](OCC)C1)C(=O)O

>  <INCHIKEY>  (1952) 
UGNGLHKEESUVLW-RITPCOANSA-N

$$$$
Hyp_Mbzl
     RDKit          2D

 17 18  0  0  0  0  0  0  0  0999 V2000
   -3.8595    1.5588    0.0000 N   0  0  0  0  0  0  0  0  0  0  0  0
   -3.8038    0.0598    0.0000 C   0  0  0  0  0  0  0  0  0  0  0  0
   -2.3610   -0.3504    0.0000 C   0  0  0  0  0  0  0  0  0  0  0  0
   -1.5250    0.8951    0.0000 C   0  0  0  0  0  0  0  0  0  0  0  0
   -0.0260    0.9508    0.0000 O   0  0  0  0  0  0  0  0  0  0  0  0
    0.7717   -0.3195    0.0000 C   0  0  0  0  0  0  0  0  0  0  0  0
    2.2707   -0.2637    0.0000 C   0  0  0  0  0  0  0  0  0  0  0  0
    3.0684   -1.5340    0.0000 C   0  0  0  0  0  0  0  0  0  0  0  0
    4.5674   -1.4783    0.0000 C   0  0  0  0  0  0  0  0  0  0  0  0
    5.2686   -0.1523    0.0000 C   0  0  0  0  0  0  0  0  0  0  0  0
    6.7676   -0.0966    0.0000 C   0  0  0  0  0  0  0  0  0  0  0  0
    4.4709    1.1180    0.0000 C   0  0  0  0  0  0  0  0  0  0  0  0
    2.9719    1.0623    0.0000 C   0  0  0  0  0  0  0  0  0  0  0  0
   -2.4511    2.0750    0.0000 C   0  0  0  0  0  0  0  0  0  0  0  0
   -4.9837   -0.8663    0.0000 C   0  0  0  0  0  0  0  0  0  0  0  0
   -4.7716   -2.3512    0.0000 O   0  0  0  0  0  0  0  0  0  0  0  0
   -6.3757   -0.3075    0.0000 O   0  0  0  0  0  0  0  0  0  0  0  0
  1  2  1  0
  2  3  1  0
  3  4  1  0
  4  5  1  6
  5  6  1  0
  6  7  1  0
  7  8  1  0
  8  9  2  0
  9 10  1  0
 10 11  1  0
 10 12  2  0
 12 13  1  0
  4 14  1  0
  2 15  1  1
 15 16  2  0
 15 17  1  0
 13  7  2  0
 14  1  1  0
M  END
>  <rName>  (1953) 
Hyp_Mbzl

>  <PQ_SYMBOL>  (1953) 
Hyp_Mbzl

>  <FULL_NAME>  (1953) 
(2S,4R)-4-[(4-methylphenyl)methoxy]pyrrolidine-2-carboxylic acid

>  <IUPAC_CONDENSED>  (1953) 
Hyp(Mbzl)

>  <IUPAC>  (1953) 
(2S,4R)-4-(((4-methylphenyl)methyl)oxy)pyrrolidine-2-carboxylic acid

>  <TYPE>  (1953) 
Backbone

>  <CLASS>  (1953) 
alpha

>  <ANALOG>  (1953) 
Pro

>  <MOL_WT>  (1953) 
235.283

>  <LOGP>  (1953) 
1.3267199999999997

>  <TPSA>  (1953) 
58.56

>  <POPULARITY>  (1953) 
7.0

>  <PROTECTED>  (1953) 
TRUE

>  <SMILES>  (1953) 
N2[C@@H](C[C@@H](OCc1(ccc(C)cc1))C2)C(=O)O

>  <INCHIKEY>  (1953) 
VJIJXXXMWQUUQT-NEPJUHHUSA-N

$$$$
Hyp_Me
     RDKit          2D

 10 10  0  0  0  0  0  0  0  0999 V2000
    0.5059   -1.6189    0.0000 N   0  0  0  0  0  0  0  0  0  0  0  0
    0.8536   -0.1598    0.0000 C   0  0  0  0  0  0  0  0  0  0  0  0
   -0.4267    0.6218    0.0000 C   0  0  0  0  0  0  0  0  0  0  0  0
   -1.5656   -0.3543    0.0000 C   0  0  0  0  0  0  0  0  0  0  0  0
   -3.0248   -0.0066    0.0000 O   0  0  0  0  0  0  0  0  0  0  0  0
   -3.4533    1.4309    0.0000 C   0  0  0  0  0  0  0  0  0  0  0  0
   -0.9893   -1.7392    0.0000 C   0  0  0  0  0  0  0  0  0  0  0  0
    2.2384    0.4166    0.0000 C   0  0  0  0  0  0  0  0  0  0  0  0
    2.4317    1.9041    0.0000 O   0  0  0  0  0  0  0  0  0  0  0  0
    3.4300   -0.4945    0.0000 O   0  0  0  0  0  0  0  0  0  0  0  0
  1  2  1  0
  2  3  1  0
  3  4  1  0
  4  5  1  6
  5  6  1  0
  4  7  1  0
  2  8  1  1
  8  9  2  0
  8 10  1  0
  7  1  1  0
M  END
>  <rName>  (1954) 
Hyp_Me

>  <PQ_SYMBOL>  (1954) 
Hyp_Me

>  <FULL_NAME>  (1954) 
(2S,4R)-4-methoxypyrrolidine-2-carboxylic acid

>  <IUPAC_CONDENSED>  (1954) 
Hyp(Me)

>  <IUPAC>  (1954) 
(2S,4R)-4-methoxypyrrolidine-2-carboxylic acid

>  <TYPE>  (1954) 
Backbone

>  <CLASS>  (1954) 
alpha

>  <ANALOG>  (1954) 
Pro

>  <MOL_WT>  (1954) 
145.15800000000002

>  <LOGP>  (1954) 
-0.5521

>  <TPSA>  (1954) 
58.56

>  <POPULARITY>  (1954) 
14.0

>  <PROTECTED>  (1954) 
TRUE

>  <SMILES>  (1954) 
N1[C@@H](C[C@@H](OC)C1)C(=O)O

>  <INCHIKEY>  (1954) 
RNXKXUOGQKYKTH-UHNVWZDZSA-N

$$$$
Hyp_Me_3ROMe
     RDKit          2D

 12 12  0  0  0  0  0  0  0  0999 V2000
    0.4285   -2.0575    0.0000 N   0  0  0  0  0  0  0  0  0  0  0  0
    0.8227   -0.6102    0.0000 C   0  0  0  0  0  0  0  0  0  0  0  0
   -0.4319    0.2119    0.0000 C   0  0  0  0  0  0  0  0  0  0  0  0
   -0.5042    1.7102    0.0000 O   0  0  0  0  0  0  0  0  0  0  0  0
    0.7572    2.5219    0.0000 C   0  0  0  0  0  0  0  0  0  0  0  0
   -1.6015   -0.7272    0.0000 C   0  0  0  0  0  0  0  0  0  0  0  0
   -3.0488   -0.3330    0.0000 O   0  0  0  0  0  0  0  0  0  0  0  0
   -3.4310    1.1174    0.0000 C   0  0  0  0  0  0  0  0  0  0  0  0
   -1.0697   -2.1298    0.0000 C   0  0  0  0  0  0  0  0  0  0  0  0
    2.2253   -0.0785    0.0000 C   0  0  0  0  0  0  0  0  0  0  0  0
    2.4661    1.4021    0.0000 O   0  0  0  0  0  0  0  0  0  0  0  0
    3.3871   -1.0272    0.0000 O   0  0  0  0  0  0  0  0  0  0  0  0
  1  2  1  0
  2  3  1  0
  3  4  1  6
  4  5  1  0
  3  6  1  0
  6  7  1  6
  7  8  1  0
  6  9  1  0
  2 10  1  1
 10 11  2  0
 10 12  1  0
  9  1  1  0
M  END
>  <rName>  (1955) 
Hyp_Me_3ROMe

>  <PQ_SYMBOL>  (1955) 
Hyp_Me_3ROMe

>  <FULL_NAME>  (1955) 
CO[C@H]1[C@@H](OC)CN[C@@H]1C(=O)O

>  <IUPAC_CONDENSED>  (1955) 
Hyp(Me,3R-OMe)

>  <IUPAC>  (1955) 
(2S,3R,4S)-3,4-dimethoxypyrrolidine-2-carboxylic acid

>  <TYPE>  (1955) 
Backbone

>  <CLASS>  (1955) 
alpha

>  <ANALOG>  (1955) 
Pro

>  <MOL_WT>  (1955) 
175.18399999999997

>  <LOGP>  (1955) 
-0.9271999999999998

>  <TPSA>  (1955) 
67.79

>  <POPULARITY>  (1955) 
3.2

>  <PROTECTED>  (1955) 
TRUE

>  <SMILES>  (1955) 
N1[C@@H]([C@@H](OC)[C@@H](OC)C1)C(=O)O

>  <INCHIKEY>  (1955) 
SKKYCCAHQCOEJH-ZLUOBGJFSA-N

$$$$
Hyp_Ph
     RDKit          2D

 15 16  0  0  0  0  0  0  0  0999 V2000
   -1.9780    1.3585    0.0000 N   0  0  0  0  0  0  0  0  0  0  0  0
   -2.7771    0.0891    0.0000 C   0  0  0  0  0  0  0  0  0  0  0  0
   -1.8168   -1.0632    0.0000 C   0  0  0  0  0  0  0  0  0  0  0  0
   -0.4242   -0.5059    0.0000 C   0  0  0  0  0  0  0  0  0  0  0  0
    0.8452   -1.3051    0.0000 O   0  0  0  0  0  0  0  0  0  0  0  0
    2.1720   -0.6053    0.0000 C   0  0  0  0  0  0  0  0  0  0  0  0
    3.4414   -1.4044    0.0000 C   0  0  0  0  0  0  0  0  0  0  0  0
    4.7682   -0.7047    0.0000 C   0  0  0  0  0  0  0  0  0  0  0  0
    4.8256    0.7942    0.0000 C   0  0  0  0  0  0  0  0  0  0  0  0
    3.5562    1.5934    0.0000 C   0  0  0  0  0  0  0  0  0  0  0  0
    2.2294    0.8936    0.0000 C   0  0  0  0  0  0  0  0  0  0  0  0
   -0.5238    0.9908    0.0000 C   0  0  0  0  0  0  0  0  0  0  0  0
   -4.2738   -0.0105    0.0000 C   0  0  0  0  0  0  0  0  0  0  0  0
   -4.9359   -1.3565    0.0000 O   0  0  0  0  0  0  0  0  0  0  0  0
   -5.1084    1.2359    0.0000 O   0  0  0  0  0  0  0  0  0  0  0  0
  1  2  1  0
  2  3  1  0
  3  4  1  0
  4  5  1  6
  5  6  1  0
  6  7  2  0
  7  8  1  0
  8  9  2  0
  9 10  1  0
 10 11  2  0
  4 12  1  0
  2 13  1  1
 13 14  2  0
 13 15  1  0
 11  6  1  0
 12  1  1  0
M  END
>  <rName>  (1956) 
Hyp_Ph

>  <PQ_SYMBOL>  (1956) 
Hyp_Ph

>  <FULL_NAME>  (1956) 
(2S,4R)-4-phenoxypyrrolidine-2-carboxylic acid

>  <IUPAC_CONDENSED>  (1956) 
Hyp(Ph)

>  <IUPAC>  (1956) 
(2S,4R)-4-phenoxypyrrolidine-2-carboxylic acid

>  <TYPE>  (1956) 
Backbone

>  <CLASS>  (1956) 
alpha

>  <ANALOG>  (1956) 
Pro

>  <MOL_WT>  (1956) 
207.22899999999998

>  <LOGP>  (1956) 
0.8805000000000001

>  <TPSA>  (1956) 
58.56

>  <POPULARITY>  (1956) 
11.2

>  <PROTECTED>  (1956) 
TRUE

>  <SMILES>  (1956) 
N2[C@@H](C[C@@H](Oc1(ccccc1))C2)C(=O)O

>  <INCHIKEY>  (1956) 
RWSHAZYNUOFZMI-ZJUUUORDSA-N

$$$$
Hyp_Ph_4I
     RDKit          2D

 16 17  0  0  0  0  0  0  0  0999 V2000
   -2.3003    1.3750    0.0000 N   0  0  0  0  0  0  0  0  0  0  0  0
   -3.1583    0.1447    0.0000 C   0  0  0  0  0  0  0  0  0  0  0  0
   -2.2534   -1.0516    0.0000 C   0  0  0  0  0  0  0  0  0  0  0  0
   -0.8360   -0.5605    0.0000 C   0  0  0  0  0  0  0  0  0  0  0  0
    0.3943   -1.4186    0.0000 O   0  0  0  0  0  0  0  0  0  0  0  0
    1.7526   -0.7821    0.0000 C   0  0  0  0  0  0  0  0  0  0  0  0
    2.9830   -1.6401    0.0000 C   0  0  0  0  0  0  0  0  0  0  0  0
    4.3412   -1.0036    0.0000 C   0  0  0  0  0  0  0  0  0  0  0  0
    4.4691    0.4909    0.0000 C   0  0  0  0  0  0  0  0  0  0  0  0
    5.8274    1.1274    0.0000 I   0  0  0  0  0  0  0  0  0  0  0  0
    3.2388    1.3489    0.0000 C   0  0  0  0  0  0  0  0  0  0  0  0
    1.8805    0.7124    0.0000 C   0  0  0  0  0  0  0  0  0  0  0  0
   -0.8650    0.9392    0.0000 C   0  0  0  0  0  0  0  0  0  0  0  0
   -4.6581    0.1157    0.0000 C   0  0  0  0  0  0  0  0  0  0  0  0
   -5.3828   -1.1976    0.0000 O   0  0  0  0  0  0  0  0  0  0  0  0
   -5.4330    1.4000    0.0000 O   0  0  0  0  0  0  0  0  0  0  0  0
  1  2  1  0
  2  3  1  0
  3  4  1  0
  4  5  1  6
  5  6  1  0
  6  7  1  0
  7  8  2  0
  8  9  1  0
  9 10  1  0
  9 11  2  0
 11 12  1  0
  4 13  1  0
  2 14  1  1
 14 15  2  0
 14 16  1  0
 12  6  2  0
 13  1  1  0
M  END
>  <rName>  (1957) 
Hyp_Ph_4I

>  <PQ_SYMBOL>  (1957) 
Hyp_Ph_4I

>  <FULL_NAME>  (1957) 
(2S,4R)-4-(4-iodophenoxy)pyrrolidine-2-carboxylic acid

>  <IUPAC_CONDENSED>  (1957) 
Hyp(Ph(4-I))

>  <IUPAC>  (1957) 
(2S,4R)-4-(4-iodophenoxy)pyrrolidine-2-carboxylic acid

>  <TYPE>  (1957) 
Backbone

>  <CLASS>  (1957) 
alpha

>  <ANALOG>  (1957) 
Pro

>  <MOL_WT>  (1957) 
333.12500000000006

>  <LOGP>  (1957) 
1.4851

>  <TPSA>  (1957) 
58.56

>  <POPULARITY>  (1957) 
2.2

>  <PROTECTED>  (1957) 
TRUE

>  <SMILES>  (1957) 
N2[C@@H](C[C@@H](Oc1(ccc(I)cc1))C2)C(=O)O

>  <INCHIKEY>  (1957) 
QHDTYXVHDXZMJV-ZJUUUORDSA-N

$$$$
Hyp_amino
     RDKit          2D

 10 10  0  0  0  0  0  0  0  0999 V2000
    0.5059   -1.6189    0.0000 N   0  0  0  0  0  0  0  0  0  0  0  0
    0.8536   -0.1598    0.0000 C   0  0  0  0  0  0  0  0  0  0  0  0
   -0.4267    0.6218    0.0000 C   0  0  0  0  0  0  0  0  0  0  0  0
   -1.5656   -0.3543    0.0000 C   0  0  0  0  0  0  0  0  0  0  0  0
   -3.0248   -0.0066    0.0000 O   0  0  0  0  0  0  0  0  0  0  0  0
   -3.4533    1.4309    0.0000 N   0  0  0  0  0  0  0  0  0  0  0  0
   -0.9893   -1.7392    0.0000 C   0  0  0  0  0  0  0  0  0  0  0  0
    2.2384    0.4166    0.0000 C   0  0  0  0  0  0  0  0  0  0  0  0
    2.4317    1.9041    0.0000 O   0  0  0  0  0  0  0  0  0  0  0  0
    3.4300   -0.4945    0.0000 O   0  0  0  0  0  0  0  0  0  0  0  0
  1  2  1  0
  2  3  1  0
  3  4  1  0
  4  5  1  6
  5  6  1  0
  4  7  1  0
  2  8  1  1
  8  9  2  0
  8 10  1  0
  7  1  1  0
M  END
>  <rName>  (1958) 
Hyp_amino

>  <PQ_SYMBOL>  (1958) 
Hyp_amino

>  <FULL_NAME>  (1958) 
(2S,4R)-4-aminooxypyrrolidine-2-carboxylic acid

>  <IUPAC_CONDENSED>  (1958) 
Hyp(amino)

>  <IUPAC>  (1958) 
(2S,4R)-4-aminooxypyrrolidine-2-carboxylic acid

>  <TYPE>  (1958) 
Backbone

>  <CLASS>  (1958) 
alpha

>  <ANALOG>  (1958) 
Pro

>  <MOL_WT>  (1958) 
146.14600000000002

>  <LOGP>  (1958) 
-1.3081999999999998

>  <TPSA>  (1958) 
84.58

>  <POPULARITY>  (1958) 
2.2

>  <PROTECTED>  (1958) 
TRUE

>  <SMILES>  (1958) 
N1[C@@H](C[C@@H](ON)C1)C(=O)O

>  <INCHIKEY>  (1958) 
CFHRFEWVIOURLB-DMTCNVIQSA-N

$$$$
Hyp_cBu
     RDKit          2D

 13 14  0  0  0  0  0  0  0  0999 V2000
    2.1170   -1.6073    0.0000 N   0  0  0  0  0  0  0  0  0  0  0  0
    1.9158   -0.1209    0.0000 C   0  0  0  0  0  0  0  0  0  0  0  0
    0.4400    0.1472    0.0000 C   0  0  0  0  0  0  0  0  0  0  0  0
   -0.2710   -1.1736    0.0000 C   0  0  0  0  0  0  0  0  0  0  0  0
   -1.7575   -1.3748    0.0000 O   0  0  0  0  0  0  0  0  0  0  0  0
   -2.6749   -0.1881    0.0000 C   0  0  0  0  0  0  0  0  0  0  0  0
   -2.4845    1.2998    0.0000 C   0  0  0  0  0  0  0  0  0  0  0  0
   -3.9723    1.4902    0.0000 C   0  0  0  0  0  0  0  0  0  0  0  0
   -4.1628    0.0023    0.0000 C   0  0  0  0  0  0  0  0  0  0  0  0
    0.7654   -2.2580    0.0000 C   0  0  0  0  0  0  0  0  0  0  0  0
    3.0001    0.9156    0.0000 C   0  0  0  0  0  0  0  0  0  0  0  0
    2.6447    2.3729    0.0000 O   0  0  0  0  0  0  0  0  0  0  0  0
    4.4399    0.4948    0.0000 O   0  0  0  0  0  0  0  0  0  0  0  0
  1  2  1  0
  2  3  1  0
  3  4  1  0
  4  5  1  6
  5  6  1  0
  6  7  1  0
  7  8  1  0
  8  9  1  0
  4 10  1  0
  2 11  1  1
 11 12  2  0
 11 13  1  0
  9  6  1  0
 10  1  1  0
M  END
>  <rName>  (1959) 
Hyp_cBu

>  <PQ_SYMBOL>  (1959) 
Hyp_cBu

>  <FULL_NAME>  (1959) 
(2S,4R)-4-cyclobutyloxypyrrolidine-2-carboxylic acid

>  <IUPAC_CONDENSED>  (1959) 
Hyp(cBu)

>  <IUPAC>  (1959) 
(2S,4R)-4-cyclobutyloxypyrrolidine-2-carboxylic acid

>  <TYPE>  (1959) 
Backbone

>  <CLASS>  (1959) 
alpha

>  <ANALOG>  (1959) 
Pro

>  <MOL_WT>  (1959) 
185.22299999999998

>  <LOGP>  (1959) 
0.37059999999999976

>  <TPSA>  (1959) 
58.56

>  <POPULARITY>  (1959) 
2.2

>  <PROTECTED>  (1959) 
TRUE

>  <SMILES>  (1959) 
N2[C@@H](C[C@@H](OC1(CCC1))C2)C(=O)O

>  <INCHIKEY>  (1959) 
MJGPJJMBWUERSO-SFYZADRCSA-N

$$$$
Hyp_cHex
     RDKit          2D

 15 16  0  0  0  0  0  0  0  0999 V2000
   -1.9780    1.3585    0.0000 N   0  0  0  0  0  0  0  0  0  0  0  0
   -2.7771    0.0891    0.0000 C   0  0  0  0  0  0  0  0  0  0  0  0
   -1.8168   -1.0632    0.0000 C   0  0  0  0  0  0  0  0  0  0  0  0
   -0.4242   -0.5059    0.0000 C   0  0  0  0  0  0  0  0  0  0  0  0
    0.8452   -1.3051    0.0000 O   0  0  0  0  0  0  0  0  0  0  0  0
    2.1720   -0.6053    0.0000 C   0  0  0  0  0  0  0  0  0  0  0  0
    3.4414   -1.4044    0.0000 C   0  0  0  0  0  0  0  0  0  0  0  0
    4.7682   -0.7047    0.0000 C   0  0  0  0  0  0  0  0  0  0  0  0
    4.8256    0.7942    0.0000 C   0  0  0  0  0  0  0  0  0  0  0  0
    3.5562    1.5934    0.0000 C   0  0  0  0  0  0  0  0  0  0  0  0
    2.2294    0.8936    0.0000 C   0  0  0  0  0  0  0  0  0  0  0  0
   -0.5238    0.9908    0.0000 C   0  0  0  0  0  0  0  0  0  0  0  0
   -4.2738   -0.0105    0.0000 C   0  0  0  0  0  0  0  0  0  0  0  0
   -4.9359   -1.3565    0.0000 O   0  0  0  0  0  0  0  0  0  0  0  0
   -5.1084    1.2359    0.0000 O   0  0  0  0  0  0  0  0  0  0  0  0
  1  2  1  0
  2  3  1  0
  3  4  1  0
  4  5  1  6
  5  6  1  0
  6  7  1  0
  7  8  1  0
  8  9  1  0
  9 10  1  0
 10 11  1  0
  4 12  1  0
  2 13  1  1
 13 14  2  0
 13 15  1  0
 11  6  1  0
 12  1  1  0
M  END
>  <rName>  (1960) 
Hyp_cHex

>  <PQ_SYMBOL>  (1960) 
Hyp_cHex

>  <FULL_NAME>  (1960) 
(2S,4R)-4-cyclohexyloxypyrrolidine-2-carboxylic acid

>  <IUPAC_CONDENSED>  (1960) 
Hyp(cHex)

>  <IUPAC>  (1960) 
(2S,4R)-4-cyclohexyloxypyrrolidine-2-carboxylic acid

>  <TYPE>  (1960) 
Backbone

>  <CLASS>  (1960) 
alpha

>  <ANALOG>  (1960) 
Pro

>  <MOL_WT>  (1960) 
213.27699999999996

>  <LOGP>  (1960) 
1.1507999999999996

>  <TPSA>  (1960) 
58.56

>  <POPULARITY>  (1960) 
2.2

>  <PROTECTED>  (1960) 
TRUE

>  <SMILES>  (1960) 
N2[C@@H](C[C@@H](OC1(CCCCC1))C2)C(=O)O

>  <INCHIKEY>  (1960) 
ABHXQYBHDDVLPC-ZJUUUORDSA-N

$$$$
Hyp_decyl
     RDKit          2D

 19 19  0  0  0  0  0  0  0  0999 V2000
    6.1184   -1.0675    0.0000 N   0  0  0  0  0  0  0  0  0  0  0  0
    5.6029    0.3412    0.0000 C   0  0  0  0  0  0  0  0  0  0  0  0
    4.1039    0.2862    0.0000 C   0  0  0  0  0  0  0  0  0  0  0  0
    3.6930   -1.1564    0.0000 C   0  0  0  0  0  0  0  0  0  0  0  0
    2.2843   -1.6719    0.0000 O   0  0  0  0  0  0  0  0  0  0  0  0
    1.1336   -0.7098    0.0000 C   0  0  0  0  0  0  0  0  0  0  0  0
   -0.2751   -1.2253    0.0000 C   0  0  0  0  0  0  0  0  0  0  0  0
   -1.4258   -0.2631    0.0000 C   0  0  0  0  0  0  0  0  0  0  0  0
   -2.8345   -0.7786    0.0000 C   0  0  0  0  0  0  0  0  0  0  0  0
   -3.9852    0.1835    0.0000 C   0  0  0  0  0  0  0  0  0  0  0  0
   -5.3939   -0.3320    0.0000 C   0  0  0  0  0  0  0  0  0  0  0  0
   -6.5446    0.6302    0.0000 C   0  0  0  0  0  0  0  0  0  0  0  0
   -7.9533    0.1147    0.0000 C   0  0  0  0  0  0  0  0  0  0  0  0
   -9.1040    1.0769    0.0000 C   0  0  0  0  0  0  0  0  0  0  0  0
  -10.5126    0.5614    0.0000 C   0  0  0  0  0  0  0  0  0  0  0  0
    4.9380   -1.9930    0.0000 C   0  0  0  0  0  0  0  0  0  0  0  0
    6.4395    1.5862    0.0000 C   0  0  0  0  0  0  0  0  0  0  0  0
    5.7796    2.9332    0.0000 O   0  0  0  0  0  0  0  0  0  0  0  0
    7.9360    1.4842    0.0000 O   0  0  0  0  0  0  0  0  0  0  0  0
  1  2  1  0
  2  3  1  0
  3  4  1  0
  4  5  1  6
  5  6  1  0
  6  7  1  0
  7  8  1  0
  8  9  1  0
  9 10  1  0
 10 11  1  0
 11 12  1  0
 12 13  1  0
 13 14  1  0
 14 15  1  0
  4 16  1  0
  2 17  1  1
 17 18  2  0
 17 19  1  0
 16  1  1  0
M  END
>  <rName>  (1961) 
Hyp_decyl

>  <PQ_SYMBOL>  (1961) 
Hyp_decyl

>  <FULL_NAME>  (1961) 
Hyp(decyl)

>  <IUPAC_CONDENSED>  (1961) 
Hyp(decyl)

>  <IUPAC>  (1961) 
(2S,4R)-4-(decyloxy)pyrrolidine-2-carboxylic acid

>  <TYPE>  (1961) 
Backbone

>  <CLASS>  (1961) 
alpha

>  <ANALOG>  (1961) 
Pro

>  <MOL_WT>  (1961) 
271.4009999999999

>  <LOGP>  (1961) 
2.958800000000001

>  <TPSA>  (1961) 
58.56

>  <POPULARITY>  (1961) 
2.2

>  <PROTECTED>  (1961) 
TRUE

>  <SMILES>  (1961) 
N1[C@@H](C[C@@H](OCCCCCCCCCC)C1)C(=O)O

>  <INCHIKEY>  (1961) 
WYZICQBXSVKDKQ-KGLIPLIRSA-N

$$$$
Hyp_hexyl
     RDKit          2D

 15 15  0  0  0  0  0  0  0  0999 V2000
    3.7123   -1.3495    0.0000 N   0  0  0  0  0  0  0  0  0  0  0  0
    3.3641    0.1095    0.0000 C   0  0  0  0  0  0  0  0  0  0  0  0
    1.8689    0.2293    0.0000 C   0  0  0  0  0  0  0  0  0  0  0  0
    1.2930   -1.1558    0.0000 C   0  0  0  0  0  0  0  0  0  0  0  0
   -0.1660   -1.5040    0.0000 O   0  0  0  0  0  0  0  0  0  0  0  0
   -1.1971   -0.4145    0.0000 C   0  0  0  0  0  0  0  0  0  0  0  0
   -2.6561   -0.7627    0.0000 C   0  0  0  0  0  0  0  0  0  0  0  0
   -3.6871    0.3268    0.0000 C   0  0  0  0  0  0  0  0  0  0  0  0
   -5.1462   -0.0214    0.0000 C   0  0  0  0  0  0  0  0  0  0  0  0
   -6.1772    1.0681    0.0000 C   0  0  0  0  0  0  0  0  0  0  0  0
   -7.6363    0.7199    0.0000 C   0  0  0  0  0  0  0  0  0  0  0  0
    2.4323   -2.1315    0.0000 C   0  0  0  0  0  0  0  0  0  0  0  0
    4.3399    1.2488    0.0000 C   0  0  0  0  0  0  0  0  0  0  0  0
    3.8411    2.6635    0.0000 O   0  0  0  0  0  0  0  0  0  0  0  0
    5.8144    0.9734    0.0000 O   0  0  0  0  0  0  0  0  0  0  0  0
  1  2  1  0
  2  3  1  0
  3  4  1  0
  4  5  1  6
  5  6  1  0
  6  7  1  0
  7  8  1  0
  8  9  1  0
  9 10  1  0
 10 11  1  0
  4 12  1  0
  2 13  1  1
 13 14  2  0
 13 15  1  0
 12  1  1  0
M  END
>  <rName>  (1962) 
Hyp_hexyl

>  <PQ_SYMBOL>  (1962) 
Hyp_hexyl

>  <FULL_NAME>  (1962) 
(2S,4R)-4-hexoxypyrrolidine-2-carboxylic acid

>  <IUPAC_CONDENSED>  (1962) 
Hyp(hexyl)

>  <IUPAC>  (1962) 
(2S,4R)-4-hexoxypyrrolidine-2-carboxylic acid

>  <TYPE>  (1962) 
Backbone

>  <CLASS>  (1962) 
alpha

>  <ANALOG>  (1962) 
Pro

>  <MOL_WT>  (1962) 
215.29299999999998

>  <LOGP>  (1962) 
1.3983999999999999

>  <TPSA>  (1962) 
58.56

>  <POPULARITY>  (1962) 
2.2

>  <PROTECTED>  (1962) 
TRUE

>  <SMILES>  (1962) 
N1[C@@H](C[C@@H](OCCCCCC)C1)C(=O)O

>  <INCHIKEY>  (1962) 
CTFBFKQKCHOQLH-ZJUUUORDSA-N

$$$$
Hyp_iBu
     RDKit          2D

 13 13  0  0  0  0  0  0  0  0999 V2000
    2.1750   -1.6019    0.0000 N   0  0  0  0  0  0  0  0  0  0  0  0
    2.1803   -0.1019    0.0000 C   0  0  0  0  0  0  0  0  0  0  0  0
    0.7554    0.3668    0.0000 C   0  0  0  0  0  0  0  0  0  0  0  0
   -0.1306   -0.8436    0.0000 C   0  0  0  0  0  0  0  0  0  0  0  0
   -1.6306   -0.8382    0.0000 O   0  0  0  0  0  0  0  0  0  0  0  0
   -2.3760    0.4635    0.0000 C   0  0  0  0  0  0  0  0  0  0  0  0
   -3.8759    0.4688    0.0000 C   0  0  0  0  0  0  0  0  0  0  0  0
   -4.6213    1.7705    0.0000 C   0  0  0  0  0  0  0  0  0  0  0  0
   -4.6306   -0.8275    0.0000 C   0  0  0  0  0  0  0  0  0  0  0  0
    0.7467   -2.0603    0.0000 C   0  0  0  0  0  0  0  0  0  0  0  0
    3.3970    0.7755    0.0000 C   0  0  0  0  0  0  0  0  0  0  0  0
    3.2455    2.2678    0.0000 O   0  0  0  0  0  0  0  0  0  0  0  0
    4.7651    0.1605    0.0000 O   0  0  0  0  0  0  0  0  0  0  0  0
  1  2  1  0
  2  3  1  0
  3  4  1  0
  4  5  1  6
  5  6  1  0
  6  7  1  0
  7  8  1  0
  7  9  1  0
  4 10  1  0
  2 11  1  1
 11 12  2  0
 11 13  1  0
 10  1  1  0
M  END
>  <rName>  (1963) 
Hyp_iBu

>  <PQ_SYMBOL>  (1963) 
Hyp_iBu

>  <FULL_NAME>  (1963) 
(2S,4R)-4-isobutoxypyrrolidine-2-carboxylic acid

>  <IUPAC_CONDENSED>  (1963) 
Hyp(iBu)

>  <IUPAC>  (1963) 
(2S,4R)-4-isobutoxypyrrolidine-2-carboxylic acid

>  <TYPE>  (1963) 
Backbone

>  <CLASS>  (1963) 
alpha

>  <ANALOG>  (1963) 
Pro

>  <MOL_WT>  (1963) 
187.23899999999998

>  <LOGP>  (1963) 
0.47410000000000013

>  <TPSA>  (1963) 
58.56

>  <POPULARITY>  (1963) 
6.7

>  <PROTECTED>  (1963) 
TRUE

>  <SMILES>  (1963) 
N1[C@@H](C[C@@H](OCC(C)C)C1)C(=O)O

>  <INCHIKEY>  (1963) 
XYWFSMYUGPHGRN-SFYZADRCSA-N

$$$$
Hyp_prop2ynyl
     RDKit          2D

 12 12  0  0  0  0  0  0  0  0999 V2000
    1.8182   -1.6019    0.0000 N   0  0  0  0  0  0  0  0  0  0  0  0
    1.8556   -0.1023    0.0000 C   0  0  0  0  0  0  0  0  0  0  0  0
    0.4409    0.3965    0.0000 C   0  0  0  0  0  0  0  0  0  0  0  0
   -0.4706   -0.7947    0.0000 C   0  0  0  0  0  0  0  0  0  0  0  0
   -1.9702   -0.7574    0.0000 O   0  0  0  0  0  0  0  0  0  0  0  0
   -2.6876    0.5599    0.0000 C   0  0  0  0  0  0  0  0  0  0  0  0
   -4.1872    0.5972    0.0000 C   0  0  0  0  0  0  0  0  0  0  0  0
   -5.6867    0.6345    0.0000 C   0  0  0  0  0  0  0  0  0  0  0  0
    0.3806   -2.0298    0.0000 C   0  0  0  0  0  0  0  0  0  0  0  0
    3.0906    0.7489    0.0000 C   0  0  0  0  0  0  0  0  0  0  0  0
    2.9710    2.2441    0.0000 O   0  0  0  0  0  0  0  0  0  0  0  0
    4.4454    0.1049    0.0000 O   0  0  0  0  0  0  0  0  0  0  0  0
  1  2  1  0
  2  3  1  0
  3  4  1  0
  4  5  1  6
  5  6  1  0
  6  7  1  0
  7  8  3  0
  4  9  1  0
  2 10  1  1
 10 11  2  0
 10 12  1  0
  9  1  1  0
M  END
>  <rName>  (1964) 
Hyp_prop2ynyl

>  <PQ_SYMBOL>  (1964) 
Hyp_prop2ynyl

>  <FULL_NAME>  (1964) 
(2S,4R)-4-(prop-2-yn-1-yloxy)pyrrolidine-2-carboxylic acid

>  <IUPAC_CONDENSED>  (1964) 
Hyp(prop-2-ynyl)

>  <IUPAC>  (1964) 
(2S,4R)-4-((prop-2-yn-1-yl)oxy)pyrrolidine-2-carboxylic acid

>  <TYPE>  (1964) 
Backbone

>  <CLASS>  (1964) 
alpha

>  <ANALOG>  (1964) 
Pro

>  <MOL_WT>  (1964) 
169.18

>  <LOGP>  (1964) 
-0.5487

>  <TPSA>  (1964) 
58.56

>  <POPULARITY>  (1964) 
4.8

>  <PROTECTED>  (1964) 
TRUE

>  <SMILES>  (1964) 
N1[C@@H](C[C@@H](OCC#C)C1)C(=O)O

>  <INCHIKEY>  (1964) 
ZXFXGGZFTHVWKF-RQJHMYQMSA-N

$$$$
Hyp_quinolin4yl_2thiazol4yl_7OMe
     RDKit          2D

 32 35  0  0  0  0  0  0  0  0999 V2000
   -1.3607    4.8052    0.0000 N   0  0  0  0  0  0  0  0  0  0  0  0
   -1.9293    3.4172    0.0000 C   0  0  0  0  0  0  0  0  0  0  0  0
   -0.7848    2.4475    0.0000 C   0  0  0  0  0  0  0  0  0  0  0  0
    0.4910    3.2362    0.0000 C   0  0  0  0  0  0  0  0  0  0  0  0
    1.8791    2.6676    0.0000 O   0  0  0  0  0  0  0  0  0  0  0  0
    2.0807    1.1812    0.0000 C   0  0  0  0  0  0  0  0  0  0  0  0
    0.8942    0.2635    0.0000 C   0  0  0  0  0  0  0  0  0  0  0  0
    1.0959   -1.2229    0.0000 C   0  0  0  0  0  0  0  0  0  0  0  0
    2.4839   -1.7915    0.0000 N   0  0  0  0  0  0  0  0  0  0  0  0
    3.6704   -0.8737    0.0000 C   0  0  0  0  0  0  0  0  0  0  0  0
    5.0584   -1.4423    0.0000 C   0  0  0  0  0  0  0  0  0  0  0  0
    6.2449   -0.5245    0.0000 C   0  0  0  0  0  0  0  0  0  0  0  0
    7.6329   -1.0931    0.0000 O   0  0  0  0  0  0  0  0  0  0  0  0
    7.8345   -2.5795    0.0000 C   0  0  0  0  0  0  0  0  0  0  0  0
    6.0433    0.9618    0.0000 C   0  0  0  0  0  0  0  0  0  0  0  0
    4.6552    1.5304    0.0000 C   0  0  0  0  0  0  0  0  0  0  0  0
    3.4688    0.6127    0.0000 C   0  0  0  0  0  0  0  0  0  0  0  0
   -0.0906   -2.1407    0.0000 C   0  0  0  0  0  0  0  0  0  0  0  0
   -0.0455   -3.6400    0.0000 C   0  0  0  0  0  0  0  0  0  0  0  0
   -1.4574   -4.1463    0.0000 S   0  0  0  0  0  0  0  0  0  0  0  0
   -2.3752   -2.9598    0.0000 C   0  0  0  0  0  0  0  0  0  0  0  0
   -1.5305   -1.7203    0.0000 N   0  0  0  0  0  0  0  0  0  0  0  0
   -3.8746   -3.0050    0.0000 N   0  0  0  0  0  0  0  0  0  0  0  0
   -4.6633   -1.7291    0.0000 C   0  0  0  0  0  0  0  0  0  0  0  0
   -3.9527   -0.4081    0.0000 O   0  0  0  0  0  0  0  0  0  0  0  0
   -6.1626   -1.7742    0.0000 C   0  0  0  0  0  0  0  0  0  0  0  0
   -6.9514   -0.4983    0.0000 C   0  0  0  0  0  0  0  0  0  0  0  0
   -6.8732   -3.0952    0.0000 C   0  0  0  0  0  0  0  0  0  0  0  0
    0.1352    4.6934    0.0000 C   0  0  0  0  0  0  0  0  0  0  0  0
   -3.3864    3.0613    0.0000 C   0  0  0  0  0  0  0  0  0  0  0  0
   -3.8068    1.6214    0.0000 O   0  0  0  0  0  0  0  0  0  0  0  0
   -4.4232    4.1453    0.0000 O   0  0  0  0  0  0  0  0  0  0  0  0
  1  2  1  0
  2  3  1  0
  3  4  1  0
  4  5  1  6
  5  6  1  0
  6  7  1  0
  7  8  2  0
  8  9  1  0
  9 10  2  0
 10 11  1  0
 11 12  2  0
 12 13  1  0
 13 14  1  0
 12 15  1  0
 15 16  2  0
 16 17  1  0
  8 18  1  0
 18 19  2  0
 19 20  1  0
 20 21  1  0
 21 22  2  0
 21 23  1  0
 23 24  1  0
 24 25  2  0
 24 26  1  0
 26 27  1  0
 26 28  1  0
  4 29  1  0
  2 30  1  1
 30 31  2  0
 30 32  1  0
 17  6  2  0
 17 10  1  0
 22 18  1  0
 29  1  1  0
M  END
>  <rName>  (1965) 
Hyp_quinolin4yl_2thiazol4yl_7OMe

>  <PQ_SYMBOL>  (1965) 
Hyp_quinolin4yl_2thiazol4yl_7OMe

>  <FULL_NAME>  (1965) 
(4R)-4-[(7-methoxy-2-{2-[(2-methylpropanoyl)amino]-1,3-thiazol-4-yl}quinolin-4-yl)oxy]-L-proline

>  <IUPAC_CONDENSED>  (1965) 
Hyp(quinolin-4-yl(2-thiazol-4-yl,7-OMe))

>  <IUPAC>  (1965) 
(2S,4R)-4-((7-methoxy-2-(2-(propan-2-ylcarbonylamino)thiazol-4-yl)quinolin-4-yl)oxy)pyrrolidine-2-carboxylic acid

>  <TYPE>  (1965) 
N-term cap

>  <CLASS>  (1965) 
n_cap

>  <ANALOG>  (1965) 
X

>  <MOL_WT>  (1965) 
456.5240000000002

>  <LOGP>  (1965) 
3.1553000000000013

>  <TPSA>  (1965) 
122.67

>  <POPULARITY>  (1965) 
2.5

>  <PROTECTED>  (1965) 
FALSE

>  <SMILES>  (1965) 
N4[C@@H](C[C@@H](Oc1(cc(nc2(cc(OC)ccc12))c3(csc(n3)NC(=O)C(C)C)))C4)C(=O)O

>  <INCHIKEY>  (1965) 
IKWNXRAYNMPEFW-DYVFJYSZSA-N

$$$$
Hyp_quinolin4yl_2thiazol4yl_7OMe_8Br
     RDKit          2D

 33 36  0  0  0  0  0  0  0  0999 V2000
    1.7280   -4.8245    0.0000 N   0  0  0  0  0  0  0  0  0  0  0  0
    2.2367   -3.4134    0.0000 C   0  0  0  0  0  0  0  0  0  0  0  0
    1.0519   -2.4935    0.0000 C   0  0  0  0  0  0  0  0  0  0  0  0
   -0.1891   -3.3361    0.0000 C   0  0  0  0  0  0  0  0  0  0  0  0
   -1.6002   -2.8274    0.0000 O   0  0  0  0  0  0  0  0  0  0  0  0
   -1.8652   -1.3510    0.0000 C   0  0  0  0  0  0  0  0  0  0  0  0
   -0.7191   -0.3833    0.0000 C   0  0  0  0  0  0  0  0  0  0  0  0
   -0.9841    1.0931    0.0000 C   0  0  0  0  0  0  0  0  0  0  0  0
   -2.3952    1.6018    0.0000 N   0  0  0  0  0  0  0  0  0  0  0  0
   -3.5413    0.6341    0.0000 C   0  0  0  0  0  0  0  0  0  0  0  0
   -4.9524    1.1428    0.0000 C   0  0  0  0  0  0  0  0  0  0  0  0
   -5.2175    2.6192    0.0000 Br  0  0  0  0  0  0  0  0  0  0  0  0
   -6.0985    0.1751    0.0000 C   0  0  0  0  0  0  0  0  0  0  0  0
   -7.5096    0.6838    0.0000 O   0  0  0  0  0  0  0  0  0  0  0  0
   -7.7747    2.1602    0.0000 C   0  0  0  0  0  0  0  0  0  0  0  0
   -5.8335   -1.3013    0.0000 C   0  0  0  0  0  0  0  0  0  0  0  0
   -4.4224   -1.8100    0.0000 C   0  0  0  0  0  0  0  0  0  0  0  0
   -3.2763   -0.8423    0.0000 C   0  0  0  0  0  0  0  0  0  0  0  0
    0.1620    2.0608    0.0000 C   0  0  0  0  0  0  0  0  0  0  0  0
    0.0527    3.5568    0.0000 C   0  0  0  0  0  0  0  0  0  0  0  0
    1.4418    4.1230    0.0000 S   0  0  0  0  0  0  0  0  0  0  0  0
    2.4095    2.9769    0.0000 C   0  0  0  0  0  0  0  0  0  0  0  0
    1.6185    1.7024    0.0000 N   0  0  0  0  0  0  0  0  0  0  0  0
    3.9055    3.0861    0.0000 N   0  0  0  0  0  0  0  0  0  0  0  0
    4.7481    1.8452    0.0000 C   0  0  0  0  0  0  0  0  0  0  0  0
    4.0947    0.4949    0.0000 O   0  0  0  0  0  0  0  0  0  0  0  0
    6.2441    1.9544    0.0000 C   0  0  0  0  0  0  0  0  0  0  0  0
    7.0867    0.7134    0.0000 C   0  0  0  0  0  0  0  0  0  0  0  0
    6.8975    3.3046    0.0000 C   0  0  0  0  0  0  0  0  0  0  0  0
    0.2288   -4.7767    0.0000 C   0  0  0  0  0  0  0  0  0  0  0  0
    3.6773   -2.9955    0.0000 C   0  0  0  0  0  0  0  0  0  0  0  0
    4.0358   -1.5389    0.0000 O   0  0  0  0  0  0  0  0  0  0  0  0
    4.7595   -4.0342    0.0000 O   0  0  0  0  0  0  0  0  0  0  0  0
  1  2  1  0
  2  3  1  0
  3  4  1  0
  4  5  1  6
  5  6  1  0
  6  7  1  0
  7  8  2  0
  8  9  1  0
  9 10  2  0
 10 11  1  0
 11 12  1  0
 11 13  2  0
 13 14  1  0
 14 15  1  0
 13 16  1  0
 16 17  2  0
 17 18  1  0
  8 19  1  0
 19 20  2  0
 20 21  1  0
 21 22  1  0
 22 23  2  0
 22 24  1  0
 24 25  1  0
 25 26  2  0
 25 27  1  0
 27 28  1  0
 27 29  1  0
  4 30  1  0
  2 31  1  1
 31 32  2  0
 31 33  1  0
 18  6  2  0
 18 10  1  0
 23 19  1  0
 30  1  1  0
M  END
>  <rName>  (1966) 
Hyp_quinolin4yl_2thiazol4yl_7OMe_8Br

>  <PQ_SYMBOL>  (1966) 
Hyp_quinolin4yl_2thiazol4yl_7OMe_8Br

>  <FULL_NAME>  (1966) 
(4R)-4-[(8-bromo-7-methoxy-2-{2-[(2-methylpropanoyl)amino]-1,3-thiazol-4-yl}quinolin-4-yl)oxy]-L-proline

>  <IUPAC_CONDENSED>  (1966) 
Hyp(quinolin-4-yl(2-thiazol-4-yl,7-OMe,8-Br))

>  <IUPAC>  (1966) 
(2S,4R)-4-((8-bromo-7-methoxy-2-(2-(propan-2-ylcarbonylamino)thiazol-4-yl)quinolin-4-yl)oxy)pyrrolidine-2-carboxylic acid

>  <TYPE>  (1966) 
N-term cap

>  <CLASS>  (1966) 
n_cap

>  <ANALOG>  (1966) 
X

>  <MOL_WT>  (1966) 
535.4200000000003

>  <LOGP>  (1966) 
3.9178000000000024

>  <TPSA>  (1966) 
122.67

>  <POPULARITY>  (1966) 
2.3

>  <PROTECTED>  (1966) 
FALSE

>  <SMILES>  (1966) 
N4[C@@H](C[C@@H](Oc1(cc(nc2(c(Br)c(OC)ccc12))c3(csc(n3)NC(=O)C(C)C)))C4)C(=O)O

>  <INCHIKEY>  (1966) 
QSUXZKXMOTVMGR-RISCZKNCSA-N

$$$$
I
     RDKit          2D

  9  8  0  0  0  0  0  0  0  0999 V2000
    0.0000    2.3333    0.0000 N   0  0  0  0  0  0  0  0  0  0  0  0
    0.0000    0.8333    0.0000 C   0  0  0  0  0  0  0  0  0  0  0  0
   -1.2990    0.0833    0.0000 C   0  0  0  0  0  0  0  0  0  0  0  0
   -2.5981    0.8333    0.0000 C   0  0  0  0  0  0  0  0  0  0  0  0
   -1.2990   -1.4167    0.0000 C   0  0  0  0  0  0  0  0  0  0  0  0
   -0.0000   -2.1667    0.0000 C   0  0  0  0  0  0  0  0  0  0  0  0
    1.2990    0.0833    0.0000 C   0  0  0  0  0  0  0  0  0  0  0  0
    1.2990   -1.4167    0.0000 O   0  0  0  0  0  0  0  0  0  0  0  0
    2.5981    0.8333    0.0000 O   0  0  0  0  0  0  0  0  0  0  0  0
  2  1  1  6
  2  3  1  0
  3  4  1  6
  3  5  1  0
  5  6  1  0
  2  7  1  0
  7  8  2  0
  7  9  1  0
M  END
>  <rName>  (1967) 
I

>  <PQ_SYMBOL>  (1967) 
I

>  <FULL_NAME>  (1967) 
L-Isoleucine, (2S,3S)-Isoleucine

>  <IUPAC_CONDENSED>  (1967) 
Ile

>  <IUPAC>  (1967) 
(2S,3S)-2-amino-3-methylpentanoic acid

>  <TYPE>  (1967) 
Backbone

>  <CLASS>  (1967) 
alpha

>  <ANALOG>  (1967) 
Ile

>  <MOL_WT>  (1967) 
131.175

>  <LOGP>  (1967) 
0.44439999999999985

>  <TPSA>  (1967) 
63.32000000000001

>  <POPULARITY>  (1967) 
95.0

>  <PROTECTED>  (1967) 
TRUE

>  <SMILES>  (1967) 
N[C@@H]([C@@H](C)CC)C(=O)O

>  <INCHIKEY>  (1967) 
AGPKZVBTJJNPAG-WHFBIAKZSA-N

$$$$
Idc
     RDKit          2D

 12 13  0  0  0  0  0  0  0  0999 V2000
   -0.5689    1.2135    0.0000 N   0  0  0  0  0  0  0  0  0  0  0  0
   -1.4506   -0.0000    0.0000 C   0  0  0  0  0  0  0  0  0  0  0  0
   -0.5689   -1.2135    0.0000 C   0  0  0  0  0  0  0  0  0  0  0  0
    0.8577   -0.7500    0.0000 C   0  0  0  0  0  0  0  0  0  0  0  0
    2.1567   -1.5000    0.0000 C   0  0  0  0  0  0  0  0  0  0  0  0
    3.4557   -0.7500    0.0000 C   0  0  0  0  0  0  0  0  0  0  0  0
    3.4557    0.7500    0.0000 C   0  0  0  0  0  0  0  0  0  0  0  0
    2.1567    1.5000    0.0000 C   0  0  0  0  0  0  0  0  0  0  0  0
    0.8577    0.7500    0.0000 C   0  0  0  0  0  0  0  0  0  0  0  0
   -2.9506   -0.0000    0.0000 C   0  0  0  0  0  0  0  0  0  0  0  0
   -3.7006   -1.2990    0.0000 O   0  0  0  0  0  0  0  0  0  0  0  0
   -3.7006    1.2990    0.0000 O   0  0  0  0  0  0  0  0  0  0  0  0
  1  2  1  0
  2  3  1  0
  3  4  1  0
  4  5  2  0
  5  6  1  0
  6  7  2  0
  7  8  1  0
  8  9  2  0
  2 10  1  1
 10 11  2  0
 10 12  1  0
  9  1  1  0
  9  4  1  0
M  END
>  <rName>  (1968) 
Idc

>  <PQ_SYMBOL>  (1968) 
Idc

>  <FULL_NAME>  (1968) 
L-Indoline-2-carboxylic acid

>  <IUPAC_CONDENSED>  (1968) 
Idc

>  <IUPAC>  (1968) 
(2S)-indoline-2-carboxylic acid

>  <TYPE>  (1968) 
Backbone

>  <CLASS>  (1968) 
alpha

>  <ANALOG>  (1968) 
Pro

>  <MOL_WT>  (1968) 
163.17599999999996

>  <LOGP>  (1968) 
1.1078000000000001

>  <TPSA>  (1968) 
49.33

>  <POPULARITY>  (1968) 
20.7

>  <PROTECTED>  (1968) 
TRUE

>  <SMILES>  (1968) 
N1[C@@H](Cc2(ccccc12))C(=O)O

>  <INCHIKEY>  (1968) 
QNRXNRGSOJZINA-QMMMGPOBSA-N

$$$$
Ile-Gly
     RDKit          2D

 13 12  0  0  0  0  0  0  0  0999 V2000
    1.0748    0.4198    0.0000 N   0  0  0  0  0  0  0  0  0  0  0  0
   -0.3224   -0.1259    0.0000 C   0  0  0  0  0  0  0  0  0  0  0  0
   -0.5484   -1.6088    0.0000 O   0  0  0  0  0  0  0  0  0  0  0  0
   -1.4936    0.8112    0.0000 C   0  0  0  0  0  0  0  0  0  0  0  0
   -1.2676    2.2941    0.0000 N   0  0  0  0  0  0  0  0  0  0  0  0
   -2.8908    0.2655    0.0000 C   0  0  0  0  0  0  0  0  0  0  0  0
   -4.0620    1.2027    0.0000 C   0  0  0  0  0  0  0  0  0  0  0  0
   -3.1169   -1.2173    0.0000 C   0  0  0  0  0  0  0  0  0  0  0  0
   -1.9457   -2.1545    0.0000 C   0  0  0  0  0  0  0  0  0  0  0  0
    2.2460   -0.5174    0.0000 C   0  0  0  0  0  0  0  0  0  0  0  0
    3.6432    0.0283    0.0000 C   0  0  0  0  0  0  0  0  0  0  0  0
    3.8692    1.5112    0.0000 O   0  0  0  0  0  0  0  0  0  0  0  0
    4.8144   -0.9089    0.0000 O   0  0  0  0  0  0  0  0  0  0  0  0
  1  2  1  0
  2  3  2  0
  2  4  1  0
  4  5  1  6
  4  6  1  0
  6  7  1  6
  6  8  1  0
  8  9  1  0
  1 10  1  0
 10 11  1  0
 11 12  2  0
 11 13  1  0
M  END
>  <rName>  (1969) 
Ile-Gly

>  <PQ_SYMBOL>  (1969) 
Ile-Gly

>  <FULL_NAME>  (1969) 
L-isoleucylglycine

>  <IUPAC_CONDENSED>  (1969) 
Ile-Gly

>  <IUPAC>  (1969) 
2-((1S,2S)-1-amino-2-methylbutylcarbonylamino)acetic acid

>  <TYPE>  (1969) 
Backbone

>  <CLASS>  (1969) 
alpha

>  <ANALOG>  (1969) 
Gly

>  <MOL_WT>  (1969) 
188.22699999999998

>  <LOGP>  (1969) 
-0.43940000000000073

>  <TPSA>  (1969) 
92.42

>  <POPULARITY>  (1969) 
12.8

>  <PROTECTED>  (1969) 
TRUE

>  <SMILES>  (1969) 
N(C(=O)[C@@H](N)[C@@H](C)CC)CC(=O)O

>  <INCHIKEY>  (1969) 
UCGDDTHMMVWVMV-FSPLSTOPSA-N

$$$$
Ile-OMe
     RDKit          2D

 10  9  0  0  0  0  0  0  0  0999 V2000
   -0.3512    2.3311    0.0000 N   0  0  0  0  0  0  0  0  0  0  0  0
   -0.3760    0.8313    0.0000 C   0  0  0  0  0  0  0  0  0  0  0  0
   -1.6873    0.1029    0.0000 C   0  0  0  0  0  0  0  0  0  0  0  0
   -2.9737    0.8743    0.0000 C   0  0  0  0  0  0  0  0  0  0  0  0
   -1.7121   -1.3969    0.0000 C   0  0  0  0  0  0  0  0  0  0  0  0
   -0.4256   -2.1683    0.0000 C   0  0  0  0  0  0  0  0  0  0  0  0
    0.9104    0.0599    0.0000 C   0  0  0  0  0  0  0  0  0  0  0  0
    0.8856   -1.4398    0.0000 O   0  0  0  0  0  0  0  0  0  0  0  0
    2.2217    0.7884    0.0000 O   0  0  0  0  0  0  0  0  0  0  0  0
    3.5082    0.0170    0.0000 C   0  0  0  0  0  0  0  0  0  0  0  0
  2  1  1  6
  2  3  1  0
  3  4  1  6
  3  5  1  0
  5  6  1  0
  2  7  1  0
  7  8  2  0
  7  9  1  0
  9 10  1  0
M  END
>  <rName>  (1970) 
Ile-OMe

>  <PQ_SYMBOL>  (1970) 
Ile-OMe

>  <FULL_NAME>  (1970) 
Methyl L-isoleucinate

>  <IUPAC_CONDENSED>  (1970) 
Ile-OMe

>  <IUPAC>  (1970) 
methyl (2S,3S)-2-amino-3-methylpentanoate

>  <TYPE>  (1970) 
C-term cap

>  <CLASS>  (1970) 
c_cap

>  <ANALOG>  (1970) 
X

>  <MOL_WT>  (1970) 
145.202

>  <LOGP>  (1970) 
0.5327999999999997

>  <TPSA>  (1970) 
52.32000000000001

>  <POPULARITY>  (1970) 
14.7

>  <PROTECTED>  (1970) 
TRUE

>  <SMILES>  (1970) 
N[C@@H]([C@@H](C)CC)C(=O)OC

>  <INCHIKEY>  (1970) 
YXMMTUJDQTVJEN-WDSKDSINSA-N

$$$$
Ile_Et
     RDKit          2D

 11 10  0  0  0  0  0  0  0  0999 V2000
    0.4932   -1.9053    0.0000 N   0  0  0  0  0  0  0  0  0  0  0  0
    0.5703   -0.4073    0.0000 C   0  0  0  0  0  0  0  0  0  0  0  0
   -0.6885    0.4085    0.0000 C   0  0  0  0  0  0  0  0  0  0  0  0
    0.1273    1.6672    0.0000 C   0  0  0  0  0  0  0  0  0  0  0  0
   -1.5043   -0.8503    0.0000 C   0  0  0  0  0  0  0  0  0  0  0  0
   -0.8221   -2.1861    0.0000 C   0  0  0  0  0  0  0  0  0  0  0  0
   -1.9472    1.2243    0.0000 C   0  0  0  0  0  0  0  0  0  0  0  0
   -3.2831    0.5421    0.0000 C   0  0  0  0  0  0  0  0  0  0  0  0
    1.9062    0.2749    0.0000 C   0  0  0  0  0  0  0  0  0  0  0  0
    1.9833    1.7729    0.0000 O   0  0  0  0  0  0  0  0  0  0  0  0
    3.1649   -0.5409    0.0000 O   0  0  0  0  0  0  0  0  0  0  0  0
  2  1  1  1
  2  3  1  0
  3  4  1  0
  3  5  1  0
  5  6  1  0
  3  7  1  0
  7  8  1  0
  2  9  1  0
  9 10  2  0
  9 11  1  0
M  END
>  <rName>  (1971) 
Ile_Et

>  <PQ_SYMBOL>  (1971) 
Ile_Et

>  <FULL_NAME>  (1971) 
Ile(Et)

>  <IUPAC_CONDENSED>  (1971) 
Ile(Et)

>  <IUPAC>  (1971) 
(2S)-2-amino-3-ethyl-3-methylpentanoic acid

>  <TYPE>  (1971) 
Backbone

>  <CLASS>  (1971) 
alpha

>  <ANALOG>  (1971) 
Leu

>  <MOL_WT>  (1971) 
159.22899999999998

>  <LOGP>  (1971) 
1.2245999999999997

>  <TPSA>  (1971) 
63.32000000000001

>  <POPULARITY>  (1971) 
3.5

>  <PROTECTED>  (1971) 
TRUE

>  <SMILES>  (1971) 
N[C@@H](C(C)(CC)CC)C(=O)O

>  <INCHIKEY>  (1971) 
KDOYWKIEZLLIOD-ZCFIWIBFSA-N

$$$$
Inp
     RDKit          2D

  9  9  0  0  0  0  0  0  0  0999 V2000
    2.6667   -0.0000    0.0000 N   0  0  0  0  0  0  0  0  0  0  0  0
    1.9167   -1.2990    0.0000 C   0  0  0  0  0  0  0  0  0  0  0  0
    0.4167   -1.2990    0.0000 C   0  0  0  0  0  0  0  0  0  0  0  0
   -0.3333    0.0000    0.0000 C   0  0  0  0  0  0  0  0  0  0  0  0
    0.4167    1.2990    0.0000 C   0  0  0  0  0  0  0  0  0  0  0  0
    1.9167    1.2990    0.0000 C   0  0  0  0  0  0  0  0  0  0  0  0
   -1.8333    0.0000    0.0000 C   0  0  0  0  0  0  0  0  0  0  0  0
   -2.5833   -1.2990    0.0000 O   0  0  0  0  0  0  0  0  0  0  0  0
   -2.5833    1.2990    0.0000 O   0  0  0  0  0  0  0  0  0  0  0  0
  1  2  1  0
  2  3  1  0
  3  4  1  0
  4  5  1  0
  5  6  1  0
  4  7  1  0
  7  8  2  0
  7  9  1  0
  6  1  1  0
M  END
>  <rName>  (1972) 
Inp

>  <PQ_SYMBOL>  (1972) 
Inp

>  <FULL_NAME>  (1972) 
Isonipecotic acid

>  <IUPAC_CONDENSED>  (1972) 
Inp

>  <IUPAC>  (1972) 
piperidine-4-carboxylic acid

>  <TYPE>  (1972) 
Backbone

>  <CLASS>  (1972) 
gamma

>  <ANALOG>  (1972) 
Pro

>  <MOL_WT>  (1972) 
129.15900000000002

>  <LOGP>  (1972) 
0.07059999999999994

>  <TPSA>  (1972) 
49.33

>  <POPULARITY>  (1972) 
18.4

>  <PROTECTED>  (1972) 
TRUE

>  <SMILES>  (1972) 
N1CCC(CC1)C(=O)O

>  <INCHIKEY>  (1972) 
SRJOCJYGOFTFLH-UHFFFAOYSA-N

$$$$
Inp_3Me
     RDKit          2D

 10 10  0  0  0  0  0  0  0  0999 V2000
    2.7096    0.1244    0.0000 N   0  0  0  0  0  0  0  0  0  0  0  0
    1.8956   -1.1355    0.0000 C   0  0  0  0  0  0  0  0  0  0  0  0
    0.3975   -1.0604    0.0000 C   0  0  0  0  0  0  0  0  0  0  0  0
   -0.4166   -2.3203    0.0000 C   0  0  0  0  0  0  0  0  0  0  0  0
   -0.2866    0.2745    0.0000 C   0  0  0  0  0  0  0  0  0  0  0  0
    0.5274    1.5344    0.0000 C   0  0  0  0  0  0  0  0  0  0  0  0
    2.0255    1.4594    0.0000 C   0  0  0  0  0  0  0  0  0  0  0  0
   -1.7848    0.3495    0.0000 C   0  0  0  0  0  0  0  0  0  0  0  0
   -2.5988   -0.9104    0.0000 O   0  0  0  0  0  0  0  0  0  0  0  0
   -2.4688    1.6844    0.0000 O   0  0  0  0  0  0  0  0  0  0  0  0
  1  2  1  0
  2  3  1  0
  3  4  1  0
  3  5  1  0
  5  6  1  0
  6  7  1  0
  5  8  1  0
  8  9  2  0
  8 10  1  0
  7  1  1  0
M  END
>  <rName>  (1973) 
Inp_3Me

>  <PQ_SYMBOL>  (1973) 
Inp_3Me

>  <FULL_NAME>  (1973) 
3-Methyl-4-piperidinecarboxylic acid

>  <IUPAC_CONDENSED>  (1973) 
Inp(3-Me)

>  <IUPAC>  (1973) 
3-methylpiperidine-4-carboxylic acid

>  <TYPE>  (1973) 
Backbone

>  <CLASS>  (1973) 
gamma

>  <ANALOG>  (1973) 
Pro

>  <MOL_WT>  (1973) 
143.186

>  <LOGP>  (1973) 
0.31659999999999994

>  <TPSA>  (1973) 
49.33

>  <POPULARITY>  (1973) 
10.0

>  <PROTECTED>  (1973) 
TRUE

>  <SMILES>  (1973) 
N1CC(C)C(CC1)C(=O)O

>  <INCHIKEY>  (1973) 
WLGOHASCUQHBRC-UHFFFAOYSA-N

$$$$
Inp_3OMe
     RDKit          2D

 11 11  0  0  0  0  0  0  0  0999 V2000
   -2.5065   -1.0663    0.0000 N   0  0  0  0  0  0  0  0  0  0  0  0
   -2.0064    0.3479    0.0000 C   0  0  0  0  0  0  0  0  0  0  0  0
   -0.5316    0.6219    0.0000 C   0  0  0  0  0  0  0  0  0  0  0  0
   -0.0316    2.0361    0.0000 O   0  0  0  0  0  0  0  0  0  0  0  0
   -1.0063    3.1763    0.0000 C   0  0  0  0  0  0  0  0  0  0  0  0
    0.4430   -0.5183    0.0000 C   0  0  0  0  0  0  0  0  0  0  0  0
   -0.0570   -1.9324    0.0000 C   0  0  0  0  0  0  0  0  0  0  0  0
   -1.5318   -2.2065    0.0000 C   0  0  0  0  0  0  0  0  0  0  0  0
    1.9178   -0.2442    0.0000 C   0  0  0  0  0  0  0  0  0  0  0  0
    2.4179    1.1699    0.0000 O   0  0  0  0  0  0  0  0  0  0  0  0
    2.8925   -1.3844    0.0000 O   0  0  0  0  0  0  0  0  0  0  0  0
  1  2  1  0
  2  3  1  0
  3  4  1  0
  4  5  1  0
  3  6  1  0
  6  7  1  0
  7  8  1  0
  6  9  1  0
  9 10  2  0
  9 11  1  0
  8  1  1  0
M  END
>  <rName>  (1974) 
Inp_3OMe

>  <PQ_SYMBOL>  (1974) 
Inp_3OMe

>  <FULL_NAME>  (1974) 
3-Methoxypiperidine-4-carboxylic acid

>  <IUPAC_CONDENSED>  (1974) 
Inp(3-OMe)

>  <IUPAC>  (1974) 
3-methoxypiperidine-4-carboxylic acid

>  <TYPE>  (1974) 
Backbone

>  <CLASS>  (1974) 
gamma

>  <ANALOG>  (1974) 
Ser

>  <MOL_WT>  (1974) 
159.185

>  <LOGP>  (1974) 
-0.30450000000000027

>  <TPSA>  (1974) 
58.56

>  <POPULARITY>  (1974) 
6.7

>  <PROTECTED>  (1974) 
TRUE

>  <SMILES>  (1974) 
N1CC(OC)C(CC1)C(=O)O

>  <INCHIKEY>  (1974) 
JXXPDNQTZFMPDU-UHFFFAOYSA-N

$$$$
Inp_4Bn
     RDKit          2D

 16 17  0  0  0  0  0  0  0  0999 V2000
    1.8980   -2.6930    0.0000 N   0  0  0  0  0  0  0  0  0  0  0  0
    0.4702   -2.2332    0.0000 C   0  0  0  0  0  0  0  0  0  0  0  0
    0.1545   -0.7668    0.0000 C   0  0  0  0  0  0  0  0  0  0  0  0
    1.2666    0.2398    0.0000 C   0  0  0  0  0  0  0  0  0  0  0  0
    2.6944   -0.2199    0.0000 C   0  0  0  0  0  0  0  0  0  0  0  0
    3.0101   -1.6863    0.0000 C   0  0  0  0  0  0  0  0  0  0  0  0
    0.0821    1.1602    0.0000 C   0  0  0  0  0  0  0  0  0  0  0  0
   -1.3071    0.5947    0.0000 C   0  0  0  0  0  0  0  0  0  0  0  0
   -1.5120   -0.8913    0.0000 C   0  0  0  0  0  0  0  0  0  0  0  0
   -2.9013   -1.4568    0.0000 C   0  0  0  0  0  0  0  0  0  0  0  0
   -4.0857   -0.5365    0.0000 C   0  0  0  0  0  0  0  0  0  0  0  0
   -3.8809    0.9495    0.0000 C   0  0  0  0  0  0  0  0  0  0  0  0
   -2.4916    1.5150    0.0000 C   0  0  0  0  0  0  0  0  0  0  0  0
    1.9673    1.5661    0.0000 C   0  0  0  0  0  0  0  0  0  0  0  0
    1.1691    2.8361    0.0000 O   0  0  0  0  0  0  0  0  0  0  0  0
    3.4663    1.6224    0.0000 O   0  0  0  0  0  0  0  0  0  0  0  0
  1  2  1  0
  2  3  1  0
  3  4  1  0
  4  5  1  0
  5  6  1  0
  4  7  1  0
  7  8  1  0
  8  9  2  0
  9 10  1  0
 10 11  2  0
 11 12  1  0
 12 13  2  0
  4 14  1  0
 14 15  2  0
 14 16  1  0
  6  1  1  0
 13  8  1  0
M  END
>  <rName>  (1975) 
Inp_4Bn

>  <PQ_SYMBOL>  (1975) 
Inp_4Bn

>  <FULL_NAME>  (1975) 
4-Benzylpiperidine-4-carboxylic acid

>  <IUPAC_CONDENSED>  (1975) 
Inp(4-Bn)

>  <IUPAC>  (1975) 
4-benzylpiperidine-4-carboxylic acid

>  <TYPE>  (1975) 
Backbone

>  <CLASS>  (1975) 
gamma

>  <ANALOG>  (1975) 
Pro

>  <MOL_WT>  (1975) 
219.28400000000002

>  <LOGP>  (1975) 
1.6835

>  <TPSA>  (1975) 
49.33

>  <POPULARITY>  (1975) 
7.0

>  <PROTECTED>  (1975) 
TRUE

>  <SMILES>  (1975) 
N1CCC(CC1)(Cc2(ccccc2))C(=O)O

>  <INCHIKEY>  (1975) 
JRXWHKZHPSGMAX-UHFFFAOYSA-N

$$$$
Inp_4CF3
     RDKit          2D

 13 13  0  0  0  0  0  0  0  0999 V2000
   -3.0579   -0.2127    0.0000 N   0  0  0  0  0  0  0  0  0  0  0  0
   -2.4373    1.1529    0.0000 C   0  0  0  0  0  0  0  0  0  0  0  0
   -0.9444    1.2983    0.0000 C   0  0  0  0  0  0  0  0  0  0  0  0
   -0.0720    0.0780    0.0000 C   0  0  0  0  0  0  0  0  0  0  0  0
   -0.6926   -1.2876    0.0000 C   0  0  0  0  0  0  0  0  0  0  0  0
   -2.1855   -1.4329    0.0000 C   0  0  0  0  0  0  0  0  0  0  0  0
    1.1651   -0.7702    0.0000 C   0  0  0  0  0  0  0  0  0  0  0  0
    2.4022   -1.6185    0.0000 F   0  0  0  0  0  0  0  0  0  0  0  0
    1.8888    0.0495    0.0000 F   0  0  0  0  0  0  0  0  0  0  0  0
    0.3168   -2.0073    0.0000 F   0  0  0  0  0  0  0  0  0  0  0  0
    0.9782    1.1490    0.0000 C   0  0  0  0  0  0  0  0  0  0  0  0
    0.5758    2.5941    0.0000 O   0  0  0  0  0  0  0  0  0  0  0  0
    2.0625    1.0075    0.0000 O   0  0  0  0  0  0  0  0  0  0  0  0
  1  2  1  0
  2  3  1  0
  3  4  1  0
  4  5  1  0
  5  6  1  0
  4  7  1  0
  7  8  1  0
  7  9  1  0
  7 10  1  0
  4 11  1  0
 11 12  2  0
 11 13  1  0
  6  1  1  0
M  END
>  <rName>  (1976) 
Inp_4CF3

>  <PQ_SYMBOL>  (1976) 
Inp_4CF3

>  <FULL_NAME>  (1976) 
4-Trifluoromethyl-piperidine-4-carboxylic acid

>  <IUPAC_CONDENSED>  (1976) 
Inp(4-CF3)

>  <IUPAC>  (1976) 
4-(trifluoromethyl)piperidine-4-carboxylic acid

>  <TYPE>  (1976) 
Backbone

>  <CLASS>  (1976) 
gamma

>  <ANALOG>  (1976) 
Pro

>  <MOL_WT>  (1976) 
197.15599999999998

>  <LOGP>  (1976) 
1.0030999999999999

>  <TPSA>  (1976) 
49.33

>  <POPULARITY>  (1976) 
4.2

>  <PROTECTED>  (1976) 
TRUE

>  <SMILES>  (1976) 
N1CCC(CC1)(C(F)(F)F)C(=O)O

>  <INCHIKEY>  (1976) 
ZWNUDRHRKAZUCQ-UHFFFAOYSA-N

$$$$
Inp_4CH2CHF2
     RDKit          2D

 13 13  0  0  0  0  0  0  0  0999 V2000
    2.0947   -2.1050    0.0000 N   0  0  0  0  0  0  0  0  0  0  0  0
    0.6031   -2.2632    0.0000 C   0  0  0  0  0  0  0  0  0  0  0  0
   -0.2798   -1.0506    0.0000 C   0  0  0  0  0  0  0  0  0  0  0  0
    0.3290    0.3203    0.0000 C   0  0  0  0  0  0  0  0  0  0  0  0
    1.8206    0.4786    0.0000 C   0  0  0  0  0  0  0  0  0  0  0  0
    2.7035   -0.7341    0.0000 C   0  0  0  0  0  0  0  0  0  0  0  0
   -1.1268    0.6818    0.0000 C   0  0  0  0  0  0  0  0  0  0  0  0
   -2.1677   -0.3982    0.0000 C   0  0  0  0  0  0  0  0  0  0  0  0
   -3.6235   -0.0368    0.0000 F   0  0  0  0  0  0  0  0  0  0  0  0
   -1.7529   -1.8397    0.0000 F   0  0  0  0  0  0  0  0  0  0  0  0
    0.4322    1.8168    0.0000 C   0  0  0  0  0  0  0  0  0  0  0  0
    1.7797    2.4757    0.0000 O   0  0  0  0  0  0  0  0  0  0  0  0
   -0.8122    2.6544    0.0000 O   0  0  0  0  0  0  0  0  0  0  0  0
  1  2  1  0
  2  3  1  0
  3  4  1  0
  4  5  1  0
  5  6  1  0
  4  7  1  0
  7  8  1  0
  8  9  1  0
  8 10  1  0
  4 11  1  0
 11 12  2  0
 11 13  1  0
  6  1  1  0
M  END
>  <rName>  (1977) 
Inp_4CH2CHF2

>  <PQ_SYMBOL>  (1977) 
Inp_4CH2CHF2

>  <FULL_NAME>  (1977) 
4-(2,2-Difluoroethyl)piperidine-4-carboxylic acid

>  <IUPAC_CONDENSED>  (1977) 
Inp(4-CH2CHF2)

>  <IUPAC>  (1977) 
4-(2,2-difluoroethyl)piperidine-4-carboxylic acid

>  <TYPE>  (1977) 
Backbone

>  <CLASS>  (1977) 
gamma

>  <ANALOG>  (1977) 
Pro

>  <MOL_WT>  (1977) 
193.19299999999998

>  <LOGP>  (1977) 
1.096

>  <TPSA>  (1977) 
49.33

>  <POPULARITY>  (1977) 
3.6

>  <PROTECTED>  (1977) 
TRUE

>  <SMILES>  (1977) 
N1CCC(CC1)(CC(F)F)C(=O)O

>  <INCHIKEY>  (1977) 
BLLRLKTWXDJPFX-UHFFFAOYSA-N

$$$$
Inp_4CH2F
     RDKit          2D

 11 11  0  0  0  0  0  0  0  0999 V2000
    2.7683   -0.3068    0.0000 N   0  0  0  0  0  0  0  0  0  0  0  0
    1.8620   -1.5021    0.0000 C   0  0  0  0  0  0  0  0  0  0  0  0
    0.3737   -1.3149    0.0000 C   0  0  0  0  0  0  0  0  0  0  0  0
   -0.2083    0.0675    0.0000 C   0  0  0  0  0  0  0  0  0  0  0  0
   -1.2281    1.1676    0.0000 C   0  0  0  0  0  0  0  0  0  0  0  0
   -0.7853    2.6007    0.0000 F   0  0  0  0  0  0  0  0  0  0  0  0
    0.6979    1.2628    0.0000 C   0  0  0  0  0  0  0  0  0  0  0  0
    2.1862    1.0757    0.0000 C   0  0  0  0  0  0  0  0  0  0  0  0
   -1.4687   -0.7457    0.0000 C   0  0  0  0  0  0  0  0  0  0  0  0
   -1.3946   -2.2439    0.0000 O   0  0  0  0  0  0  0  0  0  0  0  0
   -2.8032   -0.0608    0.0000 O   0  0  0  0  0  0  0  0  0  0  0  0
  1  2  1  0
  2  3  1  0
  3  4  1  0
  4  5  1  0
  5  6  1  0
  4  7  1  0
  7  8  1  0
  4  9  1  0
  9 10  2  0
  9 11  1  0
  8  1  1  0
M  END
>  <rName>  (1978) 
Inp_4CH2F

>  <PQ_SYMBOL>  (1978) 
Inp_4CH2F

>  <FULL_NAME>  (1978) 
4-(Fluoromethyl)piperidine-4-carboxylic acid

>  <IUPAC_CONDENSED>  (1978) 
Inp(4-CH2F)

>  <IUPAC>  (1978) 
4-(fluoromethyl)piperidine-4-carboxylic acid

>  <TYPE>  (1978) 
Backbone

>  <CLASS>  (1978) 
gamma

>  <ANALOG>  (1978) 
Pro

>  <MOL_WT>  (1978) 
161.17600000000002

>  <LOGP>  (1978) 
0.41029999999999983

>  <TPSA>  (1978) 
49.33

>  <POPULARITY>  (1978) 
4.5

>  <PROTECTED>  (1978) 
TRUE

>  <SMILES>  (1978) 
N1CCC(CF)(CC1)C(=O)O

>  <INCHIKEY>  (1978) 
NHCJSNKCCFBHPL-UHFFFAOYSA-N

$$$$
Inp_4CHF2
     RDKit          2D

 12 12  0  0  0  0  0  0  0  0999 V2000
    3.0247   -0.0000    0.0000 N   0  0  0  0  0  0  0  0  0  0  0  0
    2.2747   -1.2990    0.0000 C   0  0  0  0  0  0  0  0  0  0  0  0
    0.7747   -1.2990    0.0000 C   0  0  0  0  0  0  0  0  0  0  0  0
    0.0247   -0.0000    0.0000 C   0  0  0  0  0  0  0  0  0  0  0  0
    0.7747    1.2990    0.0000 C   0  0  0  0  0  0  0  0  0  0  0  0
    2.2747    1.2990    0.0000 C   0  0  0  0  0  0  0  0  0  0  0  0
   -1.1244    0.9642    0.0000 C   0  0  0  0  0  0  0  0  0  0  0  0
   -2.5859    0.6268    0.0000 F   0  0  0  0  0  0  0  0  0  0  0  0
   -0.8639    2.4414    0.0000 F   0  0  0  0  0  0  0  0  0  0  0  0
   -1.1244   -0.9642    0.0000 C   0  0  0  0  0  0  0  0  0  0  0  0
   -0.8639   -2.4414    0.0000 O   0  0  0  0  0  0  0  0  0  0  0  0
   -2.5859   -0.6268    0.0000 O   0  0  0  0  0  0  0  0  0  0  0  0
  1  2  1  0
  2  3  1  0
  3  4  1  0
  4  5  1  0
  5  6  1  0
  4  7  1  0
  7  8  1  0
  7  9  1  0
  4 10  1  0
 10 11  2  0
 10 12  1  0
  6  1  1  0
M  END
>  <rName>  (1979) 
Inp_4CHF2

>  <PQ_SYMBOL>  (1979) 
Inp_4CHF2

>  <FULL_NAME>  (1979) 
4-(Difluoromethyl)piperidine-4-carboxylic acid

>  <IUPAC_CONDENSED>  (1979) 
Inp(4-CHF2)

>  <IUPAC>  (1979) 
4-(difluoromethyl)piperidine-4-carboxylic acid

>  <TYPE>  (1979) 
Backbone

>  <CLASS>  (1979) 
gamma

>  <ANALOG>  (1979) 
Pro

>  <MOL_WT>  (1979) 
179.166

>  <LOGP>  (1979) 
0.7059

>  <TPSA>  (1979) 
49.33

>  <POPULARITY>  (1979) 
4.4

>  <PROTECTED>  (1979) 
TRUE

>  <SMILES>  (1979) 
N1CCC(CC1)(C(F)F)C(=O)O

>  <INCHIKEY>  (1979) 
DLUCUAKXUMSPAT-UHFFFAOYSA-N

$$$$
Inp_4CN
     RDKit          2D

 11 11  0  0  0  0  0  0  0  0999 V2000
    2.9026   -0.2618    0.0000 N   0  0  0  0  0  0  0  0  0  0  0  0
    2.0762   -1.5137    0.0000 C   0  0  0  0  0  0  0  0  0  0  0  0
    0.5789   -1.4239    0.0000 C   0  0  0  0  0  0  0  0  0  0  0  0
   -0.0920   -0.0823    0.0000 C   0  0  0  0  0  0  0  0  0  0  0  0
   -1.2968   -0.9760    0.0000 C   0  0  0  0  0  0  0  0  0  0  0  0
   -2.5015   -1.8696    0.0000 N   0  0  0  0  0  0  0  0  0  0  0  0
    0.7344    1.1695    0.0000 C   0  0  0  0  0  0  0  0  0  0  0  0
    2.2317    1.0797    0.0000 C   0  0  0  0  0  0  0  0  0  0  0  0
   -1.1813    0.9489    0.0000 C   0  0  0  0  0  0  0  0  0  0  0  0
   -2.6191    0.5212    0.0000 O   0  0  0  0  0  0  0  0  0  0  0  0
   -0.8329    2.4079    0.0000 O   0  0  0  0  0  0  0  0  0  0  0  0
  1  2  1  0
  2  3  1  0
  3  4  1  0
  4  5  1  0
  5  6  3  0
  4  7  1  0
  7  8  1  0
  4  9  1  0
  9 10  2  0
  9 11  1  0
  8  1  1  0
M  END
>  <rName>  (1980) 
Inp_4CN

>  <PQ_SYMBOL>  (1980) 
Inp_4CN

>  <FULL_NAME>  (1980) 
4-Cyanopiperidine-4-carboxylic acid

>  <IUPAC_CONDENSED>  (1980) 
Inp(4-CN)

>  <IUPAC>  (1980) 
4-cyanopiperidine-4-carboxylic acid

>  <TYPE>  (1980) 
Backbone

>  <CLASS>  (1980) 
gamma

>  <ANALOG>  (1980) 
Pro

>  <MOL_WT>  (1980) 
154.169

>  <LOGP>  (1980) 
-0.03562000000000026

>  <TPSA>  (1980) 
73.12

>  <POPULARITY>  (1980) 
4.3

>  <PROTECTED>  (1980) 
TRUE

>  <SMILES>  (1980) 
N1CCC(C#N)(CC1)C(=O)O

>  <INCHIKEY>  (1980) 
ASKVGCJHTNRTQO-UHFFFAOYSA-N

$$$$
Inp_4Et
     RDKit          2D

 11 11  0  0  0  0  0  0  0  0999 V2000
   -2.9440   -0.0805    0.0000 N   0  0  0  0  0  0  0  0  0  0  0  0
   -2.3312    1.2886    0.0000 C   0  0  0  0  0  0  0  0  0  0  0  0
   -0.8391    1.4425    0.0000 C   0  0  0  0  0  0  0  0  0  0  0  0
    0.0402    0.2273    0.0000 C   0  0  0  0  0  0  0  0  0  0  0  0
    1.0843    1.3042    0.0000 C   0  0  0  0  0  0  0  0  0  0  0  0
    2.5390    0.9385    0.0000 C   0  0  0  0  0  0  0  0  0  0  0  0
   -0.5726   -1.1419    0.0000 C   0  0  0  0  0  0  0  0  0  0  0  0
   -2.0647   -1.2957    0.0000 C   0  0  0  0  0  0  0  0  0  0  0  0
    1.2821   -0.6140    0.0000 C   0  0  0  0  0  0  0  0  0  0  0  0
    2.6316    0.0410    0.0000 O   0  0  0  0  0  0  0  0  0  0  0  0
    1.1745   -2.1101    0.0000 O   0  0  0  0  0  0  0  0  0  0  0  0
  1  2  1  0
  2  3  1  0
  3  4  1  0
  4  5  1  0
  5  6  1  0
  4  7  1  0
  7  8  1  0
  4  9  1  0
  9 10  2  0
  9 11  1  0
  8  1  1  0
M  END
>  <rName>  (1981) 
Inp_4Et

>  <PQ_SYMBOL>  (1981) 
Inp_4Et

>  <FULL_NAME>  (1981) 
4-Ethylpiperidine-4-carboxylic acid

>  <IUPAC_CONDENSED>  (1981) 
Inp(4-Et)

>  <IUPAC>  (1981) 
4-ethylpiperidine-4-carboxylic acid

>  <TYPE>  (1981) 
Backbone

>  <CLASS>  (1981) 
gamma

>  <ANALOG>  (1981) 
Pro

>  <MOL_WT>  (1981) 
157.213

>  <LOGP>  (1981) 
0.8507999999999998

>  <TPSA>  (1981) 
49.33

>  <POPULARITY>  (1981) 
9.7

>  <PROTECTED>  (1981) 
TRUE

>  <SMILES>  (1981) 
N1CCC(CC)(CC1)C(=O)O

>  <INCHIKEY>  (1981) 
KXKKAGIATNDDON-UHFFFAOYSA-N

$$$$
Inp_4EtOMe
     RDKit          2D

 13 13  0  0  0  0  0  0  0  0999 V2000
    3.5882   -0.5174    0.0000 N   0  0  0  0  0  0  0  0  0  0  0  0
    2.6636   -1.6985    0.0000 C   0  0  0  0  0  0  0  0  0  0  0  0
    1.1784   -1.4883    0.0000 C   0  0  0  0  0  0  0  0  0  0  0  0
    0.6178   -0.0970    0.0000 C   0  0  0  0  0  0  0  0  0  0  0  0
    1.5424    1.0841    0.0000 C   0  0  0  0  0  0  0  0  0  0  0  0
    3.0276    0.8739    0.0000 C   0  0  0  0  0  0  0  0  0  0  0  0
   -0.6550   -0.8907    0.0000 C   0  0  0  0  0  0  0  0  0  0  0  0
   -1.9788   -0.1853    0.0000 C   0  0  0  0  0  0  0  0  0  0  0  0
   -3.2516   -0.9789    0.0000 O   0  0  0  0  0  0  0  0  0  0  0  0
   -4.5754   -0.2735    0.0000 C   0  0  0  0  0  0  0  0  0  0  0  0
   -0.3848    1.0186    0.0000 C   0  0  0  0  0  0  0  0  0  0  0  0
   -1.8524    0.7081    0.0000 O   0  0  0  0  0  0  0  0  0  0  0  0
    0.0800    2.4448    0.0000 O   0  0  0  0  0  0  0  0  0  0  0  0
  1  2  1  0
  2  3  1  0
  3  4  1  0
  4  5  1  0
  5  6  1  0
  4  7  1  0
  7  8  1  0
  8  9  1  0
  9 10  1  0
  4 11  1  0
 11 12  2  0
 11 13  1  0
  6  1  1  0
M  END
>  <rName>  (1982) 
Inp_4EtOMe

>  <PQ_SYMBOL>  (1982) 
Inp_4EtOMe

>  <FULL_NAME>  (1982) 
4-(2-Methoxyethyl)piperidine-4-carboxylic acid

>  <IUPAC_CONDENSED>  (1982) 
Inp(4-EtOMe)

>  <IUPAC>  (1982) 
4-(2-methoxyethyl)piperidine-4-carboxylic acid

>  <TYPE>  (1982) 
Backbone

>  <CLASS>  (1982) 
gamma

>  <ANALOG>  (1982) 
Pro

>  <MOL_WT>  (1982) 
187.239

>  <LOGP>  (1982) 
0.4772999999999998

>  <TPSA>  (1982) 
58.56

>  <POPULARITY>  (1982) 
6.3

>  <PROTECTED>  (1982) 
TRUE

>  <SMILES>  (1982) 
N1CCC(CC1)(CCOC)C(=O)O

>  <INCHIKEY>  (1982) 
SGPMFMYNUXDEGJ-UHFFFAOYSA-N

$$$$
Inp_4F
     RDKit          2D

 10 10  0  0  0  0  0  0  0  0999 V2000
    2.6609   -0.3955    0.0000 N   0  0  0  0  0  0  0  0  0  0  0  0
    1.6072   -1.4630    0.0000 C   0  0  0  0  0  0  0  0  0  0  0  0
    0.1558   -1.0843    0.0000 C   0  0  0  0  0  0  0  0  0  0  0  0
   -0.2419    0.3621    0.0000 C   0  0  0  0  0  0  0  0  0  0  0  0
   -1.1103    1.5851    0.0000 F   0  0  0  0  0  0  0  0  0  0  0  0
    0.8118    1.4296    0.0000 C   0  0  0  0  0  0  0  0  0  0  0  0
    2.2632    1.0509    0.0000 C   0  0  0  0  0  0  0  0  0  0  0  0
   -1.5972   -0.2807    0.0000 C   0  0  0  0  0  0  0  0  0  0  0  0
   -1.7181   -1.7758    0.0000 O   0  0  0  0  0  0  0  0  0  0  0  0
   -2.8315    0.5716    0.0000 O   0  0  0  0  0  0  0  0  0  0  0  0
  1  2  1  0
  2  3  1  0
  3  4  1  0
  4  5  1  0
  4  6  1  0
  6  7  1  0
  4  8  1  0
  8  9  2  0
  8 10  1  0
  7  1  1  0
M  END
>  <rName>  (1983) 
Inp_4F

>  <PQ_SYMBOL>  (1983) 
Inp_4F

>  <FULL_NAME>  (1983) 
4-Fluoropiperidine-4-carboxylic acid

>  <IUPAC_CONDENSED>  (1983) 
Inp(4-F)

>  <IUPAC>  (1983) 
4-fluoropiperidine-4-carboxylic acid

>  <TYPE>  (1983) 
Backbone

>  <CLASS>  (1983) 
gamma

>  <ANALOG>  (1983) 
Pro

>  <MOL_WT>  (1983) 
147.149

>  <LOGP>  (1983) 
0.1627

>  <TPSA>  (1983) 
49.33

>  <POPULARITY>  (1983) 
6.6

>  <PROTECTED>  (1983) 
TRUE

>  <SMILES>  (1983) 
N1CCC(F)(CC1)C(=O)O

>  <INCHIKEY>  (1983) 
HCCMWFNZFOHBOA-UHFFFAOYSA-N

$$$$
Inp_4Me
     RDKit          2D

 10 10  0  0  0  0  0  0  0  0999 V2000
   -2.6609   -0.3955    0.0000 N   0  0  0  0  0  0  0  0  0  0  0  0
   -2.2632    1.0509    0.0000 C   0  0  0  0  0  0  0  0  0  0  0  0
   -0.8118    1.4296    0.0000 C   0  0  0  0  0  0  0  0  0  0  0  0
    0.2419    0.3621    0.0000 C   0  0  0  0  0  0  0  0  0  0  0  0
    1.1103    1.5851    0.0000 C   0  0  0  0  0  0  0  0  0  0  0  0
   -0.1558   -1.0843    0.0000 C   0  0  0  0  0  0  0  0  0  0  0  0
   -1.6072   -1.4630    0.0000 C   0  0  0  0  0  0  0  0  0  0  0  0
    1.5972   -0.2807    0.0000 C   0  0  0  0  0  0  0  0  0  0  0  0
    2.8315    0.5716    0.0000 O   0  0  0  0  0  0  0  0  0  0  0  0
    1.7181   -1.7758    0.0000 O   0  0  0  0  0  0  0  0  0  0  0  0
  1  2  1  0
  2  3  1  0
  3  4  1  0
  4  5  1  0
  4  6  1  0
  6  7  1  0
  4  8  1  0
  8  9  2  0
  8 10  1  0
  7  1  1  0
M  END
>  <rName>  (1984) 
Inp_4Me

>  <PQ_SYMBOL>  (1984) 
Inp_4Me

>  <FULL_NAME>  (1984) 
4-Methylpiperidine-4-carboxylic acid

>  <IUPAC_CONDENSED>  (1984) 
Inp(4-Me)

>  <IUPAC>  (1984) 
4-methylpiperidine-4-carboxylic acid

>  <TYPE>  (1984) 
Backbone

>  <CLASS>  (1984) 
gamma

>  <ANALOG>  (1984) 
Pro

>  <MOL_WT>  (1984) 
143.186

>  <LOGP>  (1984) 
0.46069999999999983

>  <TPSA>  (1984) 
49.33

>  <POPULARITY>  (1984) 
13.2

>  <PROTECTED>  (1984) 
TRUE

>  <SMILES>  (1984) 
N1CCC(C)(CC1)C(=O)O

>  <INCHIKEY>  (1984) 
YORPCQSBLZIBKP-UHFFFAOYSA-N

$$$$
Inp_4OH
     RDKit          2D

 10 10  0  0  0  0  0  0  0  0999 V2000
    2.6609   -0.3955    0.0000 N   0  0  0  0  0  0  0  0  0  0  0  0
    1.6072   -1.4630    0.0000 C   0  0  0  0  0  0  0  0  0  0  0  0
    0.1558   -1.0843    0.0000 C   0  0  0  0  0  0  0  0  0  0  0  0
   -0.2419    0.3621    0.0000 C   0  0  0  0  0  0  0  0  0  0  0  0
   -1.1103    1.5851    0.0000 O   0  0  0  0  0  0  0  0  0  0  0  0
    0.8118    1.4296    0.0000 C   0  0  0  0  0  0  0  0  0  0  0  0
    2.2632    1.0509    0.0000 C   0  0  0  0  0  0  0  0  0  0  0  0
   -1.5972   -0.2807    0.0000 C   0  0  0  0  0  0  0  0  0  0  0  0
   -1.7181   -1.7758    0.0000 O   0  0  0  0  0  0  0  0  0  0  0  0
   -2.8315    0.5716    0.0000 O   0  0  0  0  0  0  0  0  0  0  0  0
  1  2  1  0
  2  3  1  0
  3  4  1  0
  4  5  1  0
  4  6  1  0
  6  7  1  0
  4  8  1  0
  8  9  2  0
  8 10  1  0
  7  1  1  0
M  END
>  <rName>  (1985) 
Inp_4OH

>  <PQ_SYMBOL>  (1985) 
Inp_4OH

>  <FULL_NAME>  (1985) 
4-hydroxypiperidine-4-carboxylic Acid

>  <IUPAC_CONDENSED>  (1985) 
Inp(4-OH)

>  <IUPAC>  (1985) 
4-hydroxypiperidine-4-carboxylic acid

>  <TYPE>  (1985) 
Backbone

>  <CLASS>  (1985) 
gamma

>  <ANALOG>  (1985) 
Pro

>  <MOL_WT>  (1985) 
145.158

>  <LOGP>  (1985) 
-0.8145000000000002

>  <TPSA>  (1985) 
69.56

>  <POPULARITY>  (1985) 
7.2

>  <PROTECTED>  (1985) 
TRUE

>  <SMILES>  (1985) 
N1CCC(O)(CC1)C(=O)O

>  <INCHIKEY>  (1985) 
FKKPSFIMIQSISK-UHFFFAOYSA-N

$$$$
Inp_4OMe
     RDKit          2D

 11 11  0  0  0  0  0  0  0  0999 V2000
    2.7683   -0.3068    0.0000 N   0  0  0  0  0  0  0  0  0  0  0  0
    1.8620   -1.5021    0.0000 C   0  0  0  0  0  0  0  0  0  0  0  0
    0.3737   -1.3149    0.0000 C   0  0  0  0  0  0  0  0  0  0  0  0
   -0.2083    0.0675    0.0000 C   0  0  0  0  0  0  0  0  0  0  0  0
   -1.2281    1.1676    0.0000 O   0  0  0  0  0  0  0  0  0  0  0  0
   -0.7853    2.6007    0.0000 C   0  0  0  0  0  0  0  0  0  0  0  0
    0.6979    1.2628    0.0000 C   0  0  0  0  0  0  0  0  0  0  0  0
    2.1862    1.0757    0.0000 C   0  0  0  0  0  0  0  0  0  0  0  0
   -1.4687   -0.7457    0.0000 C   0  0  0  0  0  0  0  0  0  0  0  0
   -1.3946   -2.2439    0.0000 O   0  0  0  0  0  0  0  0  0  0  0  0
   -2.8032   -0.0608    0.0000 O   0  0  0  0  0  0  0  0  0  0  0  0
  1  2  1  0
  2  3  1  0
  3  4  1  0
  4  5  1  0
  5  6  1  0
  4  7  1  0
  7  8  1  0
  4  9  1  0
  9 10  2  0
  9 11  1  0
  8  1  1  0
M  END
>  <rName>  (1986) 
Inp_4OMe

>  <PQ_SYMBOL>  (1986) 
Inp_4OMe

>  <FULL_NAME>  (1986) 
4-Methoxypiperidine-4-carboxylic acid

>  <IUPAC_CONDENSED>  (1986) 
Inp(4-OMe)

>  <IUPAC>  (1986) 
4-methoxypiperidine-4-carboxylic acid

>  <TYPE>  (1986) 
Backbone

>  <CLASS>  (1986) 
gamma

>  <ANALOG>  (1986) 
Pro

>  <MOL_WT>  (1986) 
159.185

>  <LOGP>  (1986) 
-0.16040000000000038

>  <TPSA>  (1986) 
58.56

>  <POPULARITY>  (1986) 
7.0

>  <PROTECTED>  (1986) 
TRUE

>  <SMILES>  (1986) 
N1CCC(OC)(CC1)C(=O)O

>  <INCHIKEY>  (1986) 
WJACJJKVFSLPJH-UHFFFAOYSA-N

$$$$
Inp_4Ph
     RDKit          2D

 15 16  0  0  0  0  0  0  0  0999 V2000
    3.4320   -1.2773    0.0000 N   0  0  0  0  0  0  0  0  0  0  0  0
    2.1532   -2.0613    0.0000 C   0  0  0  0  0  0  0  0  0  0  0  0
    0.8348   -1.3459    0.0000 C   0  0  0  0  0  0  0  0  0  0  0  0
    0.7952    0.1536    0.0000 C   0  0  0  0  0  0  0  0  0  0  0  0
    2.0740    0.9376    0.0000 C   0  0  0  0  0  0  0  0  0  0  0  0
    3.3924    0.2222    0.0000 C   0  0  0  0  0  0  0  0  0  0  0  0
   -0.6746   -0.1458    0.0000 C   0  0  0  0  0  0  0  0  0  0  0  0
   -1.6688    0.9774    0.0000 C   0  0  0  0  0  0  0  0  0  0  0  0
   -3.1386    0.6780    0.0000 C   0  0  0  0  0  0  0  0  0  0  0  0
   -3.6143   -0.7446    0.0000 C   0  0  0  0  0  0  0  0  0  0  0  0
   -2.6201   -1.8678    0.0000 C   0  0  0  0  0  0  0  0  0  0  0  0
   -1.1503   -1.5684    0.0000 C   0  0  0  0  0  0  0  0  0  0  0  0
    0.2451    1.5491    0.0000 C   0  0  0  0  0  0  0  0  0  0  0  0
   -1.2385    1.7704    0.0000 O   0  0  0  0  0  0  0  0  0  0  0  0
    1.1786    2.7232    0.0000 O   0  0  0  0  0  0  0  0  0  0  0  0
  1  2  1  0
  2  3  1  0
  3  4  1  0
  4  5  1  0
  5  6  1  0
  4  7  1  0
  7  8  2  0
  8  9  1  0
  9 10  2  0
 10 11  1  0
 11 12  2  0
  4 13  1  0
 13 14  2  0
 13 15  1  0
  6  1  1  0
 12  7  1  0
M  END
>  <rName>  (1987) 
Inp_4Ph

>  <PQ_SYMBOL>  (1987) 
Inp_4Ph

>  <FULL_NAME>  (1987) 
4-phenylpiperidine-4-carboxylic acid

>  <IUPAC_CONDENSED>  (1987) 
Inp(4-Ph)

>  <IUPAC>  (1987) 
4-phenylpiperidine-4-carboxylic acid

>  <TYPE>  (1987) 
Backbone

>  <CLASS>  (1987) 
gamma

>  <ANALOG>  (1987) 
Pro

>  <MOL_WT>  (1987) 
205.257

>  <LOGP>  (1987) 
1.3924

>  <TPSA>  (1987) 
49.33

>  <POPULARITY>  (1987) 
14.7

>  <PROTECTED>  (1987) 
TRUE

>  <SMILES>  (1987) 
N1CCC(CC1)(c2(ccccc2))C(=O)O

>  <INCHIKEY>  (1987) 
DZZGGKPKWGPNJA-UHFFFAOYSA-N

$$$$
Inp_4Ph_3I
     RDKit          2D

 16 17  0  0  0  0  0  0  0  0999 V2000
    3.3008   -1.8432    0.0000 N   0  0  0  0  0  0  0  0  0  0  0  0
    1.8808   -2.3266    0.0000 C   0  0  0  0  0  0  0  0  0  0  0  0
    0.7522   -1.3386    0.0000 C   0  0  0  0  0  0  0  0  0  0  0  0
    1.0435    0.1328    0.0000 C   0  0  0  0  0  0  0  0  0  0  0  0
    2.4634    0.6163    0.0000 C   0  0  0  0  0  0  0  0  0  0  0  0
    3.5921   -0.3717    0.0000 C   0  0  0  0  0  0  0  0  0  0  0  0
   -0.4562    0.1642    0.0000 C   0  0  0  0  0  0  0  0  0  0  0  0
   -1.1789    1.4787    0.0000 C   0  0  0  0  0  0  0  0  0  0  0  0
   -2.6785    1.5100    0.0000 C   0  0  0  0  0  0  0  0  0  0  0  0
   -3.4555    0.2270    0.0000 C   0  0  0  0  0  0  0  0  0  0  0  0
   -2.7329   -1.0875    0.0000 C   0  0  0  0  0  0  0  0  0  0  0  0
   -3.5099   -2.3705    0.0000 I   0  0  0  0  0  0  0  0  0  0  0  0
   -1.2332   -1.1188    0.0000 C   0  0  0  0  0  0  0  0  0  0  0  0
    0.8140    1.6152    0.0000 C   0  0  0  0  0  0  0  0  0  0  0  0
   -0.5845    2.1576    0.0000 O   0  0  0  0  0  0  0  0  0  0  0  0
    1.9829    2.5551    0.0000 O   0  0  0  0  0  0  0  0  0  0  0  0
  1  2  1  0
  2  3  1  0
  3  4  1  0
  4  5  1  0
  5  6  1  0
  4  7  1  0
  7  8  2  0
  8  9  1  0
  9 10  2  0
 10 11  1  0
 11 12  1  0
 11 13  2  0
  4 14  1  0
 14 15  2  0
 14 16  1  0
  6  1  1  0
 13  7  1  0
M  END
>  <rName>  (1988) 
Inp_4Ph_3I

>  <PQ_SYMBOL>  (1988) 
Inp_4Ph_3I

>  <FULL_NAME>  (1988) 
O=C(O)C1(c2cccc(I)c2)CCNCC1

>  <IUPAC_CONDENSED>  (1988) 
Inp(4-Ph(3-I))

>  <IUPAC>  (1988) 
4-(3-iodophenyl)piperidine-4-carboxylic acid

>  <TYPE>  (1988) 
Backbone

>  <CLASS>  (1988) 
gamma

>  <ANALOG>  (1988) 
Pro

>  <MOL_WT>  (1988) 
331.153

>  <LOGP>  (1988) 
1.997

>  <TPSA>  (1988) 
49.33

>  <POPULARITY>  (1988) 
2.7

>  <PROTECTED>  (1988) 
TRUE

>  <SMILES>  (1988) 
N1CCC(CC1)(c2(cccc(I)c2))C(=O)O

>  <INCHIKEY>  (1988) 
VSNVXQVDUDQBJK-UHFFFAOYSA-N

$$$$
Inp_4Ph_3Me
     RDKit          2D

 16 17  0  0  0  0  0  0  0  0999 V2000
    3.3008   -1.8432    0.0000 N   0  0  0  0  0  0  0  0  0  0  0  0
    1.8808   -2.3266    0.0000 C   0  0  0  0  0  0  0  0  0  0  0  0
    0.7522   -1.3386    0.0000 C   0  0  0  0  0  0  0  0  0  0  0  0
    1.0435    0.1328    0.0000 C   0  0  0  0  0  0  0  0  0  0  0  0
    2.4634    0.6163    0.0000 C   0  0  0  0  0  0  0  0  0  0  0  0
    3.5921   -0.3717    0.0000 C   0  0  0  0  0  0  0  0  0  0  0  0
   -0.4562    0.1642    0.0000 C   0  0  0  0  0  0  0  0  0  0  0  0
   -1.1789    1.4787    0.0000 C   0  0  0  0  0  0  0  0  0  0  0  0
   -2.6785    1.5100    0.0000 C   0  0  0  0  0  0  0  0  0  0  0  0
   -3.4555    0.2270    0.0000 C   0  0  0  0  0  0  0  0  0  0  0  0
   -2.7329   -1.0875    0.0000 C   0  0  0  0  0  0  0  0  0  0  0  0
   -3.5099   -2.3705    0.0000 C   0  0  0  0  0  0  0  0  0  0  0  0
   -1.2332   -1.1188    0.0000 C   0  0  0  0  0  0  0  0  0  0  0  0
    0.8140    1.6152    0.0000 C   0  0  0  0  0  0  0  0  0  0  0  0
   -0.5845    2.1576    0.0000 O   0  0  0  0  0  0  0  0  0  0  0  0
    1.9829    2.5551    0.0000 O   0  0  0  0  0  0  0  0  0  0  0  0
  1  2  1  0
  2  3  1  0
  3  4  1  0
  4  5  1  0
  5  6  1  0
  4  7  1  0
  7  8  2  0
  8  9  1  0
  9 10  2  0
 10 11  1  0
 11 12  1  0
 11 13  2  0
  4 14  1  0
 14 15  2  0
 14 16  1  0
  6  1  1  0
 13  7  1  0
M  END
>  <rName>  (1989) 
Inp_4Ph_3Me

>  <PQ_SYMBOL>  (1989) 
Inp_4Ph_3Me

>  <FULL_NAME>  (1989) 
4-(3-Methylphenyl)piperidine-4-carboxylic acid

>  <IUPAC_CONDENSED>  (1989) 
Inp(4-Ph(3-Me))

>  <IUPAC>  (1989) 
4-(3-methylphenyl)piperidine-4-carboxylic acid

>  <TYPE>  (1989) 
Backbone

>  <CLASS>  (1989) 
gamma

>  <ANALOG>  (1989) 
Pro

>  <MOL_WT>  (1989) 
219.284

>  <LOGP>  (1989) 
1.70082

>  <TPSA>  (1989) 
49.33

>  <POPULARITY>  (1989) 
5.7

>  <PROTECTED>  (1989) 
TRUE

>  <SMILES>  (1989) 
N1CCC(CC1)(c2(cccc(C)c2))C(=O)O

>  <INCHIKEY>  (1989) 
UCUKVJULYXGXDJ-UHFFFAOYSA-N

$$$$
Inp_4Ph_4Br
     RDKit          2D

 16 17  0  0  0  0  0  0  0  0999 V2000
    3.6462   -1.4950    0.0000 N   0  0  0  0  0  0  0  0  0  0  0  0
    2.3112   -2.1791    0.0000 C   0  0  0  0  0  0  0  0  0  0  0  0
    1.0513   -1.3650    0.0000 C   0  0  0  0  0  0  0  0  0  0  0  0
    1.1264    0.1331    0.0000 C   0  0  0  0  0  0  0  0  0  0  0  0
    2.4613    0.8172    0.0000 C   0  0  0  0  0  0  0  0  0  0  0  0
    3.7212    0.0031    0.0000 C   0  0  0  0  0  0  0  0  0  0  0  0
   -0.3620   -0.0531    0.0000 C   0  0  0  0  0  0  0  0  0  0  0  0
   -1.2675    1.1428    0.0000 C   0  0  0  0  0  0  0  0  0  0  0  0
   -2.7559    0.9566    0.0000 C   0  0  0  0  0  0  0  0  0  0  0  0
   -3.3388   -0.4255    0.0000 C   0  0  0  0  0  0  0  0  0  0  0  0
   -4.8272   -0.6117    0.0000 Br  0  0  0  0  0  0  0  0  0  0  0  0
   -2.4333   -1.6214    0.0000 C   0  0  0  0  0  0  0  0  0  0  0  0
   -0.9449   -1.4352    0.0000 C   0  0  0  0  0  0  0  0  0  0  0  0
    0.6846    1.5666    0.0000 C   0  0  0  0  0  0  0  0  0  0  0  0
   -0.7778    1.9007    0.0000 O   0  0  0  0  0  0  0  0  0  0  0  0
    1.7050    2.6660    0.0000 O   0  0  0  0  0  0  0  0  0  0  0  0
  1  2  1  0
  2  3  1  0
  3  4  1  0
  4  5  1  0
  5  6  1  0
  4  7  1  0
  7  8  1  0
  8  9  2  0
  9 10  1  0
 10 11  1  0
 10 12  2  0
 12 13  1  0
  4 14  1  0
 14 15  2  0
 14 16  1  0
  6  1  1  0
 13  7  2  0
M  END
>  <rName>  (1990) 
Inp_4Ph_4Br

>  <PQ_SYMBOL>  (1990) 
Inp_4Ph_4Br

>  <FULL_NAME>  (1990) 
4-(4-Bromophenyl)piperidine-4-carboxylic acid

>  <IUPAC_CONDENSED>  (1990) 
Inp(4-Ph(4-Br))

>  <IUPAC>  (1990) 
4-(4-bromophenyl)piperidine-4-carboxylic acid

>  <TYPE>  (1990) 
Backbone

>  <CLASS>  (1990) 
gamma

>  <ANALOG>  (1990) 
Pro

>  <MOL_WT>  (1990) 
284.153

>  <LOGP>  (1990) 
2.1549

>  <TPSA>  (1990) 
49.33

>  <POPULARITY>  (1990) 
5.7

>  <PROTECTED>  (1990) 
TRUE

>  <SMILES>  (1990) 
N1CCC(CC1)(c2(ccc(Br)cc2))C(=O)O

>  <INCHIKEY>  (1990) 
NVDSELFOZXBDOZ-UHFFFAOYSA-N

$$$$
Inp_4Ph_4F
     RDKit          2D

 16 17  0  0  0  0  0  0  0  0999 V2000
    3.6462   -1.4950    0.0000 N   0  0  0  0  0  0  0  0  0  0  0  0
    2.3112   -2.1791    0.0000 C   0  0  0  0  0  0  0  0  0  0  0  0
    1.0513   -1.3650    0.0000 C   0  0  0  0  0  0  0  0  0  0  0  0
    1.1264    0.1331    0.0000 C   0  0  0  0  0  0  0  0  0  0  0  0
    2.4613    0.8172    0.0000 C   0  0  0  0  0  0  0  0  0  0  0  0
    3.7212    0.0031    0.0000 C   0  0  0  0  0  0  0  0  0  0  0  0
   -0.3620   -0.0531    0.0000 C   0  0  0  0  0  0  0  0  0  0  0  0
   -1.2675    1.1428    0.0000 C   0  0  0  0  0  0  0  0  0  0  0  0
   -2.7559    0.9566    0.0000 C   0  0  0  0  0  0  0  0  0  0  0  0
   -3.3388   -0.4255    0.0000 C   0  0  0  0  0  0  0  0  0  0  0  0
   -4.8272   -0.6117    0.0000 F   0  0  0  0  0  0  0  0  0  0  0  0
   -2.4333   -1.6214    0.0000 C   0  0  0  0  0  0  0  0  0  0  0  0
   -0.9449   -1.4352    0.0000 C   0  0  0  0  0  0  0  0  0  0  0  0
    0.6846    1.5666    0.0000 C   0  0  0  0  0  0  0  0  0  0  0  0
   -0.7778    1.9007    0.0000 O   0  0  0  0  0  0  0  0  0  0  0  0
    1.7050    2.6660    0.0000 O   0  0  0  0  0  0  0  0  0  0  0  0
  1  2  1  0
  2  3  1  0
  3  4  1  0
  4  5  1  0
  5  6  1  0
  4  7  1  0
  7  8  1  0
  8  9  2  0
  9 10  1  0
 10 11  1  0
 10 12  2  0
 12 13  1  0
  4 14  1  0
 14 15  2  0
 14 16  1  0
  6  1  1  0
 13  7  2  0
M  END
>  <rName>  (1991) 
Inp_4Ph_4F

>  <PQ_SYMBOL>  (1991) 
Inp_4Ph_4F

>  <FULL_NAME>  (1991) 
4-(4-fluorophenyl)piperidine-4-carboxylic acid

>  <IUPAC_CONDENSED>  (1991) 
Inp(4-Ph(4-F))

>  <IUPAC>  (1991) 
4-(4-fluorophenyl)piperidine-4-carboxylic acid

>  <TYPE>  (1991) 
Backbone

>  <CLASS>  (1991) 
gamma

>  <ANALOG>  (1991) 
Pro

>  <MOL_WT>  (1991) 
223.24699999999999

>  <LOGP>  (1991) 
1.5315

>  <TPSA>  (1991) 
49.33

>  <POPULARITY>  (1991) 
7.6

>  <PROTECTED>  (1991) 
TRUE

>  <SMILES>  (1991) 
N1CCC(CC1)(c2(ccc(F)cc2))C(=O)O

>  <INCHIKEY>  (1991) 
QFHFMHREPUBQBP-UHFFFAOYSA-N

$$$$
Inp_4Pr
     RDKit          2D

 12 12  0  0  0  0  0  0  0  0999 V2000
    3.2261   -0.4100    0.0000 N   0  0  0  0  0  0  0  0  0  0  0  0
    2.3501   -1.6276    0.0000 C   0  0  0  0  0  0  0  0  0  0  0  0
    0.8576   -1.4777    0.0000 C   0  0  0  0  0  0  0  0  0  0  0  0
    0.2412   -0.1102    0.0000 C   0  0  0  0  0  0  0  0  0  0  0  0
   -0.9985   -0.9547    0.0000 C   0  0  0  0  0  0  0  0  0  0  0  0
   -2.3497   -0.3033    0.0000 C   0  0  0  0  0  0  0  0  0  0  0  0
   -3.5894   -1.1478    0.0000 C   0  0  0  0  0  0  0  0  0  0  0  0
    1.1172    1.1074    0.0000 C   0  0  0  0  0  0  0  0  0  0  0  0
    2.6097    0.9575    0.0000 C   0  0  0  0  0  0  0  0  0  0  0  0
   -0.8058    0.9640    0.0000 C   0  0  0  0  0  0  0  0  0  0  0  0
   -2.2595    0.5945    0.0000 O   0  0  0  0  0  0  0  0  0  0  0  0
   -0.3990    2.4078    0.0000 O   0  0  0  0  0  0  0  0  0  0  0  0
  1  2  1  0
  2  3  1  0
  3  4  1  0
  4  5  1  0
  5  6  1  0
  6  7  1  0
  4  8  1  0
  8  9  1  0
  4 10  1  0
 10 11  2  0
 10 12  1  0
  9  1  1  0
M  END
>  <rName>  (1992) 
Inp_4Pr

>  <PQ_SYMBOL>  (1992) 
Inp_4Pr

>  <FULL_NAME>  (1992) 
4-Propylpiperidine-4-carboxylic acid

>  <IUPAC_CONDENSED>  (1992) 
Inp(4-Pr)

>  <IUPAC>  (1992) 
4-propylpiperidine-4-carboxylic acid

>  <TYPE>  (1992) 
Backbone

>  <CLASS>  (1992) 
gamma

>  <ANALOG>  (1992) 
Pro

>  <MOL_WT>  (1992) 
171.24

>  <LOGP>  (1992) 
1.2409000000000001

>  <TPSA>  (1992) 
49.33

>  <POPULARITY>  (1992) 
7.6

>  <PROTECTED>  (1992) 
TRUE

>  <SMILES>  (1992) 
N1CCC(CCC)(CC1)C(=O)O

>  <INCHIKEY>  (1992) 
NRBRYBMTNCETLK-UHFFFAOYSA-N

$$$$
Inp_4SO2Me
     RDKit          2D

 13 13  0  0  0  0  0  0  0  0999 V2000
   -3.0579   -0.2127    0.0000 N   0  0  0  0  0  0  0  0  0  0  0  0
   -2.4373    1.1529    0.0000 C   0  0  0  0  0  0  0  0  0  0  0  0
   -0.9444    1.2983    0.0000 C   0  0  0  0  0  0  0  0  0  0  0  0
   -0.0720    0.0780    0.0000 C   0  0  0  0  0  0  0  0  0  0  0  0
   -0.6926   -1.2876    0.0000 C   0  0  0  0  0  0  0  0  0  0  0  0
   -2.1855   -1.4329    0.0000 C   0  0  0  0  0  0  0  0  0  0  0  0
    1.1651   -0.7702    0.0000 S   0  0  0  0  0  0  0  0  0  0  0  0
    0.3168   -2.0073    0.0000 O   0  0  0  0  0  0  0  0  0  0  0  0
    1.8888    0.0495    0.0000 O   0  0  0  0  0  0  0  0  0  0  0  0
    2.4022   -1.6185    0.0000 C   0  0  0  0  0  0  0  0  0  0  0  0
    0.9782    1.1490    0.0000 C   0  0  0  0  0  0  0  0  0  0  0  0
    0.5758    2.5941    0.0000 O   0  0  0  0  0  0  0  0  0  0  0  0
    2.0625    1.0075    0.0000 O   0  0  0  0  0  0  0  0  0  0  0  0
  1  2  1  0
  2  3  1  0
  3  4  1  0
  4  5  1  0
  5  6  1  0
  4  7  1  0
  7  8  2  0
  7  9  2  0
  7 10  1  0
  4 11  1  0
 11 12  2  0
 11 13  1  0
  6  1  1  0
M  END
>  <rName>  (1993) 
Inp_4SO2Me

>  <PQ_SYMBOL>  (1993) 
Inp_4SO2Me

>  <FULL_NAME>  (1993) 
4-Methanesulfonylpiperidine-4-carboxylic acid

>  <IUPAC_CONDENSED>  (1993) 
Inp(4-SO2Me)

>  <IUPAC>  (1993) 
4-(methylsulfonyl)piperidine-4-carboxylic acid

>  <TYPE>  (1993) 
Backbone

>  <CLASS>  (1993) 
gamma

>  <ANALOG>  (1993) 
Pro

>  <MOL_WT>  (1993) 
207.25099999999998

>  <LOGP>  (1993) 
-0.7621999999999991

>  <TPSA>  (1993) 
83.47

>  <POPULARITY>  (1993) 
6.4

>  <PROTECTED>  (1993) 
TRUE

>  <SMILES>  (1993) 
N1CCC(CC1)(S(=O)(=O)C)C(=O)O

>  <INCHIKEY>  (1993) 
UWUSJCBCUHUQBX-UHFFFAOYSA-N

$$$$
Inp_4SOMe
     RDKit          2D

 12 12  0  0  0  0  0  0  0  0999 V2000
    3.0160   -0.0000    0.0000 N   0  0  0  0  0  0  0  0  0  0  0  0
    2.2660   -1.2990    0.0000 C   0  0  0  0  0  0  0  0  0  0  0  0
    0.7660   -1.2990    0.0000 C   0  0  0  0  0  0  0  0  0  0  0  0
    0.0160   -0.0000    0.0000 C   0  0  0  0  0  0  0  0  0  0  0  0
    0.7660    1.2990    0.0000 C   0  0  0  0  0  0  0  0  0  0  0  0
    2.2660    1.2990    0.0000 C   0  0  0  0  0  0  0  0  0  0  0  0
   -1.1330    0.9642    0.0000 S   0  0  0  0  0  0  0  0  0  0  0  0
   -0.8725    2.4414    0.0000 O   0  0  0  0  0  0  0  0  0  0  0  0
   -2.5426    0.4512    0.0000 C   0  0  0  0  0  0  0  0  0  0  0  0
   -1.1330   -0.9642    0.0000 C   0  0  0  0  0  0  0  0  0  0  0  0
   -0.8725   -2.4414    0.0000 O   0  0  0  0  0  0  0  0  0  0  0  0
   -2.5426   -0.4512    0.0000 O   0  0  0  0  0  0  0  0  0  0  0  0
  1  2  1  0
  2  3  1  0
  3  4  1  0
  4  5  1  0
  5  6  1  0
  4  7  1  0
  7  8  2  0
  7  9  1  0
  4 10  1  0
 10 11  2  0
 10 12  1  0
  6  1  1  0
M  END
>  <rName>  (1994) 
Inp_4SOMe

>  <PQ_SYMBOL>  (1994) 
Inp_4SOMe

>  <FULL_NAME>  (1994) 
4-Methanesulfinylpiperidine-4-carboxylic acid

>  <IUPAC_CONDENSED>  (1994) 
Inp(4-S(O)Me)

>  <IUPAC>  (1994) 
4-(methylsulfinyl)piperidine-4-carboxylic acid

>  <TYPE>  (1994) 
Backbone

>  <CLASS>  (1994) 
gamma

>  <ANALOG>  (1994) 
Pro

>  <MOL_WT>  (1994) 
191.25199999999998

>  <LOGP>  (1994) 
-0.4282999999999995

>  <TPSA>  (1994) 
66.4

>  <POPULARITY>  (1994) 
6.4

>  <PROTECTED>  (1994) 
TRUE

>  <SMILES>  (1994) 
N1CCC(CC1)(S(=O)C)C(=O)O

>  <INCHIKEY>  (1994) 
ZKIIURQRXXMTQB-UHFFFAOYSA-N

$$$$
Inp_4but3enyl
     RDKit          2D

 13 13  0  0  0  0  0  0  0  0999 V2000
    3.5882   -0.5174    0.0000 N   0  0  0  0  0  0  0  0  0  0  0  0
    2.6636   -1.6985    0.0000 C   0  0  0  0  0  0  0  0  0  0  0  0
    1.1784   -1.4883    0.0000 C   0  0  0  0  0  0  0  0  0  0  0  0
    0.6178   -0.0970    0.0000 C   0  0  0  0  0  0  0  0  0  0  0  0
   -0.6550   -0.8907    0.0000 C   0  0  0  0  0  0  0  0  0  0  0  0
   -1.9788   -0.1853    0.0000 C   0  0  0  0  0  0  0  0  0  0  0  0
   -3.2516   -0.9789    0.0000 C   0  0  0  0  0  0  0  0  0  0  0  0
   -4.5754   -0.2735    0.0000 C   0  0  0  0  0  0  0  0  0  0  0  0
    1.5424    1.0841    0.0000 C   0  0  0  0  0  0  0  0  0  0  0  0
    3.0276    0.8739    0.0000 C   0  0  0  0  0  0  0  0  0  0  0  0
   -0.3848    1.0186    0.0000 C   0  0  0  0  0  0  0  0  0  0  0  0
   -1.8524    0.7081    0.0000 O   0  0  0  0  0  0  0  0  0  0  0  0
    0.0800    2.4448    0.0000 O   0  0  0  0  0  0  0  0  0  0  0  0
  1  2  1  0
  2  3  1  0
  3  4  1  0
  4  5  1  0
  5  6  1  0
  6  7  1  0
  7  8  2  0
  4  9  1  0
  9 10  1  0
  4 11  1  0
 11 12  2  0
 11 13  1  0
 10  1  1  0
M  END
>  <rName>  (1995) 
Inp_4but3enyl

>  <PQ_SYMBOL>  (1995) 
Inp_4but3enyl

>  <FULL_NAME>  (1995) 
4-(But-3-en-1-yl)piperidine-4-carboxylic acid

>  <IUPAC_CONDENSED>  (1995) 
Inp(4-but-3-enyl)

>  <IUPAC>  (1995) 
4-(but-3-en-1-yl)piperidine-4-carboxylic acid

>  <TYPE>  (1995) 
Backbone

>  <CLASS>  (1995) 
gamma

>  <ANALOG>  (1995) 
Pro

>  <MOL_WT>  (1995) 
183.25099999999998

>  <LOGP>  (1995) 
1.407

>  <TPSA>  (1995) 
49.33

>  <POPULARITY>  (1995) 
4.4

>  <PROTECTED>  (1995) 
TRUE

>  <SMILES>  (1995) 
N1CCC(CCC=C)(CC1)C(=O)O

>  <INCHIKEY>  (1995) 
MLMHWEPBSJKODC-UHFFFAOYSA-N

$$$$
Inp_4cHex
     RDKit          2D

 15 16  0  0  0  0  0  0  0  0999 V2000
    3.4320   -1.2773    0.0000 N   0  0  0  0  0  0  0  0  0  0  0  0
    2.1532   -2.0613    0.0000 C   0  0  0  0  0  0  0  0  0  0  0  0
    0.8348   -1.3459    0.0000 C   0  0  0  0  0  0  0  0  0  0  0  0
    0.7952    0.1536    0.0000 C   0  0  0  0  0  0  0  0  0  0  0  0
    2.0740    0.9376    0.0000 C   0  0  0  0  0  0  0  0  0  0  0  0
    3.3924    0.2222    0.0000 C   0  0  0  0  0  0  0  0  0  0  0  0
   -0.6746   -0.1458    0.0000 C   0  0  0  0  0  0  0  0  0  0  0  0
   -1.6688    0.9774    0.0000 C   0  0  0  0  0  0  0  0  0  0  0  0
   -3.1386    0.6780    0.0000 C   0  0  0  0  0  0  0  0  0  0  0  0
   -3.6143   -0.7446    0.0000 C   0  0  0  0  0  0  0  0  0  0  0  0
   -2.6201   -1.8678    0.0000 C   0  0  0  0  0  0  0  0  0  0  0  0
   -1.1503   -1.5684    0.0000 C   0  0  0  0  0  0  0  0  0  0  0  0
    0.2451    1.5491    0.0000 C   0  0  0  0  0  0  0  0  0  0  0  0
   -1.2385    1.7704    0.0000 O   0  0  0  0  0  0  0  0  0  0  0  0
    1.1786    2.7232    0.0000 O   0  0  0  0  0  0  0  0  0  0  0  0
  1  2  1  0
  2  3  1  0
  3  4  1  0
  4  5  1  0
  5  6  1  0
  4  7  1  0
  7  8  1  0
  8  9  1  0
  9 10  1  0
 10 11  1  0
 11 12  1  0
  4 13  1  0
 13 14  2  0
 13 15  1  0
  6  1  1  0
 12  7  1  0
M  END
>  <rName>  (1996) 
Inp_4cHex

>  <PQ_SYMBOL>  (1996) 
Inp_4cHex

>  <FULL_NAME>  (1996) 
4-Cyclohexylpiperidine-4-carboxylic acid

>  <IUPAC_CONDENSED>  (1996) 
Inp(4-cHex)

>  <IUPAC>  (1996) 
4-cyclohexylpiperidine-4-carboxylic acid

>  <TYPE>  (1996) 
Backbone

>  <CLASS>  (1996) 
gamma

>  <ANALOG>  (1996) 
Pro

>  <MOL_WT>  (1996) 
211.30499999999995

>  <LOGP>  (1996) 
2.0211

>  <TPSA>  (1996) 
49.33

>  <POPULARITY>  (1996) 
8.6

>  <PROTECTED>  (1996) 
TRUE

>  <SMILES>  (1996) 
N1CCC(CC1)(C2(CCCCC2))C(=O)O

>  <INCHIKEY>  (1996) 
GMYBGEFXIIIYHX-UHFFFAOYSA-N

$$$$
Inp_4iBu
     RDKit          2D

 13 13  0  0  0  0  0  0  0  0999 V2000
    2.0947   -2.1050    0.0000 N   0  0  0  0  0  0  0  0  0  0  0  0
    0.6031   -2.2632    0.0000 C   0  0  0  0  0  0  0  0  0  0  0  0
   -0.2798   -1.0506    0.0000 C   0  0  0  0  0  0  0  0  0  0  0  0
    0.3290    0.3203    0.0000 C   0  0  0  0  0  0  0  0  0  0  0  0
    1.8206    0.4786    0.0000 C   0  0  0  0  0  0  0  0  0  0  0  0
    2.7035   -0.7341    0.0000 C   0  0  0  0  0  0  0  0  0  0  0  0
   -1.1268    0.6818    0.0000 C   0  0  0  0  0  0  0  0  0  0  0  0
   -2.1677   -0.3982    0.0000 C   0  0  0  0  0  0  0  0  0  0  0  0
   -3.6235   -0.0368    0.0000 C   0  0  0  0  0  0  0  0  0  0  0  0
   -1.7529   -1.8397    0.0000 C   0  0  0  0  0  0  0  0  0  0  0  0
    0.4322    1.8168    0.0000 C   0  0  0  0  0  0  0  0  0  0  0  0
    1.7797    2.4757    0.0000 O   0  0  0  0  0  0  0  0  0  0  0  0
   -0.8122    2.6544    0.0000 O   0  0  0  0  0  0  0  0  0  0  0  0
  1  2  1  0
  2  3  1  0
  3  4  1  0
  4  5  1  0
  5  6  1  0
  4  7  1  0
  7  8  1  0
  8  9  1  0
  8 10  1  0
  4 11  1  0
 11 12  2  0
 11 13  1  0
  6  1  1  0
M  END
>  <rName>  (1997) 
Inp_4iBu

>  <PQ_SYMBOL>  (1997) 
Inp_4iBu

>  <FULL_NAME>  (1997) 
4-Isobutylpiperidine-4-carboxylic acid

>  <IUPAC_CONDENSED>  (1997) 
Inp(4-iBu)

>  <IUPAC>  (1997) 
4-(2-methylpropyl)piperidine-4-carboxylic acid

>  <TYPE>  (1997) 
Backbone

>  <CLASS>  (1997) 
gamma

>  <ANALOG>  (1997) 
Pro

>  <MOL_WT>  (1997) 
185.267

>  <LOGP>  (1997) 
1.4869

>  <TPSA>  (1997) 
49.33

>  <POPULARITY>  (1997) 
5.8

>  <PROTECTED>  (1997) 
TRUE

>  <SMILES>  (1997) 
N1CCC(CC1)(CC(C)C)C(=O)O

>  <INCHIKEY>  (1997) 
RJKFXHZAWNRVDC-UHFFFAOYSA-N

$$$$
Inp_4iPr
     RDKit          2D

 12 12  0  0  0  0  0  0  0  0999 V2000
    3.0160   -0.0000    0.0000 N   0  0  0  0  0  0  0  0  0  0  0  0
    2.2660   -1.2990    0.0000 C   0  0  0  0  0  0  0  0  0  0  0  0
    0.7660   -1.2990    0.0000 C   0  0  0  0  0  0  0  0  0  0  0  0
    0.0160   -0.0000    0.0000 C   0  0  0  0  0  0  0  0  0  0  0  0
    0.7660    1.2990    0.0000 C   0  0  0  0  0  0  0  0  0  0  0  0
    2.2660    1.2990    0.0000 C   0  0  0  0  0  0  0  0  0  0  0  0
   -1.1330   -0.9642    0.0000 C   0  0  0  0  0  0  0  0  0  0  0  0
   -2.5426   -0.4512    0.0000 C   0  0  0  0  0  0  0  0  0  0  0  0
   -0.8725   -2.4414    0.0000 C   0  0  0  0  0  0  0  0  0  0  0  0
   -1.1330    0.9642    0.0000 C   0  0  0  0  0  0  0  0  0  0  0  0
   -2.5426    0.4512    0.0000 O   0  0  0  0  0  0  0  0  0  0  0  0
   -0.8725    2.4414    0.0000 O   0  0  0  0  0  0  0  0  0  0  0  0
  1  2  1  0
  2  3  1  0
  3  4  1  0
  4  5  1  0
  5  6  1  0
  4  7  1  0
  7  8  1  0
  7  9  1  0
  4 10  1  0
 10 11  2  0
 10 12  1  0
  6  1  1  0
M  END
>  <rName>  (1998) 
Inp_4iPr

>  <PQ_SYMBOL>  (1998) 
Inp_4iPr

>  <FULL_NAME>  (1998) 
4-Isopropylpiperidine-4-carboxylic acid

>  <IUPAC_CONDENSED>  (1998) 
Inp(4-iPr)

>  <IUPAC>  (1998) 
4-(propan-2-yl)piperidine-4-carboxylic acid

>  <TYPE>  (1998) 
Backbone

>  <CLASS>  (1998) 
gamma

>  <ANALOG>  (1998) 
Pro

>  <MOL_WT>  (1998) 
171.23999999999998

>  <LOGP>  (1998) 
1.0967999999999998

>  <TPSA>  (1998) 
49.33

>  <POPULARITY>  (1998) 
6.9

>  <PROTECTED>  (1998) 
TRUE

>  <SMILES>  (1998) 
N1CCC(CC1)(C(C)C)C(=O)O

>  <INCHIKEY>  (1998) 
NPSDVLYLSVMFNL-UHFFFAOYSA-N

$$$$
Inp_4pyrazol1yl
     RDKit          2D

 14 15  0  0  0  0  0  0  0  0999 V2000
   -3.2777   -1.1204    0.0000 N   0  0  0  0  0  0  0  0  0  0  0  0
   -3.1435    0.3736    0.0000 C   0  0  0  0  0  0  0  0  0  0  0  0
   -1.7825    1.0043    0.0000 C   0  0  0  0  0  0  0  0  0  0  0  0
   -0.5558    0.1411    0.0000 C   0  0  0  0  0  0  0  0  0  0  0  0
   -0.6900   -1.3528    0.0000 C   0  0  0  0  0  0  0  0  0  0  0  0
   -2.0509   -1.9836    0.0000 C   0  0  0  0  0  0  0  0  0  0  0  0
    0.8922   -0.2504    0.0000 N   0  0  0  0  0  0  0  0  0  0  0  0
    2.0601    0.6909    0.0000 C   0  0  0  0  0  0  0  0  0  0  0  0
    3.3162   -0.1290    0.0000 C   0  0  0  0  0  0  0  0  0  0  0  0
    2.9246   -1.5770    0.0000 C   0  0  0  0  0  0  0  0  0  0  0  0
    1.4265   -1.6520    0.0000 N   0  0  0  0  0  0  0  0  0  0  0  0
    0.0813    1.4991    0.0000 C   0  0  0  0  0  0  0  0  0  0  0  0
   -0.7763    2.7299    0.0000 O   0  0  0  0  0  0  0  0  0  0  0  0
    1.5758    1.6264    0.0000 O   0  0  0  0  0  0  0  0  0  0  0  0
  1  2  1  0
  2  3  1  0
  3  4  1  0
  4  5  1  0
  5  6  1  0
  4  7  1  0
  7  8  1  0
  8  9  2  0
  9 10  1  0
 10 11  2  0
  4 12  1  0
 12 13  2  0
 12 14  1  0
  6  1  1  0
 11  7  1  0
M  END
>  <rName>  (1999) 
Inp_4pyrazol1yl

>  <PQ_SYMBOL>  (1999) 
Inp_4pyrazol1yl

>  <FULL_NAME>  (1999) 
4-(1H-pyrazol-1-yl)piperidine-4-carboxylic acid

>  <IUPAC_CONDENSED>  (1999) 
Inp(4-pyrazol-1-yl)

>  <IUPAC>  (1999) 
4-(1H-pyrazol-1-yl)piperidine-4-carboxylic acid

>  <TYPE>  (1999) 
Backbone

>  <CLASS>  (1999) 
gamma

>  <ANALOG>  (1999) 
Pro

>  <MOL_WT>  (1999) 
195.222

>  <LOGP>  (1999) 
0.0463999999999995

>  <TPSA>  (1999) 
67.15

>  <POPULARITY>  (1999) 
6.0

>  <PROTECTED>  (1999) 
TRUE

>  <SMILES>  (1999) 
N1CCC(CC1)(n2(cccn2))C(=O)O

>  <INCHIKEY>  (1999) 
DPLCWGRYTSDQTR-UHFFFAOYSA-N

$$$$
Inp_4triazol1yl
     RDKit          2D

 14 15  0  0  0  0  0  0  0  0999 V2000
   -3.2777   -1.1204    0.0000 N   0  0  0  0  0  0  0  0  0  0  0  0
   -3.1435    0.3736    0.0000 C   0  0  0  0  0  0  0  0  0  0  0  0
   -1.7825    1.0043    0.0000 C   0  0  0  0  0  0  0  0  0  0  0  0
   -0.5558    0.1411    0.0000 C   0  0  0  0  0  0  0  0  0  0  0  0
   -0.6900   -1.3528    0.0000 C   0  0  0  0  0  0  0  0  0  0  0  0
   -2.0509   -1.9836    0.0000 C   0  0  0  0  0  0  0  0  0  0  0  0
    0.8922   -0.2504    0.0000 N   0  0  0  0  0  0  0  0  0  0  0  0
    2.0601    0.6909    0.0000 C   0  0  0  0  0  0  0  0  0  0  0  0
    3.3162   -0.1290    0.0000 N   0  0  0  0  0  0  0  0  0  0  0  0
    2.9246   -1.5770    0.0000 C   0  0  0  0  0  0  0  0  0  0  0  0
    1.4265   -1.6520    0.0000 N   0  0  0  0  0  0  0  0  0  0  0  0
    0.0813    1.4991    0.0000 C   0  0  0  0  0  0  0  0  0  0  0  0
   -0.7763    2.7299    0.0000 O   0  0  0  0  0  0  0  0  0  0  0  0
    1.5758    1.6264    0.0000 O   0  0  0  0  0  0  0  0  0  0  0  0
  1  2  1  0
  2  3  1  0
  3  4  1  0
  4  5  1  0
  5  6  1  0
  4  7  1  0
  7  8  1  0
  8  9  2  0
  9 10  1  0
 10 11  2  0
  4 12  1  0
 12 13  2  0
 12 14  1  0
  6  1  1  0
 11  7  1  0
M  END
>  <rName>  (2000) 
Inp_4triazol1yl

>  <PQ_SYMBOL>  (2000) 
Inp_4triazol1yl

>  <FULL_NAME>  (2000) 
4-(1,2,4-Triazol-1-yl)piperidine-4-carboxylic acid

>  <IUPAC_CONDENSED>  (2000) 
Inp(4-triazol-1-yl)

>  <IUPAC>  (2000) 
4-(1H-1,2,4-triazol-1-yl)piperidine-4-carboxylic acid

>  <TYPE>  (2000) 
Backbone

>  <CLASS>  (2000) 
gamma

>  <ANALOG>  (2000) 
Pro

>  <MOL_WT>  (2000) 
196.21

>  <LOGP>  (2000) 
-0.5586000000000002

>  <TPSA>  (2000) 
80.04

>  <POPULARITY>  (2000) 
2.6

>  <PROTECTED>  (2000) 
TRUE

>  <SMILES>  (2000) 
N1CCC(CC1)(n2(cncn2))C(=O)O

>  <INCHIKEY>  (2000) 
UYNYHZLHCJISCT-UHFFFAOYSA-N

$$$$
Inp_4vinyl
     RDKit          2D

 11 11  0  0  0  0  0  0  0  0999 V2000
   -2.9440   -0.0805    0.0000 N   0  0  0  0  0  0  0  0  0  0  0  0
   -2.3312    1.2886    0.0000 C   0  0  0  0  0  0  0  0  0  0  0  0
   -0.8391    1.4425    0.0000 C   0  0  0  0  0  0  0  0  0  0  0  0
    0.0402    0.2273    0.0000 C   0  0  0  0  0  0  0  0  0  0  0  0
    1.0843    1.3042    0.0000 C   0  0  0  0  0  0  0  0  0  0  0  0
    2.5390    0.9385    0.0000 C   0  0  0  0  0  0  0  0  0  0  0  0
   -0.5726   -1.1419    0.0000 C   0  0  0  0  0  0  0  0  0  0  0  0
   -2.0647   -1.2957    0.0000 C   0  0  0  0  0  0  0  0  0  0  0  0
    1.2821   -0.6140    0.0000 C   0  0  0  0  0  0  0  0  0  0  0  0
    2.6316    0.0410    0.0000 O   0  0  0  0  0  0  0  0  0  0  0  0
    1.1745   -2.1101    0.0000 O   0  0  0  0  0  0  0  0  0  0  0  0
  1  2  1  0
  2  3  1  0
  3  4  1  0
  4  5  1  0
  5  6  2  0
  4  7  1  0
  7  8  1  0
  4  9  1  0
  9 10  2  0
  9 11  1  0
  8  1  1  0
M  END
>  <rName>  (2001) 
Inp_4vinyl

>  <PQ_SYMBOL>  (2001) 
Inp_4vinyl

>  <FULL_NAME>  (2001) 
4-Ethenylpiperidine-4-carboxylic acid

>  <IUPAC_CONDENSED>  (2001) 
Inp(4-vinyl)

>  <IUPAC>  (2001) 
4-ethenylpiperidine-4-carboxylic acid

>  <TYPE>  (2001) 
Backbone

>  <CLASS>  (2001) 
gamma

>  <ANALOG>  (2001) 
Pro

>  <MOL_WT>  (2001) 
155.197

>  <LOGP>  (2001) 
0.6268

>  <TPSA>  (2001) 
49.33

>  <POPULARITY>  (2001) 
5.0

>  <PROTECTED>  (2001) 
TRUE

>  <SMILES>  (2001) 
N1CCC(C=C)(CC1)C(=O)O

>  <INCHIKEY>  (2001) 
PVFBVCOPQPNXPS-UHFFFAOYSA-N

$$$$
Inp_6cPr
     RDKit          2D

 12 13  0  0  0  0  0  0  0  0999 V2000
    1.0844   -1.7616    0.0000 N   0  0  0  0  0  0  0  0  0  0  0  0
   -0.2696   -2.4070    0.0000 C   0  0  0  0  0  0  0  0  0  0  0  0
   -1.5056   -1.5570    0.0000 C   0  0  0  0  0  0  0  0  0  0  0  0
   -1.3875   -0.0617    0.0000 C   0  0  0  0  0  0  0  0  0  0  0  0
   -0.0334    0.5837    0.0000 C   0  0  0  0  0  0  0  0  0  0  0  0
    1.2026   -0.2663    0.0000 C   0  0  0  0  0  0  0  0  0  0  0  0
    2.5566    0.3791    0.0000 C   0  0  0  0  0  0  0  0  0  0  0  0
    3.4066    1.6151    0.0000 C   0  0  0  0  0  0  0  0  0  0  0  0
    4.0520    0.2610    0.0000 C   0  0  0  0  0  0  0  0  0  0  0  0
   -2.6234    0.7883    0.0000 C   0  0  0  0  0  0  0  0  0  0  0  0
   -3.9775    0.1429    0.0000 O   0  0  0  0  0  0  0  0  0  0  0  0
   -2.5053    2.2836    0.0000 O   0  0  0  0  0  0  0  0  0  0  0  0
  1  2  1  0
  2  3  1  0
  3  4  1  0
  4  5  1  0
  5  6  1  0
  6  7  1  0
  7  8  1  0
  8  9  1  0
  4 10  1  0
 10 11  2  0
 10 12  1  0
  6  1  1  0
  9  7  1  0
M  END
>  <rName>  (2002) 
Inp_6cPr

>  <PQ_SYMBOL>  (2002) 
Inp_6cPr

>  <FULL_NAME>  (2002) 
2-Cyclopropylpiperidine-4-carboxylic acid

>  <IUPAC_CONDENSED>  (2002) 
Inp(6-cPr)

>  <IUPAC>  (2002) 
2-cyclopropylpiperidine-4-carboxylic acid

>  <TYPE>  (2002) 
Backbone

>  <CLASS>  (2002) 
gamma

>  <ANALOG>  (2002) 
Pro

>  <MOL_WT>  (2002) 
169.224

>  <LOGP>  (2002) 
0.8492

>  <TPSA>  (2002) 
49.33

>  <POPULARITY>  (2002) 
3.7

>  <PROTECTED>  (2002) 
TRUE

>  <SMILES>  (2002) 
N1CCC(CC1C2(CC2))C(=O)O

>  <INCHIKEY>  (2002) 
OAVOOMPWOLUALN-UHFFFAOYSA-N

$$$$
Inp_6oxolan2yl
     RDKit          2D

 14 15  0  0  0  0  0  0  0  0999 V2000
    0.2722   -1.9709    0.0000 N   0  0  0  0  0  0  0  0  0  0  0  0
   -1.1416   -2.4722    0.0000 C   0  0  0  0  0  0  0  0  0  0  0  0
   -2.2826   -1.4985    0.0000 C   0  0  0  0  0  0  0  0  0  0  0  0
   -2.0098   -0.0235    0.0000 C   0  0  0  0  0  0  0  0  0  0  0  0
   -0.5961    0.4778    0.0000 C   0  0  0  0  0  0  0  0  0  0  0  0
    0.5449   -0.4959    0.0000 C   0  0  0  0  0  0  0  0  0  0  0  0
    1.9587    0.0054    0.0000 C   0  0  0  0  0  0  0  0  0  0  0  0
    2.3841    1.4438    0.0000 O   0  0  0  0  0  0  0  0  0  0  0  0
    3.8836    1.4836    0.0000 C   0  0  0  0  0  0  0  0  0  0  0  0
    4.3849    0.0699    0.0000 C   0  0  0  0  0  0  0  0  0  0  0  0
    3.1952   -0.8438    0.0000 C   0  0  0  0  0  0  0  0  0  0  0  0
   -3.1508    0.9502    0.0000 C   0  0  0  0  0  0  0  0  0  0  0  0
   -4.5646    0.4489    0.0000 O   0  0  0  0  0  0  0  0  0  0  0  0
   -2.8781    2.4252    0.0000 O   0  0  0  0  0  0  0  0  0  0  0  0
  1  2  1  0
  2  3  1  0
  3  4  1  0
  4  5  1  0
  5  6  1  0
  6  7  1  0
  7  8  1  0
  8  9  1  0
  9 10  1  0
 10 11  1  0
  4 12  1  0
 12 13  2  0
 12 14  1  0
  6  1  1  0
 11  7  1  0
M  END
>  <rName>  (2003) 
Inp_6oxolan2yl

>  <PQ_SYMBOL>  (2003) 
Inp_6oxolan2yl

>  <FULL_NAME>  (2003) 
2-(Oxolan-2-yl)piperidine-4-carboxylic acid

>  <IUPAC_CONDENSED>  (2003) 
Inp(6-oxolan-2-yl)

>  <IUPAC>  (2003) 
2-(oxolan-2-yl)piperidine-4-carboxylic acid

>  <TYPE>  (2003) 
Backbone

>  <CLASS>  (2003) 
gamma

>  <ANALOG>  (2003) 
Pro

>  <MOL_WT>  (2003) 
199.24999999999997

>  <LOGP>  (2003) 
0.6181999999999996

>  <TPSA>  (2003) 
58.56

>  <POPULARITY>  (2003) 
3.6

>  <PROTECTED>  (2003) 
TRUE

>  <SMILES>  (2003) 
N1CCC(CC1C2(OCCC2))C(=O)O

>  <INCHIKEY>  (2003) 
DDZSPKLSYTXTPF-UHFFFAOYSA-N

$$$$
Inp_R_3REt
     RDKit          2D

 11 11  0  0  0  0  0  0  0  0999 V2000
    2.8756   -0.3932    0.0000 N   0  0  0  0  0  0  0  0  0  0  0  0
    1.7758   -1.4133    0.0000 C   0  0  0  0  0  0  0  0  0  0  0  0
    0.3425   -0.9709    0.0000 C   0  0  0  0  0  0  0  0  0  0  0  0
   -0.7572   -1.9909    0.0000 C   0  0  0  0  0  0  0  0  0  0  0  0
   -2.1905   -1.5485    0.0000 C   0  0  0  0  0  0  0  0  0  0  0  0
    0.0090    0.4916    0.0000 C   0  0  0  0  0  0  0  0  0  0  0  0
    1.1088    1.5116    0.0000 C   0  0  0  0  0  0  0  0  0  0  0  0
    2.5421    1.0692    0.0000 C   0  0  0  0  0  0  0  0  0  0  0  0
   -1.4243    0.9340    0.0000 C   0  0  0  0  0  0  0  0  0  0  0  0
   -2.5240   -0.0861    0.0000 O   0  0  0  0  0  0  0  0  0  0  0  0
   -1.7578    2.3964    0.0000 O   0  0  0  0  0  0  0  0  0  0  0  0
  1  2  1  0
  2  3  1  0
  3  4  1  6
  4  5  1  0
  3  6  1  0
  6  7  1  0
  7  8  1  0
  6  9  1  6
  9 10  2  0
  9 11  1  0
  8  1  1  0
M  END
>  <rName>  (2004) 
Inp_R_3REt

>  <PQ_SYMBOL>  (2004) 
Inp_R_3REt

>  <FULL_NAME>  (2004) 
CC[C@H]1CNCC[C@H]1C(=O)O

>  <IUPAC_CONDENSED>  (2004) 
Inp(R,3R-Et)

>  <IUPAC>  (2004) 
(3R,4R)-3-ethylpiperidine-4-carboxylic acid

>  <TYPE>  (2004) 
Backbone

>  <CLASS>  (2004) 
gamma

>  <ANALOG>  (2004) 
Ala

>  <MOL_WT>  (2004) 
157.213

>  <LOGP>  (2004) 
0.7066999999999999

>  <TPSA>  (2004) 
49.33

>  <POPULARITY>  (2004) 
5.3

>  <PROTECTED>  (2004) 
TRUE

>  <SMILES>  (2004) 
N1C[C@H](CC)[C@@H](CC1)C(=O)O

>  <INCHIKEY>  (2004) 
WGRLEOXKSPFTNH-NKWVEPMBSA-N

$$$$
Inp_R_3RMe
     RDKit          2D

 10 10  0  0  0  0  0  0  0  0999 V2000
    2.7096    0.1244    0.0000 N   0  0  0  0  0  0  0  0  0  0  0  0
    1.8956   -1.1355    0.0000 C   0  0  0  0  0  0  0  0  0  0  0  0
    0.3975   -1.0604    0.0000 C   0  0  0  0  0  0  0  0  0  0  0  0
   -0.4166   -2.3203    0.0000 C   0  0  0  0  0  0  0  0  0  0  0  0
   -0.2866    0.2745    0.0000 C   0  0  0  0  0  0  0  0  0  0  0  0
    0.5274    1.5344    0.0000 C   0  0  0  0  0  0  0  0  0  0  0  0
    2.0255    1.4594    0.0000 C   0  0  0  0  0  0  0  0  0  0  0  0
   -1.7848    0.3495    0.0000 C   0  0  0  0  0  0  0  0  0  0  0  0
   -2.5988   -0.9104    0.0000 O   0  0  0  0  0  0  0  0  0  0  0  0
   -2.4688    1.6844    0.0000 O   0  0  0  0  0  0  0  0  0  0  0  0
  1  2  1  0
  2  3  1  0
  3  4  1  6
  3  5  1  0
  5  6  1  0
  6  7  1  0
  5  8  1  6
  8  9  2  0
  8 10  1  0
  7  1  1  0
M  END
>  <rName>  (2005) 
Inp_R_3RMe

>  <PQ_SYMBOL>  (2005) 
Inp_R_3RMe

>  <FULL_NAME>  (2005) 
(3R,4R)-3-methylpiperidine-4-carboxylic acid

>  <IUPAC_CONDENSED>  (2005) 
Inp(R,3R-Me)

>  <IUPAC>  (2005) 
(3R,4R)-3-methylpiperidine-4-carboxylic acid

>  <TYPE>  (2005) 
Backbone

>  <CLASS>  (2005) 
gamma

>  <ANALOG>  (2005) 
Pro

>  <MOL_WT>  (2005) 
143.186

>  <LOGP>  (2005) 
0.31659999999999994

>  <TPSA>  (2005) 
49.33

>  <POPULARITY>  (2005) 
6.0

>  <PROTECTED>  (2005) 
TRUE

>  <SMILES>  (2005) 
N1C[C@H](C)[C@@H](CC1)C(=O)O

>  <INCHIKEY>  (2005) 
WLGOHASCUQHBRC-NTSWFWBYSA-N

$$$$
Inp_R_3SOMe_4ROMe
     RDKit          2D

 13 13  0  0  0  0  0  0  0  0999 V2000
    2.5630   -1.4715    0.0000 N   0  0  0  0  0  0  0  0  0  0  0  0
    1.1750   -2.0401    0.0000 C   0  0  0  0  0  0  0  0  0  0  0  0
   -0.0115   -1.1223    0.0000 C   0  0  0  0  0  0  0  0  0  0  0  0
   -1.3995   -1.6909    0.0000 O   0  0  0  0  0  0  0  0  0  0  0  0
   -2.2456   -1.1881    0.0000 C   0  0  0  0  0  0  0  0  0  0  0  0
    0.1901    0.3641    0.0000 C   0  0  0  0  0  0  0  0  0  0  0  0
   -0.1288    1.8298    0.0000 O   0  0  0  0  0  0  0  0  0  0  0  0
    0.9811    2.8388    0.0000 C   0  0  0  0  0  0  0  0  0  0  0  0
    1.5782    0.9327    0.0000 C   0  0  0  0  0  0  0  0  0  0  0  0
    2.7646    0.0149    0.0000 C   0  0  0  0  0  0  0  0  0  0  0  0
   -1.3087    0.3045    0.0000 C   0  0  0  0  0  0  0  0  0  0  0  0
   -2.1097    1.5728    0.0000 O   0  0  0  0  0  0  0  0  0  0  0  0
   -2.0484   -0.3446    0.0000 O   0  0  0  0  0  0  0  0  0  0  0  0
  1  2  1  0
  2  3  1  0
  3  4  1  6
  4  5  1  0
  3  6  1  0
  6  7  1  6
  7  8  1  0
  6  9  1  0
  9 10  1  0
  6 11  1  0
 11 12  2  0
 11 13  1  0
 10  1  1  0
M  END
>  <rName>  (2006) 
Inp_R_3SOMe_4ROMe

>  <PQ_SYMBOL>  (2006) 
Inp_R_3SOMe_4ROMe

>  <FULL_NAME>  (2006) 
CO[C@H]1CNCC[C@]1(OC)C(=O)O

>  <IUPAC_CONDENSED>  (2006) 
Inp(R,3S-OMe,4R-OMe)

>  <IUPAC>  (2006) 
(3S,4R)-3,4-dimethoxypiperidine-4-carboxylic acid

>  <TYPE>  (2006) 
Backbone

>  <CLASS>  (2006) 
gamma

>  <ANALOG>  (2006) 
Ser

>  <MOL_WT>  (2006) 
189.21099999999996

>  <LOGP>  (2006) 
-0.5355000000000003

>  <TPSA>  (2006) 
67.79

>  <POPULARITY>  (2006) 
2.7

>  <PROTECTED>  (2006) 
TRUE

>  <SMILES>  (2006) 
N1C[C@H](OC)[C@](OC)(CC1)C(=O)O

>  <INCHIKEY>  (2006) 
WDKWVWOHSYTOPC-POYBYMJQSA-N

$$$$
Inp_R_4RF
     RDKit          2D

 10 11  0  0  0  0  0  0  0  0999 V2000
   -2.9216   -0.3624    0.0000 N   0  0  0  0  0  0  0  0  0  0  0  0
   -1.7760   -1.3307    0.0000 C   0  0  0  0  0  0  0  0  0  0  0  0
   -0.5011   -0.5404    0.0000 C   0  0  0  0  0  0  0  0  0  0  0  0
    0.5816    0.4978    0.0000 C   0  0  0  0  0  0  0  0  0  0  0  0
    1.2440    1.8436    0.0000 F   0  0  0  0  0  0  0  0  0  0  0  0
   -0.8588    0.9164    0.0000 C   0  0  0  0  0  0  0  0  0  0  0  0
   -2.3547    1.0263    0.0000 C   0  0  0  0  0  0  0  0  0  0  0  0
    1.7920   -0.3882    0.0000 C   0  0  0  0  0  0  0  0  0  0  0  0
    1.6299   -1.8794    0.0000 O   0  0  0  0  0  0  0  0  0  0  0  0
    3.1645    0.2170    0.0000 O   0  0  0  0  0  0  0  0  0  0  0  0
  1  2  1  0
  3  2  1  6
  3  4  1  0
  4  5  1  6
  4  6  1  0
  6  7  1  6
  4  8  1  0
  8  9  2  0
  8 10  1  0
  6  3  1  0
  7  1  1  0
M  END
>  <rName>  (2007) 
Inp_R_4RF

>  <PQ_SYMBOL>  (2007) 
Inp_R_4RF

>  <FULL_NAME>  (2007) 
(1R,5S,6R)-6-fluoro-3-azabicyclo[3.1.0]hexane-6-carboxylic acid

>  <IUPAC_CONDENSED>  (2007) 
Inp(R,4R-F)

>  <IUPAC>  (2007) 
(1R,5S)-6-fluoro-3-azabicyclo[3.1.0]hexane-6-carboxylic acid

>  <TYPE>  (2007) 
Backbone

>  <CLASS>  (2007) 
gamma

>  <ANALOG>  (2007) 
Pro

>  <MOL_WT>  (2007) 
145.133

>  <LOGP>  (2007) 
-0.3715000000000002

>  <TPSA>  (2007) 
49.33

>  <POPULARITY>  (2007) 
2.7

>  <PROTECTED>  (2007) 
TRUE

>  <SMILES>  (2007) 
N2C[C@H]1[C@@](F)([C@H]1C2)C(=O)O

>  <INCHIKEY>  (2007) 
DZMPYILQTKZMEJ-QQHMKSMCSA-N

$$$$
Inp_R_4RMe
     RDKit          2D

 10 11  0  0  0  0  0  0  0  0999 V2000
    2.9216   -0.3624    0.0000 N   0  0  0  0  0  0  0  0  0  0  0  0
    2.3547    1.0263    0.0000 C   0  0  0  0  0  0  0  0  0  0  0  0
    0.8588    0.9164    0.0000 C   0  0  0  0  0  0  0  0  0  0  0  0
   -0.5816    0.4978    0.0000 C   0  0  0  0  0  0  0  0  0  0  0  0
   -1.2440    1.8436    0.0000 C   0  0  0  0  0  0  0  0  0  0  0  0
    0.5011   -0.5404    0.0000 C   0  0  0  0  0  0  0  0  0  0  0  0
    1.7760   -1.3307    0.0000 C   0  0  0  0  0  0  0  0  0  0  0  0
   -1.7920   -0.3882    0.0000 C   0  0  0  0  0  0  0  0  0  0  0  0
   -1.6299   -1.8794    0.0000 O   0  0  0  0  0  0  0  0  0  0  0  0
   -3.1645    0.2170    0.0000 O   0  0  0  0  0  0  0  0  0  0  0  0
  1  2  1  0
  3  2  1  6
  3  4  1  0
  4  5  1  6
  4  6  1  0
  6  7  1  6
  4  8  1  0
  8  9  2  0
  8 10  1  0
  6  3  1  0
  7  1  1  0
M  END
>  <rName>  (2008) 
Inp_R_4RMe

>  <PQ_SYMBOL>  (2008) 
Inp_R_4RMe

>  <FULL_NAME>  (2008) 
(1R,5S)-6-methyl-3-azabicyclo[3.1.0]hexane-6-carboxylic acid

>  <IUPAC_CONDENSED>  (2008) 
Inp(R,4R-Me)

>  <IUPAC>  (2008) 
(1R,5S)-6-methyl-3-azabicyclo[3.1.0]hexane-6-carboxylic acid

>  <TYPE>  (2008) 
Backbone

>  <CLASS>  (2008) 
gamma

>  <ANALOG>  (2008) 
Pro

>  <MOL_WT>  (2008) 
141.17

>  <LOGP>  (2008) 
-0.07349999999999995

>  <TPSA>  (2008) 
49.33

>  <POPULARITY>  (2008) 
3.0

>  <PROTECTED>  (2008) 
TRUE

>  <SMILES>  (2008) 
N2C[C@H]1[C@@](C)([C@H]1C2)C(=O)O

>  <INCHIKEY>  (2008) 
PAGBJBGIUVKVNA-KCQQBQQISA-N

$$$$
Inp_R_5SOH
     RDKit          2D

 10 10  0  0  0  0  0  0  0  0999 V2000
   -2.7096    0.1244    0.0000 N   0  0  0  0  0  0  0  0  0  0  0  0
   -2.0255    1.4594    0.0000 C   0  0  0  0  0  0  0  0  0  0  0  0
   -0.5274    1.5344    0.0000 C   0  0  0  0  0  0  0  0  0  0  0  0
    0.2866    0.2745    0.0000 C   0  0  0  0  0  0  0  0  0  0  0  0
   -0.3975   -1.0604    0.0000 C   0  0  0  0  0  0  0  0  0  0  0  0
    0.4166   -2.3203    0.0000 O   0  0  0  0  0  0  0  0  0  0  0  0
   -1.8956   -1.1355    0.0000 C   0  0  0  0  0  0  0  0  0  0  0  0
    1.7848    0.3495    0.0000 C   0  0  0  0  0  0  0  0  0  0  0  0
    2.4688    1.6844    0.0000 O   0  0  0  0  0  0  0  0  0  0  0  0
    2.5988   -0.9104    0.0000 O   0  0  0  0  0  0  0  0  0  0  0  0
  1  2  1  0
  2  3  1  0
  3  4  1  0
  4  5  1  0
  5  6  1  6
  5  7  1  0
  4  8  1  1
  8  9  2  0
  8 10  1  0
  7  1  1  0
M  END
>  <rName>  (2009) 
Inp_R_5SOH

>  <PQ_SYMBOL>  (2009) 
Inp_R_5SOH

>  <FULL_NAME>  (2009) 
trans-3-Hydroxypiperidine-4-carboxylic acid

>  <IUPAC_CONDENSED>  (2009) 
Inp(R,5S-OH)

>  <IUPAC>  (2009) 
(3S,4R)-3-hydroxypiperidine-4-carboxylic acid

>  <TYPE>  (2009) 
Backbone

>  <CLASS>  (2009) 
gamma

>  <ANALOG>  (2009) 
Pro

>  <MOL_WT>  (2009) 
145.158

>  <LOGP>  (2009) 
-0.9586000000000001

>  <TPSA>  (2009) 
69.56

>  <POPULARITY>  (2009) 
5.1

>  <PROTECTED>  (2009) 
TRUE

>  <SMILES>  (2009) 
N1CC[C@H]([C@H](O)C1)C(=O)O

>  <INCHIKEY>  (2009) 
ASDFUVTYTVOHPL-RFZPGFLSSA-N

$$$$
Inp_R_6RMe
     RDKit          2D

 10 10  0  0  0  0  0  0  0  0999 V2000
    2.2529   -0.8671    0.0000 N   0  0  0  0  0  0  0  0  0  0  0  0
    1.1946   -1.9301    0.0000 C   0  0  0  0  0  0  0  0  0  0  0  0
   -0.2551   -1.5451    0.0000 C   0  0  0  0  0  0  0  0  0  0  0  0
   -0.6466   -0.0971    0.0000 C   0  0  0  0  0  0  0  0  0  0  0  0
    0.4117    0.9659    0.0000 C   0  0  0  0  0  0  0  0  0  0  0  0
    1.8615    0.5809    0.0000 C   0  0  0  0  0  0  0  0  0  0  0  0
    2.9197    1.6440    0.0000 C   0  0  0  0  0  0  0  0  0  0  0  0
   -2.0963    0.2879    0.0000 C   0  0  0  0  0  0  0  0  0  0  0  0
   -3.1546   -0.7752    0.0000 O   0  0  0  0  0  0  0  0  0  0  0  0
   -2.4878    1.7359    0.0000 O   0  0  0  0  0  0  0  0  0  0  0  0
  1  2  1  0
  2  3  1  0
  3  4  1  0
  4  5  1  0
  5  6  1  0
  6  7  1  1
  4  8  1  1
  8  9  2  0
  8 10  1  0
  6  1  1  0
M  END
>  <rName>  (2010) 
Inp_R_6RMe

>  <PQ_SYMBOL>  (2010) 
Inp_R_6RMe

>  <FULL_NAME>  (2010) 
rac-(2R,4R)-2-methylpiperidine-4-carboxylic acid

>  <IUPAC_CONDENSED>  (2010) 
Inp(R,6R-Me)

>  <IUPAC>  (2010) 
(2R,4R)-2-methylpiperidine-4-carboxylic acid

>  <TYPE>  (2010) 
Backbone

>  <CLASS>  (2010) 
gamma

>  <ANALOG>  (2010) 
Pro

>  <MOL_WT>  (2010) 
143.186

>  <LOGP>  (2010) 
0.4591

>  <TPSA>  (2010) 
49.33

>  <POPULARITY>  (2010) 
2.2

>  <PROTECTED>  (2010) 
TRUE

>  <SMILES>  (2010) 
N1CC[C@H](C[C@H]1C)C(=O)O

>  <INCHIKEY>  (2010) 
OSHLFUFMLXAGMN-PHDIDXHHSA-N

$$$$
Inp_R_6RcPr
     RDKit          2D

 12 13  0  0  0  0  0  0  0  0999 V2000
    1.0844   -1.7616    0.0000 N   0  0  0  0  0  0  0  0  0  0  0  0
   -0.2696   -2.4070    0.0000 C   0  0  0  0  0  0  0  0  0  0  0  0
   -1.5056   -1.5570    0.0000 C   0  0  0  0  0  0  0  0  0  0  0  0
   -1.3875   -0.0617    0.0000 C   0  0  0  0  0  0  0  0  0  0  0  0
   -0.0334    0.5837    0.0000 C   0  0  0  0  0  0  0  0  0  0  0  0
    1.2026   -0.2663    0.0000 C   0  0  0  0  0  0  0  0  0  0  0  0
    2.5566    0.3791    0.0000 C   0  0  0  0  0  0  0  0  0  0  0  0
    3.4066    1.6151    0.0000 C   0  0  0  0  0  0  0  0  0  0  0  0
    4.0520    0.2610    0.0000 C   0  0  0  0  0  0  0  0  0  0  0  0
   -2.6234    0.7883    0.0000 C   0  0  0  0  0  0  0  0  0  0  0  0
   -3.9775    0.1429    0.0000 O   0  0  0  0  0  0  0  0  0  0  0  0
   -2.5053    2.2836    0.0000 O   0  0  0  0  0  0  0  0  0  0  0  0
  1  2  1  0
  2  3  1  0
  3  4  1  0
  4  5  1  0
  5  6  1  0
  6  7  1  6
  7  8  1  0
  8  9  1  0
  4 10  1  1
 10 11  2  0
 10 12  1  0
  6  1  1  0
  9  7  1  0
M  END
>  <rName>  (2011) 
Inp_R_6RcPr

>  <PQ_SYMBOL>  (2011) 
Inp_R_6RcPr

>  <FULL_NAME>  (2011) 
rac-(2R,4R)-2-cyclopropylpiperidine-4-carboxylic acid

>  <IUPAC_CONDENSED>  (2011) 
Inp(R,6R-cPr)

>  <IUPAC>  (2011) 
(2R,4R)-2-cyclopropylpiperidine-4-carboxylic acid

>  <TYPE>  (2011) 
Backbone

>  <CLASS>  (2011) 
gamma

>  <ANALOG>  (2011) 
Pro

>  <MOL_WT>  (2011) 
169.224

>  <LOGP>  (2011) 
0.8492

>  <TPSA>  (2011) 
49.33

>  <POPULARITY>  (2011) 
3.0

>  <PROTECTED>  (2011) 
TRUE

>  <SMILES>  (2011) 
N1CC[C@H](C[C@@H]1C2(CC2))C(=O)O

>  <INCHIKEY>  (2011) 
OAVOOMPWOLUALN-HTQZYQBOSA-N

$$$$
Inp_S_4SOH_5ROH
     RDKit          2D

 11 11  0  0  0  0  0  0  0  0999 V2000
    2.5393   -0.9299    0.0000 N   0  0  0  0  0  0  0  0  0  0  0  0
    1.3789   -1.8804    0.0000 C   0  0  0  0  0  0  0  0  0  0  0  0
   -0.0244   -1.3507    0.0000 C   0  0  0  0  0  0  0  0  0  0  0  0
   -0.2674    0.1295    0.0000 C   0  0  0  0  0  0  0  0  0  0  0  0
   -1.0019    1.4374    0.0000 O   0  0  0  0  0  0  0  0  0  0  0  0
    0.8931    1.0800    0.0000 C   0  0  0  0  0  0  0  0  0  0  0  0
    0.6502    2.5602    0.0000 O   0  0  0  0  0  0  0  0  0  0  0  0
    2.2964    0.5503    0.0000 C   0  0  0  0  0  0  0  0  0  0  0  0
   -1.6829   -0.3667    0.0000 C   0  0  0  0  0  0  0  0  0  0  0  0
   -1.9609   -1.8407    0.0000 O   0  0  0  0  0  0  0  0  0  0  0  0
   -2.8204    0.6110    0.0000 O   0  0  0  0  0  0  0  0  0  0  0  0
  1  2  1  0
  2  3  1  0
  3  4  1  0
  4  5  1  6
  4  6  1  0
  6  7  1  6
  6  8  1  0
  4  9  1  0
  9 10  2  0
  9 11  1  0
  8  1  1  0
M  END
>  <rName>  (2012) 
Inp_S_4SOH_5ROH

>  <PQ_SYMBOL>  (2012) 
Inp_S_4SOH_5ROH

>  <FULL_NAME>  (2012) 
rac-(3R,4S)-3,4-dihydroxypiperidine-4-carboxylic acid

>  <IUPAC_CONDENSED>  (2012) 
Inp(S,4S-OH,5R-OH)

>  <IUPAC>  (2012) 
(3R,4S)-3,4-dihydroxypiperidine-4-carboxylic acid

>  <TYPE>  (2012) 
Backbone

>  <CLASS>  (2012) 
gamma

>  <ANALOG>  (2012) 
Pro

>  <MOL_WT>  (2012) 
161.15699999999998

>  <LOGP>  (2012) 
-1.8437000000000001

>  <TPSA>  (2012) 
89.79

>  <POPULARITY>  (2012) 
3.0

>  <PROTECTED>  (2012) 
TRUE

>  <SMILES>  (2012) 
N1CC[C@](O)([C@H](O)C1)C(=O)O

>  <INCHIKEY>  (2012) 
YGJXQYYVIVJLFV-XINAWCOVSA-N

$$$$
Inp_S_5RPh
     RDKit          2D

 15 16  0  0  0  0  0  0  0  0999 V2000
   -2.6540   -2.2353    0.0000 N   0  0  0  0  0  0  0  0  0  0  0  0
   -3.5525   -1.0342    0.0000 C   0  0  0  0  0  0  0  0  0  0  0  0
   -2.9616    0.3445    0.0000 C   0  0  0  0  0  0  0  0  0  0  0  0
   -1.4722    0.5221    0.0000 C   0  0  0  0  0  0  0  0  0  0  0  0
   -0.5736   -0.6789    0.0000 C   0  0  0  0  0  0  0  0  0  0  0  0
   -1.1645   -2.0576    0.0000 C   0  0  0  0  0  0  0  0  0  0  0  0
    0.9158   -0.5013    0.0000 C   0  0  0  0  0  0  0  0  0  0  0  0
    1.8144   -1.7024    0.0000 C   0  0  0  0  0  0  0  0  0  0  0  0
    3.3038   -1.5247    0.0000 C   0  0  0  0  0  0  0  0  0  0  0  0
    3.8947   -0.1460    0.0000 C   0  0  0  0  0  0  0  0  0  0  0  0
    2.9961    1.0551    0.0000 C   0  0  0  0  0  0  0  0  0  0  0  0
    1.5067    0.8774    0.0000 C   0  0  0  0  0  0  0  0  0  0  0  0
   -0.8813    1.9009    0.0000 C   0  0  0  0  0  0  0  0  0  0  0  0
    0.6081    2.0785    0.0000 O   0  0  0  0  0  0  0  0  0  0  0  0
   -1.7799    3.1019    0.0000 O   0  0  0  0  0  0  0  0  0  0  0  0
  1  2  1  0
  2  3  1  0
  3  4  1  0
  4  5  1  0
  5  6  1  0
  5  7  1  6
  7  8  2  0
  8  9  1  0
  9 10  2  0
 10 11  1  0
 11 12  2  0
  4 13  1  6
 13 14  2  0
 13 15  1  0
  6  1  1  0
 12  7  1  0
M  END
>  <rName>  (2013) 
Inp_S_5RPh

>  <PQ_SYMBOL>  (2013) 
Inp_S_5RPh

>  <FULL_NAME>  (2013) 
4-Piperidinecarboxylic acid, 3-phenyl-, (3R,4S)-rel-

>  <IUPAC_CONDENSED>  (2013) 
Inp(S,5R-Ph)

>  <IUPAC>  (2013) 
(3R,4S)-3-phenylpiperidine-4-carboxylic acid

>  <TYPE>  (2013) 
Backbone

>  <CLASS>  (2013) 
gamma

>  <ANALOG>  (2013) 
Pro

>  <MOL_WT>  (2013) 
205.257

>  <LOGP>  (2013) 
1.4643

>  <TPSA>  (2013) 
49.33

>  <POPULARITY>  (2013) 
5.5

>  <PROTECTED>  (2013) 
TRUE

>  <SMILES>  (2013) 
N1CC[C@@H]([C@@H](C1)c2(ccccc2))C(=O)O

>  <INCHIKEY>  (2013) 
IUQCREJDCUZOJB-QWRGUYRKSA-N

$$$$
Inp_S_5SOH
     RDKit          2D

 10 10  0  0  0  0  0  0  0  0999 V2000
   -2.7096    0.1244    0.0000 N   0  0  0  0  0  0  0  0  0  0  0  0
   -2.0255    1.4594    0.0000 C   0  0  0  0  0  0  0  0  0  0  0  0
   -0.5274    1.5344    0.0000 C   0  0  0  0  0  0  0  0  0  0  0  0
    0.2866    0.2745    0.0000 C   0  0  0  0  0  0  0  0  0  0  0  0
   -0.3975   -1.0604    0.0000 C   0  0  0  0  0  0  0  0  0  0  0  0
    0.4166   -2.3203    0.0000 O   0  0  0  0  0  0  0  0  0  0  0  0
   -1.8956   -1.1355    0.0000 C   0  0  0  0  0  0  0  0  0  0  0  0
    1.7848    0.3495    0.0000 C   0  0  0  0  0  0  0  0  0  0  0  0
    2.4688    1.6844    0.0000 O   0  0  0  0  0  0  0  0  0  0  0  0
    2.5988   -0.9104    0.0000 O   0  0  0  0  0  0  0  0  0  0  0  0
  1  2  1  0
  2  3  1  0
  3  4  1  0
  4  5  1  0
  5  6  1  6
  5  7  1  0
  4  8  1  6
  8  9  2  0
  8 10  1  0
  7  1  1  0
M  END
>  <rName>  (2014) 
Inp_S_5SOH

>  <PQ_SYMBOL>  (2014) 
Inp_S_5SOH

>  <FULL_NAME>  (2014) 
(+/-)cis-3-Hydroxyisonipecotic acid

>  <IUPAC_CONDENSED>  (2014) 
Inp(S,5S-OH)

>  <IUPAC>  (2014) 
(3S,4S)-3-hydroxypiperidine-4-carboxylic acid

>  <TYPE>  (2014) 
Backbone

>  <CLASS>  (2014) 
gamma

>  <ANALOG>  (2014) 
Pro

>  <MOL_WT>  (2014) 
145.158

>  <LOGP>  (2014) 
-0.9586000000000001

>  <TPSA>  (2014) 
69.56

>  <POPULARITY>  (2014) 
5.8

>  <PROTECTED>  (2014) 
TRUE

>  <SMILES>  (2014) 
N1CC[C@@H]([C@H](O)C1)C(=O)O

>  <INCHIKEY>  (2014) 
ASDFUVTYTVOHPL-CRCLSJGQSA-N

$$$$
Inp_S_6RCONH2
     RDKit          2D

 12 12  0  0  0  0  0  0  0  0999 V2000
    1.2990   -1.6250    0.0000 N   0  0  0  0  0  0  0  0  0  0  0  0
   -0.0000   -2.3750    0.0000 C   0  0  0  0  0  0  0  0  0  0  0  0
   -1.2990   -1.6250    0.0000 C   0  0  0  0  0  0  0  0  0  0  0  0
   -1.2990   -0.1250    0.0000 C   0  0  0  0  0  0  0  0  0  0  0  0
    0.0000    0.6250    0.0000 C   0  0  0  0  0  0  0  0  0  0  0  0
    1.2990   -0.1250    0.0000 C   0  0  0  0  0  0  0  0  0  0  0  0
    2.5981    0.6250    0.0000 C   0  0  0  0  0  0  0  0  0  0  0  0
    2.5981    2.1250    0.0000 O   0  0  0  0  0  0  0  0  0  0  0  0
    3.8971   -0.1250    0.0000 N   0  0  0  0  0  0  0  0  0  0  0  0
   -2.5981    0.6250    0.0000 C   0  0  0  0  0  0  0  0  0  0  0  0
   -3.8971   -0.1250    0.0000 O   0  0  0  0  0  0  0  0  0  0  0  0
   -2.5981    2.1250    0.0000 O   0  0  0  0  0  0  0  0  0  0  0  0
  1  2  1  0
  2  3  1  0
  3  4  1  0
  4  5  1  0
  5  6  1  0
  6  7  1  6
  7  8  2  0
  7  9  1  0
  4 10  1  6
 10 11  2  0
 10 12  1  0
  6  1  1  0
M  END
>  <rName>  (2015) 
Inp_S_6RCONH2

>  <PQ_SYMBOL>  (2015) 
Inp_S_6RCONH2

>  <FULL_NAME>  (2015) 
(2R,4S)-2-carbamoylpiperidine-4-carboxylic acid

>  <IUPAC_CONDENSED>  (2015) 
Inp(S,6R-CONH2)

>  <IUPAC>  (2015) 
(2R,4S)-2-carbamoylpiperidine-4-carboxylic acid

>  <TYPE>  (2015) 
Backbone

>  <CLASS>  (2015) 
gamma

>  <ANALOG>  (2015) 
Pro

>  <MOL_WT>  (2015) 
172.184

>  <LOGP>  (2015) 
-1.0754999999999995

>  <TPSA>  (2015) 
92.42

>  <POPULARITY>  (2015) 
3.1

>  <PROTECTED>  (2015) 
TRUE

>  <SMILES>  (2015) 
N1CC[C@@H](C[C@@H]1C(=O)N)C(=O)O

>  <INCHIKEY>  (2015) 
HMWYLAHYGDAPJG-CRCLSJGQSA-N

$$$$
Inp_S_6SEt
     RDKit          2D

 11 11  0  0  0  0  0  0  0  0999 V2000
    1.7255   -1.1957    0.0000 N   0  0  0  0  0  0  0  0  0  0  0  0
    0.5480   -2.1250    0.0000 C   0  0  0  0  0  0  0  0  0  0  0  0
   -0.8455   -1.5700    0.0000 C   0  0  0  0  0  0  0  0  0  0  0  0
   -1.0616   -0.0856    0.0000 C   0  0  0  0  0  0  0  0  0  0  0  0
    0.1159    0.8437    0.0000 C   0  0  0  0  0  0  0  0  0  0  0  0
    1.5094    0.2886    0.0000 C   0  0  0  0  0  0  0  0  0  0  0  0
    2.6869    1.2179    0.0000 C   0  0  0  0  0  0  0  0  0  0  0  0
    4.0804    0.6628    0.0000 C   0  0  0  0  0  0  0  0  0  0  0  0
   -2.4551    0.4694    0.0000 C   0  0  0  0  0  0  0  0  0  0  0  0
   -3.6326   -0.4599    0.0000 O   0  0  0  0  0  0  0  0  0  0  0  0
   -2.6712    1.9538    0.0000 O   0  0  0  0  0  0  0  0  0  0  0  0
  1  2  1  0
  2  3  1  0
  3  4  1  0
  4  5  1  0
  5  6  1  0
  6  7  1  6
  7  8  1  0
  4  9  1  6
  9 10  2  0
  9 11  1  0
  6  1  1  0
M  END
>  <rName>  (2016) 
Inp_S_6SEt

>  <PQ_SYMBOL>  (2016) 
Inp_S_6SEt

>  <FULL_NAME>  (2016) 
CC[C@H]1C[C@@H](C(=O)O)CCN1

>  <IUPAC_CONDENSED>  (2016) 
Inp(S,6S-Et)

>  <IUPAC>  (2016) 
(2S,4S)-2-ethylpiperidine-4-carboxylic acid

>  <TYPE>  (2016) 
Backbone

>  <CLASS>  (2016) 
gamma

>  <ANALOG>  (2016) 
Pro

>  <MOL_WT>  (2016) 
157.213

>  <LOGP>  (2016) 
0.8492

>  <TPSA>  (2016) 
49.33

>  <POPULARITY>  (2016) 
6.8

>  <PROTECTED>  (2016) 
TRUE

>  <SMILES>  (2016) 
N1CC[C@@H](C[C@@H]1CC)C(=O)O

>  <INCHIKEY>  (2016) 
JGOYCLHAZHULFV-BQBZGAKWSA-N

$$$$
Inp_S_6SMe
     RDKit          2D

 10 10  0  0  0  0  0  0  0  0999 V2000
    2.2529   -0.8671    0.0000 N   0  0  0  0  0  0  0  0  0  0  0  0
    1.1946   -1.9301    0.0000 C   0  0  0  0  0  0  0  0  0  0  0  0
   -0.2551   -1.5451    0.0000 C   0  0  0  0  0  0  0  0  0  0  0  0
   -0.6466   -0.0971    0.0000 C   0  0  0  0  0  0  0  0  0  0  0  0
    0.4117    0.9659    0.0000 C   0  0  0  0  0  0  0  0  0  0  0  0
    1.8615    0.5809    0.0000 C   0  0  0  0  0  0  0  0  0  0  0  0
    2.9197    1.6440    0.0000 C   0  0  0  0  0  0  0  0  0  0  0  0
   -2.0963    0.2879    0.0000 C   0  0  0  0  0  0  0  0  0  0  0  0
   -3.1546   -0.7752    0.0000 O   0  0  0  0  0  0  0  0  0  0  0  0
   -2.4878    1.7359    0.0000 O   0  0  0  0  0  0  0  0  0  0  0  0
  1  2  1  0
  2  3  1  0
  3  4  1  0
  4  5  1  0
  5  6  1  0
  6  7  1  6
  4  8  1  6
  8  9  2  0
  8 10  1  0
  6  1  1  0
M  END
>  <rName>  (2017) 
Inp_S_6SMe

>  <PQ_SYMBOL>  (2017) 
Inp_S_6SMe

>  <FULL_NAME>  (2017) 
(2S,4S)-2-Methylpiperidine-4-carboxylic acid

>  <IUPAC_CONDENSED>  (2017) 
Inp(S,6S-Me)

>  <IUPAC>  (2017) 
(2S,4S)-2-methylpiperidine-4-carboxylic acid

>  <TYPE>  (2017) 
Backbone

>  <CLASS>  (2017) 
gamma

>  <ANALOG>  (2017) 
Pro

>  <MOL_WT>  (2017) 
143.186

>  <LOGP>  (2017) 
0.4591

>  <TPSA>  (2017) 
49.33

>  <POPULARITY>  (2017) 
8.5

>  <PROTECTED>  (2017) 
TRUE

>  <SMILES>  (2017) 
N1CC[C@@H](C[C@@H]1C)C(=O)O

>  <INCHIKEY>  (2017) 
OSHLFUFMLXAGMN-WDSKDSINSA-N

$$$$
Isox_3DiFMe
     RDKit          2D

 11 11  0  0  0  0  0  0  0  0999 V2000
   -3.7548    0.6981    0.0000 F   0  0  0  0  0  0  0  0  0  0  0  0
   -2.6401   -0.3056    0.0000 C   0  0  0  0  0  0  0  0  0  0  0  0
   -2.9520   -1.7729    0.0000 F   0  0  0  0  0  0  0  0  0  0  0  0
   -1.2135    0.1579    0.0000 C   0  0  0  0  0  0  0  0  0  0  0  0
   -0.0000   -0.7238    0.0000 C   0  0  0  0  0  0  0  0  0  0  0  0
    1.2135    0.1579    0.0000 C   0  0  0  0  0  0  0  0  0  0  0  0
    0.7500    1.5845    0.0000 O   0  0  0  0  0  0  0  0  0  0  0  0
   -0.7500    1.5845    0.0000 N   0  0  0  0  0  0  0  0  0  0  0  0
    2.6401   -0.3056    0.0000 C   0  0  0  0  0  0  0  0  0  0  0  0
    3.7548    0.6981    0.0000 O   0  0  0  0  0  0  0  0  0  0  0  0
    2.9520   -1.7729    0.0000 O   0  0  0  0  0  0  0  0  0  0  0  0
  1  2  1  0
  2  3  1  0
  2  4  1  0
  4  5  1  0
  5  6  2  0
  6  7  1  0
  7  8  1  0
  6  9  1  0
  9 10  2  0
  9 11  1  0
  8  4  2  0
M  END
>  <rName>  (2018) 
Isox_3DiFMe

>  <PQ_SYMBOL>  (2018) 
Isox_3DiFMe

>  <FULL_NAME>  (2018) 
3-(Difluoromethyl)-1,2-oxazole-5-carboxylic acid

>  <IUPAC_CONDENSED>  (2018) 
Isox(3-DiFMe)

>  <IUPAC>  (2018) 
3-(difluoromethyl)isoxazole-5-carboxylic acid

>  <TYPE>  (2018) 
N-term cap

>  <CLASS>  (2018) 
n_cap

>  <ANALOG>  (2018) 
X

>  <MOL_WT>  (2018) 
163.07899999999998

>  <LOGP>  (2018) 
1.3103999999999996

>  <TPSA>  (2018) 
63.33

>  <POPULARITY>  (2018) 
4.4

>  <PROTECTED>  (2018) 
TRUE

>  <SMILES>  (2018) 
FC(F)c1cc(on1)C(=O)O

>  <INCHIKEY>  (2018) 
YPRXRMMWUDMDGD-UHFFFAOYSA-N

$$$$
Isox_3Me
     RDKit          2D

  9  9  0  0  0  0  0  0  0  0999 V2000
   -3.3052   -0.8467    0.0000 C   0  0  0  0  0  0  0  0  0  0  0  0
   -1.9481   -0.2077    0.0000 C   0  0  0  0  0  0  0  0  0  0  0  0
   -0.6334   -0.9301    0.0000 C   0  0  0  0  0  0  0  0  0  0  0  0
    0.4598    0.0969    0.0000 C   0  0  0  0  0  0  0  0  0  0  0  0
   -0.1792    1.4541    0.0000 O   0  0  0  0  0  0  0  0  0  0  0  0
   -1.6673    1.2657    0.0000 N   0  0  0  0  0  0  0  0  0  0  0  0
    1.9333   -0.1838    0.0000 C   0  0  0  0  0  0  0  0  0  0  0  0
    2.9132    0.9519    0.0000 O   0  0  0  0  0  0  0  0  0  0  0  0
    2.4269   -1.6003    0.0000 O   0  0  0  0  0  0  0  0  0  0  0  0
  1  2  1  0
  2  3  1  0
  3  4  2  0
  4  5  1  0
  5  6  1  0
  4  7  1  0
  7  8  2  0
  7  9  1  0
  6  2  2  0
M  END
>  <rName>  (2019) 
Isox_3Me

>  <PQ_SYMBOL>  (2019) 
Isox_3Me

>  <FULL_NAME>  (2019) 
3-Methylisoxazole-5-carboxylic acid

>  <IUPAC_CONDENSED>  (2019) 
Isox(3-Me)

>  <IUPAC>  (2019) 
3-methylisoxazole-5-carboxylic acid

>  <TYPE>  (2019) 
N-term cap

>  <CLASS>  (2019) 
n_cap

>  <ANALOG>  (2019) 
X

>  <MOL_WT>  (2019) 
127.09899999999999

>  <LOGP>  (2019) 
0.6812199999999999

>  <TPSA>  (2019) 
63.33

>  <POPULARITY>  (2019) 
8.9

>  <PROTECTED>  (2019) 
TRUE

>  <SMILES>  (2019) 
Cc1cc(on1)C(=O)O

>  <INCHIKEY>  (2019) 
HXIYCKAAQPHZBM-UHFFFAOYSA-N

$$$$
Isox_3OMe
     RDKit          2D

 10 10  0  0  0  0  0  0  0  0999 V2000
   -4.0834    0.0049    0.0000 C   0  0  0  0  0  0  0  0  0  0  0  0
   -2.8508   -0.8499    0.0000 O   0  0  0  0  0  0  0  0  0  0  0  0
   -1.4942   -0.2099    0.0000 C   0  0  0  0  0  0  0  0  0  0  0  0
   -0.1790   -0.9312    0.0000 C   0  0  0  0  0  0  0  0  0  0  0  0
    0.9134    0.0968    0.0000 C   0  0  0  0  0  0  0  0  0  0  0  0
    0.2734    1.4534    0.0000 O   0  0  0  0  0  0  0  0  0  0  0  0
   -1.2146    1.2638    0.0000 N   0  0  0  0  0  0  0  0  0  0  0  0
    2.3871   -0.1828    0.0000 C   0  0  0  0  0  0  0  0  0  0  0  0
    3.3661    0.9537    0.0000 O   0  0  0  0  0  0  0  0  0  0  0  0
    2.8819   -1.5989    0.0000 O   0  0  0  0  0  0  0  0  0  0  0  0
  1  2  1  0
  2  3  1  0
  3  4  1  0
  4  5  2  0
  5  6  1  0
  6  7  1  0
  5  8  1  0
  8  9  2  0
  8 10  1  0
  7  3  2  0
M  END
>  <rName>  (2020) 
Isox_3OMe

>  <PQ_SYMBOL>  (2020) 
Isox_3OMe

>  <FULL_NAME>  (2020) 
3-methoxy-isoxazole-5-carboxylic acid

>  <IUPAC_CONDENSED>  (2020) 
Isox(3-OMe)

>  <IUPAC>  (2020) 
3-methoxyisoxazole-5-carboxylic acid

>  <TYPE>  (2020) 
N-term cap

>  <CLASS>  (2020) 
n_cap

>  <ANALOG>  (2020) 
X

>  <MOL_WT>  (2020) 
143.098

>  <LOGP>  (2020) 
0.38139999999999996

>  <TPSA>  (2020) 
72.56

>  <POPULARITY>  (2020) 
6.4

>  <PROTECTED>  (2020) 
TRUE

>  <SMILES>  (2020) 
COc1cc(on1)C(=O)O

>  <INCHIKEY>  (2020) 
WMMGHBYADJNEOC-UHFFFAOYSA-N

$$$$
Iva
     RDKit          2D

  8  7  0  0  0  0  0  0  0  0999 V2000
    1.3909    1.3248    0.0000 N   0  0  0  0  0  0  0  0  0  0  0  0
    0.1650    0.4604    0.0000 C   0  0  0  0  0  0  0  0  0  0  0  0
   -0.6994    1.6864    0.0000 C   0  0  0  0  0  0  0  0  0  0  0  0
    1.0293   -0.7655    0.0000 C   0  0  0  0  0  0  0  0  0  0  0  0
    2.5232   -0.6299    0.0000 C   0  0  0  0  0  0  0  0  0  0  0  0
   -1.0610   -0.4039    0.0000 C   0  0  0  0  0  0  0  0  0  0  0  0
   -2.4225    0.2256    0.0000 O   0  0  0  0  0  0  0  0  0  0  0  0
   -0.9254   -1.8978    0.0000 O   0  0  0  0  0  0  0  0  0  0  0  0
  1  2  1  0
  2  3  1  6
  2  4  1  0
  4  5  1  0
  2  6  1  0
  6  7  2  0
  6  8  1  0
M  END
>  <rName>  (2021) 
Iva

>  <PQ_SYMBOL>  (2021) 
Iva

>  <FULL_NAME>  (2021) 
Isovaline

>  <IUPAC_CONDENSED>  (2021) 
Iva

>  <IUPAC>  (2021) 
(2S)-2-amino-2-methylbutanoic acid

>  <TYPE>  (2021) 
Backbone

>  <CLASS>  (2021) 
alpha

>  <ANALOG>  (2021) 
Val

>  <MOL_WT>  (2021) 
117.14799999999998

>  <LOGP>  (2021) 
0.19839999999999985

>  <TPSA>  (2021) 
63.32000000000001

>  <POPULARITY>  (2021) 
30.6

>  <PROTECTED>  (2021) 
TRUE

>  <SMILES>  (2021) 
N[C@@](C)(CC)C(=O)O

>  <INCHIKEY>  (2021) 
GCHPUFAZSONQIV-YFKPBYRVSA-N

$$$$
Iva_prop2ynyl
     RDKit          2D

 11 10  0  0  0  0  0  0  0  0999 V2000
   -0.4322    1.7421    0.0000 N   0  0  0  0  0  0  0  0  0  0  0  0
   -1.3757    0.5760    0.0000 C   0  0  0  0  0  0  0  0  0  0  0  0
   -2.5419    1.5195    0.0000 C   0  0  0  0  0  0  0  0  0  0  0  0
   -0.2096   -0.3675    0.0000 C   0  0  0  0  0  0  0  0  0  0  0  0
    1.1905    0.1706    0.0000 C   0  0  0  0  0  0  0  0  0  0  0  0
    2.3566   -0.7729    0.0000 C   0  0  0  0  0  0  0  0  0  0  0  0
    3.7568   -0.2348    0.0000 C   0  0  0  0  0  0  0  0  0  0  0  0
    5.1569    0.3033    0.0000 C   0  0  0  0  0  0  0  0  0  0  0  0
   -2.3193   -0.5901    0.0000 C   0  0  0  0  0  0  0  0  0  0  0  0
   -3.8009   -0.3560    0.0000 O   0  0  0  0  0  0  0  0  0  0  0  0
   -1.7811   -1.9902    0.0000 O   0  0  0  0  0  0  0  0  0  0  0  0
  1  2  1  0
  2  3  1  6
  2  4  1  0
  4  5  1  0
  5  6  1  0
  6  7  1  0
  7  8  3  0
  2  9  1  0
  9 10  2  0
  9 11  1  0
M  END
>  <rName>  (2022) 
Iva_prop2ynyl

>  <PQ_SYMBOL>  (2022) 
Iva_prop2ynyl

>  <FULL_NAME>  (2022) 
(S)-2-amino-2-methylhept-6-ynoic acid

>  <IUPAC_CONDENSED>  (2022) 
Iva(prop-2-ynyl)

>  <IUPAC>  (2022) 
(2S)-2-amino-2-methylhept-6-ynoic acid

>  <TYPE>  (2022) 
Backbone

>  <CLASS>  (2022) 
alpha

>  <ANALOG>  (2022) 
Leu

>  <MOL_WT>  (2022) 
155.197

>  <LOGP>  (2022) 
0.5918999999999999

>  <TPSA>  (2022) 
63.32000000000001

>  <POPULARITY>  (2022) 
2.2

>  <PROTECTED>  (2022) 
TRUE

>  <SMILES>  (2022) 
N[C@@](C)(CCCC#C)C(=O)O

>  <INCHIKEY>  (2022) 
XDTDZXZZJXVVOL-QMMMGPOBSA-N

$$$$
K
     RDKit          2D

 10  9  0  0  0  0  0  0  0  0999 V2000
   -1.4166    1.8843    0.0000 N   0  0  0  0  0  0  0  0  0  0  0  0
   -1.4265    0.3844    0.0000 C   0  0  0  0  0  0  0  0  0  0  0  0
   -0.1324   -0.3741    0.0000 C   0  0  0  0  0  0  0  0  0  0  0  0
    1.1716    0.3673    0.0000 C   0  0  0  0  0  0  0  0  0  0  0  0
    2.4657   -0.3912    0.0000 C   0  0  0  0  0  0  0  0  0  0  0  0
    3.7696    0.3503    0.0000 C   0  0  0  0  0  0  0  0  0  0  0  0
    5.0637   -0.4082    0.0000 N   0  0  0  0  0  0  0  0  0  0  0  0
   -2.7304   -0.3571    0.0000 C   0  0  0  0  0  0  0  0  0  0  0  0
   -2.7402   -1.8571    0.0000 O   0  0  0  0  0  0  0  0  0  0  0  0
   -4.0245    0.4014    0.0000 O   0  0  0  0  0  0  0  0  0  0  0  0
  2  1  1  1
  2  3  1  0
  3  4  1  0
  4  5  1  0
  5  6  1  0
  6  7  1  0
  2  8  1  0
  8  9  2  0
  8 10  1  0
M  END
>  <rName>  (2023) 
K

>  <PQ_SYMBOL>  (2023) 
K

>  <FULL_NAME>  (2023) 
L-Lysine

>  <IUPAC_CONDENSED>  (2023) 
Lys

>  <IUPAC>  (2023) 
(2S)-2,6-diaminohexanoic acid

>  <TYPE>  (2023) 
Backbone

>  <CLASS>  (2023) 
alpha

>  <ANALOG>  (2023) 
Lys

>  <MOL_WT>  (2023) 
146.19000000000003

>  <LOGP>  (2023) 
-0.4727000000000004

>  <TPSA>  (2023) 
89.34

>  <POPULARITY>  (2023) 
96.9

>  <PROTECTED>  (2023) 
TRUE

>  <SMILES>  (2023) 
N[C@@H](CCCCN)C(=O)O

>  <INCHIKEY>  (2023) 
KDXKERNSBIXSRK-YFKPBYRVSA-N

$$$$
L
     RDKit          2D

  9  8  0  0  0  0  0  0  0  0999 V2000
    0.2826   -1.7410    0.0000 N   0  0  0  0  0  0  0  0  0  0  0  0
    0.5402   -0.2633    0.0000 C   0  0  0  0  0  0  0  0  0  0  0  0
   -0.6108    0.6986    0.0000 C   0  0  0  0  0  0  0  0  0  0  0  0
   -2.0193    0.1828    0.0000 C   0  0  0  0  0  0  0  0  0  0  0  0
   -3.1703    1.1447    0.0000 C   0  0  0  0  0  0  0  0  0  0  0  0
   -2.2769   -1.2950    0.0000 C   0  0  0  0  0  0  0  0  0  0  0  0
    1.9487    0.2525    0.0000 C   0  0  0  0  0  0  0  0  0  0  0  0
    2.2062    1.7302    0.0000 O   0  0  0  0  0  0  0  0  0  0  0  0
    3.0997   -0.7094    0.0000 O   0  0  0  0  0  0  0  0  0  0  0  0
  2  1  1  1
  2  3  1  0
  3  4  1  0
  4  5  1  0
  4  6  1  0
  2  7  1  0
  7  8  2  0
  7  9  1  0
M  END
>  <rName>  (2024) 
L

>  <PQ_SYMBOL>  (2024) 
L

>  <FULL_NAME>  (2024) 
L-Leucine

>  <IUPAC_CONDENSED>  (2024) 
Leu

>  <IUPAC>  (2024) 
(2S)-2-amino-4-methylpentanoic acid

>  <TYPE>  (2024) 
Backbone

>  <CLASS>  (2024) 
alpha

>  <ANALOG>  (2024) 
Leu

>  <MOL_WT>  (2024) 
131.175

>  <LOGP>  (2024) 
0.44439999999999985

>  <TPSA>  (2024) 
63.32000000000001

>  <POPULARITY>  (2024) 
98.5

>  <PROTECTED>  (2024) 
TRUE

>  <SMILES>  (2024) 
N[C@@H](CC(C)C)C(=O)O

>  <INCHIKEY>  (2024) 
ROHFNLRQFUQHCH-YFKPBYRVSA-N

$$$$
Leu-Gly
     RDKit          2D

 13 12  0  0  0  0  0  0  0  0999 V2000
    1.3967   -0.1401    0.0000 N   0  0  0  0  0  0  0  0  0  0  0  0
    0.1111    0.6328    0.0000 C   0  0  0  0  0  0  0  0  0  0  0  0
    0.1376    2.1325    0.0000 O   0  0  0  0  0  0  0  0  0  0  0  0
   -1.2010   -0.0942    0.0000 C   0  0  0  0  0  0  0  0  0  0  0  0
   -1.2275   -1.5939    0.0000 N   0  0  0  0  0  0  0  0  0  0  0  0
   -2.4865    0.6786    0.0000 C   0  0  0  0  0  0  0  0  0  0  0  0
   -3.7986   -0.0483    0.0000 C   0  0  0  0  0  0  0  0  0  0  0  0
   -5.0842    0.7245    0.0000 C   0  0  0  0  0  0  0  0  0  0  0  0
   -3.8251   -1.5481    0.0000 C   0  0  0  0  0  0  0  0  0  0  0  0
    2.7088    0.5869    0.0000 C   0  0  0  0  0  0  0  0  0  0  0  0
    3.9944   -0.1860    0.0000 C   0  0  0  0  0  0  0  0  0  0  0  0
    3.9679   -1.6857    0.0000 O   0  0  0  0  0  0  0  0  0  0  0  0
    5.3065    0.5410    0.0000 O   0  0  0  0  0  0  0  0  0  0  0  0
  1  2  1  0
  2  3  2  0
  2  4  1  0
  4  5  1  1
  4  6  1  0
  6  7  1  0
  7  8  1  0
  7  9  1  0
  1 10  1  0
 10 11  1  0
 11 12  2  0
 11 13  1  0
M  END
>  <rName>  (2025) 
Leu-Gly

>  <PQ_SYMBOL>  (2025) 
Leu-Gly

>  <FULL_NAME>  (2025) 
Leu-Gly

>  <IUPAC_CONDENSED>  (2025) 
Leu-Gly

>  <IUPAC>  (2025) 
2-((1S)-1-amino-3-methylbutylcarbonylamino)acetic acid

>  <TYPE>  (2025) 
Backbone

>  <CLASS>  (2025) 
alpha

>  <ANALOG>  (2025) 
Gly

>  <MOL_WT>  (2025) 
188.22699999999998

>  <LOGP>  (2025) 
-0.43940000000000073

>  <TPSA>  (2025) 
92.42

>  <POPULARITY>  (2025) 
14.9

>  <PROTECTED>  (2025) 
TRUE

>  <SMILES>  (2025) 
N(C(=O)[C@@H](N)CC(C)C)CC(=O)O

>  <INCHIKEY>  (2025) 
LESXFEZIFXFIQR-LURJTMIESA-N

$$$$
Leu-NH2
     RDKit          2D

  9  8  0  0  0  0  0  0  0  0999 V2000
    0.2826   -1.7410    0.0000 N   0  0  0  0  0  0  0  0  0  0  0  0
    0.5402   -0.2633    0.0000 C   0  0  0  0  0  0  0  0  0  0  0  0
    1.9487    0.2525    0.0000 C   0  0  0  0  0  0  0  0  0  0  0  0
    2.2062    1.7302    0.0000 O   0  0  0  0  0  0  0  0  0  0  0  0
    3.0997   -0.7094    0.0000 N   0  0  0  0  0  0  0  0  0  0  0  0
   -0.6108    0.6986    0.0000 C   0  0  0  0  0  0  0  0  0  0  0  0
   -2.0193    0.1828    0.0000 C   0  0  0  0  0  0  0  0  0  0  0  0
   -3.1703    1.1447    0.0000 C   0  0  0  0  0  0  0  0  0  0  0  0
   -2.2769   -1.2950    0.0000 C   0  0  0  0  0  0  0  0  0  0  0  0
  2  1  1  1
  2  3  1  0
  3  4  2  0
  3  5  1  0
  2  6  1  0
  6  7  1  0
  7  8  1  0
  7  9  1  0
M  END
>  <rName>  (2026) 
Leu-NH2

>  <PQ_SYMBOL>  (2026) 
Leu-NH2

>  <FULL_NAME>  (2026) 
L-leucinamide

>  <IUPAC_CONDENSED>  (2026) 
Leu-NH2

>  <IUPAC>  (2026) 
(2S)-2-amino-4-methylpentanamide

>  <TYPE>  (2026) 
C-term cap

>  <CLASS>  (2026) 
c_cap

>  <ANALOG>  (2026) 
X

>  <MOL_WT>  (2026) 
130.19099999999997

>  <LOGP>  (2026) 
-0.15490000000000048

>  <TPSA>  (2026) 
69.11

>  <POPULARITY>  (2026) 
20.7

>  <PROTECTED>  (2026) 
FALSE

>  <SMILES>  (2026) 
N[C@H](C(=O)N)CC(C)C

>  <INCHIKEY>  (2026) 
FORGMRSGVSYZQR-YFKPBYRVSA-N

$$$$
Leu-OBn
     RDKit          2D

 16 16  0  0  0  0  0  0  0  0999 V2000
   -2.2343    1.5490    0.0000 N   0  0  0  0  0  0  0  0  0  0  0  0
   -2.3581    0.0541    0.0000 C   0  0  0  0  0  0  0  0  0  0  0  0
   -3.7146   -0.5861    0.0000 C   0  0  0  0  0  0  0  0  0  0  0  0
   -4.9473    0.2685    0.0000 C   0  0  0  0  0  0  0  0  0  0  0  0
   -6.3038   -0.3717    0.0000 C   0  0  0  0  0  0  0  0  0  0  0  0
   -4.8235    1.7634    0.0000 C   0  0  0  0  0  0  0  0  0  0  0  0
   -1.1254   -0.8005    0.0000 C   0  0  0  0  0  0  0  0  0  0  0  0
   -1.2491   -2.2954    0.0000 O   0  0  0  0  0  0  0  0  0  0  0  0
    0.2311   -0.1602    0.0000 O   0  0  0  0  0  0  0  0  0  0  0  0
    1.4639   -1.0149    0.0000 C   0  0  0  0  0  0  0  0  0  0  0  0
    2.8204   -0.3746    0.0000 C   0  0  0  0  0  0  0  0  0  0  0  0
    2.9441    1.1203    0.0000 C   0  0  0  0  0  0  0  0  0  0  0  0
    4.3006    1.7605    0.0000 C   0  0  0  0  0  0  0  0  0  0  0  0
    5.5333    0.9059    0.0000 C   0  0  0  0  0  0  0  0  0  0  0  0
    5.4096   -0.5890    0.0000 C   0  0  0  0  0  0  0  0  0  0  0  0
    4.0531   -1.2293    0.0000 C   0  0  0  0  0  0  0  0  0  0  0  0
  2  1  1  6
  2  3  1  0
  3  4  1  0
  4  5  1  0
  4  6  1  0
  2  7  1  0
  7  8  2  0
  7  9  1  0
  9 10  1  0
 10 11  1  0
 11 12  2  0
 12 13  1  0
 13 14  2  0
 14 15  1  0
 15 16  2  0
 16 11  1  0
M  END
>  <rName>  (2027) 
Leu-OBn

>  <PQ_SYMBOL>  (2027) 
Leu-OBn

>  <FULL_NAME>  (2027) 
L-Leucine benzyl ester

>  <IUPAC_CONDENSED>  (2027) 
Leu-OBn

>  <IUPAC>  (2027) 
benzyl (2S)-2-amino-4-methylpentanoate

>  <TYPE>  (2027) 
C-term cap

>  <CLASS>  (2027) 
c_cap

>  <ANALOG>  (2027) 
X

>  <MOL_WT>  (2027) 
221.3

>  <LOGP>  (2027) 
2.1031999999999997

>  <TPSA>  (2027) 
52.32000000000001

>  <POPULARITY>  (2027) 
10.8

>  <PROTECTED>  (2027) 
TRUE

>  <SMILES>  (2027) 
N[C@@H](CC(C)C)C(=O)OCc1ccccc1

>  <INCHIKEY>  (2027) 
MBRRYUQWSOODEO-LBPRGKRZSA-N

$$$$
Leu-OEt
     RDKit          2D

 11 10  0  0  0  0  0  0  0  0999 V2000
   -0.4981   -1.6682    0.0000 N   0  0  0  0  0  0  0  0  0  0  0  0
   -0.3704   -0.1736    0.0000 C   0  0  0  0  0  0  0  0  0  0  0  0
   -1.6009    0.6843    0.0000 C   0  0  0  0  0  0  0  0  0  0  0  0
   -2.9591    0.0476    0.0000 C   0  0  0  0  0  0  0  0  0  0  0  0
   -4.1895    0.9055    0.0000 C   0  0  0  0  0  0  0  0  0  0  0  0
   -3.0868   -1.4469    0.0000 C   0  0  0  0  0  0  0  0  0  0  0  0
    0.9878    0.4630    0.0000 C   0  0  0  0  0  0  0  0  0  0  0  0
    1.1155    1.9576    0.0000 O   0  0  0  0  0  0  0  0  0  0  0  0
    2.2182   -0.3949    0.0000 O   0  0  0  0  0  0  0  0  0  0  0  0
    3.5764    0.2418    0.0000 C   0  0  0  0  0  0  0  0  0  0  0  0
    4.8069   -0.6161    0.0000 C   0  0  0  0  0  0  0  0  0  0  0  0
  2  1  1  1
  2  3  1  0
  3  4  1  0
  4  5  1  0
  4  6  1  0
  2  7  1  0
  7  8  2  0
  7  9  1  0
  9 10  1  0
 10 11  1  0
M  END
>  <rName>  (2028) 
Leu-OEt

>  <PQ_SYMBOL>  (2028) 
Leu-OEt

>  <FULL_NAME>  (2028) 
ethyl (2S)-2-amino-4-methylpentanoate

>  <IUPAC_CONDENSED>  (2028) 
Leu-OEt

>  <IUPAC>  (2028) 
ethyl (2S)-2-amino-4-methylpentanoate

>  <TYPE>  (2028) 
C-term cap

>  <CLASS>  (2028) 
c_cap

>  <ANALOG>  (2028) 
X

>  <MOL_WT>  (2028) 
159.22899999999998

>  <LOGP>  (2028) 
0.9228999999999996

>  <TPSA>  (2028) 
52.32000000000001

>  <POPULARITY>  (2028) 
14.6

>  <PROTECTED>  (2028) 
TRUE

>  <SMILES>  (2028) 
N[C@@H](CC(C)C)C(=O)OCC

>  <INCHIKEY>  (2028) 
QIGLJVBIRIXQRN-ZETCQYMHSA-N

$$$$
Leu-OMe
     RDKit          2D

 10  9  0  0  0  0  0  0  0  0999 V2000
    0.1391    1.7243    0.0000 N   0  0  0  0  0  0  0  0  0  0  0  0
   -0.0935    0.2424    0.0000 C   0  0  0  0  0  0  0  0  0  0  0  0
   -1.4930   -0.2972    0.0000 C   0  0  0  0  0  0  0  0  0  0  0  0
   -1.7256   -1.7790    0.0000 O   0  0  0  0  0  0  0  0  0  0  0  0
   -2.6601    0.6451    0.0000 O   0  0  0  0  0  0  0  0  0  0  0  0
   -4.0597    0.1056    0.0000 C   0  0  0  0  0  0  0  0  0  0  0  0
    1.0736   -0.6999    0.0000 C   0  0  0  0  0  0  0  0  0  0  0  0
    2.4732   -0.1603    0.0000 C   0  0  0  0  0  0  0  0  0  0  0  0
    3.6403   -1.1026    0.0000 C   0  0  0  0  0  0  0  0  0  0  0  0
    2.7057    1.3216    0.0000 C   0  0  0  0  0  0  0  0  0  0  0  0
  2  1  1  1
  2  3  1  0
  3  4  2  0
  3  5  1  0
  5  6  1  0
  2  7  1  0
  7  8  1  0
  8  9  1  0
  8 10  1  0
M  END
>  <rName>  (2029) 
Leu-OMe

>  <PQ_SYMBOL>  (2029) 
Leu-OMe

>  <FULL_NAME>  (2029) 
L-Leucine methyl ester

>  <IUPAC_CONDENSED>  (2029) 
Leu-OMe

>  <IUPAC>  (2029) 
methyl (2S)-2-amino-4-methylpentanoate

>  <TYPE>  (2029) 
C-term cap

>  <CLASS>  (2029) 
c_cap

>  <ANALOG>  (2029) 
X

>  <MOL_WT>  (2029) 
145.20199999999997

>  <LOGP>  (2029) 
0.5327999999999997

>  <TPSA>  (2029) 
52.32000000000001

>  <POPULARITY>  (2029) 
32.0

>  <PROTECTED>  (2029) 
TRUE

>  <SMILES>  (2029) 
N[C@H](C(=O)OC)CC(C)C

>  <INCHIKEY>  (2029) 
QVDXUKJJGUSGLS-LURJTMIESA-N

$$$$
Leu-al
     RDKit          2D

  8  7  0  0  0  0  0  0  0  0999 V2000
    0.7931   -1.4169    0.0000 N   0  0  0  0  0  0  0  0  0  0  0  0
    0.8131    0.0829    0.0000 C   0  0  0  0  0  0  0  0  0  0  0  0
    2.1220    0.8156    0.0000 C   0  0  0  0  0  0  0  0  0  0  0  0
    3.4109    0.0483    0.0000 O   0  0  0  0  0  0  0  0  0  0  0  0
   -0.4759    0.8502    0.0000 C   0  0  0  0  0  0  0  0  0  0  0  0
   -1.7848    0.1175    0.0000 C   0  0  0  0  0  0  0  0  0  0  0  0
   -3.0737    0.8848    0.0000 C   0  0  0  0  0  0  0  0  0  0  0  0
   -1.8048   -1.3823    0.0000 C   0  0  0  0  0  0  0  0  0  0  0  0
  2  1  1  1
  2  3  1  0
  3  4  2  0
  2  5  1  0
  5  6  1  0
  6  7  1  0
  6  8  1  0
M  END
>  <rName>  (2030) 
Leu-al

>  <PQ_SYMBOL>  (2030) 
Leu-al

>  <FULL_NAME>  (2030) 
(2S)-2-amino-4-methylpentanal

>  <IUPAC_CONDENSED>  (2030) 
Leu-al

>  <IUPAC>  (2030) 
(2S)-2-amino-4-methylpentanal

>  <TYPE>  (2030) 
C-term cap

>  <CLASS>  (2030) 
c_cap

>  <ANALOG>  (2030) 
X

>  <MOL_WT>  (2030) 
115.17599999999999

>  <LOGP>  (2030) 
0.5586999999999998

>  <TPSA>  (2030) 
43.09

>  <POPULARITY>  (2030) 
26.7

>  <PROTECTED>  (2030) 
TRUE

>  <SMILES>  (2030) 
N[C@H](C=O)CC(C)C

>  <INCHIKEY>  (2030) 
ZOFRRNUENOHELM-LURJTMIESA-N

$$$$
Leu-ol
     RDKit          2D

  8  7  0  0  0  0  0  0  0  0999 V2000
    0.7931   -1.4169    0.0000 N   0  0  0  0  0  0  0  0  0  0  0  0
    0.8131    0.0829    0.0000 C   0  0  0  0  0  0  0  0  0  0  0  0
    2.1220    0.8156    0.0000 C   0  0  0  0  0  0  0  0  0  0  0  0
    3.4109    0.0483    0.0000 O   0  0  0  0  0  0  0  0  0  0  0  0
   -0.4759    0.8502    0.0000 C   0  0  0  0  0  0  0  0  0  0  0  0
   -1.7848    0.1175    0.0000 C   0  0  0  0  0  0  0  0  0  0  0  0
   -3.0737    0.8848    0.0000 C   0  0  0  0  0  0  0  0  0  0  0  0
   -1.8048   -1.3823    0.0000 C   0  0  0  0  0  0  0  0  0  0  0  0
  2  1  1  1
  2  3  1  0
  3  4  1  0
  2  5  1  0
  5  6  1  0
  6  7  1  0
  6  8  1  0
M  END
>  <rName>  (2031) 
Leu-ol

>  <PQ_SYMBOL>  (2031) 
Leu-ol

>  <FULL_NAME>  (2031) 
(2S)-2-amino-4-methylpentan-1-ol

>  <IUPAC_CONDENSED>  (2031) 
Leu-ol

>  <IUPAC>  (2031) 
(2S)-2-amino-4-methylpentan-1-ol

>  <TYPE>  (2031) 
C-term cap

>  <CLASS>  (2031) 
c_cap

>  <ANALOG>  (2031) 
X

>  <MOL_WT>  (2031) 
117.192

>  <LOGP>  (2031) 
0.35209999999999964

>  <TPSA>  (2031) 
46.25

>  <POPULARITY>  (2031) 
13.3

>  <PROTECTED>  (2031) 
FALSE

>  <SMILES>  (2031) 
N[C@H](CO)CC(C)C

>  <INCHIKEY>  (2031) 
VPSSPAXIFBTOHY-LURJTMIESA-N

$$$$
Leu_3ROH
     RDKit          2D

 10  9  0  0  0  0  0  0  0  0999 V2000
    0.3742   -1.9487    0.0000 N   0  0  0  0  0  0  0  0  0  0  0  0
    0.5891   -0.4642    0.0000 C   0  0  0  0  0  0  0  0  0  0  0  0
   -0.5891    0.4642    0.0000 C   0  0  0  0  0  0  0  0  0  0  0  0
   -0.3742    1.9487    0.0000 O   0  0  0  0  0  0  0  0  0  0  0  0
   -1.9822   -0.0920    0.0000 C   0  0  0  0  0  0  0  0  0  0  0  0
   -3.1604    0.8364    0.0000 C   0  0  0  0  0  0  0  0  0  0  0  0
   -2.1971   -1.5765    0.0000 C   0  0  0  0  0  0  0  0  0  0  0  0
    1.9822    0.0920    0.0000 C   0  0  0  0  0  0  0  0  0  0  0  0
    2.1971    1.5765    0.0000 O   0  0  0  0  0  0  0  0  0  0  0  0
    3.1604   -0.8364    0.0000 O   0  0  0  0  0  0  0  0  0  0  0  0
  2  1  1  1
  2  3  1  0
  3  4  1  1
  3  5  1  0
  5  6  1  0
  5  7  1  0
  2  8  1  0
  8  9  2  0
  8 10  1  0
M  END
>  <rName>  (2032) 
Leu_3ROH

>  <PQ_SYMBOL>  (2032) 
Leu_3ROH

>  <FULL_NAME>  (2032) 
(3R)-3-Hydroxy-L-Leucine

>  <IUPAC_CONDENSED>  (2032) 
Leu(3R-OH)

>  <IUPAC>  (2032) 
(2S,3R)-2-amino-3-hydroxy-4-methylpentanoic acid

>  <TYPE>  (2032) 
Backbone

>  <CLASS>  (2032) 
alpha

>  <ANALOG>  (2032) 
Thr

>  <MOL_WT>  (2032) 
147.174

>  <LOGP>  (2032) 
-0.5848000000000007

>  <TPSA>  (2032) 
83.55

>  <POPULARITY>  (2032) 
14.4

>  <PROTECTED>  (2032) 
TRUE

>  <SMILES>  (2032) 
N[C@@H]([C@H](O)C(C)C)C(=O)O

>  <INCHIKEY>  (2032) 
ZAYJDMWJYCTABM-CRCLSJGQSA-N

$$$$
Leu_45dehydro
     RDKit          2D

  9  8  0  0  0  0  0  0  0  0999 V2000
    0.2826   -1.7410    0.0000 N   0  0  0  0  0  0  0  0  0  0  0  0
    0.5402   -0.2633    0.0000 C   0  0  0  0  0  0  0  0  0  0  0  0
   -0.6108    0.6986    0.0000 C   0  0  0  0  0  0  0  0  0  0  0  0
   -2.0193    0.1828    0.0000 C   0  0  0  0  0  0  0  0  0  0  0  0
   -3.1703    1.1447    0.0000 C   0  0  0  0  0  0  0  0  0  0  0  0
   -2.2769   -1.2950    0.0000 C   0  0  0  0  0  0  0  0  0  0  0  0
    1.9487    0.2525    0.0000 C   0  0  0  0  0  0  0  0  0  0  0  0
    2.2062    1.7302    0.0000 O   0  0  0  0  0  0  0  0  0  0  0  0
    3.0997   -0.7094    0.0000 O   0  0  0  0  0  0  0  0  0  0  0  0
  2  1  1  1
  2  3  1  0
  3  4  1  0
  4  5  2  0
  4  6  1  0
  2  7  1  0
  7  8  2  0
  7  9  1  0
M  END
>  <rName>  (2033) 
Leu_45dehydro

>  <PQ_SYMBOL>  (2033) 
Leu_45dehydro

>  <FULL_NAME>  (2033) 
(2S)-2-amino-4-methylpent-4-enoic acid

>  <IUPAC_CONDENSED>  (2033) 
Leu(4,5-dehydro)

>  <IUPAC>  (2033) 
(2S)-2-amino-4-methylpent-4-enoic acid

>  <TYPE>  (2033) 
Backbone

>  <CLASS>  (2033) 
alpha

>  <ANALOG>  (2033) 
Leu

>  <MOL_WT>  (2033) 
129.159

>  <LOGP>  (2033) 
0.3645

>  <TPSA>  (2033) 
63.32000000000001

>  <POPULARITY>  (2033) 
16.9

>  <PROTECTED>  (2033) 
TRUE

>  <SMILES>  (2033) 
N[C@@H](CC(=C)C)C(=O)O

>  <INCHIKEY>  (2033) 
PABWDKROPVYJBH-YFKPBYRVSA-N

$$$$
Leu_4F
     RDKit          2D

 10  9  0  0  0  0  0  0  0  0999 V2000
   -0.5029   -1.7542    0.0000 N   0  0  0  0  0  0  0  0  0  0  0  0
   -0.7450   -0.2738    0.0000 C   0  0  0  0  0  0  0  0  0  0  0  0
    0.4160    0.6760    0.0000 C   0  0  0  0  0  0  0  0  0  0  0  0
    1.8190    0.1455    0.0000 C   0  0  0  0  0  0  0  0  0  0  0  0
    2.3495    1.5485    0.0000 C   0  0  0  0  0  0  0  0  0  0  0  0
    1.2885   -1.2576    0.0000 C   0  0  0  0  0  0  0  0  0  0  0  0
    3.2221   -0.3850    0.0000 F   0  0  0  0  0  0  0  0  0  0  0  0
   -2.1480    0.2567    0.0000 C   0  0  0  0  0  0  0  0  0  0  0  0
   -2.3901    1.7370    0.0000 O   0  0  0  0  0  0  0  0  0  0  0  0
   -3.3090   -0.6932    0.0000 O   0  0  0  0  0  0  0  0  0  0  0  0
  2  1  1  6
  2  3  1  0
  3  4  1  0
  4  5  1  0
  4  6  1  0
  4  7  1  0
  2  8  1  0
  8  9  2  0
  8 10  1  0
M  END
>  <rName>  (2034) 
Leu_4F

>  <PQ_SYMBOL>  (2034) 
Leu_4F

>  <FULL_NAME>  (2034) 
4-Fluoroleucine

>  <IUPAC_CONDENSED>  (2034) 
Leu(4-F)

>  <IUPAC>  (2034) 
(2S)-2-amino-4-fluoro-4-methylpentanoic acid

>  <TYPE>  (2034) 
Backbone

>  <CLASS>  (2034) 
alpha

>  <ANALOG>  (2034) 
X

>  <MOL_WT>  (2034) 
149.165

>  <LOGP>  (2034) 
0.5365

>  <TPSA>  (2034) 
63.32000000000001

>  <POPULARITY>  (2034) 
8.9

>  <PROTECTED>  (2034) 
TRUE

>  <SMILES>  (2034) 
N[C@@H](CC(C)(C)F)C(=O)O

>  <INCHIKEY>  (2034) 
UYFWXTAZASDCCA-BYPYZUCNSA-N

$$$$
Leu_53F
     RDKit          2D

 12 11  0  0  0  0  0  0  0  0999 V2000
   -0.5556   -1.4590    0.0000 N   0  0  0  0  0  0  0  0  0  0  0  0
   -1.1429   -0.0788    0.0000 C   0  0  0  0  0  0  0  0  0  0  0  0
   -0.2413    1.1199    0.0000 C   0  0  0  0  0  0  0  0  0  0  0  0
    1.2477    0.9385    0.0000 C   0  0  0  0  0  0  0  0  0  0  0  0
    2.1494    2.1372    0.0000 C   0  0  0  0  0  0  0  0  0  0  0  0
    1.8350   -0.4418    0.0000 C   0  0  0  0  0  0  0  0  0  0  0  0
    2.4224   -1.8220    0.0000 F   0  0  0  0  0  0  0  0  0  0  0  0
    0.4548   -1.0291    0.0000 F   0  0  0  0  0  0  0  0  0  0  0  0
    3.2153    0.1456    0.0000 F   0  0  0  0  0  0  0  0  0  0  0  0
   -2.6319    0.1027    0.0000 C   0  0  0  0  0  0  0  0  0  0  0  0
   -3.2192    1.4829    0.0000 O   0  0  0  0  0  0  0  0  0  0  0  0
   -3.5336   -1.0961    0.0000 O   0  0  0  0  0  0  0  0  0  0  0  0
  2  1  1  6
  2  3  1  0
  3  4  1  0
  4  5  1  0
  4  6  1  0
  6  7  1  0
  6  8  1  0
  6  9  1  0
  2 10  1  0
 10 11  2  0
 10 12  1  0
M  END
>  <rName>  (2035) 
Leu_53F

>  <PQ_SYMBOL>  (2035) 
Leu_53F

>  <FULL_NAME>  (2035) 
5,5,5-Trifluoro-L-Leucine

>  <IUPAC_CONDENSED>  (2035) 
Leu(5-3F)

>  <IUPAC>  (2035) 
(2S)-2-amino-4-(trifluoromethyl)pentanoic acid

>  <TYPE>  (2035) 
Backbone

>  <CLASS>  (2035) 
alpha

>  <ANALOG>  (2035) 
X

>  <MOL_WT>  (2035) 
185.145

>  <LOGP>  (2035) 
0.9867999999999999

>  <TPSA>  (2035) 
63.32000000000001

>  <POPULARITY>  (2035) 
7.9

>  <PROTECTED>  (2035) 
TRUE

>  <SMILES>  (2035) 
N[C@@H](CC(C)C(F)(F)F)C(=O)O

>  <INCHIKEY>  (2035) 
XFGVJLGVINCWDP-BKLSDQPFSA-N

$$$$
Leu_55_5_5_5_56F
     RDKit          2D

 15 14  0  0  0  0  0  0  0  0999 V2000
   -1.5712    1.5784    0.0000 N   0  0  0  0  0  0  0  0  0  0  0  0
   -1.7327    0.0871    0.0000 C   0  0  0  0  0  0  0  0  0  0  0  0
   -0.5220   -0.7984    0.0000 C   0  0  0  0  0  0  0  0  0  0  0  0
    0.8502   -0.1927    0.0000 C   0  0  0  0  0  0  0  0  0  0  0  0
    2.0609   -1.0782    0.0000 C   0  0  0  0  0  0  0  0  0  0  0  0
    3.2716   -1.9638    0.0000 F   0  0  0  0  0  0  0  0  0  0  0  0
    2.9465    0.1325    0.0000 F   0  0  0  0  0  0  0  0  0  0  0  0
    1.1754   -2.2889    0.0000 F   0  0  0  0  0  0  0  0  0  0  0  0
    1.0118    1.2986    0.0000 C   0  0  0  0  0  0  0  0  0  0  0  0
    1.1733    2.7899    0.0000 F   0  0  0  0  0  0  0  0  0  0  0  0
    2.5031    1.1370    0.0000 F   0  0  0  0  0  0  0  0  0  0  0  0
   -0.4795    1.4601    0.0000 F   0  0  0  0  0  0  0  0  0  0  0  0
   -3.1050   -0.5186    0.0000 C   0  0  0  0  0  0  0  0  0  0  0  0
   -3.2666   -2.0099    0.0000 O   0  0  0  0  0  0  0  0  0  0  0  0
   -4.3157    0.3670    0.0000 O   0  0  0  0  0  0  0  0  0  0  0  0
  2  1  1  1
  2  3  1  0
  3  4  1  0
  4  5  1  0
  5  6  1  0
  5  7  1  0
  5  8  1  0
  4  9  1  0
  9 10  1  0
  9 11  1  0
  9 12  1  0
  2 13  1  0
 13 14  2  0
 13 15  1  0
M  END
>  <rName>  (2036) 
Leu_55_5_5_5_56F

>  <PQ_SYMBOL>  (2036) 
Leu_55_5_5_5_56F

>  <FULL_NAME>  (2036) 
5,5,5,5',5',5'-Hexafluoro-L-leucine

>  <IUPAC_CONDENSED>  (2036) 
Leu(5,5,5,5`,5`,5`-6F)

>  <IUPAC>  (2036) 
(2S)-2-amino-5,5,5-trifluoro-4-(trifluoromethyl)pentanoic acid

>  <TYPE>  (2036) 
Backbone

>  <CLASS>  (2036) 
alpha

>  <ANALOG>  (2036) 
X

>  <MOL_WT>  (2036) 
239.11499999999998

>  <LOGP>  (2036) 
1.5292000000000001

>  <TPSA>  (2036) 
63.32000000000001

>  <POPULARITY>  (2036) 
18.2

>  <PROTECTED>  (2036) 
TRUE

>  <SMILES>  (2036) 
N[C@@H](CC(C(F)(F)F)C(F)(F)F)C(=O)O

>  <INCHIKEY>  (2036) 
MNZLMQYCEWHPPS-REOHCLBHSA-N

$$$$
Leu_vinyl
     RDKit          2D

 11 10  0  0  0  0  0  0  0  0999 V2000
   -0.5813   -1.6858    0.0000 N   0  0  0  0  0  0  0  0  0  0  0  0
   -1.0339   -0.2557    0.0000 C   0  0  0  0  0  0  0  0  0  0  0  0
   -0.0217    0.8513    0.0000 C   0  0  0  0  0  0  0  0  0  0  0  0
    1.4431    0.5282    0.0000 C   0  0  0  0  0  0  0  0  0  0  0  0
    1.7663    1.9930    0.0000 C   0  0  0  0  0  0  0  0  0  0  0  0
    1.1200   -0.9366    0.0000 C   0  0  0  0  0  0  0  0  0  0  0  0
    2.9079    0.2050    0.0000 C   0  0  0  0  0  0  0  0  0  0  0  0
    3.3605   -1.2251    0.0000 C   0  0  0  0  0  0  0  0  0  0  0  0
   -2.4987    0.0675    0.0000 C   0  0  0  0  0  0  0  0  0  0  0  0
   -2.9512    1.4976    0.0000 O   0  0  0  0  0  0  0  0  0  0  0  0
   -3.5109   -1.0395    0.0000 O   0  0  0  0  0  0  0  0  0  0  0  0
  2  1  1  6
  2  3  1  0
  3  4  1  0
  4  5  1  0
  4  6  1  0
  4  7  1  0
  7  8  2  0
  2  9  1  0
  9 10  2  0
  9 11  1  0
M  END
>  <rName>  (2037) 
Leu_vinyl

>  <PQ_SYMBOL>  (2037) 
Leu_vinyl

>  <FULL_NAME>  (2037) 
(2S)-2-amino-4,4-dimethylhex-5-enoic acid

>  <IUPAC_CONDENSED>  (2037) 
Leu(vinyl)

>  <IUPAC>  (2037) 
(2S)-2-amino-4,4-dimethylhex-5-enoic acid

>  <TYPE>  (2037) 
Backbone

>  <CLASS>  (2037) 
alpha

>  <ANALOG>  (2037) 
Leu

>  <MOL_WT>  (2037) 
157.213

>  <LOGP>  (2037) 
1.0006

>  <TPSA>  (2037) 
63.32000000000001

>  <POPULARITY>  (2037) 
6.1

>  <PROTECTED>  (2037) 
TRUE

>  <SMILES>  (2037) 
N[C@@H](CC(C)(C)C=C)C(=O)O

>  <INCHIKEY>  (2037) 
WJSLSVUUNNEBJI-LURJTMIESA-N

$$$$
Lys-OBn
     RDKit          2D

 17 17  0  0  0  0  0  0  0  0999 V2000
   -1.5241    1.6593    0.0000 N   0  0  0  0  0  0  0  0  0  0  0  0
   -1.6728    0.1667    0.0000 C   0  0  0  0  0  0  0  0  0  0  0  0
   -3.0398   -0.4507    0.0000 C   0  0  0  0  0  0  0  0  0  0  0  0
   -4.2581    0.4244    0.0000 C   0  0  0  0  0  0  0  0  0  0  0  0
   -5.6251   -0.1931    0.0000 C   0  0  0  0  0  0  0  0  0  0  0  0
   -6.8434    0.6821    0.0000 C   0  0  0  0  0  0  0  0  0  0  0  0
   -8.2104    0.0646    0.0000 N   0  0  0  0  0  0  0  0  0  0  0  0
   -0.4546   -0.7084    0.0000 C   0  0  0  0  0  0  0  0  0  0  0  0
   -0.6033   -2.2010    0.0000 O   0  0  0  0  0  0  0  0  0  0  0  0
    0.9124   -0.0909    0.0000 O   0  0  0  0  0  0  0  0  0  0  0  0
    2.1307   -0.9661    0.0000 C   0  0  0  0  0  0  0  0  0  0  0  0
    3.4977   -0.3486    0.0000 C   0  0  0  0  0  0  0  0  0  0  0  0
    3.6465    1.1440    0.0000 C   0  0  0  0  0  0  0  0  0  0  0  0
    5.0135    1.7615    0.0000 C   0  0  0  0  0  0  0  0  0  0  0  0
    6.2317    0.8863    0.0000 C   0  0  0  0  0  0  0  0  0  0  0  0
    6.0830   -0.6063    0.0000 C   0  0  0  0  0  0  0  0  0  0  0  0
    4.7160   -1.2237    0.0000 C   0  0  0  0  0  0  0  0  0  0  0  0
  2  1  1  6
  2  3  1  0
  3  4  1  0
  4  5  1  0
  5  6  1  0
  6  7  1  0
  2  8  1  0
  8  9  2  0
  8 10  1  0
 10 11  1  0
 11 12  1  0
 12 13  2  0
 13 14  1  0
 14 15  2  0
 15 16  1  0
 16 17  2  0
 17 12  1  0
M  END
>  <rName>  (2038) 
Lys-OBn

>  <PQ_SYMBOL>  (2038) 
Lys-OBn

>  <FULL_NAME>  (2038) 
Lysine benzyl ester

>  <IUPAC_CONDENSED>  (2038) 
Lys-OBn

>  <IUPAC>  (2038) 
benzyl (2S)-2,6-diaminohexanoate

>  <TYPE>  (2038) 
C-term cap

>  <CLASS>  (2038) 
c_cap

>  <ANALOG>  (2038) 
X

>  <MOL_WT>  (2038) 
236.31500000000003

>  <LOGP>  (2038) 
1.1860999999999995

>  <TPSA>  (2038) 
78.34

>  <POPULARITY>  (2038) 
7.5

>  <PROTECTED>  (2038) 
TRUE

>  <SMILES>  (2038) 
N[C@@H](CCCCN)C(=O)OCc1ccccc1

>  <INCHIKEY>  (2038) 
XXAYGJGDVLSEML-LBPRGKRZSA-N

$$$$
Lys-al
     RDKit          2D

  9  8  0  0  0  0  0  0  0  0999 V2000
    1.8501   -1.5346    0.0000 N   0  0  0  0  0  0  0  0  0  0  0  0
    1.7396   -0.0387    0.0000 C   0  0  0  0  0  0  0  0  0  0  0  0
    2.9799    0.8049    0.0000 C   0  0  0  0  0  0  0  0  0  0  0  0
    4.3306    0.1526    0.0000 O   0  0  0  0  0  0  0  0  0  0  0  0
    0.3889    0.6136    0.0000 C   0  0  0  0  0  0  0  0  0  0  0  0
   -0.8514   -0.2300    0.0000 C   0  0  0  0  0  0  0  0  0  0  0  0
   -2.2021    0.4223    0.0000 C   0  0  0  0  0  0  0  0  0  0  0  0
   -3.4424   -0.4213    0.0000 C   0  0  0  0  0  0  0  0  0  0  0  0
   -4.7932    0.2311    0.0000 N   0  0  0  0  0  0  0  0  0  0  0  0
  2  1  1  1
  2  3  1  0
  3  4  2  0
  2  5  1  0
  5  6  1  0
  6  7  1  0
  7  8  1  0
  8  9  1  0
M  END
>  <rName>  (2039) 
Lys-al

>  <PQ_SYMBOL>  (2039) 
Lys-al

>  <FULL_NAME>  (2039) 
(2S)-2,6-diaminohexanal

>  <IUPAC_CONDENSED>  (2039) 
Lys-al

>  <IUPAC>  (2039) 
(2S)-2,6-diaminohexanal

>  <TYPE>  (2039) 
C-term cap

>  <CLASS>  (2039) 
c_cap

>  <ANALOG>  (2039) 
X

>  <MOL_WT>  (2039) 
130.191

>  <LOGP>  (2039) 
-0.3584

>  <TPSA>  (2039) 
69.11

>  <POPULARITY>  (2039) 
21.7

>  <PROTECTED>  (2039) 
FALSE

>  <SMILES>  (2039) 
N[C@H](C=O)CCCCN

>  <INCHIKEY>  (2039) 
YUZOKOFJOOANSW-LURJTMIESA-N

$$$$
Lys-ol
     RDKit          2D

  9  8  0  0  0  0  0  0  0  0999 V2000
    4.7932   -0.2311    0.0000 N   0  0  0  0  0  0  0  0  0  0  0  0
    3.4424    0.4213    0.0000 C   0  0  0  0  0  0  0  0  0  0  0  0
    2.2021   -0.4223    0.0000 C   0  0  0  0  0  0  0  0  0  0  0  0
    0.8514    0.2300    0.0000 C   0  0  0  0  0  0  0  0  0  0  0  0
   -0.3889   -0.6136    0.0000 C   0  0  0  0  0  0  0  0  0  0  0  0
   -1.7396    0.0387    0.0000 C   0  0  0  0  0  0  0  0  0  0  0  0
   -1.8501    1.5346    0.0000 N   0  0  0  0  0  0  0  0  0  0  0  0
   -2.9799   -0.8049    0.0000 C   0  0  0  0  0  0  0  0  0  0  0  0
   -4.3306   -0.1526    0.0000 O   0  0  0  0  0  0  0  0  0  0  0  0
  1  2  1  0
  2  3  1  0
  3  4  1  0
  4  5  1  0
  5  6  1  0
  6  7  1  1
  6  8  1  0
  8  9  1  0
M  END
>  <rName>  (2040) 
Lys-ol

>  <PQ_SYMBOL>  (2040) 
Lys-ol

>  <FULL_NAME>  (2040) 
(2S)-2,6-diaminohexan-1-ol

>  <IUPAC_CONDENSED>  (2040) 
Lys-ol

>  <IUPAC>  (2040) 
(2S)-2,6-diaminohexan-1-ol

>  <TYPE>  (2040) 
C-term cap

>  <CLASS>  (2040) 
c_cap

>  <ANALOG>  (2040) 
X

>  <MOL_WT>  (2040) 
132.20700000000002

>  <LOGP>  (2040) 
-0.5649999999999997

>  <TPSA>  (2040) 
72.27

>  <POPULARITY>  (2040) 
10.9

>  <PROTECTED>  (2040) 
FALSE

>  <SMILES>  (2040) 
NCCCC[C@H](N)CO

>  <INCHIKEY>  (2040) 
LTGPFZWZZNUIIK-LURJTMIESA-N

$$$$
LysAc-AMC
     RDKit          2D

 25 26  0  0  0  0  0  0  0  0999 V2000
   -2.0262   -2.1853    0.0000 N   0  0  0  0  0  0  0  0  0  0  0  0
   -1.8570   -0.6949    0.0000 C   0  0  0  0  0  0  0  0  0  0  0  0
   -3.0631    0.1969    0.0000 C   0  0  0  0  0  0  0  0  0  0  0  0
   -4.4384   -0.4018    0.0000 C   0  0  0  0  0  0  0  0  0  0  0  0
   -5.6446    0.4900    0.0000 C   0  0  0  0  0  0  0  0  0  0  0  0
   -7.0199   -0.1086    0.0000 C   0  0  0  0  0  0  0  0  0  0  0  0
   -8.2260    0.7832    0.0000 N   0  0  0  0  0  0  0  0  0  0  0  0
   -9.6014    0.1846    0.0000 C   0  0  0  0  0  0  0  0  0  0  0  0
   -9.7707   -1.3059    0.0000 O   0  0  0  0  0  0  0  0  0  0  0  0
  -10.8075    1.0764    0.0000 C   0  0  0  0  0  0  0  0  0  0  0  0
   -0.4816   -0.0963    0.0000 C   0  0  0  0  0  0  0  0  0  0  0  0
   -0.3123    1.3941    0.0000 O   0  0  0  0  0  0  0  0  0  0  0  0
    0.7245   -0.9881    0.0000 N   0  0  0  0  0  0  0  0  0  0  0  0
    2.0999   -0.3894    0.0000 C   0  0  0  0  0  0  0  0  0  0  0  0
    2.2691    1.1010    0.0000 C   0  0  0  0  0  0  0  0  0  0  0  0
    3.6445    1.6996    0.0000 C   0  0  0  0  0  0  0  0  0  0  0  0
    4.8506    0.8078    0.0000 C   0  0  0  0  0  0  0  0  0  0  0  0
    6.2260    1.4065    0.0000 C   0  0  0  0  0  0  0  0  0  0  0  0
    6.3953    2.8969    0.0000 C   0  0  0  0  0  0  0  0  0  0  0  0
    7.4321    0.5147    0.0000 C   0  0  0  0  0  0  0  0  0  0  0  0
    7.2629   -0.9757    0.0000 C   0  0  0  0  0  0  0  0  0  0  0  0
    8.4690   -1.8675    0.0000 O   0  0  0  0  0  0  0  0  0  0  0  0
    5.8875   -1.5744    0.0000 O   0  0  0  0  0  0  0  0  0  0  0  0
    4.6814   -0.6826    0.0000 C   0  0  0  0  0  0  0  0  0  0  0  0
    3.3060   -1.2812    0.0000 C   0  0  0  0  0  0  0  0  0  0  0  0
  2  1  1  1
  2  3  1  0
  3  4  1  0
  4  5  1  0
  5  6  1  0
  6  7  1  0
  7  8  1  0
  8  9  2  0
  8 10  1  0
  2 11  1  0
 11 12  2  0
 11 13  1  0
 13 14  1  0
 14 15  1  0
 15 16  2  0
 16 17  1  0
 17 18  1  0
 18 19  1  0
 18 20  2  0
 20 21  1  0
 21 22  2  0
 21 23  1  0
 23 24  1  0
 24 25  1  0
 24 17  2  0
 25 14  2  0
M  END
>  <rName>  (2041) 
LysAc-AMC

>  <PQ_SYMBOL>  (2041) 
LysAc-AMC

>  <FULL_NAME>  (2041) 
N~6~-acetyl-N-(4-methyl-2-oxo-2H-chromen-7-yl)-L-lysinamide

>  <IUPAC_CONDENSED>  (2041) 
Lys(Ac)-AMC

>  <IUPAC>  (2041) 
(2S)-2-amino-N-(5-methyl-3-oxo-2-oxabicyclo[4.4.0]deca-1(10),4,6,8-tetraen-9-yl)-6-methylcarbonylaminohexanamide

>  <TYPE>  (2041) 
C-term cap

>  <CLASS>  (2041) 
c_cap

>  <ANALOG>  (2041) 
X

>  <MOL_WT>  (2041) 
345.3990000000001

>  <LOGP>  (2041) 
1.6736199999999992

>  <TPSA>  (2041) 
114.42999999999999

>  <POPULARITY>  (2041) 
11.5

>  <PROTECTED>  (2041) 
FALSE

>  <SMILES>  (2041) 
N[C@@H](CCCCNC(=O)C)C(=O)Nc2ccc1c(C)cc(=O)oc1c2

>  <INCHIKEY>  (2041) 
CDFJPCDMYIJWOC-HNNXBMFYSA-N

$$$$
LysPOOHOC10N5O3-al
     RDKit          2D

 31 33  0  0  0  0  0  0  0  0999 V2000
  -10.3621   -0.9255    0.0000 N   0  0  0  0  0  0  0  0  0  0  0  0
   -9.9169    0.5069    0.0000 C   0  0  0  0  0  0  0  0  0  0  0  0
  -10.9348    1.6086    0.0000 C   0  0  0  0  0  0  0  0  0  0  0  0
  -12.3979    1.2780    0.0000 O   0  0  0  0  0  0  0  0  0  0  0  0
   -8.4538    0.8375    0.0000 C   0  0  0  0  0  0  0  0  0  0  0  0
   -7.4359   -0.2642    0.0000 C   0  0  0  0  0  0  0  0  0  0  0  0
   -5.9728    0.0665    0.0000 C   0  0  0  0  0  0  0  0  0  0  0  0
   -4.9548   -1.0353    0.0000 C   0  0  0  0  0  0  0  0  0  0  0  0
   -3.4917   -0.7046    0.0000 N   0  0  0  0  0  0  0  0  0  0  0  0
   -2.4738   -1.8064    0.0000 P   0  0  0  0  0  5  0  0  0  0  0  0
   -1.4559   -2.9081    0.0000 O   0  0  0  0  0  0  0  0  0  0  0  0
   -3.5756   -2.8243    0.0000 O   0  0  0  0  0  0  0  0  0  0  0  0
   -1.3721   -0.7884    0.0000 O   0  0  0  0  0  0  0  0  0  0  0  0
    0.0603   -1.2336    0.0000 C   0  0  0  0  0  0  0  0  0  0  0  0
    1.1621   -0.2157    0.0000 C   0  0  0  0  0  0  0  0  0  0  0  0
    2.6332   -0.5087    0.0000 O   0  0  0  0  0  0  0  0  0  0  0  0
    3.3665    0.7998    0.0000 C   0  0  0  0  0  0  0  0  0  0  0  0
    2.3485    1.9016    0.0000 C   0  0  0  0  0  0  0  0  0  0  0  0
    2.6416    3.3727    0.0000 O   0  0  0  0  0  0  0  0  0  0  0  0
    0.9862    1.2739    0.0000 C   0  0  0  0  0  0  0  0  0  0  0  0
   -0.3224    2.0072    0.0000 O   0  0  0  0  0  0  0  0  0  0  0  0
    4.8561    0.9757    0.0000 N   0  0  0  0  0  0  0  0  0  0  0  0
    5.8740   -0.1260    0.0000 C   0  0  0  0  0  0  0  0  0  0  0  0
    5.7364   -1.6197    0.0000 N   0  0  0  0  0  0  0  0  0  0  0  0
    6.9611   -2.4857    0.0000 C   0  0  0  0  0  0  0  0  0  0  0  0
    8.3235   -1.8581    0.0000 N   0  0  0  0  0  0  0  0  0  0  0  0
    8.4611   -0.3644    0.0000 C   0  0  0  0  0  0  0  0  0  0  0  0
    9.8235    0.2632    0.0000 N   0  0  0  0  0  0  0  0  0  0  0  0
    7.2364    0.5016    0.0000 C   0  0  0  0  0  0  0  0  0  0  0  0
    7.0605    1.9913    0.0000 N   0  0  0  0  0  0  0  0  0  0  0  0
    5.5894    2.2843    0.0000 C   0  0  0  0  0  0  0  0  0  0  0  0
  2  1  1  6
  2  3  1  0
  3  4  2  0
  2  5  1  0
  5  6  1  0
  6  7  1  0
  7  8  1  0
  8  9  1  0
  9 10  1  0
 10 11  2  0
 10 12  1  1
 10 13  1  0
 13 14  1  0
 15 14  1  6
 15 16  1  0
 16 17  1  0
 17 18  1  0
 18 19  1  1
 18 20  1  0
 20 21  1  1
 17 22  1  6
 22 23  1  0
 23 24  2  0
 24 25  1  0
 25 26  2  0
 26 27  1  0
 27 28  1  0
 27 29  2  0
 29 30  1  0
 30 31  2  0
 29 23  1  0
 31 22  1  0
 20 15  1  0
M  END
>  <rName>  (2042) 
LysPOOHOC10N5O3-al

>  <PQ_SYMBOL>  (2042) 
LysPOOHOC10N5O3-al

>  <FULL_NAME>  (2042) 
5'-O-[(S)-{[(5S)-5-AMINO-6-OXOHEXYL]AMINO}(HYDROXY)PHOSPHORYL]ADENOSINE

>  <IUPAC_CONDENSED>  (2042) 
Lys(PO(OH,OC10N5O3))-al

>  <IUPAC>  (2042) 
N-[(5S)-5-amino-6-oxo-hexyl]-[[(2R,3S,4R,5R)-5-(6-aminopurin-9-yl)-3,4-dihydroxy-oxolan-2-yl]methoxy]phosphonamidic acid

>  <TYPE>  (2042) 
C-term cap

>  <CLASS>  (2042) 
c_cap

>  <ANALOG>  (2042) 
X

>  <MOL_WT>  (2042) 
459.40000000000015

>  <LOGP>  (2042) 
-1.569199999999997

>  <TPSA>  (2042) 
220.96000000000004

>  <POPULARITY>  (2042) 
9.0

>  <PROTECTED>  (2042) 
FALSE

>  <SMILES>  (2042) 
N[C@H](C=O)CCCCN[P@](=O)(O)OC[C@H]3O[C@H]([C@H](O)[C@@H]3O)n2c1ncnc(N)c1nc2

>  <INCHIKEY>  (2042) 
JVYVZNSNEJRNON-UOYPZJKHSA-N

$$$$
Lys_3SOH_Amidino
     RDKit          2D

 15 14  0  0  0  0  0  0  0  0999 V2000
   -3.2785    2.0203    0.0000 N   0  0  0  0  0  0  0  0  0  0  0  0
   -3.2877    0.5203    0.0000 C   0  0  0  0  0  0  0  0  0  0  0  0
   -1.9934   -0.2377    0.0000 C   0  0  0  0  0  0  0  0  0  0  0  0
   -2.0026   -1.7377    0.0000 O   0  0  0  0  0  0  0  0  0  0  0  0
   -0.6897    0.5043    0.0000 C   0  0  0  0  0  0  0  0  0  0  0  0
    0.6047   -0.2537    0.0000 C   0  0  0  0  0  0  0  0  0  0  0  0
    1.9083    0.4882    0.0000 C   0  0  0  0  0  0  0  0  0  0  0  0
    3.2027   -0.2698    0.0000 N   0  0  0  0  0  0  0  0  0  0  0  0
    4.5063    0.4722    0.0000 C   0  0  0  0  0  0  0  0  0  0  0  0
    4.5156    1.9721    0.0000 N   0  0  0  0  0  0  0  0  0  0  0  0
    5.8007   -0.2858    0.0000 N   0  0  0  0  0  0  0  0  0  0  0  0
    5.7915   -1.7858    0.0000 H   0  0  0  0  0  0  0  0  0  0  0  0
   -4.5914   -0.2216    0.0000 C   0  0  0  0  0  0  0  0  0  0  0  0
   -4.6007   -1.7216    0.0000 O   0  0  0  0  0  0  0  0  0  0  0  0
   -5.8858    0.5364    0.0000 O   0  0  0  0  0  0  0  0  0  0  0  0
  2  1  1  1
  2  3  1  0
  3  4  1  6
  3  5  1  0
  5  6  1  0
  6  7  1  0
  7  8  1  0
  8  9  1  0
  9 10  1  0
  9 11  2  0
 11 12  1  0
  2 13  1  0
 13 14  2  0
 13 15  1  0
M  END
>  <rName>  (2043) 
Lys_3SOH_Amidino

>  <PQ_SYMBOL>  (2043) 
Lys_3SOH_Amidino

>  <FULL_NAME>  (2043) 
(3S)-N~6~-carbamimidoyl-3-hydroxy-L-lysine

>  <IUPAC_CONDENSED>  (2043) 
Lys(3S-OH,Amidino)

>  <IUPAC>  (2043) 
(2S,3S)-2-amino-6-(((1Z)-(amino)(imino)methyl)amino)-3-hydroxyhexanoic acid

>  <TYPE>  (2043) 
N-term cap

>  <CLASS>  (2043) 
n_cap

>  <ANALOG>  (2043) 
X

>  <MOL_WT>  (2043) 
204.23000000000002

>  <LOGP>  (2043) 
-1.9775299999999998

>  <TPSA>  (2043) 
145.45

>  <POPULARITY>  (2043) 
3.1

>  <PROTECTED>  (2043) 
FALSE

>  <SMILES>  (2043) 
N[C@@H]([C@@H](O)CCCN/C(/N)=N\[H])C(=O)O

>  <INCHIKEY>  (2043) 
ZMNNJGSTNCXCMN-WHFBIAKZSA-N

$$$$
Lys_3mercaptopropanoyl
     RDKit          2D

 15 14  0  0  0  0  0  0  0  0999 V2000
   -4.0303    1.8403    0.0000 N   0  0  0  0  0  0  0  0  0  0  0  0
   -4.0637    0.3406    0.0000 C   0  0  0  0  0  0  0  0  0  0  0  0
   -2.7817   -0.4381    0.0000 C   0  0  0  0  0  0  0  0  0  0  0  0
   -1.4663    0.2827    0.0000 C   0  0  0  0  0  0  0  0  0  0  0  0
   -0.1843   -0.4960    0.0000 C   0  0  0  0  0  0  0  0  0  0  0  0
    1.1311    0.2249    0.0000 C   0  0  0  0  0  0  0  0  0  0  0  0
    2.4131   -0.5539    0.0000 N   0  0  0  0  0  0  0  0  0  0  0  0
    3.7286    0.1670    0.0000 C   0  0  0  0  0  0  0  0  0  0  0  0
    3.7620    1.6666    0.0000 O   0  0  0  0  0  0  0  0  0  0  0  0
    5.0106   -0.6118    0.0000 C   0  0  0  0  0  0  0  0  0  0  0  0
    6.3260    0.1091    0.0000 C   0  0  0  0  0  0  0  0  0  0  0  0
    7.6080   -0.6697    0.0000 S   0  0  0  0  0  0  0  0  0  0  0  0
   -5.3792   -0.3802    0.0000 C   0  0  0  0  0  0  0  0  0  0  0  0
   -5.4126   -1.8799    0.0000 O   0  0  0  0  0  0  0  0  0  0  0  0
   -6.6612    0.3985    0.0000 O   0  0  0  0  0  0  0  0  0  0  0  0
  2  1  1  1
  2  3  1  0
  3  4  1  0
  4  5  1  0
  5  6  1  0
  6  7  1  0
  7  8  1  0
  8  9  2  0
  8 10  1  0
 10 11  1  0
 11 12  1  0
  2 13  1  0
 13 14  2  0
 13 15  1  0
M  END
>  <rName>  (2044) 
Lys_3mercaptopropanoyl

>  <PQ_SYMBOL>  (2044) 
Lys_3mercaptopropanoyl

>  <FULL_NAME>  (2044) 
(S)-2-amino-6-(3-mercaptopropanamido)hexanoic acid

>  <IUPAC_CONDENSED>  (2044) 
Lys(3-mercaptopropanoyl)

>  <IUPAC>  (2044) 
(2S)-2-amino-6-(3-sulfanylpropanoylamino)hexanoic acid

>  <TYPE>  (2044) 
Backbone

>  <CLASS>  (2044) 
alpha

>  <ANALOG>  (2044) 
Lys

>  <MOL_WT>  (2044) 
234.321

>  <LOGP>  (2044) 
0.004699999999999482

>  <TPSA>  (2044) 
92.42

>  <POPULARITY>  (2044) 
2.2

>  <PROTECTED>  (2044) 
TRUE

>  <SMILES>  (2044) 
N[C@@H](CCCCNC(=O)CCS)C(=O)O

>  <INCHIKEY>  (2044) 
WKUWMTCQMRMYKU-ZETCQYMHSA-N

$$$$
Lys_4nitrobenzoxadiazol7yl
     RDKit          2D

 22 23  0  0  0  0  0  0  0  0999 V2000
    6.0517   -2.0189    0.0000 N   0  0  0  0  0  0  0  0  0  0  0  0
    6.2075   -0.5270    0.0000 C   0  0  0  0  0  0  0  0  0  0  0  0
    4.9934    0.3538    0.0000 C   0  0  0  0  0  0  0  0  0  0  0  0
    3.6235   -0.2571    0.0000 C   0  0  0  0  0  0  0  0  0  0  0  0
    2.4094    0.6238    0.0000 C   0  0  0  0  0  0  0  0  0  0  0  0
    1.0395    0.0128    0.0000 C   0  0  0  0  0  0  0  0  0  0  0  0
   -0.1746    0.8937    0.0000 N   0  0  0  0  0  0  0  0  0  0  0  0
   -1.5445    0.2827    0.0000 C   0  0  0  0  0  0  0  0  0  0  0  0
   -1.7004   -1.2092    0.0000 C   0  0  0  0  0  0  0  0  0  0  0  0
   -3.0703   -1.8202    0.0000 C   0  0  0  0  0  0  0  0  0  0  0  0
   -4.2844   -0.9393    0.0000 C   0  0  0  0  0  0  0  0  0  0  0  0
   -4.1285    0.5526    0.0000 C   0  0  0  0  0  0  0  0  0  0  0  0
   -5.1330    1.6666    0.0000 N   0  0  0  0  0  0  0  0  0  0  0  0
   -4.3838    2.9662    0.0000 O   0  0  0  0  0  0  0  0  0  0  0  0
   -2.9164    2.6552    0.0000 N   0  0  0  0  0  0  0  0  0  0  0  0
   -2.7586    1.1636    0.0000 C   0  0  0  0  0  0  0  0  0  0  0  0
   -5.6543   -1.5503    0.0000 N   0  0  0  0  0  0  0  0  0  0  0  0
   -6.8684   -0.6694    0.0000 O   0  0  0  0  0  0  0  0  0  0  0  0
   -5.8101   -3.0422    0.0000 O   0  0  0  0  0  0  0  0  0  0  0  0
    7.5774    0.0839    0.0000 C   0  0  0  0  0  0  0  0  0  0  0  0
    7.7333    1.5758    0.0000 O   0  0  0  0  0  0  0  0  0  0  0  0
    8.7915   -0.7970    0.0000 O   0  0  0  0  0  0  0  0  0  0  0  0
  2  1  1  1
  2  3  1  0
  3  4  1  0
  4  5  1  0
  5  6  1  0
  6  7  1  0
  7  8  1  0
  8  9  2  0
  9 10  1  0
 10 11  2  0
 11 12  1  0
 12 13  2  0
 13 14  1  0
 14 15  1  0
 15 16  2  0
 11 17  1  0
 17 18  2  0
 17 19  1  0
  2 20  1  0
 20 21  2  0
 20 22  1  0
 16  8  1  0
 16 12  1  0
M  CHG  2  17   1  19  -1
M  END
>  <rName>  (2045) 
Lys_4nitrobenzoxadiazol7yl

>  <PQ_SYMBOL>  (2045) 
Lys_4nitrobenzoxadiazol7yl

>  <FULL_NAME>  (2045) 
(2S)-2-amino-6-[(4-nitro-2,1,3-benzoxadiazol-7-yl)amino]hexanoic acid

>  <IUPAC_CONDENSED>  (2045) 
Lys(4-nitrobenzoxadiazol-7-yl)

>  <IUPAC>  (2045) 
(2S)-2-amino-6-[(4-nitro-2,1,3-benzoxadiazol-7-yl)amino]hexanoic acid

>  <TYPE>  (2045) 
Backbone

>  <CLASS>  (2045) 
alpha

>  <ANALOG>  (2045) 
Lys

>  <MOL_WT>  (2045) 
309.28200000000004

>  <LOGP>  (2045) 
1.1250999999999995

>  <TPSA>  (2045) 
157.41

>  <POPULARITY>  (2045) 
2.2

>  <PROTECTED>  (2045) 
TRUE

>  <SMILES>  (2045) 
N[C@@H](CCCCNc1(ccc(c2(nonc12))[N+](=O)[O-]))C(=O)O

>  <INCHIKEY>  (2045) 
YPLKYNLHNNYVMI-ZETCQYMHSA-N

$$$$
Lys_5FAM
     RDKit          2D

 37 41  0  0  0  0  0  0  0  0999 V2000
   10.0862   -1.5717    0.0000 N   0  0  0  0  0  0  0  0  0  0  0  0
    9.7675   -0.1060    0.0000 C   0  0  0  0  0  0  0  0  0  0  0  0
    8.3388    0.3509    0.0000 C   0  0  0  0  0  0  0  0  0  0  0  0
    7.2288   -0.6580    0.0000 C   0  0  0  0  0  0  0  0  0  0  0  0
    5.8000   -0.2011    0.0000 C   0  0  0  0  0  0  0  0  0  0  0  0
    4.6900   -1.2100    0.0000 C   0  0  0  0  0  0  0  0  0  0  0  0
    3.2613   -0.7531    0.0000 N   0  0  0  0  0  0  0  0  0  0  0  0
    2.1513   -1.7620    0.0000 C   0  0  0  0  0  0  0  0  0  0  0  0
    2.4700   -3.2277    0.0000 O   0  0  0  0  0  0  0  0  0  0  0  0
    0.7225   -1.3051    0.0000 C   0  0  0  0  0  0  0  0  0  0  0  0
    0.4038    0.1606    0.0000 C   0  0  0  0  0  0  0  0  0  0  0  0
   -1.0249    0.6175    0.0000 C   0  0  0  0  0  0  0  0  0  0  0  0
   -2.1349   -0.3914    0.0000 C   0  0  0  0  0  0  0  0  0  0  0  0
   -1.8162   -1.8571    0.0000 C   0  0  0  0  0  0  0  0  0  0  0  0
   -0.3875   -2.3140    0.0000 C   0  0  0  0  0  0  0  0  0  0  0  0
   -3.1118   -2.6132    0.0000 C   0  0  0  0  0  0  0  0  0  0  0  0
   -3.2616   -4.1057    0.0000 O   0  0  0  0  0  0  0  0  0  0  0  0
   -4.2311   -1.6147    0.0000 O   0  0  0  0  0  0  0  0  0  0  0  0
   -3.6274   -0.2415    0.0000 C   0  0  0  0  0  0  0  0  0  0  0  0
   -2.8835    1.0610    0.0000 C   0  0  0  0  0  0  0  0  0  0  0  0
   -1.7363    1.6726    0.0000 C   0  0  0  0  0  0  0  0  0  0  0  0
   -1.3396    2.3672    0.0000 C   0  0  0  0  0  0  0  0  0  0  0  0
   -1.7428    3.0582    0.0000 C   0  0  0  0  0  0  0  0  0  0  0  0
   -0.6517    4.9685    0.0000 O   0  0  0  0  0  0  0  0  0  0  0  0
   -2.5428    3.0545    0.0000 C   0  0  0  0  0  0  0  0  0  0  0  0
   -3.6395    2.3565    0.0000 C   0  0  0  0  0  0  0  0  0  0  0  0
   -5.1395    2.3495    0.0000 O   0  0  0  0  0  0  0  0  0  0  0  0
   -5.8835    1.0470    0.0000 C   0  0  0  0  0  0  0  0  0  0  0  0
   -7.3834    1.0400    0.0000 C   0  0  0  0  0  0  0  0  0  0  0  0
   -8.1274   -0.2625    0.0000 C   0  0  0  0  0  0  0  0  0  0  0  0
   -9.6274   -0.2695    0.0000 O   0  0  0  0  0  0  0  0  0  0  0  0
   -7.3713   -1.5580    0.0000 C   0  0  0  0  0  0  0  0  0  0  0  0
   -5.8714   -1.5510    0.0000 C   0  0  0  0  0  0  0  0  0  0  0  0
   -5.1274   -0.2485    0.0000 C   0  0  0  0  0  0  0  0  0  0  0  0
   10.8776    0.9029    0.0000 C   0  0  0  0  0  0  0  0  0  0  0  0
   10.5589    2.3687    0.0000 O   0  0  0  0  0  0  0  0  0  0  0  0
   12.3063    0.4460    0.0000 O   0  0  0  0  0  0  0  0  0  0  0  0
  2  1  1  1
  2  3  1  0
  3  4  1  0
  4  5  1  0
  5  6  1  0
  6  7  1  0
  7  8  1  0
  8  9  2  0
  8 10  1  0
 10 11  1  0
 11 12  2  0
 12 13  1  0
 13 14  2  0
 14 15  1  0
 14 16  1  0
 16 17  2  0
 16 18  1  0
 18 19  1  0
 19 20  1  0
 20 21  1  0
 21 22  2  0
 22 23  1  0
 23 24  1  0
 23 25  2  0
 25 26  1  0
 26 27  1  0
 27 28  1  0
 28 29  1  0
 29 30  2  0
 30 31  1  0
 30 32  1  0
 32 33  2  0
 33 34  1  0
  2 35  1  0
 35 36  2  0
 35 37  1  0
 15 10  2  0
 34 19  1  0
 19 13  1  0
 26 20  2  0
 34 28  2  0
M  END
>  <rName>  (2046) 
Lys_5FAM

>  <PQ_SYMBOL>  (2046) 
Lys_5FAM

>  <FULL_NAME>  (2046) 
N6-(3',6'-dihydroxy-3-oxo-3H-spiro[isobenzofuran-1,9'-xanthene]-5-carbonyl)-L-lysine

>  <IUPAC_CONDENSED>  (2046) 
Lys(5-FAM)

>  <IUPAC>  (2046) 
N6-(3',6'-dihydroxy-3-oxo-3H-spiro[isobenzofuran-1,9'-xanthene]-5-carbonyl)-L-lysine

>  <TYPE>  (2046) 
Backbone

>  <CLASS>  (2046) 
alpha

>  <ANALOG>  (2046) 
Lys

>  <MOL_WT>  (2046) 
504.4950000000003

>  <LOGP>  (2046) 
2.9778000000000002

>  <TPSA>  (2046) 
168.41

>  <POPULARITY>  (2046) 
4.6

>  <PROTECTED>  (2046) 
TRUE

>  <SMILES>  (2046) 
N[C@@H](CCCCNC(=O)c1ccc2c(c1)C(=O)OC21c2ccc(O)cc2Oc2cc(O)ccc21)C(=O)O

>  <INCHIKEY>  (2046) 
SAPWMFFOBXCMBM-NRFANRHFSA-N

$$$$
Lys_AEEA
     RDKit          2D

 20 19  0  0  0  0  0  0  0  0999 V2000
   -6.9403    1.7999    0.0000 N   0  0  0  0  0  0  0  0  0  0  0  0
   -6.9483    0.2999    0.0000 C   0  0  0  0  0  0  0  0  0  0  0  0
   -5.6534   -0.4571    0.0000 C   0  0  0  0  0  0  0  0  0  0  0  0
   -4.3503    0.2859    0.0000 C   0  0  0  0  0  0  0  0  0  0  0  0
   -3.0553   -0.4711    0.0000 C   0  0  0  0  0  0  0  0  0  0  0  0
   -1.7523    0.2719    0.0000 C   0  0  0  0  0  0  0  0  0  0  0  0
   -0.4573   -0.4850    0.0000 N   0  0  0  0  0  0  0  0  0  0  0  0
    0.8458    0.2579    0.0000 C   0  0  0  0  0  0  0  0  0  0  0  0
    0.8539    1.7579    0.0000 O   0  0  0  0  0  0  0  0  0  0  0  0
    2.1408   -0.4990    0.0000 C   0  0  0  0  0  0  0  0  0  0  0  0
    3.4438    0.2440    0.0000 O   0  0  0  0  0  0  0  0  0  0  0  0
    4.7388   -0.5130    0.0000 C   0  0  0  0  0  0  0  0  0  0  0  0
    6.0419    0.2300    0.0000 C   0  0  0  0  0  0  0  0  0  0  0  0
    7.3368   -0.5270    0.0000 O   0  0  0  0  0  0  0  0  0  0  0  0
    8.6399    0.2160    0.0000 C   0  0  0  0  0  0  0  0  0  0  0  0
    9.9349   -0.5410    0.0000 C   0  0  0  0  0  0  0  0  0  0  0  0
   11.2379    0.2020    0.0000 N   0  0  0  0  0  0  0  0  0  0  0  0
   -8.2514   -0.4431    0.0000 C   0  0  0  0  0  0  0  0  0  0  0  0
   -8.2595   -1.9430    0.0000 O   0  0  0  0  0  0  0  0  0  0  0  0
   -9.5464    0.3139    0.0000 O   0  0  0  0  0  0  0  0  0  0  0  0
  2  1  1  1
  2  3  1  0
  3  4  1  0
  4  5  1  0
  5  6  1  0
  6  7  1  0
  7  8  1  0
  8  9  2  0
  8 10  1  0
 10 11  1  0
 11 12  1  0
 12 13  1  0
 13 14  1  0
 14 15  1  0
 15 16  1  0
 16 17  1  0
  2 18  1  0
 18 19  2  0
 18 20  1  0
M  END
>  <rName>  (2047) 
Lys_AEEA

>  <PQ_SYMBOL>  (2047) 
Lys_AEEA

>  <FULL_NAME>  (2047) 
(2S)-2-amino-6-[[2-[2-(2-aminoethoxy)ethoxy]acetyl]amino]hexanoic acid

>  <IUPAC_CONDENSED>  (2047) 
Lys(AEEA)

>  <IUPAC>  (2047) 
(2S)-2-amino-6-[[2-[2-(2-aminoethoxy)ethoxy]acetyl]amino]hexanoic acid

>  <TYPE>  (2047) 
Backbone

>  <CLASS>  (2047) 
alpha

>  <ANALOG>  (2047) 
Lys

>  <MOL_WT>  (2047) 
291.34799999999996

>  <LOGP>  (2047) 
-1.3232999999999953

>  <TPSA>  (2047) 
136.89999999999998

>  <POPULARITY>  (2047) 
3.5

>  <PROTECTED>  (2047) 
TRUE

>  <SMILES>  (2047) 
N[C@@H](CCCCNC(=O)COCCOCCN)C(=O)O

>  <INCHIKEY>  (2047) 
AGRXVNZRMGKFNM-JTQLQIEISA-N

$$$$
Lys_AEEAAEEA
     RDKit          2D

 30 29  0  0  0  0  0  0  0  0999 V2000
   12.7035   -1.7620    0.0000 N   0  0  0  0  0  0  0  0  0  0  0  0
   12.6901   -0.2621    0.0000 C   0  0  0  0  0  0  0  0  0  0  0  0
   11.3844    0.4763    0.0000 C   0  0  0  0  0  0  0  0  0  0  0  0
   10.0921   -0.2852    0.0000 C   0  0  0  0  0  0  0  0  0  0  0  0
    8.7865    0.4532    0.0000 C   0  0  0  0  0  0  0  0  0  0  0  0
    7.4942   -0.3083    0.0000 C   0  0  0  0  0  0  0  0  0  0  0  0
    6.1885    0.4301    0.0000 N   0  0  0  0  0  0  0  0  0  0  0  0
    4.8962   -0.3314    0.0000 C   0  0  0  0  0  0  0  0  0  0  0  0
    4.9095   -1.8314    0.0000 O   0  0  0  0  0  0  0  0  0  0  0  0
    3.5905    0.4070    0.0000 C   0  0  0  0  0  0  0  0  0  0  0  0
    2.2982   -0.3546    0.0000 O   0  0  0  0  0  0  0  0  0  0  0  0
    0.9926    0.3838    0.0000 C   0  0  0  0  0  0  0  0  0  0  0  0
   -0.2998   -0.3777    0.0000 C   0  0  0  0  0  0  0  0  0  0  0  0
   -1.6054    0.3607    0.0000 O   0  0  0  0  0  0  0  0  0  0  0  0
   -2.8977   -0.4008    0.0000 C   0  0  0  0  0  0  0  0  0  0  0  0
   -4.2034    0.3376    0.0000 C   0  0  0  0  0  0  0  0  0  0  0  0
   -5.4957   -0.4239    0.0000 N   0  0  0  0  0  0  0  0  0  0  0  0
   -6.8014    0.3145    0.0000 C   0  0  0  0  0  0  0  0  0  0  0  0
   -6.8147    1.8144    0.0000 O   0  0  0  0  0  0  0  0  0  0  0  0
   -8.0937   -0.4471    0.0000 C   0  0  0  0  0  0  0  0  0  0  0  0
   -9.3993    0.2914    0.0000 O   0  0  0  0  0  0  0  0  0  0  0  0
  -10.6917   -0.4702    0.0000 C   0  0  0  0  0  0  0  0  0  0  0  0
  -11.9973    0.2682    0.0000 C   0  0  0  0  0  0  0  0  0  0  0  0
  -13.2896   -0.4933    0.0000 O   0  0  0  0  0  0  0  0  0  0  0  0
  -14.5953    0.2451    0.0000 C   0  0  0  0  0  0  0  0  0  0  0  0
  -15.8876   -0.5164    0.0000 C   0  0  0  0  0  0  0  0  0  0  0  0
  -17.1933    0.2220    0.0000 N   0  0  0  0  0  0  0  0  0  0  0  0
   13.9824    0.4995    0.0000 C   0  0  0  0  0  0  0  0  0  0  0  0
   13.9691    1.9994    0.0000 O   0  0  0  0  0  0  0  0  0  0  0  0
   15.2881   -0.2389    0.0000 O   0  0  0  0  0  0  0  0  0  0  0  0
  2  1  1  1
  2  3  1  0
  3  4  1  0
  4  5  1  0
  5  6  1  0
  6  7  1  0
  7  8  1  0
  8  9  2  0
  8 10  1  0
 10 11  1  0
 11 12  1  0
 12 13  1  0
 13 14  1  0
 14 15  1  0
 15 16  1  0
 16 17  1  0
 17 18  1  0
 18 19  2  0
 18 20  1  0
 20 21  1  0
 21 22  1  0
 22 23  1  0
 23 24  1  0
 24 25  1  0
 25 26  1  0
 26 27  1  0
  2 28  1  0
 28 29  2  0
 28 30  1  0
M  END
>  <rName>  (2048) 
Lys_AEEAAEEA

>  <PQ_SYMBOL>  (2048) 
Lys_AEEAAEEA

>  <FULL_NAME>  (2048) 
(2S)-2-amino-6-[[2-[2-[2-[[2-[2-(2-aminoethoxy)ethoxy]acetyl]amino]ethoxy]ethoxy]acetyl]amino]hexanoic acid

>  <IUPAC_CONDENSED>  (2048) 
Lys(AEEA-AEEA)

>  <IUPAC>  (2048) 
(2S)-2-amino-6-[[2-[2-[2-[[2-[2-(2-aminoethoxy)ethoxy]acetyl]amino]ethoxy]ethoxy]acetyl]amino]hexanoic acid

>  <TYPE>  (2048) 
Backbone

>  <CLASS>  (2048) 
alpha

>  <ANALOG>  (2048) 
Lys

>  <MOL_WT>  (2048) 
436.5060000000003

>  <LOGP>  (2048) 
-2.1738999999999926

>  <TPSA>  (2048) 
184.46

>  <POPULARITY>  (2048) 
2.2

>  <PROTECTED>  (2048) 
TRUE

>  <SMILES>  (2048) 
N[C@@H](CCCCNC(=O)COCCOCCNC(=O)COCCOCCN)C(=O)O

>  <INCHIKEY>  (2048) 
FTNDNZNYEOUVFG-HNNXBMFYSA-N

$$$$
Lys_Aoa
     RDKit          2D

 15 14  0  0  0  0  0  0  0  0999 V2000
   -4.0303    1.8403    0.0000 N   0  0  0  0  0  0  0  0  0  0  0  0
   -4.0637    0.3406    0.0000 C   0  0  0  0  0  0  0  0  0  0  0  0
   -2.7817   -0.4381    0.0000 C   0  0  0  0  0  0  0  0  0  0  0  0
   -1.4663    0.2827    0.0000 C   0  0  0  0  0  0  0  0  0  0  0  0
   -0.1843   -0.4960    0.0000 C   0  0  0  0  0  0  0  0  0  0  0  0
    1.1311    0.2249    0.0000 C   0  0  0  0  0  0  0  0  0  0  0  0
    2.4131   -0.5539    0.0000 N   0  0  0  0  0  0  0  0  0  0  0  0
    3.7286    0.1670    0.0000 C   0  0  0  0  0  0  0  0  0  0  0  0
    3.7620    1.6666    0.0000 O   0  0  0  0  0  0  0  0  0  0  0  0
    5.0106   -0.6118    0.0000 C   0  0  0  0  0  0  0  0  0  0  0  0
    6.3260    0.1091    0.0000 O   0  0  0  0  0  0  0  0  0  0  0  0
    7.6080   -0.6697    0.0000 N   0  0  0  0  0  0  0  0  0  0  0  0
   -5.3792   -0.3802    0.0000 C   0  0  0  0  0  0  0  0  0  0  0  0
   -5.4126   -1.8799    0.0000 O   0  0  0  0  0  0  0  0  0  0  0  0
   -6.6612    0.3985    0.0000 O   0  0  0  0  0  0  0  0  0  0  0  0
  2  1  1  1
  2  3  1  0
  3  4  1  0
  4  5  1  0
  5  6  1  0
  6  7  1  0
  7  8  1  0
  8  9  2  0
  8 10  1  0
 10 11  1  0
 11 12  1  0
  2 13  1  0
 13 14  2  0
 13 15  1  0
M  END
>  <rName>  (2049) 
Lys_Aoa

>  <PQ_SYMBOL>  (2049) 
Lys_Aoa

>  <FULL_NAME>  (2049) 
N6-[2-(Aminooxy)acetyl]-L-lysine

>  <IUPAC_CONDENSED>  (2049) 
Lys(Aoa)

>  <IUPAC>  (2049) 
(2S)-2-amino-6-[(2-aminooxyacetyl)amino]hexanoic acid

>  <TYPE>  (2049) 
Backbone

>  <CLASS>  (2049) 
alpha

>  <ANALOG>  (2049) 
Lys

>  <MOL_WT>  (2049) 
219.24099999999999

>  <LOGP>  (2049) 
-1.4248999999999983

>  <TPSA>  (2049) 
127.67

>  <POPULARITY>  (2049) 
4.0

>  <PROTECTED>  (2049) 
TRUE

>  <SMILES>  (2049) 
N[C@@H](CCCCNC(=O)CON)C(=O)O

>  <INCHIKEY>  (2049) 
RABKGSCBHBCXAU-LURJTMIESA-N

$$$$
Lys_Bz
     RDKit          2D

 18 18  0  0  0  0  0  0  0  0999 V2000
   -5.2698   -1.7320    0.0000 N   0  0  0  0  0  0  0  0  0  0  0  0
   -5.1566   -0.2362    0.0000 C   0  0  0  0  0  0  0  0  0  0  0  0
   -3.8046    0.4135    0.0000 C   0  0  0  0  0  0  0  0  0  0  0  0
   -2.5659   -0.4325    0.0000 C   0  0  0  0  0  0  0  0  0  0  0  0
   -1.2139    0.2173    0.0000 C   0  0  0  0  0  0  0  0  0  0  0  0
    0.0248   -0.6287    0.0000 C   0  0  0  0  0  0  0  0  0  0  0  0
    1.3767    0.0211    0.0000 N   0  0  0  0  0  0  0  0  0  0  0  0
    2.6154   -0.8249    0.0000 C   0  0  0  0  0  0  0  0  0  0  0  0
    2.5021   -2.3206    0.0000 O   0  0  0  0  0  0  0  0  0  0  0  0
    3.9674   -0.1751    0.0000 C   0  0  0  0  0  0  0  0  0  0  0  0
    4.0807    1.3206    0.0000 C   0  0  0  0  0  0  0  0  0  0  0  0
    5.4326    1.9703    0.0000 C   0  0  0  0  0  0  0  0  0  0  0  0
    6.6713    1.1244    0.0000 C   0  0  0  0  0  0  0  0  0  0  0  0
    6.5580   -0.3713    0.0000 C   0  0  0  0  0  0  0  0  0  0  0  0
    5.2061   -1.0211    0.0000 C   0  0  0  0  0  0  0  0  0  0  0  0
   -6.3952    0.6097    0.0000 C   0  0  0  0  0  0  0  0  0  0  0  0
   -6.2820    2.1054    0.0000 O   0  0  0  0  0  0  0  0  0  0  0  0
   -7.7472   -0.0400    0.0000 O   0  0  0  0  0  0  0  0  0  0  0  0
  2  1  1  6
  2  3  1  0
  3  4  1  0
  4  5  1  0
  5  6  1  0
  6  7  1  0
  7  8  1  0
  8  9  2  0
  8 10  1  0
 10 11  2  0
 11 12  1  0
 12 13  2  0
 13 14  1  0
 14 15  2  0
  2 16  1  0
 16 17  2  0
 16 18  1  0
 15 10  1  0
M  END
>  <rName>  (2050) 
Lys_Bz

>  <PQ_SYMBOL>  (2050) 
Lys_Bz

>  <FULL_NAME>  (2050) 
N-Epsilon-Benzoyl-L-Lysine

>  <IUPAC_CONDENSED>  (2050) 
Lys(Bz)

>  <IUPAC>  (2050) 
(2S)-2-amino-6-phenylcarbonylaminohexanoic acid

>  <TYPE>  (2050) 
Backbone

>  <CLASS>  (2050) 
alpha

>  <ANALOG>  (2050) 
Lys

>  <MOL_WT>  (2050) 
250.29800000000003

>  <LOGP>  (2050) 
0.9985999999999993

>  <TPSA>  (2050) 
92.42

>  <POPULARITY>  (2050) 
18.1

>  <PROTECTED>  (2050) 
TRUE

>  <SMILES>  (2050) 
N[C@@H](CCCCNC(=O)c1(ccccc1))C(=O)O

>  <INCHIKEY>  (2050) 
KODLJWKGAKBGOB-NSHDSACASA-N

$$$$
Lys_Bz_4N3
     RDKit          2D

 21 21  0  0  0  0  0  0  0  0999 V2000
   -6.6509   -1.6462    0.0000 N   0  0  0  0  0  0  0  0  0  0  0  0
   -6.4883   -0.1550    0.0000 C   0  0  0  0  0  0  0  0  0  0  0  0
   -5.1157    0.4498    0.0000 C   0  0  0  0  0  0  0  0  0  0  0  0
   -3.9055   -0.4365    0.0000 C   0  0  0  0  0  0  0  0  0  0  0  0
   -2.5329    0.1683    0.0000 C   0  0  0  0  0  0  0  0  0  0  0  0
   -1.3228   -0.7180    0.0000 C   0  0  0  0  0  0  0  0  0  0  0  0
    0.0499   -0.1132    0.0000 N   0  0  0  0  0  0  0  0  0  0  0  0
    1.2600   -0.9996    0.0000 C   0  0  0  0  0  0  0  0  0  0  0  0
    1.0975   -2.4907    0.0000 O   0  0  0  0  0  0  0  0  0  0  0  0
    2.6327   -0.3947    0.0000 C   0  0  0  0  0  0  0  0  0  0  0  0
    2.7952    1.0964    0.0000 C   0  0  0  0  0  0  0  0  0  0  0  0
    4.1679    1.7013    0.0000 C   0  0  0  0  0  0  0  0  0  0  0  0
    5.3780    0.8149    0.0000 C   0  0  0  0  0  0  0  0  0  0  0  0
    5.2154   -0.6762    0.0000 C   0  0  0  0  0  0  0  0  0  0  0  0
    3.8428   -1.2811    0.0000 C   0  0  0  0  0  0  0  0  0  0  0  0
    6.7506    1.4198    0.0000 N   0  0  0  0  0  0  0  0  0  0  0  0
    7.9608    0.5334    0.0000 N   0  0  0  0  0  0  0  0  0  0  0  0
    9.1709   -0.3529    0.0000 N   0  0  0  0  0  0  0  0  0  0  0  0
   -7.6985    0.7313    0.0000 C   0  0  0  0  0  0  0  0  0  0  0  0
   -7.5359    2.2225    0.0000 O   0  0  0  0  0  0  0  0  0  0  0  0
   -9.0711    0.1265    0.0000 O   0  0  0  0  0  0  0  0  0  0  0  0
  2  1  1  6
  2  3  1  0
  3  4  1  0
  4  5  1  0
  5  6  1  0
  6  7  1  0
  7  8  1  0
  8  9  2  0
  8 10  1  0
 10 11  1  0
 11 12  2  0
 12 13  1  0
 13 14  2  0
 14 15  1  0
 13 16  1  0
 16 17  2  0
 17 18  2  0
  2 19  1  0
 19 20  2  0
 19 21  1  0
 15 10  2  0
M  CHG  2  17   1  18  -1
M  END
>  <rName>  (2051) 
Lys_Bz_4N3

>  <PQ_SYMBOL>  (2051) 
Lys_Bz_4N3

>  <FULL_NAME>  (2051) 
Lys(Bz(4-N3))

>  <IUPAC_CONDENSED>  (2051) 
Lys(Bz(4-N3))

>  <IUPAC>  (2051) 
(2S)-2-amino-6-(4-azidophenylcarbonylamino)hexanoic acid

>  <TYPE>  (2051) 
Backbone

>  <CLASS>  (2051) 
alpha

>  <ANALOG>  (2051) 
Lys

>  <MOL_WT>  (2051) 
291.3110000000001

>  <LOGP>  (2051) 
1.9403999999999997

>  <TPSA>  (2051) 
141.17999999999998

>  <POPULARITY>  (2051) 
2.2

>  <PROTECTED>  (2051) 
TRUE

>  <SMILES>  (2051) 
N[C@@H](CCCCNC(=O)c1(ccc(cc1)N=[N+]=[N-]))C(=O)O

>  <INCHIKEY>  (2051) 
VWXWIPUNNPGMSR-NSHDSACASA-N

$$$$
Lys_CHNH22
     RDKit          2D

 13 12  0  0  0  0  0  0  0  0999 V2000
   -2.9072    1.8790    0.0000 N   0  0  0  0  0  0  0  0  0  0  0  0
   -2.9824    0.3808    0.0000 C   0  0  0  0  0  0  0  0  0  0  0  0
   -1.7226   -0.4334    0.0000 C   0  0  0  0  0  0  0  0  0  0  0  0
   -0.3876    0.2505    0.0000 C   0  0  0  0  0  0  0  0  0  0  0  0
    0.8722   -0.5637    0.0000 C   0  0  0  0  0  0  0  0  0  0  0  0
    2.2072    0.1202    0.0000 C   0  0  0  0  0  0  0  0  0  0  0  0
    3.4670   -0.6940    0.0000 N   0  0  0  0  0  0  0  0  0  0  0  0
    4.8020   -0.0101    0.0000 C   0  0  0  0  0  0  0  0  0  0  0  0
    6.0618   -0.8243    0.0000 N   0  0  0  0  0  0  0  0  0  0  0  0
    4.8772    1.4880    0.0000 N   0  0  0  0  0  0  0  0  0  0  0  0
   -4.3175   -0.3030    0.0000 C   0  0  0  0  0  0  0  0  0  0  0  0
   -4.3927   -1.8012    0.0000 O   0  0  0  0  0  0  0  0  0  0  0  0
   -5.5772    0.5112    0.0000 O   0  0  0  0  0  0  0  0  0  0  0  0
  2  1  1  1
  2  3  1  0
  3  4  1  0
  4  5  1  0
  5  6  1  0
  6  7  1  0
  7  8  1  0
  8  9  1  0
  8 10  1  0
  2 11  1  0
 11 12  2  0
 11 13  1  0
M  END
>  <rName>  (2052) 
Lys_CHNH22

>  <PQ_SYMBOL>  (2052) 
Lys_CHNH22

>  <FULL_NAME>  (2052) 
(2S)-2-amino-6-[(diaminomethyl)amino]hexanoic acid

>  <IUPAC_CONDENSED>  (2052) 
Lys(CH(NH2)2)

>  <IUPAC>  (2052) 
(2S)-2-amino-6-((diaminomethyl)amino)hexanoic acid

>  <TYPE>  (2052) 
Backbone

>  <CLASS>  (2052) 
alpha

>  <ANALOG>  (2052) 
Lys

>  <MOL_WT>  (2052) 
190.24699999999999

>  <LOGP>  (2052) 
-1.6407999999999978

>  <TPSA>  (2052) 
127.39

>  <POPULARITY>  (2052) 
1.1

>  <PROTECTED>  (2052) 
FALSE

>  <SMILES>  (2052) 
N[C@@H](CCCCNC(N)N)C(=O)O

>  <INCHIKEY>  (2052) 
MULPXBOWFUORJJ-YFKPBYRVSA-N

$$$$
Lys_DOTA
     RDKit          2D

 37 37  0  0  0  0  0  0  0  0999 V2000
   -9.8033    1.9016    0.0000 N   0  0  0  0  0  0  0  0  0  0  0  0
  -10.0171    0.4169    0.0000 C   0  0  0  0  0  0  0  0  0  0  0  0
   -8.8382   -0.5107    0.0000 C   0  0  0  0  0  0  0  0  0  0  0  0
   -7.4456    0.0465    0.0000 C   0  0  0  0  0  0  0  0  0  0  0  0
   -6.2667   -0.8810    0.0000 C   0  0  0  0  0  0  0  0  0  0  0  0
   -4.8740   -0.3239    0.0000 C   0  0  0  0  0  0  0  0  0  0  0  0
   -3.6952   -1.2514    0.0000 N   0  0  0  0  0  0  0  0  0  0  0  0
   -2.3025   -0.6942    0.0000 C   0  0  0  0  0  0  0  0  0  0  0  0
   -2.0886    0.7904    0.0000 O   0  0  0  0  0  0  0  0  0  0  0  0
   -1.1236   -1.6218    0.0000 C   0  0  0  0  0  0  0  0  0  0  0  0
    0.2691   -1.0646    0.0000 N   0  0  0  0  0  0  0  0  0  0  0  0
    0.0914    0.4248    0.0000 C   0  0  0  0  0  0  0  0  0  0  0  0
    0.6822    1.8036    0.0000 C   0  0  0  0  0  0  0  0  0  0  0  0
    1.8832    2.7022    0.0000 N   0  0  0  0  0  0  0  0  0  0  0  0
    1.3260    4.0949    0.0000 C   0  0  0  0  0  0  0  0  0  0  0  0
    2.2536    5.2737    0.0000 C   0  0  0  0  0  0  0  0  0  0  0  0
    3.7382    5.0599    0.0000 O   0  0  0  0  0  0  0  0  0  0  0  0
    1.6964    6.6664    0.0000 O   0  0  0  0  0  0  0  0  0  0  0  0
    3.3726    2.8799    0.0000 C   0  0  0  0  0  0  0  0  0  0  0  0
    4.7514    2.2891    0.0000 C   0  0  0  0  0  0  0  0  0  0  0  0
    5.6500    1.0881    0.0000 N   0  0  0  0  0  0  0  0  0  0  0  0
    7.0427    1.6452    0.0000 C   0  0  0  0  0  0  0  0  0  0  0  0
    8.2215    0.7177    0.0000 C   0  0  0  0  0  0  0  0  0  0  0  0
    8.0077   -0.7670    0.0000 O   0  0  0  0  0  0  0  0  0  0  0  0
    9.6142    1.2749    0.0000 O   0  0  0  0  0  0  0  0  0  0  0  0
    5.8277   -0.4014    0.0000 C   0  0  0  0  0  0  0  0  0  0  0  0
    5.2369   -1.7801    0.0000 C   0  0  0  0  0  0  0  0  0  0  0  0
    4.0359   -2.6787    0.0000 N   0  0  0  0  0  0  0  0  0  0  0  0
    4.5930   -4.0714    0.0000 C   0  0  0  0  0  0  0  0  0  0  0  0
    3.6655   -5.2503    0.0000 C   0  0  0  0  0  0  0  0  0  0  0  0
    2.1808   -5.0364    0.0000 O   0  0  0  0  0  0  0  0  0  0  0  0
    4.2227   -6.6430    0.0000 O   0  0  0  0  0  0  0  0  0  0  0  0
    2.5464   -2.8564    0.0000 C   0  0  0  0  0  0  0  0  0  0  0  0
    1.1677   -2.2656    0.0000 C   0  0  0  0  0  0  0  0  0  0  0  0
  -11.4098   -0.1403    0.0000 C   0  0  0  0  0  0  0  0  0  0  0  0
  -11.6236   -1.6250    0.0000 O   0  0  0  0  0  0  0  0  0  0  0  0
  -12.5886    0.7872    0.0000 O   0  0  0  0  0  0  0  0  0  0  0  0
  2  1  1  1
  2  3  1  0
  3  4  1  0
  4  5  1  0
  5  6  1  0
  6  7  1  0
  7  8  1  0
  8  9  2  0
  8 10  1  0
 10 11  1  0
 11 12  1  0
 12 13  1  0
 13 14  1  0
 14 15  1  0
 15 16  1  0
 16 17  2  0
 16 18  1  0
 14 19  1  0
 19 20  1  0
 20 21  1  0
 21 22  1  0
 22 23  1  0
 23 24  2  0
 23 25  1  0
 21 26  1  0
 26 27  1  0
 27 28  1  0
 28 29  1  0
 29 30  1  0
 30 31  2  0
 30 32  1  0
 28 33  1  0
 33 34  1  0
  2 35  1  0
 35 36  2  0
 35 37  1  0
 34 11  1  0
M  END
>  <rName>  (2053) 
Lys_DOTA

>  <PQ_SYMBOL>  (2053) 
Lys_DOTA

>  <FULL_NAME>  (2053) 
(S)-2,2',2''-(10-(2-((5-amino-5-carboxypentyl)amino)-2-oxoethyl)-1,4,7,10-tetraazacyclododecane-1,4,7-triyl)triacetic acid

>  <IUPAC_CONDENSED>  (2053) 
Lys(DOTA)

>  <IUPAC>  (2053) 
(2S)-2-amino-6-((4,7,10-tris(2-hydroxy-2-oxoethyl)-1,4,7,10-tetraazacyclododecan-1-yl)methylcarbonylamino)hexanoic acid

>  <TYPE>  (2053) 
Backbone

>  <CLASS>  (2053) 
alpha

>  <ANALOG>  (2053) 
X

>  <MOL_WT>  (2053) 
532.5950000000005

>  <LOGP>  (2053) 
-2.8397999999999923

>  <TPSA>  (2053) 
217.27999999999997

>  <POPULARITY>  (2053) 
3.3

>  <PROTECTED>  (2053) 
TRUE

>  <SMILES>  (2053) 
N[C@@H](CCCCNC(=O)CN1CCN(CC(=O)O)CCN(CC(=O)O)CCN(CC(=O)O)CC1)C(=O)O

>  <INCHIKEY>  (2053) 
JCEJITBDLXNFBI-KRWDZBQOSA-N

$$$$
Lys_Dabcyl
     RDKit          2D

 29 30  0  0  0  0  0  0  0  0999 V2000
  -11.4061    0.0190    0.0000 C   0  0  0  0  0  0  0  0  0  0  0  0
  -10.3126   -1.0078    0.0000 N   0  0  0  0  0  0  0  0  0  0  0  0
  -10.6552   -2.4682    0.0000 C   0  0  0  0  0  0  0  0  0  0  0  0
   -8.8766   -0.5743    0.0000 C   0  0  0  0  0  0  0  0  0  0  0  0
   -8.5341    0.8861    0.0000 C   0  0  0  0  0  0  0  0  0  0  0  0
   -7.0981    1.3196    0.0000 C   0  0  0  0  0  0  0  0  0  0  0  0
   -6.0047    0.2928    0.0000 C   0  0  0  0  0  0  0  0  0  0  0  0
   -4.5687    0.7263    0.0000 N   0  0  0  0  0  0  0  0  0  0  0  0
   -3.4752   -0.3005    0.0000 N   0  0  0  0  0  0  0  0  0  0  0  0
   -2.0393    0.1330    0.0000 C   0  0  0  0  0  0  0  0  0  0  0  0
   -0.9458   -0.8938    0.0000 C   0  0  0  0  0  0  0  0  0  0  0  0
    0.4902   -0.4603    0.0000 C   0  0  0  0  0  0  0  0  0  0  0  0
    0.8327    1.0001    0.0000 C   0  0  0  0  0  0  0  0  0  0  0  0
    2.2687    1.4336    0.0000 C   0  0  0  0  0  0  0  0  0  0  0  0
    2.6112    2.8939    0.0000 O   0  0  0  0  0  0  0  0  0  0  0  0
    3.3621    0.4067    0.0000 N   0  0  0  0  0  0  0  0  0  0  0  0
    4.7981    0.8403    0.0000 C   0  0  0  0  0  0  0  0  0  0  0  0
    5.8916   -0.1866    0.0000 C   0  0  0  0  0  0  0  0  0  0  0  0
    7.3275    0.2470    0.0000 C   0  0  0  0  0  0  0  0  0  0  0  0
    8.4210   -0.7799    0.0000 C   0  0  0  0  0  0  0  0  0  0  0  0
    9.8570   -0.3463    0.0000 C   0  0  0  0  0  0  0  0  0  0  0  0
   10.1995    1.1140    0.0000 N   0  0  0  0  0  0  0  0  0  0  0  0
   10.9504   -1.3732    0.0000 C   0  0  0  0  0  0  0  0  0  0  0  0
   10.6079   -2.8335    0.0000 O   0  0  0  0  0  0  0  0  0  0  0  0
   12.3864   -0.9397    0.0000 O   0  0  0  0  0  0  0  0  0  0  0  0
   -0.2607    2.0269    0.0000 C   0  0  0  0  0  0  0  0  0  0  0  0
   -1.6967    1.5934    0.0000 C   0  0  0  0  0  0  0  0  0  0  0  0
   -6.3472   -1.1676    0.0000 C   0  0  0  0  0  0  0  0  0  0  0  0
   -7.7832   -1.6011    0.0000 C   0  0  0  0  0  0  0  0  0  0  0  0
  1  2  1  0
  2  3  1  0
  2  4  1  0
  4  5  1  0
  5  6  2  0
  6  7  1  0
  7  8  1  0
  8  9  2  0
  9 10  1  0
 10 11  1  0
 11 12  2  0
 12 13  1  0
 13 14  1  0
 14 15  2  0
 14 16  1  0
 16 17  1  0
 17 18  1  0
 18 19  1  0
 19 20  1  0
 20 21  1  0
 21 22  1  6
 21 23  1  0
 23 24  2  0
 23 25  1  0
 13 26  2  0
 26 27  1  0
  7 28  2  0
 28 29  1  0
 29  4  2  0
 27 10  2  0
M  END
>  <rName>  (2054) 
Lys_Dabcyl

>  <PQ_SYMBOL>  (2054) 
Lys_Dabcyl

>  <FULL_NAME>  (2054) 
(E)-N6-(4-((4-(dimethylamino)phenyl)diazenyl)benzoyl)-L-lysine

>  <IUPAC_CONDENSED>  (2054) 
Lys(Dabcyl)

>  <IUPAC>  (2054) 
(E)-N6-(4-((4-(dimethylamino)phenyl)diazenyl)benzoyl)-L-lysine

>  <TYPE>  (2054) 
Backbone

>  <CLASS>  (2054) 
alpha

>  <ANALOG>  (2054) 
Lys

>  <MOL_WT>  (2054) 
397.4790000000001

>  <LOGP>  (2054) 
3.4800000000000013

>  <TPSA>  (2054) 
120.38000000000001

>  <POPULARITY>  (2054) 
5.2

>  <PROTECTED>  (2054) 
TRUE

>  <SMILES>  (2054) 
CN(C)c1ccc(/N=N/c2ccc(C(=O)NCCCC[C@H](N)C(=O)O)cc2)cc1

>  <INCHIKEY>  (2054) 
UVTCXMJECIVZIB-ZFZZVZNFSA-N

$$$$
Lys_Dan
     RDKit          2D

 26 27  0  0  0  0  0  0  0  0999 V2000
    6.1808    2.3008    0.0000 N   0  0  0  0  0  0  0  0  0  0  0  0
    6.7041    0.8950    0.0000 C   0  0  0  0  0  0  0  0  0  0  0  0
    5.7483   -0.2611    0.0000 C   0  0  0  0  0  0  0  0  0  0  0  0
    4.2692   -0.0114    0.0000 C   0  0  0  0  0  0  0  0  0  0  0  0
    3.3134   -1.1674    0.0000 C   0  0  0  0  0  0  0  0  0  0  0  0
    1.8344   -0.9177    0.0000 C   0  0  0  0  0  0  0  0  0  0  0  0
    0.8786   -2.0738    0.0000 N   0  0  0  0  0  0  0  0  0  0  0  0
   -0.6005   -1.8241    0.0000 S   0  0  0  0  0  0  0  0  0  0  0  0
   -0.8502   -3.3032    0.0000 O   0  0  0  0  0  0  0  0  0  0  0  0
   -0.3508   -0.3450    0.0000 O   0  0  0  0  0  0  0  0  0  0  0  0
   -2.0796   -1.5744    0.0000 C   0  0  0  0  0  0  0  0  0  0  0  0
   -3.0353   -2.7304    0.0000 C   0  0  0  0  0  0  0  0  0  0  0  0
   -4.5144   -2.4807    0.0000 C   0  0  0  0  0  0  0  0  0  0  0  0
   -5.0377   -1.0750    0.0000 C   0  0  0  0  0  0  0  0  0  0  0  0
   -4.0819    0.0811    0.0000 C   0  0  0  0  0  0  0  0  0  0  0  0
   -4.6052    1.4869    0.0000 C   0  0  0  0  0  0  0  0  0  0  0  0
   -3.6494    2.6429    0.0000 C   0  0  0  0  0  0  0  0  0  0  0  0
   -2.1703    2.3932    0.0000 C   0  0  0  0  0  0  0  0  0  0  0  0
   -1.6471    0.9874    0.0000 C   0  0  0  0  0  0  0  0  0  0  0  0
   -2.6028   -0.1686    0.0000 C   0  0  0  0  0  0  0  0  0  0  0  0
   -6.0843    1.7366    0.0000 N   0  0  0  0  0  0  0  0  0  0  0  0
   -6.6076    3.1423    0.0000 C   0  0  0  0  0  0  0  0  0  0  0  0
   -7.0401    0.5805    0.0000 C   0  0  0  0  0  0  0  0  0  0  0  0
    8.1831    0.6453    0.0000 C   0  0  0  0  0  0  0  0  0  0  0  0
    8.7064   -0.7605    0.0000 O   0  0  0  0  0  0  0  0  0  0  0  0
    9.1389    1.8013    0.0000 O   0  0  0  0  0  0  0  0  0  0  0  0
  2  1  1  6
  2  3  1  0
  3  4  1  0
  4  5  1  0
  5  6  1  0
  6  7  1  0
  7  8  1  0
  8  9  2  0
  8 10  2  0
  8 11  1  0
 11 12  1  0
 12 13  2  0
 13 14  1  0
 14 15  2  0
 15 16  1  0
 16 17  2  0
 17 18  1  0
 18 19  2  0
 19 20  1  0
 16 21  1  0
 21 22  1  0
 21 23  1  0
  2 24  1  0
 24 25  2  0
 24 26  1  0
 20 15  1  0
 20 11  2  0
M  END
>  <rName>  (2055) 
Lys_Dan

>  <PQ_SYMBOL>  (2055) 
Lys_Dan

>  <FULL_NAME>  (2055) 
N~6~-{[5-(DIMETHYLAMINO)-1-NAPHTHYL]SULFONYL}-L-LYSINE

>  <IUPAC_CONDENSED>  (2055) 
Lys(Dan)

>  <IUPAC>  (2055) 
(2S)-2-amino-6-(5-(dimethylamino)naphthalen-1-ylsulfonylamino)hexanoic acid

>  <TYPE>  (2055) 
Backbone

>  <CLASS>  (2055) 
alpha

>  <ANALOG>  (2055) 
Lys

>  <MOL_WT>  (2055) 
379.48200000000014

>  <LOGP>  (2055) 
1.7663

>  <TPSA>  (2055) 
112.73

>  <POPULARITY>  (2055) 
10.4

>  <PROTECTED>  (2055) 
TRUE

>  <SMILES>  (2055) 
N[C@@H](CCCCNS(=O)(=O)c2(cccc1(c(cccc12)N(C)C)))C(=O)O

>  <INCHIKEY>  (2055) 
VQPRNSWQIAHPMS-HNNXBMFYSA-N

$$$$
Lys_Et2
     RDKit          2D

 14 13  0  0  0  0  0  0  0  0999 V2000
   -2.9844    2.0134    0.0000 N   0  0  0  0  0  0  0  0  0  0  0  0
   -2.9732    0.5134    0.0000 C   0  0  0  0  0  0  0  0  0  0  0  0
   -1.6685   -0.2268    0.0000 C   0  0  0  0  0  0  0  0  0  0  0  0
   -0.3752    0.5329    0.0000 C   0  0  0  0  0  0  0  0  0  0  0  0
    0.9295   -0.2073    0.0000 C   0  0  0  0  0  0  0  0  0  0  0  0
    2.2228    0.5524    0.0000 C   0  0  0  0  0  0  0  0  0  0  0  0
    3.5275   -0.1878    0.0000 N   0  0  0  0  0  0  0  0  0  0  0  0
    4.8208    0.5719    0.0000 C   0  0  0  0  0  0  0  0  0  0  0  0
    4.8096    2.0719    0.0000 C   0  0  0  0  0  0  0  0  0  0  0  0
    3.5387   -1.6878    0.0000 C   0  0  0  0  0  0  0  0  0  0  0  0
    2.2454   -2.4475    0.0000 C   0  0  0  0  0  0  0  0  0  0  0  0
   -4.2665   -0.2463    0.0000 C   0  0  0  0  0  0  0  0  0  0  0  0
   -4.2553   -1.7463    0.0000 O   0  0  0  0  0  0  0  0  0  0  0  0
   -5.5712    0.4939    0.0000 O   0  0  0  0  0  0  0  0  0  0  0  0
  2  1  1  1
  2  3  1  0
  3  4  1  0
  4  5  1  0
  5  6  1  0
  6  7  1  0
  7  8  1  0
  8  9  1  0
  7 10  1  0
 10 11  1  0
  2 12  1  0
 12 13  2  0
 12 14  1  0
M  END
>  <rName>  (2056) 
Lys_Et2

>  <PQ_SYMBOL>  (2056) 
Lys_Et2

>  <FULL_NAME>  (2056) 
N~6~,N~6~-diethyl-L-lysine

>  <IUPAC_CONDENSED>  (2056) 
Lys(Et2)

>  <IUPAC>  (2056) 
(2S)-2-amino-6-(diethylamino)hexanoic acid

>  <TYPE>  (2056) 
Backbone

>  <CLASS>  (2056) 
alpha

>  <ANALOG>  (2056) 
Lys

>  <MOL_WT>  (2056) 
202.29799999999997

>  <LOGP>  (2056) 
0.9103999999999994

>  <TPSA>  (2056) 
66.56

>  <POPULARITY>  (2056) 
20.9

>  <PROTECTED>  (2056) 
TRUE

>  <SMILES>  (2056) 
N[C@@H](CCCCN(CC)CC)C(=O)O

>  <INCHIKEY>  (2056) 
LBVIZDDNHRTLPY-VIFPVBQESA-N

$$$$
Lys_EtO2H
     RDKit          2D

 14 13  0  0  0  0  0  0  0  0999 V2000
    3.6801   -1.8657    0.0000 N   0  0  0  0  0  0  0  0  0  0  0  0
    3.6323   -0.3665    0.0000 C   0  0  0  0  0  0  0  0  0  0  0  0
    2.3100    0.3417    0.0000 C   0  0  0  0  0  0  0  0  0  0  0  0
    1.0355   -0.4493    0.0000 C   0  0  0  0  0  0  0  0  0  0  0  0
   -0.2868    0.2588    0.0000 C   0  0  0  0  0  0  0  0  0  0  0  0
   -1.5612   -0.5322    0.0000 C   0  0  0  0  0  0  0  0  0  0  0  0
   -2.8835    0.1760    0.0000 N   0  0  0  0  0  0  0  0  0  0  0  0
   -4.1580   -0.6151    0.0000 C   0  0  0  0  0  0  0  0  0  0  0  0
   -5.4803    0.0931    0.0000 C   0  0  0  0  0  0  0  0  0  0  0  0
   -5.5281    1.5923    0.0000 O   0  0  0  0  0  0  0  0  0  0  0  0
   -6.7547   -0.6980    0.0000 O   0  0  0  0  0  0  0  0  0  0  0  0
    4.9067    0.4246    0.0000 C   0  0  0  0  0  0  0  0  0  0  0  0
    4.8589    1.9238    0.0000 O   0  0  0  0  0  0  0  0  0  0  0  0
    6.2290   -0.2836    0.0000 O   0  0  0  0  0  0  0  0  0  0  0  0
  2  1  1  1
  2  3  1  0
  3  4  1  0
  4  5  1  0
  5  6  1  0
  6  7  1  0
  7  8  1  0
  8  9  1  0
  9 10  2  0
  9 11  1  0
  2 12  1  0
 12 13  2  0
 12 14  1  0
M  END
>  <rName>  (2057) 
Lys_EtO2H

>  <PQ_SYMBOL>  (2057) 
Lys_EtO2H

>  <FULL_NAME>  (2057) 
N6-(carboxymethyl)-L-lysine

>  <IUPAC_CONDENSED>  (2057) 
Lys(EtO2H)

>  <IUPAC>  (2057) 
(2S)-2-amino-6-((2-hydroxy-2-oxoethyl)amino)hexanoic acid

>  <TYPE>  (2057) 
Backbone

>  <CLASS>  (2057) 
alpha

>  <ANALOG>  (2057) 
Lys

>  <MOL_WT>  (2057) 
204.226

>  <LOGP>  (2057) 
-0.7571999999999992

>  <TPSA>  (2057) 
112.64999999999999

>  <POPULARITY>  (2057) 
9.0

>  <PROTECTED>  (2057) 
TRUE

>  <SMILES>  (2057) 
N[C@@H](CCCCNCC(=O)O)C(=O)O

>  <INCHIKEY>  (2057) 
NUXSIDPKKIEIMI-LURJTMIESA-N

$$$$
Lys_For
     RDKit          2D

 12 11  0  0  0  0  0  0  0  0999 V2000
   -2.5981    1.8750    0.0000 N   0  0  0  0  0  0  0  0  0  0  0  0
   -2.5981    0.3750    0.0000 C   0  0  0  0  0  0  0  0  0  0  0  0
   -1.2990   -0.3750    0.0000 C   0  0  0  0  0  0  0  0  0  0  0  0
    0.0000    0.3750    0.0000 C   0  0  0  0  0  0  0  0  0  0  0  0
    1.2990   -0.3750    0.0000 C   0  0  0  0  0  0  0  0  0  0  0  0
    2.5981    0.3750    0.0000 C   0  0  0  0  0  0  0  0  0  0  0  0
    3.8971   -0.3750    0.0000 N   0  0  0  0  0  0  0  0  0  0  0  0
    5.1962    0.3750    0.0000 C   0  0  0  0  0  0  0  0  0  0  0  0
    6.4952   -0.3750    0.0000 O   0  0  0  0  0  0  0  0  0  0  0  0
   -3.8971   -0.3750    0.0000 C   0  0  0  0  0  0  0  0  0  0  0  0
   -3.8971   -1.8750    0.0000 O   0  0  0  0  0  0  0  0  0  0  0  0
   -5.1962    0.3750    0.0000 O   0  0  0  0  0  0  0  0  0  0  0  0
  2  1  1  1
  2  3  1  0
  3  4  1  0
  4  5  1  0
  5  6  1  0
  6  7  1  0
  7  8  1  0
  8  9  2  0
  2 10  1  0
 10 11  2  0
 10 12  1  0
M  END
>  <rName>  (2058) 
Lys_For

>  <PQ_SYMBOL>  (2058) 
Lys_For

>  <FULL_NAME>  (2058) 
Nepsilon-Formyl-L-lysine

>  <IUPAC_CONDENSED>  (2058) 
Lys(For)

>  <IUPAC>  (2058) 
(2S)-2-amino-6-(formamido)hexanoic acid

>  <TYPE>  (2058) 
Backbone

>  <CLASS>  (2058) 
alpha

>  <ANALOG>  (2058) 
Lys

>  <MOL_WT>  (2058) 
174.2

>  <LOGP>  (2058) 
-0.6854000000000002

>  <TPSA>  (2058) 
92.42

>  <POPULARITY>  (2058) 
14.1

>  <PROTECTED>  (2058) 
TRUE

>  <SMILES>  (2058) 
N[C@@H](CCCCNC=O)C(=O)O

>  <INCHIKEY>  (2058) 
KLPJXDPPMSJWKI-LURJTMIESA-N

$$$$
Lys_Mca
     RDKit          2D

 26 27  0  0  0  0  0  0  0  0999 V2000
    7.9231   -3.6340    0.0000 C   0  0  0  0  0  0  0  0  0  0  0  0
    7.8344   -2.1366    0.0000 O   0  0  0  0  0  0  0  0  0  0  0  0
    6.4932   -1.4647    0.0000 C   0  0  0  0  0  0  0  0  0  0  0  0
    5.2408   -2.2902    0.0000 C   0  0  0  0  0  0  0  0  0  0  0  0
    3.8997   -1.6184    0.0000 C   0  0  0  0  0  0  0  0  0  0  0  0
    3.8110   -0.1210    0.0000 C   0  0  0  0  0  0  0  0  0  0  0  0
    2.4699    0.5509    0.0000 C   0  0  0  0  0  0  0  0  0  0  0  0
    1.2175   -0.2746    0.0000 C   0  0  0  0  0  0  0  0  0  0  0  0
   -0.1236    0.3972    0.0000 C   0  0  0  0  0  0  0  0  0  0  0  0
   -0.2123    1.8946    0.0000 O   0  0  0  0  0  0  0  0  0  0  0  0
   -1.3760   -0.4283    0.0000 N   0  0  0  0  0  0  0  0  0  0  0  0
   -2.7172    0.2436    0.0000 C   0  0  0  0  0  0  0  0  0  0  0  0
   -3.9696   -0.5819    0.0000 C   0  0  0  0  0  0  0  0  0  0  0  0
   -5.3107    0.0899    0.0000 C   0  0  0  0  0  0  0  0  0  0  0  0
   -6.5631   -0.7356    0.0000 C   0  0  0  0  0  0  0  0  0  0  0  0
   -7.9042   -0.0637    0.0000 C   0  0  0  0  0  0  0  0  0  0  0  0
   -7.9929    1.4337    0.0000 N   0  0  0  0  0  0  0  0  0  0  0  0
   -9.1566   -0.8892    0.0000 C   0  0  0  0  0  0  0  0  0  0  0  0
   -9.0679   -2.3866    0.0000 O   0  0  0  0  0  0  0  0  0  0  0  0
  -10.4978   -0.2174    0.0000 O   0  0  0  0  0  0  0  0  0  0  0  0
    2.3812    2.0482    0.0000 C   0  0  0  0  0  0  0  0  0  0  0  0
    3.6336    2.8738    0.0000 C   0  0  0  0  0  0  0  0  0  0  0  0
    3.5449    4.3711    0.0000 O   0  0  0  0  0  0  0  0  0  0  0  0
    4.9747    2.2019    0.0000 O   0  0  0  0  0  0  0  0  0  0  0  0
    5.0634    0.7045    0.0000 C   0  0  0  0  0  0  0  0  0  0  0  0
    6.4045    0.0327    0.0000 C   0  0  0  0  0  0  0  0  0  0  0  0
  1  2  1  0
  2  3  1  0
  3  4  1  0
  4  5  2  0
  5  6  1  0
  6  7  1  0
  7  8  1  0
  8  9  1  0
  9 10  2  0
  9 11  1  0
 11 12  1  0
 12 13  1  0
 13 14  1  0
 14 15  1  0
 15 16  1  0
 16 17  1  1
 16 18  1  0
 18 19  2  0
 18 20  1  0
  7 21  2  0
 21 22  1  0
 22 23  2  0
 22 24  1  0
 24 25  1  0
 25 26  1  0
 26  3  2  0
 25  6  2  0
M  END
>  <rName>  (2059) 
Lys_Mca

>  <PQ_SYMBOL>  (2059) 
Lys_Mca

>  <FULL_NAME>  (2059) 
N6-(2-(7-methoxy-2-oxo-2H-chromen-4-yl)acetyl)-L-lysine

>  <IUPAC_CONDENSED>  (2059) 
Lys(Mca)

>  <IUPAC>  (2059) 
(2S)-2-amino-6-((9-methoxy-3-oxo-2-oxabicyclo[4.4.0]deca-1(10),4,6,8-tetraen-5-yl)methylcarbonylamino)hexanoic acid

>  <TYPE>  (2059) 
Backbone

>  <CLASS>  (2059) 
alpha

>  <ANALOG>  (2059) 
Lys

>  <MOL_WT>  (2059) 
362.38200000000006

>  <LOGP>  (2059) 
1.0425000000000004

>  <TPSA>  (2059) 
131.86

>  <POPULARITY>  (2059) 
5.0

>  <PROTECTED>  (2059) 
TRUE

>  <SMILES>  (2059) 
COc1ccc2c(CC(=O)NCCCC[C@H](N)C(=O)O)cc(=O)oc2c1

>  <INCHIKEY>  (2059) 
QRFZXDIMTUJAAN-AWEZNQCLSA-N

$$$$
Lys_Me
     RDKit          2D

 11 10  0  0  0  0  0  0  0  0999 V2000
    1.9630   -1.8884    0.0000 N   0  0  0  0  0  0  0  0  0  0  0  0
    1.9989   -0.3888    0.0000 C   0  0  0  0  0  0  0  0  0  0  0  0
    0.7181    0.3920    0.0000 C   0  0  0  0  0  0  0  0  0  0  0  0
   -0.5985   -0.3267    0.0000 C   0  0  0  0  0  0  0  0  0  0  0  0
   -1.8792    0.4541    0.0000 C   0  0  0  0  0  0  0  0  0  0  0  0
   -3.1958   -0.2646    0.0000 C   0  0  0  0  0  0  0  0  0  0  0  0
   -4.4765    0.5162    0.0000 N   0  0  0  0  0  0  0  0  0  0  0  0
   -5.7931   -0.2025    0.0000 C   0  0  0  0  0  0  0  0  0  0  0  0
    3.3155    0.3299    0.0000 C   0  0  0  0  0  0  0  0  0  0  0  0
    3.3513    1.8295    0.0000 O   0  0  0  0  0  0  0  0  0  0  0  0
    4.5962   -0.4509    0.0000 O   0  0  0  0  0  0  0  0  0  0  0  0
  2  1  1  1
  2  3  1  0
  3  4  1  0
  4  5  1  0
  5  6  1  0
  6  7  1  0
  7  8  1  0
  2  9  1  0
  9 10  2  0
  9 11  1  0
M  END
>  <rName>  (2060) 
Lys_Me

>  <PQ_SYMBOL>  (2060) 
Lys_Me

>  <FULL_NAME>  (2060) 
N(6)-Methyllysine

>  <IUPAC_CONDENSED>  (2060) 
Lys(Me)

>  <IUPAC>  (2060) 
(2S)-2-amino-6-(methylamino)hexanoic acid

>  <TYPE>  (2060) 
Backbone

>  <CLASS>  (2060) 
alpha

>  <ANALOG>  (2060) 
Lys

>  <MOL_WT>  (2060) 
160.217

>  <LOGP>  (2060) 
-0.21200000000000047

>  <TPSA>  (2060) 
75.35

>  <POPULARITY>  (2060) 
44.7

>  <PROTECTED>  (2060) 
TRUE

>  <SMILES>  (2060) 
N[C@@H](CCCCNC)C(=O)O

>  <INCHIKEY>  (2060) 
PQNASZJZHFPQLE-LURJTMIESA-N

$$$$
Lys_Me2
     RDKit          2D

 12 11  0  0  0  0  0  0  0  0999 V2000
    2.4617    1.9005    0.0000 N   0  0  0  0  0  0  0  0  0  0  0  0
    2.4001    0.4018    0.0000 C   0  0  0  0  0  0  0  0  0  0  0  0
    1.0713   -0.2943    0.0000 C   0  0  0  0  0  0  0  0  0  0  0  0
   -0.1958    0.5085    0.0000 C   0  0  0  0  0  0  0  0  0  0  0  0
   -1.5245   -0.1875    0.0000 C   0  0  0  0  0  0  0  0  0  0  0  0
   -2.7917    0.6152    0.0000 C   0  0  0  0  0  0  0  0  0  0  0  0
   -4.1204   -0.0808    0.0000 N   0  0  0  0  0  0  0  0  0  0  0  0
   -5.3876    0.7219    0.0000 C   0  0  0  0  0  0  0  0  0  0  0  0
   -4.1820   -1.5796    0.0000 C   0  0  0  0  0  0  0  0  0  0  0  0
    3.6672   -0.4010    0.0000 C   0  0  0  0  0  0  0  0  0  0  0  0
    3.6056   -1.8997    0.0000 O   0  0  0  0  0  0  0  0  0  0  0  0
    4.9960    0.2950    0.0000 O   0  0  0  0  0  0  0  0  0  0  0  0
  2  1  1  6
  2  3  1  0
  3  4  1  0
  4  5  1  0
  5  6  1  0
  6  7  1  0
  7  8  1  0
  7  9  1  0
  2 10  1  0
 10 11  2  0
 10 12  1  0
M  END
>  <rName>  (2061) 
Lys_Me2

>  <PQ_SYMBOL>  (2061) 
Lys_Me2

>  <FULL_NAME>  (2061) 
Epsilon-Dimethyl-L-Lysine

>  <IUPAC_CONDENSED>  (2061) 
Lys(Me2)

>  <IUPAC>  (2061) 
(2S)-2-amino-6-(dimethylamino)hexanoic acid

>  <TYPE>  (2061) 
Backbone

>  <CLASS>  (2061) 
alpha

>  <ANALOG>  (2061) 
Lys

>  <MOL_WT>  (2061) 
174.244

>  <LOGP>  (2061) 
0.13020000000000004

>  <TPSA>  (2061) 
66.56

>  <POPULARITY>  (2061) 
45.0

>  <PROTECTED>  (2061) 
TRUE

>  <SMILES>  (2061) 
N[C@@H](CCCCN(C)C)C(=O)O

>  <INCHIKEY>  (2061) 
XXEWFEBMSGLYBY-ZETCQYMHSA-N

$$$$
Lys_Me3
     RDKit          2D

 13 12  0  0  0  0  0  0  0  0999 V2000
    2.7828    1.9007    0.0000 N   0  0  0  0  0  0  0  0  0  0  0  0
    2.7179    0.4021    0.0000 C   0  0  0  0  0  0  0  0  0  0  0  0
    1.3877   -0.2910    0.0000 C   0  0  0  0  0  0  0  0  0  0  0  0
    0.1223    0.5144    0.0000 C   0  0  0  0  0  0  0  0  0  0  0  0
   -1.2080   -0.1787    0.0000 C   0  0  0  0  0  0  0  0  0  0  0  0
   -2.4734    0.6267    0.0000 C   0  0  0  0  0  0  0  0  0  0  0  0
   -3.8036   -0.0664    0.0000 N   0  0  0  0  0  0  0  0  0  0  0  0
   -4.4968    1.2639    0.0000 C   0  0  0  0  0  0  0  0  0  0  0  0
   -3.1105   -1.3966    0.0000 C   0  0  0  0  0  0  0  0  0  0  0  0
   -5.1339   -0.7595    0.0000 C   0  0  0  0  0  0  0  0  0  0  0  0
    3.9833   -0.4034    0.0000 C   0  0  0  0  0  0  0  0  0  0  0  0
    3.9185   -1.9020    0.0000 O   0  0  0  0  0  0  0  0  0  0  0  0
    5.3136    0.2898    0.0000 O   0  0  0  0  0  0  0  0  0  0  0  0
  2  1  1  6
  2  3  1  0
  3  4  1  0
  4  5  1  0
  5  6  1  0
  6  7  1  0
  7  8  1  0
  7  9  1  0
  7 10  1  0
  2 11  1  0
 11 12  2  0
 11 13  1  0
M  CHG  1   7   1
M  END
>  <rName>  (2062) 
Lys_Me3

>  <PQ_SYMBOL>  (2062) 
Lys_Me3

>  <FULL_NAME>  (2062) 
Epsilon-Trimethyl-L-Lysine

>  <IUPAC_CONDENSED>  (2062) 
Lys(Me3)

>  <IUPAC>  (2062) 
(2S)-2-amino-6-(trimethylammonio)hexanoic acid

>  <TYPE>  (2062) 
Backbone

>  <CLASS>  (2062) 
alpha

>  <ANALOG>  (2062) 
Lys

>  <MOL_WT>  (2062) 
189.279

>  <LOGP>  (2062) 
0.27479999999999966

>  <TPSA>  (2062) 
63.32000000000001

>  <POPULARITY>  (2062) 
19.6

>  <PROTECTED>  (2062) 
TRUE

>  <SMILES>  (2062) 
N[C@@H](CCCC[N+](C)(C)C)C(=O)O

>  <INCHIKEY>  (2062) 
MXNRLFUSFKVQSK-QMMMGPOBSA-O

$$$$
Lys_MeOPEG2acetyl
     RDKit          2D

 21 20  0  0  0  0  0  0  0  0999 V2000
  -11.9395   -0.4457    0.0000 C   0  0  0  0  0  0  0  0  0  0  0  0
  -10.6393    0.3023    0.0000 O   0  0  0  0  0  0  0  0  0  0  0  0
   -9.3414   -0.4498    0.0000 C   0  0  0  0  0  0  0  0  0  0  0  0
   -8.0412    0.2982    0.0000 C   0  0  0  0  0  0  0  0  0  0  0  0
   -6.7433   -0.4538    0.0000 O   0  0  0  0  0  0  0  0  0  0  0  0
   -5.4431    0.2942    0.0000 C   0  0  0  0  0  0  0  0  0  0  0  0
   -4.1453   -0.4578    0.0000 C   0  0  0  0  0  0  0  0  0  0  0  0
   -2.8451    0.2901    0.0000 O   0  0  0  0  0  0  0  0  0  0  0  0
   -1.5472   -0.4619    0.0000 C   0  0  0  0  0  0  0  0  0  0  0  0
   -0.2470    0.2861    0.0000 C   0  0  0  0  0  0  0  0  0  0  0  0
   -0.2447    1.7861    0.0000 O   0  0  0  0  0  0  0  0  0  0  0  0
    1.0509   -0.4659    0.0000 N   0  0  0  0  0  0  0  0  0  0  0  0
    2.3511    0.2821    0.0000 C   0  0  0  0  0  0  0  0  0  0  0  0
    3.6490   -0.4700    0.0000 C   0  0  0  0  0  0  0  0  0  0  0  0
    4.9492    0.2780    0.0000 C   0  0  0  0  0  0  0  0  0  0  0  0
    6.2470   -0.4740    0.0000 C   0  0  0  0  0  0  0  0  0  0  0  0
    7.5472    0.2740    0.0000 C   0  0  0  0  0  0  0  0  0  0  0  0
    7.5496    1.7740    0.0000 N   0  0  0  0  0  0  0  0  0  0  0  0
    8.8451   -0.4780    0.0000 C   0  0  0  0  0  0  0  0  0  0  0  0
    8.8428   -1.9780    0.0000 O   0  0  0  0  0  0  0  0  0  0  0  0
   10.1453    0.2699    0.0000 O   0  0  0  0  0  0  0  0  0  0  0  0
  1  2  1  0
  2  3  1  0
  3  4  1  0
  4  5  1  0
  5  6  1  0
  6  7  1  0
  7  8  1  0
  8  9  1  0
  9 10  1  0
 10 11  2  0
 10 12  1  0
 12 13  1  0
 13 14  1  0
 14 15  1  0
 15 16  1  0
 16 17  1  0
 17 18  1  6
 17 19  1  0
 19 20  2  0
 19 21  1  0
M  END
>  <rName>  (2063) 
Lys_MeOPEG2acetyl

>  <PQ_SYMBOL>  (2063) 
Lys_MeOPEG2acetyl

>  <FULL_NAME>  (2063) 
(S)-16-amino-10-oxo-2,5,8-trioxa-11-azaheptadecan-17-oic acid

>  <IUPAC_CONDENSED>  (2063) 
Lys(MeO-PEG2-acetyl)

>  <IUPAC>  (2063) 
(2S)-2-amino-6-(((2-((2-methoxyethyl)oxy)ethyl)oxy)methylcarbonylamino)hexanoic acid

>  <TYPE>  (2063) 
Backbone

>  <CLASS>  (2063) 
alpha

>  <ANALOG>  (2063) 
Lys

>  <MOL_WT>  (2063) 
306.35900000000004

>  <LOGP>  (2063) 
-0.6355999999999971

>  <TPSA>  (2063) 
120.11

>  <POPULARITY>  (2063) 
3.3

>  <PROTECTED>  (2063) 
TRUE

>  <SMILES>  (2063) 
COCCOCCOCC(=O)NCCCC[C@H](N)C(=O)O

>  <INCHIKEY>  (2063) 
VMYYNDPDICUYSO-NSHDSACASA-N

$$$$
Lys_Me_Ac
     RDKit          2D

 14 13  0  0  0  0  0  0  0  0999 V2000
   -3.2876    1.8878    0.0000 N   0  0  0  0  0  0  0  0  0  0  0  0
   -3.0639    0.4046    0.0000 C   0  0  0  0  0  0  0  0  0  0  0  0
   -1.6675   -0.1432    0.0000 C   0  0  0  0  0  0  0  0  0  0  0  0
   -0.4949    0.7922    0.0000 C   0  0  0  0  0  0  0  0  0  0  0  0
    0.9015    0.2444    0.0000 C   0  0  0  0  0  0  0  0  0  0  0  0
    2.0741    1.1798    0.0000 C   0  0  0  0  0  0  0  0  0  0  0  0
    3.4705    0.6319    0.0000 N   0  0  0  0  0  0  0  0  0  0  0  0
    4.6431    1.5673    0.0000 C   0  0  0  0  0  0  0  0  0  0  0  0
    3.6943   -0.8513    0.0000 C   0  0  0  0  0  0  0  0  0  0  0  0
    5.0907   -1.3991    0.0000 O   0  0  0  0  0  0  0  0  0  0  0  0
    2.5217   -1.7867    0.0000 C   0  0  0  0  0  0  0  0  0  0  0  0
   -4.2365   -0.5308    0.0000 C   0  0  0  0  0  0  0  0  0  0  0  0
   -4.0127   -2.0140    0.0000 O   0  0  0  0  0  0  0  0  0  0  0  0
   -5.6329    0.0170    0.0000 O   0  0  0  0  0  0  0  0  0  0  0  0
  2  1  1  1
  2  3  1  0
  3  4  1  0
  4  5  1  0
  5  6  1  0
  6  7  1  0
  7  8  1  0
  7  9  1  0
  9 10  2  0
  9 11  1  0
  2 12  1  0
 12 13  2  0
 12 14  1  0
M  END
>  <rName>  (2064) 
Lys_Me_Ac

>  <PQ_SYMBOL>  (2064) 
Lys_Me_Ac

>  <FULL_NAME>  (2064) 
N~6~-acetyl-N~6~-methyl-L-lysine

>  <IUPAC_CONDENSED>  (2064) 
Lys(Me,Ac)

>  <IUPAC>  (2064) 
(2S)-2-amino-6-((methyl)(acetyl)amino)hexanoic acid

>  <TYPE>  (2064) 
Backbone

>  <CLASS>  (2064) 
alpha

>  <ANALOG>  (2064) 
Lys

>  <MOL_WT>  (2064) 
202.254

>  <LOGP>  (2064) 
0.046899999999999664

>  <TPSA>  (2064) 
83.63

>  <POPULARITY>  (2064) 
9.9

>  <PROTECTED>  (2064) 
TRUE

>  <SMILES>  (2064) 
N[C@@H](CCCCN(C)C(=O)C)C(=O)O

>  <INCHIKEY>  (2064) 
JDOAXXVMDRGGTF-QMMMGPOBSA-N

$$$$
Lys_N62Abz
     RDKit          2D

 19 19  0  0  0  0  0  0  0  0999 V2000
    1.1036    0.1867    0.0000 N   0  0  0  0  0  0  0  0  0  0  0  0
    2.3671   -0.6217    0.0000 C   0  0  0  0  0  0  0  0  0  0  0  0
    2.2987   -2.1202    0.0000 O   0  0  0  0  0  0  0  0  0  0  0  0
    3.6990    0.0682    0.0000 C   0  0  0  0  0  0  0  0  0  0  0  0
    3.7674    1.5667    0.0000 C   0  0  0  0  0  0  0  0  0  0  0  0
    5.0992    2.2567    0.0000 C   0  0  0  0  0  0  0  0  0  0  0  0
    6.3627    1.4482    0.0000 C   0  0  0  0  0  0  0  0  0  0  0  0
    6.2943   -0.0502    0.0000 C   0  0  0  0  0  0  0  0  0  0  0  0
    4.9625   -0.7402    0.0000 C   0  0  0  0  0  0  0  0  0  0  0  0
    4.8941   -2.2386    0.0000 N   0  0  0  0  0  0  0  0  0  0  0  0
   -0.2283   -0.5033    0.0000 C   0  0  0  0  0  0  0  0  0  0  0  0
   -1.4918    0.3052    0.0000 C   0  0  0  0  0  0  0  0  0  0  0  0
   -2.8237   -0.3848    0.0000 C   0  0  0  0  0  0  0  0  0  0  0  0
   -4.0872    0.4236    0.0000 C   0  0  0  0  0  0  0  0  0  0  0  0
   -5.4190   -0.2663    0.0000 C   0  0  0  0  0  0  0  0  0  0  0  0
   -5.4874   -1.7648    0.0000 N   0  0  0  0  0  0  0  0  0  0  0  0
   -6.6825    0.5421    0.0000 C   0  0  0  0  0  0  0  0  0  0  0  0
   -6.6141    2.0406    0.0000 O   0  0  0  0  0  0  0  0  0  0  0  0
   -8.0144   -0.1479    0.0000 O   0  0  0  0  0  0  0  0  0  0  0  0
  1  2  1  0
  2  3  2  0
  2  4  1  0
  4  5  2  0
  5  6  1  0
  6  7  2  0
  7  8  1  0
  8  9  2  0
  9 10  1  0
  1 11  1  0
 11 12  1  0
 12 13  1  0
 13 14  1  0
 14 15  1  0
 15 16  1  6
 15 17  1  0
 17 18  2  0
 17 19  1  0
  9  4  1  0
M  END
>  <rName>  (2065) 
Lys_N62Abz

>  <PQ_SYMBOL>  (2065) 
Lys_N62Abz

>  <FULL_NAME>  (2065) 
N6-(2-aminobenzoyl)-L-lysine

>  <IUPAC_CONDENSED>  (2065) 
Lys(N6-2Abz)

>  <IUPAC>  (2065) 
(2S)-2-amino-6-(2-aminophenylcarbonylamino)hexanoic acid

>  <TYPE>  (2065) 
Backbone

>  <CLASS>  (2065) 
alpha

>  <ANALOG>  (2065) 
Lys

>  <MOL_WT>  (2065) 
265.3129999999999

>  <LOGP>  (2065) 
0.5808

>  <TPSA>  (2065) 
118.44000000000001

>  <POPULARITY>  (2065) 
6.2

>  <PROTECTED>  (2065) 
TRUE

>  <SMILES>  (2065) 
N(C(=O)c1(ccccc1N))CCCC[C@H](N)C(=O)O

>  <INCHIKEY>  (2065) 
XFEKVIYTYFYQPG-NSHDSACASA-N

$$$$
Lys_N66Ahx
     RDKit          2D

 18 17  0  0  0  0  0  0  0  0999 V2000
   -5.7526    1.8174    0.0000 N   0  0  0  0  0  0  0  0  0  0  0  0
   -5.7702    0.3175    0.0000 C   0  0  0  0  0  0  0  0  0  0  0  0
   -4.4800   -0.4476    0.0000 C   0  0  0  0  0  0  0  0  0  0  0  0
   -3.1723    0.2871    0.0000 C   0  0  0  0  0  0  0  0  0  0  0  0
   -1.8821   -0.4780    0.0000 C   0  0  0  0  0  0  0  0  0  0  0  0
   -0.5744    0.2567    0.0000 C   0  0  0  0  0  0  0  0  0  0  0  0
    0.7158   -0.5084    0.0000 N   0  0  0  0  0  0  0  0  0  0  0  0
    2.0235    0.2264    0.0000 C   0  0  0  0  0  0  0  0  0  0  0  0
    2.0411    1.7263    0.0000 O   0  0  0  0  0  0  0  0  0  0  0  0
    3.3137   -0.5388    0.0000 C   0  0  0  0  0  0  0  0  0  0  0  0
    4.6214    0.1960    0.0000 C   0  0  0  0  0  0  0  0  0  0  0  0
    5.9116   -0.5692    0.0000 C   0  0  0  0  0  0  0  0  0  0  0  0
    7.2193    0.1656    0.0000 C   0  0  0  0  0  0  0  0  0  0  0  0
    8.5095   -0.5995    0.0000 C   0  0  0  0  0  0  0  0  0  0  0  0
    9.8172    0.1352    0.0000 N   0  0  0  0  0  0  0  0  0  0  0  0
   -7.0779   -0.4173    0.0000 C   0  0  0  0  0  0  0  0  0  0  0  0
   -7.0954   -1.9172    0.0000 O   0  0  0  0  0  0  0  0  0  0  0  0
   -8.3681    0.3479    0.0000 O   0  0  0  0  0  0  0  0  0  0  0  0
  2  1  1  1
  2  3  1  0
  3  4  1  0
  4  5  1  0
  5  6  1  0
  6  7  1  0
  7  8  1  0
  8  9  2  0
  8 10  1  0
 10 11  1  0
 11 12  1  0
 12 13  1  0
 13 14  1  0
 14 15  1  0
  2 16  1  0
 16 17  2  0
 16 18  1  0
M  END
>  <rName>  (2066) 
Lys_N66Ahx

>  <PQ_SYMBOL>  (2066) 
Lys_N66Ahx

>  <FULL_NAME>  (2066) 
(2S)-2-amino-6-(6-aminohexanoylamino)hexanoic acid

>  <IUPAC_CONDENSED>  (2066) 
Lys(N6-6-Ahx)

>  <IUPAC>  (2066) 
(2S)-2-amino-6-(6-aminohexanoylamino)hexanoic acid

>  <TYPE>  (2066) 
Backbone

>  <CLASS>  (2066) 
alpha

>  <ANALOG>  (2066) 
Lys

>  <MOL_WT>  (2066) 
259.3499999999999

>  <LOGP>  (2066) 
0.20390000000000114

>  <TPSA>  (2066) 
118.44000000000001

>  <POPULARITY>  (2066) 
3.8

>  <PROTECTED>  (2066) 
TRUE

>  <SMILES>  (2066) 
N[C@@H](CCCCNC(=O)CCCCCN)C(=O)O

>  <INCHIKEY>  (2066) 
DOLQRYIKBIJBOW-JTQLQIEISA-N

$$$$
Lys_N6Cys
     RDKit          2D

 16 15  0  0  0  0  0  0  0  0999 V2000
    2.1144   -0.3552    0.0000 N   0  0  0  0  0  0  0  0  0  0  0  0
    3.4063    0.4070    0.0000 C   0  0  0  0  0  0  0  0  0  0  0  0
    3.3922    1.9069    0.0000 O   0  0  0  0  0  0  0  0  0  0  0  0
    4.7123   -0.3308    0.0000 C   0  0  0  0  0  0  0  0  0  0  0  0
    4.7264   -1.8307    0.0000 N   0  0  0  0  0  0  0  0  0  0  0  0
    6.0043    0.4314    0.0000 C   0  0  0  0  0  0  0  0  0  0  0  0
    7.3103   -0.3064    0.0000 S   0  0  0  0  0  0  0  0  0  0  0  0
    0.8083    0.3826    0.0000 C   0  0  0  0  0  0  0  0  0  0  0  0
   -0.4836   -0.3796    0.0000 C   0  0  0  0  0  0  0  0  0  0  0  0
   -1.7896    0.3582    0.0000 C   0  0  0  0  0  0  0  0  0  0  0  0
   -3.0816   -0.4040    0.0000 C   0  0  0  0  0  0  0  0  0  0  0  0
   -4.3876    0.3338    0.0000 C   0  0  0  0  0  0  0  0  0  0  0  0
   -4.4017    1.8337    0.0000 N   0  0  0  0  0  0  0  0  0  0  0  0
   -5.6795   -0.4284    0.0000 C   0  0  0  0  0  0  0  0  0  0  0  0
   -5.6654   -1.9283    0.0000 O   0  0  0  0  0  0  0  0  0  0  0  0
   -6.9855    0.3094    0.0000 O   0  0  0  0  0  0  0  0  0  0  0  0
  1  2  1  0
  2  3  2  0
  2  4  1  0
  4  5  1  6
  4  6  1  0
  6  7  1  0
  1  8  1  0
  8  9  1  0
  9 10  1  0
 10 11  1  0
 11 12  1  0
 12 13  1  1
 12 14  1  0
 14 15  2  0
 14 16  1  0
M  END
>  <rName>  (2067) 
Lys_N6Cys

>  <PQ_SYMBOL>  (2067) 
Lys_N6Cys

>  <FULL_NAME>  (2067) 
N6-(L-cysteinyl)-L-lysine

>  <IUPAC_CONDENSED>  (2067) 
Lys(N6-Cys)

>  <IUPAC>  (2067) 
(2S)-2-amino-6-((1R)-1-amino-2-sulfanylethylcarbonylamino)hexanoic acid

>  <TYPE>  (2067) 
Backbone

>  <CLASS>  (2067) 
alpha

>  <ANALOG>  (2067) 
Lys

>  <MOL_WT>  (2067) 
249.33599999999996

>  <LOGP>  (2067) 
-1.0580999999999992

>  <TPSA>  (2067) 
118.44000000000001

>  <POPULARITY>  (2067) 
6.0

>  <PROTECTED>  (2067) 
TRUE

>  <SMILES>  (2067) 
N(C(=O)[C@@H](N)CS)CCCC[C@H](N)C(=O)O

>  <INCHIKEY>  (2067) 
ZPLTXTROMWYDIX-BQBZGAKWSA-N

$$$$
Lys_N6Thz
     RDKit          2D

 17 17  0  0  0  0  0  0  0  0999 V2000
   -4.8685   -1.7581    0.0000 N   0  0  0  0  0  0  0  0  0  0  0  0
   -4.7805   -0.2606    0.0000 C   0  0  0  0  0  0  0  0  0  0  0  0
   -3.4397    0.4119    0.0000 C   0  0  0  0  0  0  0  0  0  0  0  0
   -2.1869   -0.4130    0.0000 C   0  0  0  0  0  0  0  0  0  0  0  0
   -0.8461    0.2595    0.0000 C   0  0  0  0  0  0  0  0  0  0  0  0
    0.4067   -0.5654    0.0000 C   0  0  0  0  0  0  0  0  0  0  0  0
    1.7475    0.1071    0.0000 N   0  0  0  0  0  0  0  0  0  0  0  0
    3.0003   -0.7178    0.0000 C   0  0  0  0  0  0  0  0  0  0  0  0
    2.9123   -2.2152    0.0000 O   0  0  0  0  0  0  0  0  0  0  0  0
    4.3411   -0.0453    0.0000 C   0  0  0  0  0  0  0  0  0  0  0  0
    5.6732   -0.7347    0.0000 C   0  0  0  0  0  0  0  0  0  0  0  0
    6.7406    0.3192    0.0000 S   0  0  0  0  0  0  0  0  0  0  0  0
    6.0681    1.6600    0.0000 C   0  0  0  0  0  0  0  0  0  0  0  0
    4.5851    1.4347    0.0000 N   0  0  0  0  0  0  0  0  0  0  0  0
   -6.0334    0.5642    0.0000 C   0  0  0  0  0  0  0  0  0  0  0  0
   -5.9454    2.0617    0.0000 O   0  0  0  0  0  0  0  0  0  0  0  0
   -7.3741   -0.1083    0.0000 O   0  0  0  0  0  0  0  0  0  0  0  0
  2  1  1  6
  2  3  1  0
  3  4  1  0
  4  5  1  0
  5  6  1  0
  6  7  1  0
  7  8  1  0
  8  9  2  0
 10  8  1  1
 10 11  1  0
 11 12  1  0
 12 13  1  0
 13 14  1  0
  2 15  1  0
 15 16  2  0
 15 17  1  0
 14 10  1  0
M  END
>  <rName>  (2068) 
Lys_N6Thz

>  <PQ_SYMBOL>  (2068) 
Lys_N6Thz

>  <FULL_NAME>  (2068) 
(2S)-2-amino-6-{[(4R)-1,3-thiazolidin-4-yl]formamido}hexanoic acid

>  <IUPAC_CONDENSED>  (2068) 
Lys(N6-Thz)

>  <IUPAC>  (2068) 
(2S)-2-amino-6-[[(4R)-1,3-thiazolidine-4-carbonyl]amino]hexanoic acid

>  <TYPE>  (2068) 
Backbone

>  <CLASS>  (2068) 
alpha

>  <ANALOG>  (2068) 
Lys

>  <MOL_WT>  (2068) 
261.347

>  <LOGP>  (2068) 
-0.652699999999999

>  <TPSA>  (2068) 
104.45

>  <POPULARITY>  (2068) 
2.2

>  <PROTECTED>  (2068) 
TRUE

>  <SMILES>  (2068) 
N[C@@H](CCCCNC(=O)[C@@H]1(CSCN1))C(=O)O

>  <INCHIKEY>  (2068) 
WMQSFBUZDZBTKA-YUMQZZPRSA-N

$$$$
Lys_Poc
     RDKit          2D

 16 15  0  0  0  0  0  0  0  0999 V2000
    8.3748   -1.0810    0.0000 C   0  0  0  0  0  0  0  0  0  0  0  0
    7.0677   -0.3451    0.0000 C   0  0  0  0  0  0  0  0  0  0  0  0
    5.7606    0.3907    0.0000 C   0  0  0  0  0  0  0  0  0  0  0  0
    4.4698   -0.3734    0.0000 O   0  0  0  0  0  0  0  0  0  0  0  0
    3.1627    0.3625    0.0000 C   0  0  0  0  0  0  0  0  0  0  0  0
    3.1464    1.8624    0.0000 O   0  0  0  0  0  0  0  0  0  0  0  0
    1.8718   -0.4016    0.0000 N   0  0  0  0  0  0  0  0  0  0  0  0
    0.5647    0.3343    0.0000 C   0  0  0  0  0  0  0  0  0  0  0  0
   -0.7261   -0.4298    0.0000 C   0  0  0  0  0  0  0  0  0  0  0  0
   -2.0332    0.3061    0.0000 C   0  0  0  0  0  0  0  0  0  0  0  0
   -3.3240   -0.4580    0.0000 C   0  0  0  0  0  0  0  0  0  0  0  0
   -4.6311    0.2779    0.0000 C   0  0  0  0  0  0  0  0  0  0  0  0
   -4.6474    1.7778    0.0000 N   0  0  0  0  0  0  0  0  0  0  0  0
   -5.9219   -0.4862    0.0000 C   0  0  0  0  0  0  0  0  0  0  0  0
   -5.9056   -1.9861    0.0000 O   0  0  0  0  0  0  0  0  0  0  0  0
   -7.2290    0.2496    0.0000 O   0  0  0  0  0  0  0  0  0  0  0  0
  1  2  3  0
  2  3  1  0
  3  4  1  0
  4  5  1  0
  5  6  2  0
  5  7  1  0
  7  8  1  0
  8  9  1  0
  9 10  1  0
 10 11  1  0
 11 12  1  0
 12 13  1  1
 12 14  1  0
 14 15  2  0
 14 16  1  0
M  END
>  <rName>  (2069) 
Lys_Poc

>  <PQ_SYMBOL>  (2069) 
Lys_Poc

>  <FULL_NAME>  (2069) 
N6-((prop-2-yn-1-yloxy)carbonyl)-L-lysine

>  <IUPAC_CONDENSED>  (2069) 
Lys(Poc)

>  <IUPAC>  (2069) 
(2S)-2-amino-6-((prop-2-yn-1-yl)oxycarbonylamino)hexanoic acid

>  <TYPE>  (2069) 
Backbone

>  <CLASS>  (2069) 
alpha

>  <ANALOG>  (2069) 
Lys

>  <MOL_WT>  (2069) 
228.24799999999996

>  <LOGP>  (2069) 
-0.0719999999999994

>  <TPSA>  (2069) 
101.64999999999999

>  <POPULARITY>  (2069) 
6.0

>  <PROTECTED>  (2069) 
TRUE

>  <SMILES>  (2069) 
C#CCOC(=O)NCCCC[C@H](N)C(=O)O

>  <INCHIKEY>  (2069) 
KRFMMSZGIQEBIJ-QMMMGPOBSA-N

$$$$
Lys_Pyranose_RRSS
     RDKit          2D

 27 29  0  0  0  0  0  0  0  0999 V2000
    7.4329    1.3678    0.0000 N   0  0  0  0  0  0  0  0  0  0  0  0
    7.1184   -0.0988    0.0000 C   0  0  0  0  0  0  0  0  0  0  0  0
    5.6910   -0.5598    0.0000 C   0  0  0  0  0  0  0  0  0  0  0  0
    4.5781    0.4458    0.0000 C   0  0  0  0  0  0  0  0  0  0  0  0
    3.1507   -0.0151    0.0000 C   0  0  0  0  0  0  0  0  0  0  0  0
    2.0377    0.9905    0.0000 C   0  0  0  0  0  0  0  0  0  0  0  0
    0.6103    0.5295    0.0000 N   0  0  0  0  0  0  0  0  0  0  0  0
   -0.5026    1.5352    0.0000 C   0  0  0  0  0  0  0  0  0  0  0  0
   -1.9300    1.0742    0.0000 C   0  0  0  0  0  0  0  0  0  0  0  0
   -0.9283   -0.0423    0.0000 O   0  0  0  0  0  0  0  0  0  0  0  0
   -1.3943   -1.4680    0.0000 C   0  0  0  0  0  0  0  0  0  0  0  0
   -2.8621   -1.7773    0.0000 C   0  0  0  0  0  0  0  0  0  0  0  0
   -3.6144   -3.0750    0.0000 O   0  0  0  0  0  0  0  0  0  0  0  0
   -5.0811   -2.7605    0.0000 C   0  0  0  0  0  0  0  0  0  0  0  0
   -5.2352   -1.2685    0.0000 O   0  0  0  0  0  0  0  0  0  0  0  0
   -3.8638   -0.6608    0.0000 C   0  0  0  0  0  0  0  0  0  0  0  0
   -3.3978    0.7649    0.0000 C   0  0  0  0  0  0  0  0  0  0  0  0
   -4.1455    2.0653    0.0000 O   0  0  0  0  0  0  0  0  0  0  0  0
   -3.1398    3.1782    0.0000 C   0  0  0  0  0  0  0  0  0  0  0  0
   -1.7706    2.5657    0.0000 O   0  0  0  0  0  0  0  0  0  0  0  0
   -4.3518    4.0621    0.0000 C   0  0  0  0  0  0  0  0  0  0  0  0
   -2.3875    4.4760    0.0000 C   0  0  0  0  0  0  0  0  0  0  0  0
   -5.2405   -4.2520    0.0000 C   0  0  0  0  0  0  0  0  0  0  0  0
   -6.5811   -2.7579    0.0000 C   0  0  0  0  0  0  0  0  0  0  0  0
    8.2314   -1.1045    0.0000 C   0  0  0  0  0  0  0  0  0  0  0  0
    7.9169   -2.5712    0.0000 O   0  0  0  0  0  0  0  0  0  0  0  0
    9.6588   -0.6435    0.0000 O   0  0  0  0  0  0  0  0  0  0  0  0
  2  1  1  6
  2  3  1  0
  3  4  1  0
  4  5  1  0
  5  6  1  0
  6  7  1  0
  7  8  1  0
  9  8  1  1
  9 10  1  0
 10 11  1  0
 12 11  1  1
 12 13  1  0
 13 14  1  0
 14 15  1  0
 16 15  1  1
 16 17  1  0
 17 18  1  6
 18 19  1  0
 19 20  1  0
 19 21  1  0
 19 22  1  0
 14 23  1  0
 14 24  1  0
  2 25  1  0
 25 26  2  0
 25 27  1  0
 16 12  1  0
 17  9  1  0
 20  9  1  0
M  END
>  <rName>  (2070) 
Lys_Pyranose_RRSS

>  <PQ_SYMBOL>  (2070) 
Lys_Pyranose_RRSS

>  <FULL_NAME>  (2070) 
(S)-2-Amino-6-((((3AS,5AR,8AR,8BS)-2,2,7,7-tetramethyltetrahydro-3AH-bis([1,3]dioxolo)[4,5-B:4',5'-D]pyran-3A-YL)methyl)amino)hexanoic acid

>  <IUPAC_CONDENSED>  (2070) 
Lys(Pyranose(RRSS))

>  <IUPAC>  (2070) 
(2S)-2-amino-6-[[(1R,2S,6S,9R)-4,4,11,11-tetramethyl-3,5,7,10,12-pentaoxatricyclo[7.3.0.02,6]dodecan-6-yl]methylamino]hexanoic acid

>  <TYPE>  (2070) 
Backbone

>  <CLASS>  (2070) 
alpha

>  <ANALOG>  (2070) 
Lys

>  <MOL_WT>  (2070) 
388.4610000000002

>  <LOGP>  (2070) 
0.5563000000000013

>  <TPSA>  (2070) 
121.50000000000001

>  <POPULARITY>  (2070) 
2.2

>  <PROTECTED>  (2070) 
TRUE

>  <SMILES>  (2070) 
N[C@@H](CCCCNC[C@]32(OC[C@H]1(OC(O[C@H]1[C@@H]2OC(O3)(C)C)(C)C)))C(=O)O

>  <INCHIKEY>  (2070) 
CUOGVCNNXSYYPD-OZDMPAMKSA-N

$$$$
Lys_Suc
     RDKit          2D

 17 16  0  0  0  0  0  0  0  0999 V2000
    5.0648   -1.7935    0.0000 N   0  0  0  0  0  0  0  0  0  0  0  0
    5.0471   -0.2936    0.0000 C   0  0  0  0  0  0  0  0  0  0  0  0
    3.7394    0.4411    0.0000 C   0  0  0  0  0  0  0  0  0  0  0  0
    2.4492   -0.3241    0.0000 C   0  0  0  0  0  0  0  0  0  0  0  0
    1.1415    0.4105    0.0000 C   0  0  0  0  0  0  0  0  0  0  0  0
   -0.1487   -0.3547    0.0000 C   0  0  0  0  0  0  0  0  0  0  0  0
   -1.4564    0.3799    0.0000 N   0  0  0  0  0  0  0  0  0  0  0  0
   -2.7466   -0.3853    0.0000 C   0  0  0  0  0  0  0  0  0  0  0  0
   -2.7289   -1.8852    0.0000 O   0  0  0  0  0  0  0  0  0  0  0  0
   -4.0543    0.3494    0.0000 C   0  0  0  0  0  0  0  0  0  0  0  0
   -5.3445   -0.4159    0.0000 C   0  0  0  0  0  0  0  0  0  0  0  0
   -6.6522    0.3188    0.0000 C   0  0  0  0  0  0  0  0  0  0  0  0
   -6.6699    1.8187    0.0000 O   0  0  0  0  0  0  0  0  0  0  0  0
   -7.9424   -0.4464    0.0000 O   0  0  0  0  0  0  0  0  0  0  0  0
    6.3373    0.4717    0.0000 C   0  0  0  0  0  0  0  0  0  0  0  0
    6.3196    1.9716    0.0000 O   0  0  0  0  0  0  0  0  0  0  0  0
    7.6450   -0.2630    0.0000 O   0  0  0  0  0  0  0  0  0  0  0  0
  2  1  1  1
  2  3  1  0
  3  4  1  0
  4  5  1  0
  5  6  1  0
  6  7  1  0
  7  8  1  0
  8  9  2  0
  8 10  1  0
 10 11  1  0
 11 12  1  0
 12 13  2  0
 12 14  1  0
  2 15  1  0
 15 16  2  0
 15 17  1  0
M  END
>  <rName>  (2071) 
Lys_Suc

>  <PQ_SYMBOL>  (2071) 
Lys_Suc

>  <FULL_NAME>  (2071) 
(2S)-2-azanyl-6-[(4-hydroxy-4-oxo-butanoyl)amino]hexanoic acid

>  <IUPAC_CONDENSED>  (2071) 
Lys(Suc)

>  <IUPAC>  (2071) 
(2S)-2-amino-6-(3-hydroxy-3-oxopropylcarbonylamino)hexanoic acid

>  <TYPE>  (2071) 
Backbone

>  <CLASS>  (2071) 
alpha

>  <ANALOG>  (2071) 
Lys

>  <MOL_WT>  (2071) 
246.26299999999998

>  <LOGP>  (2071) 
-0.45039999999999997

>  <TPSA>  (2071) 
129.72

>  <POPULARITY>  (2071) 
20.8

>  <PROTECTED>  (2071) 
TRUE

>  <SMILES>  (2071) 
N[C@@H](CCCCNC(=O)CCC(=O)O)C(=O)O

>  <INCHIKEY>  (2071) 
ZAFOVBXOMIXMTH-ZETCQYMHSA-N

$$$$
Lys_TAc
     RDKit          2D

 13 12  0  0  0  0  0  0  0  0999 V2000
   -2.9072   -1.8790    0.0000 N   0  0  0  0  0  0  0  0  0  0  0  0
   -2.9824   -0.3808    0.0000 C   0  0  0  0  0  0  0  0  0  0  0  0
   -1.7226    0.4334    0.0000 C   0  0  0  0  0  0  0  0  0  0  0  0
   -0.3876   -0.2505    0.0000 C   0  0  0  0  0  0  0  0  0  0  0  0
    0.8722    0.5637    0.0000 C   0  0  0  0  0  0  0  0  0  0  0  0
    2.2072   -0.1202    0.0000 C   0  0  0  0  0  0  0  0  0  0  0  0
    3.4670    0.6940    0.0000 N   0  0  0  0  0  0  0  0  0  0  0  0
    4.8020    0.0101    0.0000 C   0  0  0  0  0  0  0  0  0  0  0  0
    6.0618    0.8243    0.0000 C   0  0  0  0  0  0  0  0  0  0  0  0
    4.8772   -1.4880    0.0000 S   0  0  0  0  0  0  0  0  0  0  0  0
   -4.3175    0.3030    0.0000 C   0  0  0  0  0  0  0  0  0  0  0  0
   -4.3927    1.8012    0.0000 O   0  0  0  0  0  0  0  0  0  0  0  0
   -5.5772   -0.5112    0.0000 O   0  0  0  0  0  0  0  0  0  0  0  0
  2  1  1  6
  2  3  1  0
  3  4  1  0
  4  5  1  0
  5  6  1  0
  6  7  1  0
  7  8  1  0
  8  9  1  0
  8 10  2  0
  2 11  1  0
 11 12  2  0
 11 13  1  0
M  END
>  <rName>  (2072) 
Lys_TAc

>  <PQ_SYMBOL>  (2072) 
Lys_TAc

>  <FULL_NAME>  (2072) 
6-N-Thiolacetyl-L-Lysine, N-epsilon-Thioacetyllysine

>  <IUPAC_CONDENSED>  (2072) 
Lys(TAc)

>  <IUPAC>  (2072) 
(2S)-2-amino-6-methylcarbonothioylaminohexanoic acid

>  <TYPE>  (2072) 
Backbone

>  <CLASS>  (2072) 
alpha

>  <ANALOG>  (2072) 
Lys

>  <MOL_WT>  (2072) 
204.295

>  <LOGP>  (2072) 
0.5054999999999996

>  <TPSA>  (2072) 
75.35

>  <POPULARITY>  (2072) 
22.0

>  <PROTECTED>  (2072) 
TRUE

>  <SMILES>  (2072) 
N[C@@H](CCCCNC(C)=S)C(=O)O

>  <INCHIKEY>  (2072) 
SLVMGVMSUOULGW-ZETCQYMHSA-N

$$$$
Lys_Tfa
     RDKit          2D

 16 15  0  0  0  0  0  0  0  0999 V2000
    4.2348   -1.8455    0.0000 N   0  0  0  0  0  0  0  0  0  0  0  0
    4.2244   -0.3456    0.0000 C   0  0  0  0  0  0  0  0  0  0  0  0
    2.9202    0.3954    0.0000 C   0  0  0  0  0  0  0  0  0  0  0  0
    1.6264   -0.3637    0.0000 C   0  0  0  0  0  0  0  0  0  0  0  0
    0.3221    0.3773    0.0000 C   0  0  0  0  0  0  0  0  0  0  0  0
   -0.9716   -0.3818    0.0000 C   0  0  0  0  0  0  0  0  0  0  0  0
   -2.2759    0.3591    0.0000 N   0  0  0  0  0  0  0  0  0  0  0  0
   -3.5697   -0.3999    0.0000 C   0  0  0  0  0  0  0  0  0  0  0  0
   -3.5592   -1.8999    0.0000 O   0  0  0  0  0  0  0  0  0  0  0  0
   -4.8739    0.3410    0.0000 C   0  0  0  0  0  0  0  0  0  0  0  0
   -6.1781    1.0820    0.0000 F   0  0  0  0  0  0  0  0  0  0  0  0
   -5.6148   -0.9632    0.0000 F   0  0  0  0  0  0  0  0  0  0  0  0
   -4.1330    1.6453    0.0000 F   0  0  0  0  0  0  0  0  0  0  0  0
    5.5182    0.4135    0.0000 C   0  0  0  0  0  0  0  0  0  0  0  0
    5.5077    1.9134    0.0000 O   0  0  0  0  0  0  0  0  0  0  0  0
    6.8224   -0.3275    0.0000 O   0  0  0  0  0  0  0  0  0  0  0  0
  2  1  1  1
  2  3  1  0
  3  4  1  0
  4  5  1  0
  5  6  1  0
  6  7  1  0
  7  8  1  0
  8  9  2  0
  8 10  1  0
 10 11  1  0
 10 12  1  0
 10 13  1  0
  2 14  1  0
 14 15  2  0
 14 16  1  0
M  END
>  <rName>  (2073) 
Lys_Tfa

>  <PQ_SYMBOL>  (2073) 
Lys_Tfa

>  <FULL_NAME>  (2073) 
N6-trifluoroacetyl-L-lysine

>  <IUPAC_CONDENSED>  (2073) 
Lys(Tfa)

>  <IUPAC>  (2073) 
(2S)-2-amino-6-(trifluoromethylcarbonylamino)hexanoic acid

>  <TYPE>  (2073) 
Backbone

>  <CLASS>  (2073) 
alpha

>  <ANALOG>  (2073) 
Lys

>  <MOL_WT>  (2073) 
242.19699999999997

>  <LOGP>  (2073) 
0.24709999999999943

>  <TPSA>  (2073) 
92.42

>  <POPULARITY>  (2073) 
10.7

>  <PROTECTED>  (2073) 
TRUE

>  <SMILES>  (2073) 
N[C@@H](CCCCNC(=O)C(F)(F)F)C(=O)O

>  <INCHIKEY>  (2073) 
PZZHRSVBHRVIMI-YFKPBYRVSA-N

$$$$
Lys_acetyl
     RDKit          2D

 13 12  0  0  0  0  0  0  0  0999 V2000
   -2.9072   -1.8790    0.0000 N   0  0  0  0  0  0  0  0  0  0  0  0
   -2.9824   -0.3808    0.0000 C   0  0  0  0  0  0  0  0  0  0  0  0
   -1.7226    0.4334    0.0000 C   0  0  0  0  0  0  0  0  0  0  0  0
   -0.3876   -0.2505    0.0000 C   0  0  0  0  0  0  0  0  0  0  0  0
    0.8722    0.5637    0.0000 C   0  0  0  0  0  0  0  0  0  0  0  0
    2.2072   -0.1202    0.0000 C   0  0  0  0  0  0  0  0  0  0  0  0
    3.4670    0.6940    0.0000 N   0  0  0  0  0  0  0  0  0  0  0  0
    4.8020    0.0101    0.0000 C   0  0  0  0  0  0  0  0  0  0  0  0
    4.8772   -1.4880    0.0000 O   0  0  0  0  0  0  0  0  0  0  0  0
    6.0618    0.8243    0.0000 C   0  0  0  0  0  0  0  0  0  0  0  0
   -4.3175    0.3030    0.0000 C   0  0  0  0  0  0  0  0  0  0  0  0
   -4.3927    1.8012    0.0000 O   0  0  0  0  0  0  0  0  0  0  0  0
   -5.5772   -0.5112    0.0000 O   0  0  0  0  0  0  0  0  0  0  0  0
  2  1  1  6
  2  3  1  0
  3  4  1  0
  4  5  1  0
  5  6  1  0
  6  7  1  0
  7  8  1  0
  8  9  2  0
  8 10  1  0
  2 11  1  0
 11 12  2  0
 11 13  1  0
M  END
>  <rName>  (2074) 
Lys_acetyl

>  <PQ_SYMBOL>  (2074) 
Lys_acetyl

>  <FULL_NAME>  (2074) 
N6-Acetyl-L-Lysine

>  <IUPAC_CONDENSED>  (2074) 
Lys(Ac)

>  <IUPAC>  (2074) 
(2S)-2-amino-6-methylcarbonylaminohexanoic acid

>  <TYPE>  (2074) 
Backbone

>  <CLASS>  (2074) 
alpha

>  <ANALOG>  (2074) 
Lys

>  <MOL_WT>  (2074) 
188.227

>  <LOGP>  (2074) 
-0.2953000000000006

>  <TPSA>  (2074) 
92.42

>  <POPULARITY>  (2074) 
40.5

>  <PROTECTED>  (2074) 
TRUE

>  <SMILES>  (2074) 
N[C@@H](CCCCNC(=O)C)C(=O)O

>  <INCHIKEY>  (2074) 
DTERQYGMUDWYAZ-ZETCQYMHSA-N

$$$$
Lys_acryloyl
     RDKit          2D

 14 13  0  0  0  0  0  0  0  0999 V2000
    3.4434   -1.8746    0.0000 N   0  0  0  0  0  0  0  0  0  0  0  0
    3.5124   -0.3762    0.0000 C   0  0  0  0  0  0  0  0  0  0  0  0
    2.2492    0.4328    0.0000 C   0  0  0  0  0  0  0  0  0  0  0  0
    0.9171   -0.2567    0.0000 C   0  0  0  0  0  0  0  0  0  0  0  0
   -0.3461    0.5522    0.0000 C   0  0  0  0  0  0  0  0  0  0  0  0
   -1.6783   -0.1373    0.0000 C   0  0  0  0  0  0  0  0  0  0  0  0
   -2.9415    0.6717    0.0000 N   0  0  0  0  0  0  0  0  0  0  0  0
   -4.2736   -0.0178    0.0000 C   0  0  0  0  0  0  0  0  0  0  0  0
   -4.3426   -1.5162    0.0000 O   0  0  0  0  0  0  0  0  0  0  0  0
   -5.5368    0.7911    0.0000 C   0  0  0  0  0  0  0  0  0  0  0  0
   -6.8689    0.1016    0.0000 C   0  0  0  0  0  0  0  0  0  0  0  0
    4.8445    0.3133    0.0000 C   0  0  0  0  0  0  0  0  0  0  0  0
    4.9135    1.8117    0.0000 O   0  0  0  0  0  0  0  0  0  0  0  0
    6.1077   -0.4956    0.0000 O   0  0  0  0  0  0  0  0  0  0  0  0
  2  1  1  1
  2  3  1  0
  3  4  1  0
  4  5  1  0
  5  6  1  0
  6  7  1  0
  7  8  1  0
  8  9  2  0
  8 10  1  0
 10 11  2  0
  2 12  1  0
 12 13  2  0
 12 14  1  0
M  END
>  <rName>  (2075) 
Lys_acryloyl

>  <PQ_SYMBOL>  (2075) 
Lys_acryloyl

>  <FULL_NAME>  (2075) 
(S)-6-Acrylamido-2-aminohexanoic acid

>  <IUPAC_CONDENSED>  (2075) 
Lys(acryloyl)

>  <IUPAC>  (2075) 
(2S)-2-amino-6-(prop-2-enoylamino)hexanoic acid

>  <TYPE>  (2075) 
Backbone

>  <CLASS>  (2075) 
alpha

>  <ANALOG>  (2075) 
Lys

>  <MOL_WT>  (2075) 
200.238

>  <LOGP>  (2075) 
-0.12920000000000048

>  <TPSA>  (2075) 
92.42

>  <POPULARITY>  (2075) 
3.5

>  <PROTECTED>  (2075) 
TRUE

>  <SMILES>  (2075) 
N[C@@H](CCCCNC(=O)C=C)C(=O)O

>  <INCHIKEY>  (2075) 
IXKBZVCSFYNRBY-ZETCQYMHSA-N

$$$$
Lys_b_bdiMe
     RDKit          2D

 12 11  0  0  0  0  0  0  0  0999 V2000
    2.6599    1.5822    0.0000 N   0  0  0  0  0  0  0  0  0  0  0  0
    1.6776    0.4485    0.0000 C   0  0  0  0  0  0  0  0  0  0  0  0
    0.2047    0.7323    0.0000 C   0  0  0  0  0  0  0  0  0  0  0  0
    0.4885    2.2052    0.0000 C   0  0  0  0  0  0  0  0  0  0  0  0
   -0.0791   -0.7406    0.0000 C   0  0  0  0  0  0  0  0  0  0  0  0
   -1.2682    1.0160    0.0000 C   0  0  0  0  0  0  0  0  0  0  0  0
   -2.2504   -0.1176    0.0000 C   0  0  0  0  0  0  0  0  0  0  0  0
   -3.7233    0.1661    0.0000 C   0  0  0  0  0  0  0  0  0  0  0  0
   -4.7055   -0.9675    0.0000 N   0  0  0  0  0  0  0  0  0  0  0  0
    2.1683   -0.9690    0.0000 C   0  0  0  0  0  0  0  0  0  0  0  0
    1.1861   -2.1027    0.0000 O   0  0  0  0  0  0  0  0  0  0  0  0
    3.6412   -1.2528    0.0000 O   0  0  0  0  0  0  0  0  0  0  0  0
  2  1  1  6
  2  3  1  0
  3  4  1  0
  3  5  1  0
  3  6  1  0
  6  7  1  0
  7  8  1  0
  8  9  1  0
  2 10  1  0
 10 11  2  0
 10 12  1  0
M  END
>  <rName>  (2076) 
Lys_b_bdiMe

>  <PQ_SYMBOL>  (2076) 
Lys_b_bdiMe

>  <FULL_NAME>  (2076) 
(2S)-2,6-diamino-3,3-dimethylhexanoic acid

>  <IUPAC_CONDENSED>  (2076) 
Lys(b,b-diMe)

>  <IUPAC>  (2076) 
(2S)-2,6-diamino-3,3-dimethylhexanoic acid

>  <TYPE>  (2076) 
Backbone

>  <CLASS>  (2076) 
alpha

>  <ANALOG>  (2076) 
Val

>  <MOL_WT>  (2076) 
174.244

>  <LOGP>  (2076) 
0.16339999999999938

>  <TPSA>  (2076) 
89.34

>  <POPULARITY>  (2076) 
2.2

>  <PROTECTED>  (2076) 
TRUE

>  <SMILES>  (2076) 
N[C@@H](C(C)(C)CCCN)C(=O)O

>  <INCHIKEY>  (2076) 
YKUUSJHRPINHGQ-ZCFIWIBFSA-N

$$$$
Lys_biotinyl
     RDKit          2D

 25 26  0  0  0  0  0  0  0  0999 V2000
   -8.6944   -1.4032    0.0000 N   0  0  0  0  0  0  0  0  0  0  0  0
   -8.4746    0.0806    0.0000 C   0  0  0  0  0  0  0  0  0  0  0  0
   -7.0796    0.6321    0.0000 C   0  0  0  0  0  0  0  0  0  0  0  0
   -5.9045   -0.3001    0.0000 C   0  0  0  0  0  0  0  0  0  0  0  0
   -4.5096    0.2514    0.0000 C   0  0  0  0  0  0  0  0  0  0  0  0
   -3.3345   -0.6809    0.0000 C   0  0  0  0  0  0  0  0  0  0  0  0
   -1.9396   -0.1293    0.0000 N   0  0  0  0  0  0  0  0  0  0  0  0
   -0.7645   -1.0616    0.0000 C   0  0  0  0  0  0  0  0  0  0  0  0
   -0.9843   -2.5454    0.0000 O   0  0  0  0  0  0  0  0  0  0  0  0
    0.6305   -0.5101    0.0000 C   0  0  0  0  0  0  0  0  0  0  0  0
    1.8056   -1.4423    0.0000 C   0  0  0  0  0  0  0  0  0  0  0  0
    3.2005   -0.8908    0.0000 C   0  0  0  0  0  0  0  0  0  0  0  0
    4.3756   -1.8231    0.0000 C   0  0  0  0  0  0  0  0  0  0  0  0
    5.7705   -1.2715    0.0000 C   0  0  0  0  0  0  0  0  0  0  0  0
    7.0366   -2.0759    0.0000 S   0  0  0  0  0  0  0  0  0  0  0  0
    8.1928   -1.1203    0.0000 C   0  0  0  0  0  0  0  0  0  0  0  0
    7.6413    0.2746    0.0000 C   0  0  0  0  0  0  0  0  0  0  0  0
    8.0150    1.7273    0.0000 N   0  0  0  0  0  0  0  0  0  0  0  0
    6.7489    2.5317    0.0000 C   0  0  0  0  0  0  0  0  0  0  0  0
    6.6554    4.0288    0.0000 O   0  0  0  0  0  0  0  0  0  0  0  0
    5.5927    1.5761    0.0000 N   0  0  0  0  0  0  0  0  0  0  0  0
    6.1442    0.1812    0.0000 C   0  0  0  0  0  0  0  0  0  0  0  0
   -9.6497    1.0129    0.0000 C   0  0  0  0  0  0  0  0  0  0  0  0
   -9.4298    2.4967    0.0000 O   0  0  0  0  0  0  0  0  0  0  0  0
  -11.0446    0.4613    0.0000 O   0  0  0  0  0  0  0  0  0  0  0  0
  2  1  1  6
  2  3  1  0
  3  4  1  0
  4  5  1  0
  5  6  1  0
  6  7  1  0
  7  8  1  0
  8  9  2  0
  8 10  1  0
 10 11  1  0
 11 12  1  0
 12 13  1  0
 14 13  1  1
 14 15  1  0
 15 16  1  0
 17 16  1  1
 17 18  1  0
 18 19  1  0
 19 20  2  0
 19 21  1  0
 22 21  1  1
  2 23  1  0
 23 24  2  0
 23 25  1  0
 22 17  1  0
 22 14  1  0
M  END
>  <rName>  (2077) 
Lys_biotinyl

>  <PQ_SYMBOL>  (2077) 
Lys_biotinyl

>  <FULL_NAME>  (2077) 
N(epsilon)-biotinyl-L-lysine, Biocytin

>  <IUPAC_CONDENSED>  (2077) 
Lys(biotinyl)

>  <IUPAC>  (2077) 
(2S)-2-amino-6-(4-((1S,2S,5R)-7-oxo-3-thia-6,8-diazabicyclo[3.3.0]octan-2-yl)butylcarbonylamino)hexanoic acid

>  <TYPE>  (2077) 
Backbone

>  <CLASS>  (2077) 
alpha

>  <ANALOG>  (2077) 
Arg

>  <MOL_WT>  (2077) 
372.49100000000004

>  <LOGP>  (2077) 
0.41060000000000124

>  <TPSA>  (2077) 
133.54999999999998

>  <POPULARITY>  (2077) 
7.2

>  <PROTECTED>  (2077) 
TRUE

>  <SMILES>  (2077) 
N[C@@H](CCCCNC(=O)CCCC[C@@H]2(SC[C@@H]1(NC(=O)N[C@@H]12)))C(=O)O

>  <INCHIKEY>  (2077) 
BAQMYDQNMFBZNA-MNXVOIDGSA-N

$$$$
Lys_biotinylAhx
     RDKit          2D

 33 34  0  0  0  0  0  0  0  0999 V2000
  -13.0776    2.2192    0.0000 N   0  0  0  0  0  0  0  0  0  0  0  0
  -13.1926    0.7236    0.0000 C   0  0  0  0  0  0  0  0  0  0  0  0
  -11.9548   -0.1238    0.0000 C   0  0  0  0  0  0  0  0  0  0  0  0
  -10.6021    0.5245    0.0000 C   0  0  0  0  0  0  0  0  0  0  0  0
   -9.3644   -0.3229    0.0000 C   0  0  0  0  0  0  0  0  0  0  0  0
   -8.0117    0.3254    0.0000 C   0  0  0  0  0  0  0  0  0  0  0  0
   -6.7740   -0.5220    0.0000 N   0  0  0  0  0  0  0  0  0  0  0  0
   -5.4213    0.1263    0.0000 C   0  0  0  0  0  0  0  0  0  0  0  0
   -5.3063    1.6219    0.0000 O   0  0  0  0  0  0  0  0  0  0  0  0
   -4.1835   -0.7211    0.0000 C   0  0  0  0  0  0  0  0  0  0  0  0
   -2.8308   -0.0728    0.0000 C   0  0  0  0  0  0  0  0  0  0  0  0
   -1.5931   -0.9202    0.0000 C   0  0  0  0  0  0  0  0  0  0  0  0
   -0.2404   -0.2719    0.0000 C   0  0  0  0  0  0  0  0  0  0  0  0
    0.9974   -1.1192    0.0000 C   0  0  0  0  0  0  0  0  0  0  0  0
    2.3500   -0.4710    0.0000 N   0  0  0  0  0  0  0  0  0  0  0  0
    3.5878   -1.3183    0.0000 C   0  0  0  0  0  0  0  0  0  0  0  0
    3.4728   -2.8139    0.0000 O   0  0  0  0  0  0  0  0  0  0  0  0
    4.9405   -0.6701    0.0000 C   0  0  0  0  0  0  0  0  0  0  0  0
    6.1782   -1.5174    0.0000 C   0  0  0  0  0  0  0  0  0  0  0  0
    7.5309   -0.8692    0.0000 C   0  0  0  0  0  0  0  0  0  0  0  0
    8.7687   -1.7165    0.0000 C   0  0  0  0  0  0  0  0  0  0  0  0
   10.1214   -1.0683    0.0000 C   0  0  0  0  0  0  0  0  0  0  0  0
   11.4409   -1.7816    0.0000 S   0  0  0  0  0  0  0  0  0  0  0  0
   12.5271   -0.7471    0.0000 C   0  0  0  0  0  0  0  0  0  0  0  0
   11.8788    0.6056    0.0000 C   0  0  0  0  0  0  0  0  0  0  0  0
   12.1495    2.0810    0.0000 N   0  0  0  0  0  0  0  0  0  0  0  0
   10.8299    2.7943    0.0000 C   0  0  0  0  0  0  0  0  0  0  0  0
   10.6314    4.2811    0.0000 O   0  0  0  0  0  0  0  0  0  0  0  0
    9.7438    1.7598    0.0000 N   0  0  0  0  0  0  0  0  0  0  0  0
   10.3920    0.4071    0.0000 C   0  0  0  0  0  0  0  0  0  0  0  0
  -14.5453    0.0753    0.0000 C   0  0  0  0  0  0  0  0  0  0  0  0
  -14.6602   -1.4203    0.0000 O   0  0  0  0  0  0  0  0  0  0  0  0
  -15.7830    0.9227    0.0000 O   0  0  0  0  0  0  0  0  0  0  0  0
  2  1  1  1
  2  3  1  0
  3  4  1  0
  4  5  1  0
  5  6  1  0
  6  7  1  0
  7  8  1  0
  8  9  2  0
  8 10  1  0
 10 11  1  0
 11 12  1  0
 12 13  1  0
 13 14  1  0
 14 15  1  0
 15 16  1  0
 16 17  2  0
 16 18  1  0
 18 19  1  0
 19 20  1  0
 20 21  1  0
 22 21  1  1
 22 23  1  0
 23 24  1  0
 25 24  1  6
 25 26  1  0
 26 27  1  0
 27 28  2  0
 27 29  1  0
 30 29  1  6
  2 31  1  0
 31 32  2  0
 31 33  1  0
 30 22  1  0
 30 25  1  0
M  END
>  <rName>  (2078) 
Lys_biotinylAhx

>  <PQ_SYMBOL>  (2078) 
Lys_biotinylAhx

>  <FULL_NAME>  (2078) 
N6-(6-(5-((3aR,4S,6aS)-2-oxohexahydro-1H-thieno[3,4-d]imidazol-4-yl)pentanamido)hexanoyl)-L-lysine

>  <IUPAC_CONDENSED>  (2078) 
Lys(biotinyl-Ahx)

>  <IUPAC>  (2078) 
(2S)-2-amino-6-(5-(4-((1R,2S,5S)-7-oxo-3-thia-6,8-diazabicyclo[3.3.0]octan-2-yl)butylcarbonylamino)pentylcarbonylamino)hexanoic acid

>  <TYPE>  (2078) 
Backbone

>  <CLASS>  (2078) 
alpha

>  <ANALOG>  (2078) 
Arg

>  <MOL_WT>  (2078) 
485.6510000000002

>  <LOGP>  (2078) 
1.0872000000000024

>  <TPSA>  (2078) 
162.64999999999998

>  <POPULARITY>  (2078) 
3.0

>  <PROTECTED>  (2078) 
TRUE

>  <SMILES>  (2078) 
N[C@@H](CCCCNC(=O)CCCCCNC(=O)CCCC[C@@H]1SC[C@H]2NC(=O)N[C@@H]12)C(=O)O

>  <INCHIKEY>  (2078) 
KNQOLBXPUROEDZ-PFRQMTDMSA-N

$$$$
Lys_biotinylPEG12propanoyl
     RDKit          2D

 66 67  0  0  0  0  0  0  0  0999 V2000
  -35.2194   -1.4378    0.0000 N   0  0  0  0  0  0  0  0  0  0  0  0
  -35.1893    0.0619    0.0000 C   0  0  0  0  0  0  0  0  0  0  0  0
  -33.8755    0.7856    0.0000 C   0  0  0  0  0  0  0  0  0  0  0  0
  -32.5918    0.0097    0.0000 C   0  0  0  0  0  0  0  0  0  0  0  0
  -31.2779    0.7335    0.0000 C   0  0  0  0  0  0  0  0  0  0  0  0
  -29.9942   -0.0425    0.0000 C   0  0  0  0  0  0  0  0  0  0  0  0
  -28.6804    0.6813    0.0000 N   0  0  0  0  0  0  0  0  0  0  0  0
  -27.3966   -0.0947    0.0000 C   0  0  0  0  0  0  0  0  0  0  0  0
  -27.4268   -1.5943    0.0000 O   0  0  0  0  0  0  0  0  0  0  0  0
  -26.0828    0.6291    0.0000 C   0  0  0  0  0  0  0  0  0  0  0  0
  -24.7991   -0.1468    0.0000 C   0  0  0  0  0  0  0  0  0  0  0  0
  -23.4853    0.5769    0.0000 O   0  0  0  0  0  0  0  0  0  0  0  0
  -22.2015   -0.1990    0.0000 C   0  0  0  0  0  0  0  0  0  0  0  0
  -20.8877    0.5248    0.0000 C   0  0  0  0  0  0  0  0  0  0  0  0
  -19.6040   -0.2512    0.0000 O   0  0  0  0  0  0  0  0  0  0  0  0
  -18.2902    0.4726    0.0000 C   0  0  0  0  0  0  0  0  0  0  0  0
  -17.0064   -0.3033    0.0000 C   0  0  0  0  0  0  0  0  0  0  0  0
  -15.6926    0.4204    0.0000 O   0  0  0  0  0  0  0  0  0  0  0  0
  -14.4089   -0.3555    0.0000 C   0  0  0  0  0  0  0  0  0  0  0  0
  -13.0950    0.3683    0.0000 C   0  0  0  0  0  0  0  0  0  0  0  0
  -11.8113   -0.4077    0.0000 O   0  0  0  0  0  0  0  0  0  0  0  0
  -10.4975    0.3161    0.0000 C   0  0  0  0  0  0  0  0  0  0  0  0
   -9.2138   -0.4598    0.0000 C   0  0  0  0  0  0  0  0  0  0  0  0
   -7.8999    0.2639    0.0000 O   0  0  0  0  0  0  0  0  0  0  0  0
   -6.6162   -0.5120    0.0000 C   0  0  0  0  0  0  0  0  0  0  0  0
   -5.3024    0.2118    0.0000 C   0  0  0  0  0  0  0  0  0  0  0  0
   -4.0187   -0.5642    0.0000 O   0  0  0  0  0  0  0  0  0  0  0  0
   -2.7048    0.1596    0.0000 C   0  0  0  0  0  0  0  0  0  0  0  0
   -1.4211   -0.6164    0.0000 C   0  0  0  0  0  0  0  0  0  0  0  0
   -0.1073    0.1074    0.0000 O   0  0  0  0  0  0  0  0  0  0  0  0
    1.1764   -0.6685    0.0000 C   0  0  0  0  0  0  0  0  0  0  0  0
    2.4903    0.0552    0.0000 C   0  0  0  0  0  0  0  0  0  0  0  0
    3.7740   -0.7207    0.0000 O   0  0  0  0  0  0  0  0  0  0  0  0
    5.0878    0.0031    0.0000 C   0  0  0  0  0  0  0  0  0  0  0  0
    6.3715   -0.7729    0.0000 C   0  0  0  0  0  0  0  0  0  0  0  0
    7.6854   -0.0491    0.0000 O   0  0  0  0  0  0  0  0  0  0  0  0
    8.9691   -0.8250    0.0000 C   0  0  0  0  0  0  0  0  0  0  0  0
   10.2829   -0.1013    0.0000 C   0  0  0  0  0  0  0  0  0  0  0  0
   11.5666   -0.8772    0.0000 O   0  0  0  0  0  0  0  0  0  0  0  0
   12.8805   -0.1534    0.0000 C   0  0  0  0  0  0  0  0  0  0  0  0
   14.1642   -0.9294    0.0000 C   0  0  0  0  0  0  0  0  0  0  0  0
   15.4780   -0.2056    0.0000 O   0  0  0  0  0  0  0  0  0  0  0  0
   16.7617   -0.9815    0.0000 C   0  0  0  0  0  0  0  0  0  0  0  0
   18.0756   -0.2578    0.0000 C   0  0  0  0  0  0  0  0  0  0  0  0
   19.3593   -1.0337    0.0000 O   0  0  0  0  0  0  0  0  0  0  0  0
   20.6731   -0.3099    0.0000 C   0  0  0  0  0  0  0  0  0  0  0  0
   21.9568   -1.0859    0.0000 C   0  0  0  0  0  0  0  0  0  0  0  0
   23.2707   -0.3621    0.0000 N   0  0  0  0  0  0  0  0  0  0  0  0
   24.5544   -1.1381    0.0000 C   0  0  0  0  0  0  0  0  0  0  0  0
   24.5243   -2.6378    0.0000 O   0  0  0  0  0  0  0  0  0  0  0  0
   25.8682   -0.4143    0.0000 C   0  0  0  0  0  0  0  0  0  0  0  0
   27.1520   -1.1902    0.0000 C   0  0  0  0  0  0  0  0  0  0  0  0
   28.4658   -0.4665    0.0000 C   0  0  0  0  0  0  0  0  0  0  0  0
   29.7495   -1.2424    0.0000 C   0  0  0  0  0  0  0  0  0  0  0  0
   31.0633   -0.5186    0.0000 C   0  0  0  0  0  0  0  0  0  0  0  0
   32.4211   -1.1561    0.0000 S   0  0  0  0  0  0  0  0  0  0  0  0
   33.4470   -0.0618    0.0000 C   0  0  0  0  0  0  0  0  0  0  0  0
   32.7232    1.2520    0.0000 C   0  0  0  0  0  0  0  0  0  0  0  0
   32.9100    2.7404    0.0000 N   0  0  0  0  0  0  0  0  0  0  0  0
   31.5522    3.3779    0.0000 C   0  0  0  0  0  0  0  0  0  0  0  0
   31.2698    4.8511    0.0000 O   0  0  0  0  0  0  0  0  0  0  0  0
   30.5263    2.2835    0.0000 N   0  0  0  0  0  0  0  0  0  0  0  0
   31.2501    0.9697    0.0000 C   0  0  0  0  0  0  0  0  0  0  0  0
  -36.4730    0.8378    0.0000 C   0  0  0  0  0  0  0  0  0  0  0  0
  -36.4429    2.3375    0.0000 O   0  0  0  0  0  0  0  0  0  0  0  0
  -37.7869    0.1140    0.0000 O   0  0  0  0  0  0  0  0  0  0  0  0
  2  1  1  6
  2  3  1  0
  3  4  1  0
  4  5  1  0
  5  6  1  0
  6  7  1  0
  7  8  1  0
  8  9  2  0
  8 10  1  0
 10 11  1  0
 11 12  1  0
 12 13  1  0
 13 14  1  0
 14 15  1  0
 15 16  1  0
 16 17  1  0
 17 18  1  0
 18 19  1  0
 19 20  1  0
 20 21  1  0
 21 22  1  0
 22 23  1  0
 23 24  1  0
 24 25  1  0
 25 26  1  0
 26 27  1  0
 27 28  1  0
 28 29  1  0
 29 30  1  0
 30 31  1  0
 31 32  1  0
 32 33  1  0
 33 34  1  0
 34 35  1  0
 35 36  1  0
 36 37  1  0
 37 38  1  0
 38 39  1  0
 39 40  1  0
 40 41  1  0
 41 42  1  0
 42 43  1  0
 43 44  1  0
 44 45  1  0
 45 46  1  0
 46 47  1  0
 47 48  1  0
 48 49  1  0
 49 50  2  0
 49 51  1  0
 51 52  1  0
 52 53  1  0
 53 54  1  0
 55 54  1  1
 55 56  1  0
 56 57  1  0
 58 57  1  1
 58 59  1  0
 59 60  1  0
 60 61  2  0
 60 62  1  0
 63 62  1  1
  2 64  1  0
 64 65  2  0
 64 66  1  0
 63 55  1  0
 63 58  1  0
M  END
>  <rName>  (2079) 
Lys_biotinylPEG12propanoyl

>  <PQ_SYMBOL>  (2079) 
Lys_biotinylPEG12propanoyl

>  <FULL_NAME>  (2079) 
Lys(biotinyl-PEG12-propanoyl)

>  <IUPAC_CONDENSED>  (2079) 
Lys(biotinyl-PEG12-propanoyl)

>  <IUPAC>  (2079) 
(2S)-2-amino-6-(2-((2-((2-((2-((2-((2-((2-((2-((2-((2-((2-((2-((2-(4-((1S,2S,5R)-7-oxo-3-thia-6,8-diazabicyclo[3.3.0]octan-2-yl)butylcarbonylamino)ethyl)oxy)ethyl)oxy)ethyl)oxy)ethyl)oxy)ethyl)oxy)ethyl)oxy)ethyl)oxy)ethyl)oxy)ethyl)oxy)ethyl)oxy)ethyl)oxy)ethyl)oxy)ethylcarbonylamino)hexanoic acid

>  <TYPE>  (2079) 
Backbone

>  <CLASS>  (2079) 
alpha

>  <ANALOG>  (2079) 
Arg

>  <MOL_WT>  (2079) 
972.2059999999998

>  <LOGP>  (2079) 
0.11610000000000298

>  <TPSA>  (2079) 
273.40999999999997

>  <POPULARITY>  (2079) 
2.2

>  <PROTECTED>  (2079) 
TRUE

>  <SMILES>  (2079) 
N[C@@H](CCCCNC(=O)CCOCCOCCOCCOCCOCCOCCOCCOCCOCCOCCOCCOCCNC(=O)CCCC[C@@H]1(SC[C@@H]2(NC(=O)N[C@H]12)))C(=O)O

>  <INCHIKEY>  (2079) 
AKMVRPFMINCEAX-XVDINJISSA-N

$$$$
Lys_biotinylPEG4propanoyl
     RDKit          2D

 42 43  0  0  0  0  0  0  0  0999 V2000
  -19.3770   -1.3339    0.0000 N   0  0  0  0  0  0  0  0  0  0  0  0
  -19.3022    0.1642    0.0000 C   0  0  0  0  0  0  0  0  0  0  0  0
  -17.9674    0.8485    0.0000 C   0  0  0  0  0  0  0  0  0  0  0  0
  -16.7074    0.0346    0.0000 C   0  0  0  0  0  0  0  0  0  0  0  0
  -15.3725    0.7189    0.0000 C   0  0  0  0  0  0  0  0  0  0  0  0
  -14.1125   -0.0950    0.0000 C   0  0  0  0  0  0  0  0  0  0  0  0
  -12.7777    0.5892    0.0000 N   0  0  0  0  0  0  0  0  0  0  0  0
  -11.5177   -0.2246    0.0000 C   0  0  0  0  0  0  0  0  0  0  0  0
  -11.5925   -1.7228    0.0000 O   0  0  0  0  0  0  0  0  0  0  0  0
  -10.1828    0.4596    0.0000 C   0  0  0  0  0  0  0  0  0  0  0  0
   -8.9228   -0.3542    0.0000 C   0  0  0  0  0  0  0  0  0  0  0  0
   -7.5880    0.3300    0.0000 O   0  0  0  0  0  0  0  0  0  0  0  0
   -6.3280   -0.4838    0.0000 C   0  0  0  0  0  0  0  0  0  0  0  0
   -4.9932    0.2004    0.0000 C   0  0  0  0  0  0  0  0  0  0  0  0
   -3.7332   -0.6134    0.0000 O   0  0  0  0  0  0  0  0  0  0  0  0
   -2.3983    0.0708    0.0000 C   0  0  0  0  0  0  0  0  0  0  0  0
   -1.1383   -0.7431    0.0000 C   0  0  0  0  0  0  0  0  0  0  0  0
    0.1965   -0.0588    0.0000 O   0  0  0  0  0  0  0  0  0  0  0  0
    1.4565   -0.8727    0.0000 C   0  0  0  0  0  0  0  0  0  0  0  0
    2.7914   -0.1884    0.0000 C   0  0  0  0  0  0  0  0  0  0  0  0
    4.0514   -1.0023    0.0000 O   0  0  0  0  0  0  0  0  0  0  0  0
    5.3862   -0.3180    0.0000 C   0  0  0  0  0  0  0  0  0  0  0  0
    6.6462   -1.1319    0.0000 C   0  0  0  0  0  0  0  0  0  0  0  0
    7.9810   -0.4476    0.0000 N   0  0  0  0  0  0  0  0  0  0  0  0
    9.2410   -1.2615    0.0000 C   0  0  0  0  0  0  0  0  0  0  0  0
    9.1662   -2.7596    0.0000 O   0  0  0  0  0  0  0  0  0  0  0  0
   10.5759   -0.5772    0.0000 C   0  0  0  0  0  0  0  0  0  0  0  0
   11.8359   -1.3911    0.0000 C   0  0  0  0  0  0  0  0  0  0  0  0
   13.1707   -0.7068    0.0000 C   0  0  0  0  0  0  0  0  0  0  0  0
   14.4307   -1.5207    0.0000 C   0  0  0  0  0  0  0  0  0  0  0  0
   15.7656   -0.8364    0.0000 C   0  0  0  0  0  0  0  0  0  0  0  0
   17.1037   -1.5141    0.0000 S   0  0  0  0  0  0  0  0  0  0  0  0
   18.1618   -0.4509    0.0000 C   0  0  0  0  0  0  0  0  0  0  0  0
   17.4775    0.8840    0.0000 C   0  0  0  0  0  0  0  0  0  0  0  0
   17.7086    2.3661    0.0000 N   0  0  0  0  0  0  0  0  0  0  0  0
   16.3704    3.0438    0.0000 C   0  0  0  0  0  0  0  0  0  0  0  0
   16.1321    4.5247    0.0000 O   0  0  0  0  0  0  0  0  0  0  0  0
   15.3123    1.9805    0.0000 N   0  0  0  0  0  0  0  0  0  0  0  0
   15.9966    0.6457    0.0000 C   0  0  0  0  0  0  0  0  0  0  0  0
  -20.5622    0.9781    0.0000 C   0  0  0  0  0  0  0  0  0  0  0  0
  -20.4874    2.4762    0.0000 O   0  0  0  0  0  0  0  0  0  0  0  0
  -21.8970    0.2938    0.0000 O   0  0  0  0  0  0  0  0  0  0  0  0
  2  1  1  6
  2  3  1  0
  3  4  1  0
  4  5  1  0
  5  6  1  0
  6  7  1  0
  7  8  1  0
  8  9  2  0
  8 10  1  0
 10 11  1  0
 11 12  1  0
 12 13  1  0
 13 14  1  0
 14 15  1  0
 15 16  1  0
 16 17  1  0
 17 18  1  0
 18 19  1  0
 19 20  1  0
 20 21  1  0
 21 22  1  0
 22 23  1  0
 23 24  1  0
 24 25  1  0
 25 26  2  0
 25 27  1  0
 27 28  1  0
 28 29  1  0
 29 30  1  0
 31 30  1  1
 31 32  1  0
 32 33  1  0
 34 33  1  1
 34 35  1  0
 35 36  1  0
 36 37  2  0
 36 38  1  0
 39 38  1  1
  2 40  1  0
 40 41  2  0
 40 42  1  0
 39 31  1  0
 39 34  1  0
M  END
>  <rName>  (2080) 
Lys_biotinylPEG4propanoyl

>  <PQ_SYMBOL>  (2080) 
Lys_biotinylPEG4propanoyl

>  <FULL_NAME>  (2080) 
Lys(biotinyl-PEG4-propanoyl)

>  <IUPAC_CONDENSED>  (2080) 
Lys(biotinyl-PEG4-propanoyl)

>  <IUPAC>  (2080) 
(2S)-2-amino-6-(2-((2-((2-((2-((2-(4-((1S,2S,5R)-7-oxo-3-thia-6,8-diazabicyclo[3.3.0]octan-2-yl)butylcarbonylamino)ethyl)oxy)ethyl)oxy)ethyl)oxy)ethyl)oxy)ethylcarbonylamino)hexanoic acid

>  <TYPE>  (2080) 
Backbone

>  <CLASS>  (2080) 
alpha

>  <ANALOG>  (2080) 
Arg

>  <MOL_WT>  (2080) 
619.7820000000005

>  <LOGP>  (2080) 
-0.016699999999991944

>  <TPSA>  (2080) 
199.57

>  <POPULARITY>  (2080) 
2.2

>  <PROTECTED>  (2080) 
TRUE

>  <SMILES>  (2080) 
N[C@@H](CCCCNC(=O)CCOCCOCCOCCOCCNC(=O)CCCC[C@@H]1(SC[C@@H]2(NC(=O)N[C@H]12)))C(=O)O

>  <INCHIKEY>  (2080) 
DFRJIZUZDBDEJU-UEOMBKFZSA-N

$$$$
Lys_but2enoyl
     RDKit          2D

 15 14  0  0  0  0  0  0  0  0999 V2000
   -4.0303   -1.8403    0.0000 N   0  0  0  0  0  0  0  0  0  0  0  0
   -4.0637   -0.3406    0.0000 C   0  0  0  0  0  0  0  0  0  0  0  0
   -2.7817    0.4381    0.0000 C   0  0  0  0  0  0  0  0  0  0  0  0
   -1.4663   -0.2827    0.0000 C   0  0  0  0  0  0  0  0  0  0  0  0
   -0.1843    0.4960    0.0000 C   0  0  0  0  0  0  0  0  0  0  0  0
    1.1311   -0.2249    0.0000 C   0  0  0  0  0  0  0  0  0  0  0  0
    2.4131    0.5539    0.0000 N   0  0  0  0  0  0  0  0  0  0  0  0
    3.7286   -0.1670    0.0000 C   0  0  0  0  0  0  0  0  0  0  0  0
    3.7620   -1.6666    0.0000 O   0  0  0  0  0  0  0  0  0  0  0  0
    5.0106    0.6118    0.0000 C   0  0  0  0  0  0  0  0  0  0  0  0
    6.3260   -0.1091    0.0000 C   0  0  0  0  0  0  0  0  0  0  0  0
    7.6080    0.6697    0.0000 C   0  0  0  0  0  0  0  0  0  0  0  0
   -5.3792    0.3802    0.0000 C   0  0  0  0  0  0  0  0  0  0  0  0
   -5.4126    1.8799    0.0000 O   0  0  0  0  0  0  0  0  0  0  0  0
   -6.6612   -0.3985    0.0000 O   0  0  0  0  0  0  0  0  0  0  0  0
  2  1  1  6
  2  3  1  0
  3  4  1  0
  4  5  1  0
  5  6  1  0
  6  7  1  0
  7  8  1  0
  8  9  2  0
  8 10  1  0
 10 11  2  0
 11 12  1  0
  2 13  1  0
 13 14  2  0
 13 15  1  0
M  END
>  <rName>  (2081) 
Lys_but2enoyl

>  <PQ_SYMBOL>  (2081) 
Lys_but2enoyl

>  <FULL_NAME>  (2081) 
(E)-N6-(but-2-enoyl)-L-lysine

>  <IUPAC_CONDENSED>  (2081) 
Lys(but-2-enoyl)

>  <IUPAC>  (2081) 
(2S)-2-amino-6-((1E)-prop-1-en-1-ylcarbonylamino)hexanoic acid

>  <TYPE>  (2081) 
Backbone

>  <CLASS>  (2081) 
alpha

>  <ANALOG>  (2081) 
Lys

>  <MOL_WT>  (2081) 
214.26500000000001

>  <LOGP>  (2081) 
0.26089999999999985

>  <TPSA>  (2081) 
92.42

>  <POPULARITY>  (2081) 
19.8

>  <PROTECTED>  (2081) 
TRUE

>  <SMILES>  (2081) 
N[C@@H](CCCCNC(=O)/C=C/C)C(=O)O

>  <INCHIKEY>  (2081) 
IZHPCCLNIDDVFG-NCJLJLRUSA-N

$$$$
Lys_coumarin3carbonyl_7OH
     RDKit          2D

 24 25  0  0  0  0  0  0  0  0999 V2000
   -7.3136   -1.6979    0.0000 N   0  0  0  0  0  0  0  0  0  0  0  0
   -7.1535   -0.2065    0.0000 C   0  0  0  0  0  0  0  0  0  0  0  0
   -5.7818    0.4006    0.0000 C   0  0  0  0  0  0  0  0  0  0  0  0
   -4.5702   -0.4838    0.0000 C   0  0  0  0  0  0  0  0  0  0  0  0
   -3.1986    0.1233    0.0000 C   0  0  0  0  0  0  0  0  0  0  0  0
   -1.9870   -0.7610    0.0000 C   0  0  0  0  0  0  0  0  0  0  0  0
   -0.6153   -0.1540    0.0000 N   0  0  0  0  0  0  0  0  0  0  0  0
    0.5962   -1.0383    0.0000 C   0  0  0  0  0  0  0  0  0  0  0  0
    0.4361   -2.5297    0.0000 O   0  0  0  0  0  0  0  0  0  0  0  0
    1.9679   -0.4312    0.0000 C   0  0  0  0  0  0  0  0  0  0  0  0
    3.1795   -1.3156    0.0000 C   0  0  0  0  0  0  0  0  0  0  0  0
    4.5511   -0.7085    0.0000 C   0  0  0  0  0  0  0  0  0  0  0  0
    5.7627   -1.5929    0.0000 C   0  0  0  0  0  0  0  0  0  0  0  0
    7.1344   -0.9858    0.0000 C   0  0  0  0  0  0  0  0  0  0  0  0
    7.2945    0.5056    0.0000 C   0  0  0  0  0  0  0  0  0  0  0  0
    8.6661    1.1127    0.0000 O   0  0  0  0  0  0  0  0  0  0  0  0
    6.0829    1.3900    0.0000 C   0  0  0  0  0  0  0  0  0  0  0  0
    4.7112    0.7829    0.0000 C   0  0  0  0  0  0  0  0  0  0  0  0
    3.4996    1.6673    0.0000 O   0  0  0  0  0  0  0  0  0  0  0  0
    2.1280    1.0602    0.0000 C   0  0  0  0  0  0  0  0  0  0  0  0
    0.9164    1.9446    0.0000 O   0  0  0  0  0  0  0  0  0  0  0  0
   -8.3651    0.6779    0.0000 C   0  0  0  0  0  0  0  0  0  0  0  0
   -8.2050    2.1693    0.0000 O   0  0  0  0  0  0  0  0  0  0  0  0
   -9.7367    0.0708    0.0000 O   0  0  0  0  0  0  0  0  0  0  0  0
  2  1  1  6
  2  3  1  0
  3  4  1  0
  4  5  1  0
  5  6  1  0
  6  7  1  0
  7  8  1  0
  8  9  2  0
  8 10  1  0
 10 11  2  0
 11 12  1  0
 12 13  1  0
 13 14  2  0
 14 15  1  0
 15 16  1  0
 15 17  2  0
 17 18  1  0
 18 19  1  0
 19 20  1  0
 20 21  2  0
  2 22  1  0
 22 23  2  0
 22 24  1  0
 18 12  2  0
 20 10  1  0
M  END
>  <rName>  (2082) 
Lys_coumarin3carbonyl_7OH

>  <PQ_SYMBOL>  (2082) 
Lys_coumarin3carbonyl_7OH

>  <FULL_NAME>  (2082) 
(2S)-2-amino-6-[(7-hydroxy-2-oxochromene-3-carbonyl)amino]hexanoic acid

>  <IUPAC_CONDENSED>  (2082) 
Lys(coumarin-3-carbonyl(7-OH))

>  <IUPAC>  (2082) 
(2S)-2-amino-6-[(7-hydroxy-2-oxochromene-3-carbonyl)amino]hexanoic acid

>  <TYPE>  (2082) 
Backbone

>  <CLASS>  (2082) 
alpha

>  <ANALOG>  (2082) 
Lys

>  <MOL_WT>  (2082) 
334.32800000000015

>  <LOGP>  (2082) 
0.8105999999999993

>  <TPSA>  (2082) 
142.85999999999999

>  <POPULARITY>  (2082) 
2.2

>  <PROTECTED>  (2082) 
TRUE

>  <SMILES>  (2082) 
N[C@@H](CCCCNC(=O)c2(cc1(ccc(O)cc1oc2=O)))C(=O)O

>  <INCHIKEY>  (2082) 
QYOUXTJCRWPQLR-LBPRGKRZSA-N

$$$$
Lys_coumarin3carbonyl_7OMe
     RDKit          2D

 25 26  0  0  0  0  0  0  0  0999 V2000
   -7.7133   -1.6859    0.0000 N   0  0  0  0  0  0  0  0  0  0  0  0
   -7.5491   -0.1949    0.0000 C   0  0  0  0  0  0  0  0  0  0  0  0
   -6.1758    0.4084    0.0000 C   0  0  0  0  0  0  0  0  0  0  0  0
   -4.9667   -0.4793    0.0000 C   0  0  0  0  0  0  0  0  0  0  0  0
   -3.5934    0.1240    0.0000 C   0  0  0  0  0  0  0  0  0  0  0  0
   -2.3842   -0.7636    0.0000 C   0  0  0  0  0  0  0  0  0  0  0  0
   -1.0109   -0.1603    0.0000 N   0  0  0  0  0  0  0  0  0  0  0  0
    0.1983   -1.0480    0.0000 C   0  0  0  0  0  0  0  0  0  0  0  0
    0.0341   -2.5390    0.0000 O   0  0  0  0  0  0  0  0  0  0  0  0
    1.5716   -0.4447    0.0000 C   0  0  0  0  0  0  0  0  0  0  0  0
    2.7807   -1.3324    0.0000 C   0  0  0  0  0  0  0  0  0  0  0  0
    4.1540   -0.7290    0.0000 C   0  0  0  0  0  0  0  0  0  0  0  0
    5.3632   -1.6167    0.0000 C   0  0  0  0  0  0  0  0  0  0  0  0
    6.7365   -1.0134    0.0000 C   0  0  0  0  0  0  0  0  0  0  0  0
    6.9007    0.4776    0.0000 C   0  0  0  0  0  0  0  0  0  0  0  0
    8.2740    1.0809    0.0000 O   0  0  0  0  0  0  0  0  0  0  0  0
    9.4832    0.1932    0.0000 C   0  0  0  0  0  0  0  0  0  0  0  0
    5.6915    1.3653    0.0000 C   0  0  0  0  0  0  0  0  0  0  0  0
    4.3182    0.7619    0.0000 C   0  0  0  0  0  0  0  0  0  0  0  0
    3.1091    1.6496    0.0000 O   0  0  0  0  0  0  0  0  0  0  0  0
    1.7358    1.0463    0.0000 C   0  0  0  0  0  0  0  0  0  0  0  0
    0.5266    1.9340    0.0000 O   0  0  0  0  0  0  0  0  0  0  0  0
   -8.7583    0.6928    0.0000 C   0  0  0  0  0  0  0  0  0  0  0  0
   -8.5941    2.1838    0.0000 O   0  0  0  0  0  0  0  0  0  0  0  0
  -10.1316    0.0895    0.0000 O   0  0  0  0  0  0  0  0  0  0  0  0
  2  1  1  6
  2  3  1  0
  3  4  1  0
  4  5  1  0
  5  6  1  0
  6  7  1  0
  7  8  1  0
  8  9  2  0
  8 10  1  0
 10 11  2  0
 11 12  1  0
 12 13  1  0
 13 14  2  0
 14 15  1  0
 15 16  1  0
 16 17  1  0
 15 18  2  0
 18 19  1  0
 19 20  1  0
 20 21  1  0
 21 22  2  0
  2 23  1  0
 23 24  2  0
 23 25  1  0
 19 12  2  0
 21 10  1  0
M  END
>  <rName>  (2083) 
Lys_coumarin3carbonyl_7OMe

>  <PQ_SYMBOL>  (2083) 
Lys_coumarin3carbonyl_7OMe

>  <FULL_NAME>  (2083) 
(2S)-2-amino-6-[(7-methoxy-2-oxochromene-3-carbonyl)amino]hexanoic acid

>  <IUPAC_CONDENSED>  (2083) 
Lys(coumarin-3-carbonyl(7-OMe))

>  <IUPAC>  (2083) 
(2S)-2-amino-6-[(7-methoxy-2-oxochromene-3-carbonyl)amino]hexanoic acid

>  <TYPE>  (2083) 
Backbone

>  <CLASS>  (2083) 
alpha

>  <ANALOG>  (2083) 
Lys

>  <MOL_WT>  (2083) 
348.35500000000013

>  <LOGP>  (2083) 
1.1135999999999995

>  <TPSA>  (2083) 
131.85999999999999

>  <POPULARITY>  (2083) 
2.2

>  <PROTECTED>  (2083) 
TRUE

>  <SMILES>  (2083) 
N[C@@H](CCCCNC(=O)c2(cc1(ccc(OC)cc1oc2=O)))C(=O)O

>  <INCHIKEY>  (2083) 
NEYUPBWLDXEJGK-ZDUSSCGKSA-N

$$$$
Lys_decanoyl
     RDKit          2D

 21 20  0  0  0  0  0  0  0  0999 V2000
  -11.9395   -0.4457    0.0000 C   0  0  0  0  0  0  0  0  0  0  0  0
  -10.6393    0.3023    0.0000 C   0  0  0  0  0  0  0  0  0  0  0  0
   -9.3414   -0.4498    0.0000 C   0  0  0  0  0  0  0  0  0  0  0  0
   -8.0412    0.2982    0.0000 C   0  0  0  0  0  0  0  0  0  0  0  0
   -6.7433   -0.4538    0.0000 C   0  0  0  0  0  0  0  0  0  0  0  0
   -5.4431    0.2942    0.0000 C   0  0  0  0  0  0  0  0  0  0  0  0
   -4.1453   -0.4578    0.0000 C   0  0  0  0  0  0  0  0  0  0  0  0
   -2.8451    0.2901    0.0000 C   0  0  0  0  0  0  0  0  0  0  0  0
   -1.5472   -0.4619    0.0000 C   0  0  0  0  0  0  0  0  0  0  0  0
   -0.2470    0.2861    0.0000 C   0  0  0  0  0  0  0  0  0  0  0  0
   -0.2447    1.7861    0.0000 O   0  0  0  0  0  0  0  0  0  0  0  0
    1.0509   -0.4659    0.0000 N   0  0  0  0  0  0  0  0  0  0  0  0
    2.3511    0.2821    0.0000 C   0  0  0  0  0  0  0  0  0  0  0  0
    3.6490   -0.4700    0.0000 C   0  0  0  0  0  0  0  0  0  0  0  0
    4.9492    0.2780    0.0000 C   0  0  0  0  0  0  0  0  0  0  0  0
    6.2470   -0.4740    0.0000 C   0  0  0  0  0  0  0  0  0  0  0  0
    7.5472    0.2740    0.0000 C   0  0  0  0  0  0  0  0  0  0  0  0
    7.5496    1.7740    0.0000 N   0  0  0  0  0  0  0  0  0  0  0  0
    8.8451   -0.4780    0.0000 C   0  0  0  0  0  0  0  0  0  0  0  0
    8.8428   -1.9780    0.0000 O   0  0  0  0  0  0  0  0  0  0  0  0
   10.1453    0.2699    0.0000 O   0  0  0  0  0  0  0  0  0  0  0  0
  1  2  1  0
  2  3  1  0
  3  4  1  0
  4  5  1  0
  5  6  1  0
  6  7  1  0
  7  8  1  0
  8  9  1  0
  9 10  1  0
 10 11  2  0
 10 12  1  0
 12 13  1  0
 13 14  1  0
 14 15  1  0
 15 16  1  0
 16 17  1  0
 17 18  1  6
 17 19  1  0
 19 20  2  0
 19 21  1  0
M  END
>  <rName>  (2084) 
Lys_decanoyl

>  <PQ_SYMBOL>  (2084) 
Lys_decanoyl

>  <FULL_NAME>  (2084) 
N6-decanoyl-L-lysine

>  <IUPAC_CONDENSED>  (2084) 
Lys(decanoyl)

>  <IUPAC>  (2084) 
(2S)-2-amino-6-nonylcarbonylaminohexanoic acid

>  <TYPE>  (2084) 
Backbone

>  <CLASS>  (2084) 
alpha

>  <ANALOG>  (2084) 
Lys

>  <MOL_WT>  (2084) 
300.443

>  <LOGP>  (2084) 
2.8255

>  <TPSA>  (2084) 
92.42

>  <POPULARITY>  (2084) 
6.9

>  <PROTECTED>  (2084) 
TRUE

>  <SMILES>  (2084) 
CCCCCCCCCC(=O)NCCCC[C@H](N)C(=O)O

>  <INCHIKEY>  (2084) 
JVGQYGXDASKPJW-AWEZNQCLSA-N

$$$$
Lys_heptanoyl
     RDKit          2D

 18 17  0  0  0  0  0  0  0  0999 V2000
    5.7526   -1.8174    0.0000 N   0  0  0  0  0  0  0  0  0  0  0  0
    5.7702   -0.3175    0.0000 C   0  0  0  0  0  0  0  0  0  0  0  0
    4.4800    0.4476    0.0000 C   0  0  0  0  0  0  0  0  0  0  0  0
    3.1723   -0.2871    0.0000 C   0  0  0  0  0  0  0  0  0  0  0  0
    1.8821    0.4780    0.0000 C   0  0  0  0  0  0  0  0  0  0  0  0
    0.5744   -0.2567    0.0000 C   0  0  0  0  0  0  0  0  0  0  0  0
   -0.7158    0.5084    0.0000 N   0  0  0  0  0  0  0  0  0  0  0  0
   -2.0235   -0.2264    0.0000 C   0  0  0  0  0  0  0  0  0  0  0  0
   -2.0411   -1.7263    0.0000 O   0  0  0  0  0  0  0  0  0  0  0  0
   -3.3137    0.5388    0.0000 C   0  0  0  0  0  0  0  0  0  0  0  0
   -4.6214   -0.1960    0.0000 C   0  0  0  0  0  0  0  0  0  0  0  0
   -5.9116    0.5692    0.0000 C   0  0  0  0  0  0  0  0  0  0  0  0
   -7.2193   -0.1656    0.0000 C   0  0  0  0  0  0  0  0  0  0  0  0
   -8.5095    0.5995    0.0000 C   0  0  0  0  0  0  0  0  0  0  0  0
   -9.8172   -0.1352    0.0000 C   0  0  0  0  0  0  0  0  0  0  0  0
    7.0779    0.4173    0.0000 C   0  0  0  0  0  0  0  0  0  0  0  0
    7.0954    1.9172    0.0000 O   0  0  0  0  0  0  0  0  0  0  0  0
    8.3681   -0.3479    0.0000 O   0  0  0  0  0  0  0  0  0  0  0  0
  2  1  1  1
  2  3  1  0
  3  4  1  0
  4  5  1  0
  5  6  1  0
  6  7  1  0
  7  8  1  0
  8  9  2  0
  8 10  1  0
 10 11  1  0
 11 12  1  0
 12 13  1  0
 13 14  1  0
 14 15  1  0
  2 16  1  0
 16 17  2  0
 16 18  1  0
M  END
>  <rName>  (2085) 
Lys_heptanoyl

>  <PQ_SYMBOL>  (2085) 
Lys_heptanoyl

>  <FULL_NAME>  (2085) 
(2S)-2-Amino-6-(heptanoylamino)hexanoic acid

>  <IUPAC_CONDENSED>  (2085) 
Lys(heptanoyl)

>  <IUPAC>  (2085) 
(2S)-2-amino-6-(heptanoylamino)hexanoic acid

>  <TYPE>  (2085) 
Backbone

>  <CLASS>  (2085) 
alpha

>  <ANALOG>  (2085) 
Lys

>  <MOL_WT>  (2085) 
258.3619999999999

>  <LOGP>  (2085) 
1.655199999999999

>  <TPSA>  (2085) 
92.42

>  <POPULARITY>  (2085) 
3.5

>  <PROTECTED>  (2085) 
TRUE

>  <SMILES>  (2085) 
N[C@@H](CCCCNC(=O)CCCCCC)C(=O)O

>  <INCHIKEY>  (2085) 
MIPVNXBAKZBUIK-NSHDSACASA-N

$$$$
Lys_hex5ynoyl
     RDKit          2D

 17 16  0  0  0  0  0  0  0  0999 V2000
   -5.1275   -1.8760    0.0000 N   0  0  0  0  0  0  0  0  0  0  0  0
   -5.1855   -0.3771    0.0000 C   0  0  0  0  0  0  0  0  0  0  0  0
   -3.9164    0.4225    0.0000 C   0  0  0  0  0  0  0  0  0  0  0  0
   -2.5893   -0.2767    0.0000 C   0  0  0  0  0  0  0  0  0  0  0  0
   -1.3202    0.5229    0.0000 C   0  0  0  0  0  0  0  0  0  0  0  0
    0.0068   -0.1763    0.0000 C   0  0  0  0  0  0  0  0  0  0  0  0
    1.2759    0.6233    0.0000 N   0  0  0  0  0  0  0  0  0  0  0  0
    2.6030   -0.0759    0.0000 C   0  0  0  0  0  0  0  0  0  0  0  0
    2.6609   -1.5748    0.0000 O   0  0  0  0  0  0  0  0  0  0  0  0
    3.8720    0.7237    0.0000 C   0  0  0  0  0  0  0  0  0  0  0  0
    5.1991    0.0245    0.0000 C   0  0  0  0  0  0  0  0  0  0  0  0
    6.4682    0.8241    0.0000 C   0  0  0  0  0  0  0  0  0  0  0  0
    7.7952    0.1249    0.0000 C   0  0  0  0  0  0  0  0  0  0  0  0
    9.1223   -0.5744    0.0000 C   0  0  0  0  0  0  0  0  0  0  0  0
   -6.5125    0.3221    0.0000 C   0  0  0  0  0  0  0  0  0  0  0  0
   -6.5705    1.8210    0.0000 O   0  0  0  0  0  0  0  0  0  0  0  0
   -7.7816   -0.4775    0.0000 O   0  0  0  0  0  0  0  0  0  0  0  0
  2  1  1  6
  2  3  1  0
  3  4  1  0
  4  5  1  0
  5  6  1  0
  6  7  1  0
  7  8  1  0
  8  9  2  0
  8 10  1  0
 10 11  1  0
 11 12  1  0
 12 13  1  0
 13 14  3  0
  2 15  1  0
 15 16  2  0
 15 17  1  0
M  END
>  <rName>  (2086) 
Lys_hex5ynoyl

>  <PQ_SYMBOL>  (2086) 
Lys_hex5ynoyl

>  <FULL_NAME>  (2086) 
Lys(hex-5-ynoyl)

>  <IUPAC_CONDENSED>  (2086) 
Lys(hex-5-ynoyl)

>  <IUPAC>  (2086) 
(2S)-2-amino-6-(pent-4-yn-1-ylcarbonylamino)hexanoic acid

>  <TYPE>  (2086) 
Backbone

>  <CLASS>  (2086) 
alpha

>  <ANALOG>  (2086) 
Lys

>  <MOL_WT>  (2086) 
240.30299999999997

>  <LOGP>  (2086) 
0.4882999999999997

>  <TPSA>  (2086) 
92.42

>  <POPULARITY>  (2086) 
2.2

>  <PROTECTED>  (2086) 
TRUE

>  <SMILES>  (2086) 
N[C@@H](CCCCNC(=O)CCCC#C)C(=O)O

>  <INCHIKEY>  (2086) 
SHTKBDKDVSDMIS-JTQLQIEISA-N

$$$$
Lys_hexanoyl
     RDKit          2D

 17 16  0  0  0  0  0  0  0  0999 V2000
   -5.1808   -1.8093    0.0000 N   0  0  0  0  0  0  0  0  0  0  0  0
   -5.1937   -0.3093    0.0000 C   0  0  0  0  0  0  0  0  0  0  0  0
   -3.9011    0.4518    0.0000 C   0  0  0  0  0  0  0  0  0  0  0  0
   -2.5957   -0.2870    0.0000 C   0  0  0  0  0  0  0  0  0  0  0  0
   -1.3032    0.4741    0.0000 C   0  0  0  0  0  0  0  0  0  0  0  0
    0.0023   -0.2647    0.0000 C   0  0  0  0  0  0  0  0  0  0  0  0
    1.2948    0.4964    0.0000 N   0  0  0  0  0  0  0  0  0  0  0  0
    2.6003   -0.2424    0.0000 C   0  0  0  0  0  0  0  0  0  0  0  0
    2.6131   -1.7423    0.0000 O   0  0  0  0  0  0  0  0  0  0  0  0
    3.8928    0.5188    0.0000 C   0  0  0  0  0  0  0  0  0  0  0  0
    5.1982   -0.2200    0.0000 C   0  0  0  0  0  0  0  0  0  0  0  0
    6.4908    0.5411    0.0000 C   0  0  0  0  0  0  0  0  0  0  0  0
    7.7962   -0.1977    0.0000 C   0  0  0  0  0  0  0  0  0  0  0  0
    9.0888    0.5634    0.0000 C   0  0  0  0  0  0  0  0  0  0  0  0
   -6.4991    0.4295    0.0000 C   0  0  0  0  0  0  0  0  0  0  0  0
   -6.5120    1.9294    0.0000 O   0  0  0  0  0  0  0  0  0  0  0  0
   -7.7917   -0.3317    0.0000 O   0  0  0  0  0  0  0  0  0  0  0  0
  2  1  1  6
  2  3  1  0
  3  4  1  0
  4  5  1  0
  5  6  1  0
  6  7  1  0
  7  8  1  0
  8  9  2  0
  8 10  1  0
 10 11  1  0
 11 12  1  0
 12 13  1  0
 13 14  1  0
  2 15  1  0
 15 16  2  0
 15 17  1  0
M  END
>  <rName>  (2087) 
Lys_hexanoyl

>  <PQ_SYMBOL>  (2087) 
Lys_hexanoyl

>  <FULL_NAME>  (2087) 
N6-Caproyl-L-lysine

>  <IUPAC_CONDENSED>  (2087) 
Lys(hexanoyl)

>  <IUPAC>  (2087) 
(2S)-2-amino-6-(hexanoylamino)hexanoic acid

>  <TYPE>  (2087) 
Backbone

>  <CLASS>  (2087) 
alpha

>  <ANALOG>  (2087) 
Lys

>  <MOL_WT>  (2087) 
244.33499999999995

>  <LOGP>  (2087) 
1.265099999999999

>  <TPSA>  (2087) 
92.42

>  <POPULARITY>  (2087) 
3.5

>  <PROTECTED>  (2087) 
TRUE

>  <SMILES>  (2087) 
N[C@@H](CCCCNC(=O)CCCCC)C(=O)O

>  <INCHIKEY>  (2087) 
XDKVCMBARNEADF-JTQLQIEISA-N

$$$$
Lys_iPr
     RDKit          2D

 13 12  0  0  0  0  0  0  0  0999 V2000
    2.9072   -1.8790    0.0000 N   0  0  0  0  0  0  0  0  0  0  0  0
    2.9824   -0.3808    0.0000 C   0  0  0  0  0  0  0  0  0  0  0  0
    1.7226    0.4334    0.0000 C   0  0  0  0  0  0  0  0  0  0  0  0
    0.3876   -0.2505    0.0000 C   0  0  0  0  0  0  0  0  0  0  0  0
   -0.8722    0.5637    0.0000 C   0  0  0  0  0  0  0  0  0  0  0  0
   -2.2072   -0.1202    0.0000 C   0  0  0  0  0  0  0  0  0  0  0  0
   -3.4670    0.6940    0.0000 N   0  0  0  0  0  0  0  0  0  0  0  0
   -4.8020    0.0101    0.0000 C   0  0  0  0  0  0  0  0  0  0  0  0
   -6.0618    0.8243    0.0000 C   0  0  0  0  0  0  0  0  0  0  0  0
   -4.8772   -1.4880    0.0000 C   0  0  0  0  0  0  0  0  0  0  0  0
    4.3175    0.3030    0.0000 C   0  0  0  0  0  0  0  0  0  0  0  0
    4.3927    1.8012    0.0000 O   0  0  0  0  0  0  0  0  0  0  0  0
    5.5772   -0.5112    0.0000 O   0  0  0  0  0  0  0  0  0  0  0  0
  2  1  1  1
  2  3  1  0
  3  4  1  0
  4  5  1  0
  5  6  1  0
  6  7  1  0
  7  8  1  0
  8  9  1  0
  8 10  1  0
  2 11  1  0
 11 12  2  0
 11 13  1  0
M  END
>  <rName>  (2088) 
Lys_iPr

>  <PQ_SYMBOL>  (2088) 
Lys_iPr

>  <FULL_NAME>  (2088) 
N6-Isopropyl-L-Lysine

>  <IUPAC_CONDENSED>  (2088) 
Lys(iPr)

>  <IUPAC>  (2088) 
(2S)-2-amino-6-((propan-2-yl)amino)hexanoic acid

>  <TYPE>  (2088) 
Backbone

>  <CLASS>  (2088) 
alpha

>  <ANALOG>  (2088) 
Lys

>  <MOL_WT>  (2088) 
188.271

>  <LOGP>  (2088) 
0.5665999999999998

>  <TPSA>  (2088) 
75.35

>  <POPULARITY>  (2088) 
21.2

>  <PROTECTED>  (2088) 
TRUE

>  <SMILES>  (2088) 
N[C@@H](CCCCNC(C)C)C(=O)O

>  <INCHIKEY>  (2088) 
CBAWNLIZBXJSFS-QMMMGPOBSA-N

$$$$
Lys_lauroyl
     RDKit          2D

 23 22  0  0  0  0  0  0  0  0999 V2000
    8.7602    1.7651    0.0000 N   0  0  0  0  0  0  0  0  0  0  0  0
    8.7553    0.2651    0.0000 C   0  0  0  0  0  0  0  0  0  0  0  0
    7.4538   -0.4807    0.0000 C   0  0  0  0  0  0  0  0  0  0  0  0
    6.1572    0.2735    0.0000 C   0  0  0  0  0  0  0  0  0  0  0  0
    4.8558   -0.4723    0.0000 C   0  0  0  0  0  0  0  0  0  0  0  0
    3.5592    0.2819    0.0000 C   0  0  0  0  0  0  0  0  0  0  0  0
    2.2577   -0.4638    0.0000 N   0  0  0  0  0  0  0  0  0  0  0  0
    0.9611    0.2904    0.0000 C   0  0  0  0  0  0  0  0  0  0  0  0
    0.9660    1.7904    0.0000 O   0  0  0  0  0  0  0  0  0  0  0  0
   -0.3404   -0.4554    0.0000 C   0  0  0  0  0  0  0  0  0  0  0  0
   -1.6370    0.2988    0.0000 C   0  0  0  0  0  0  0  0  0  0  0  0
   -2.9384   -0.4470    0.0000 C   0  0  0  0  0  0  0  0  0  0  0  0
   -4.2350    0.3072    0.0000 C   0  0  0  0  0  0  0  0  0  0  0  0
   -5.5365   -0.4386    0.0000 C   0  0  0  0  0  0  0  0  0  0  0  0
   -6.8331    0.3156    0.0000 C   0  0  0  0  0  0  0  0  0  0  0  0
   -8.1345   -0.4302    0.0000 C   0  0  0  0  0  0  0  0  0  0  0  0
   -9.4311    0.3240    0.0000 C   0  0  0  0  0  0  0  0  0  0  0  0
  -10.7326   -0.4217    0.0000 C   0  0  0  0  0  0  0  0  0  0  0  0
  -12.0292    0.3325    0.0000 C   0  0  0  0  0  0  0  0  0  0  0  0
  -13.3307   -0.4133    0.0000 C   0  0  0  0  0  0  0  0  0  0  0  0
   10.0519   -0.4891    0.0000 C   0  0  0  0  0  0  0  0  0  0  0  0
   10.0470   -1.9891    0.0000 O   0  0  0  0  0  0  0  0  0  0  0  0
   11.3534    0.2567    0.0000 O   0  0  0  0  0  0  0  0  0  0  0  0
  2  1  1  6
  2  3  1  0
  3  4  1  0
  4  5  1  0
  5  6  1  0
  6  7  1  0
  7  8  1  0
  8  9  2  0
  8 10  1  0
 10 11  1  0
 11 12  1  0
 12 13  1  0
 13 14  1  0
 14 15  1  0
 15 16  1  0
 16 17  1  0
 17 18  1  0
 18 19  1  0
 19 20  1  0
  2 21  1  0
 21 22  2  0
 21 23  1  0
M  END
>  <rName>  (2089) 
Lys_lauroyl

>  <PQ_SYMBOL>  (2089) 
Lys_lauroyl

>  <FULL_NAME>  (2089) 
Lauroyl Lysine

>  <IUPAC_CONDENSED>  (2089) 
Lys(lauroyl)

>  <IUPAC>  (2089) 
(2S)-2-amino-6-(dodecanoylamino)hexanoic acid

>  <TYPE>  (2089) 
Backbone

>  <CLASS>  (2089) 
alpha

>  <ANALOG>  (2089) 
Lys

>  <MOL_WT>  (2089) 
328.497

>  <LOGP>  (2089) 
3.6057000000000006

>  <TPSA>  (2089) 
92.42

>  <POPULARITY>  (2089) 
3.5

>  <PROTECTED>  (2089) 
TRUE

>  <SMILES>  (2089) 
N[C@@H](CCCCNC(=O)CCCCCCCCCCC)C(=O)O

>  <INCHIKEY>  (2089) 
GYDYJUYZBRGMCC-INIZCTEOSA-N

$$$$
Lys_malonyl
     RDKit          2D

 16 15  0  0  0  0  0  0  0  0999 V2000
   -4.3749    1.8686    0.0000 N   0  0  0  0  0  0  0  0  0  0  0  0
   -4.4523    0.3706    0.0000 C   0  0  0  0  0  0  0  0  0  0  0  0
   -3.1936   -0.4453    0.0000 C   0  0  0  0  0  0  0  0  0  0  0  0
   -1.8576    0.2367    0.0000 C   0  0  0  0  0  0  0  0  0  0  0  0
   -0.5990   -0.5793    0.0000 C   0  0  0  0  0  0  0  0  0  0  0  0
    0.7370    0.1028    0.0000 C   0  0  0  0  0  0  0  0  0  0  0  0
    1.9956   -0.7132    0.0000 N   0  0  0  0  0  0  0  0  0  0  0  0
    3.3316   -0.0312    0.0000 C   0  0  0  0  0  0  0  0  0  0  0  0
    3.4089    1.4668    0.0000 O   0  0  0  0  0  0  0  0  0  0  0  0
    4.5903   -0.8471    0.0000 C   0  0  0  0  0  0  0  0  0  0  0  0
    5.9262   -0.1651    0.0000 C   0  0  0  0  0  0  0  0  0  0  0  0
    6.0036    1.3329    0.0000 O   0  0  0  0  0  0  0  0  0  0  0  0
    7.1849   -0.9811    0.0000 O   0  0  0  0  0  0  0  0  0  0  0  0
   -5.7882   -0.3114    0.0000 C   0  0  0  0  0  0  0  0  0  0  0  0
   -5.8656   -1.8094    0.0000 O   0  0  0  0  0  0  0  0  0  0  0  0
   -7.0469    0.5046    0.0000 O   0  0  0  0  0  0  0  0  0  0  0  0
  2  1  1  1
  2  3  1  0
  3  4  1  0
  4  5  1  0
  5  6  1  0
  6  7  1  0
  7  8  1  0
  8  9  2  0
  8 10  1  0
 10 11  1  0
 11 12  2  0
 11 13  1  0
  2 14  1  0
 14 15  2  0
 14 16  1  0
M  END
>  <rName>  (2090) 
Lys_malonyl

>  <PQ_SYMBOL>  (2090) 
Lys_malonyl

>  <FULL_NAME>  (2090) 
N6-(2-Carboxyacetyl)-L-lysine

>  <IUPAC_CONDENSED>  (2090) 
Lys(malonyl)

>  <IUPAC>  (2090) 
(2S)-2-amino-6-[(2-carboxyacetyl)amino]hexanoic acid

>  <TYPE>  (2090) 
Backbone

>  <CLASS>  (2090) 
alpha

>  <ANALOG>  (2090) 
Lys

>  <MOL_WT>  (2090) 
232.236

>  <LOGP>  (2090) 
-0.8404999999999994

>  <TPSA>  (2090) 
129.72

>  <POPULARITY>  (2090) 
2.2

>  <PROTECTED>  (2090) 
TRUE

>  <SMILES>  (2090) 
N[C@@H](CCCCNC(=O)CC(=O)O)C(=O)O

>  <INCHIKEY>  (2090) 
MCSXQLOMUKSQTN-LURJTMIESA-N

$$$$
Lys_myristoyl
     RDKit          2D

 25 24  0  0  0  0  0  0  0  0999 V2000
    9.9838    1.7597    0.0000 N   0  0  0  0  0  0  0  0  0  0  0  0
    9.9777    0.2597    0.0000 C   0  0  0  0  0  0  0  0  0  0  0  0
    8.6757   -0.4850    0.0000 C   0  0  0  0  0  0  0  0  0  0  0  0
    7.3797    0.2702    0.0000 C   0  0  0  0  0  0  0  0  0  0  0  0
    6.0776   -0.4745    0.0000 C   0  0  0  0  0  0  0  0  0  0  0  0
    4.7816    0.2807    0.0000 C   0  0  0  0  0  0  0  0  0  0  0  0
    3.4796   -0.4641    0.0000 N   0  0  0  0  0  0  0  0  0  0  0  0
    2.1836    0.2912    0.0000 C   0  0  0  0  0  0  0  0  0  0  0  0
    2.1896    1.7912    0.0000 O   0  0  0  0  0  0  0  0  0  0  0  0
    0.8815   -0.4536    0.0000 C   0  0  0  0  0  0  0  0  0  0  0  0
   -0.4145    0.3017    0.0000 C   0  0  0  0  0  0  0  0  0  0  0  0
   -1.7165   -0.4431    0.0000 C   0  0  0  0  0  0  0  0  0  0  0  0
   -3.0125    0.3122    0.0000 C   0  0  0  0  0  0  0  0  0  0  0  0
   -4.3146   -0.4326    0.0000 C   0  0  0  0  0  0  0  0  0  0  0  0
   -5.6106    0.3227    0.0000 C   0  0  0  0  0  0  0  0  0  0  0  0
   -6.9126   -0.4221    0.0000 C   0  0  0  0  0  0  0  0  0  0  0  0
   -8.2086    0.3331    0.0000 C   0  0  0  0  0  0  0  0  0  0  0  0
   -9.5107   -0.4116    0.0000 C   0  0  0  0  0  0  0  0  0  0  0  0
  -10.8067    0.3436    0.0000 C   0  0  0  0  0  0  0  0  0  0  0  0
  -12.1088   -0.4011    0.0000 C   0  0  0  0  0  0  0  0  0  0  0  0
  -13.4048    0.3541    0.0000 C   0  0  0  0  0  0  0  0  0  0  0  0
  -14.7068   -0.3906    0.0000 C   0  0  0  0  0  0  0  0  0  0  0  0
   11.2737   -0.4955    0.0000 C   0  0  0  0  0  0  0  0  0  0  0  0
   11.2677   -1.9955    0.0000 O   0  0  0  0  0  0  0  0  0  0  0  0
   12.5758    0.2492    0.0000 O   0  0  0  0  0  0  0  0  0  0  0  0
  2  1  1  6
  2  3  1  0
  3  4  1  0
  4  5  1  0
  5  6  1  0
  6  7  1  0
  7  8  1  0
  8  9  2  0
  8 10  1  0
 10 11  1  0
 11 12  1  0
 12 13  1  0
 13 14  1  0
 14 15  1  0
 15 16  1  0
 16 17  1  0
 17 18  1  0
 18 19  1  0
 19 20  1  0
 20 21  1  0
 21 22  1  0
  2 23  1  0
 23 24  2  0
 23 25  1  0
M  END
>  <rName>  (2091) 
Lys_myristoyl

>  <PQ_SYMBOL>  (2091) 
Lys_myristoyl

>  <FULL_NAME>  (2091) 
N~6~-tetradecanoyl-L-lysine

>  <IUPAC_CONDENSED>  (2091) 
Lys(myristoyl)

>  <IUPAC>  (2091) 
(2S)-2-amino-6-(tridecylcarbonylamino)hexanoic acid

>  <TYPE>  (2091) 
Backbone

>  <CLASS>  (2091) 
alpha

>  <ANALOG>  (2091) 
Lys

>  <MOL_WT>  (2091) 
356.5510000000001

>  <LOGP>  (2091) 
4.385900000000002

>  <TPSA>  (2091) 
92.42

>  <POPULARITY>  (2091) 
19.0

>  <PROTECTED>  (2091) 
TRUE

>  <SMILES>  (2091) 
N[C@@H](CCCCNC(=O)CCCCCCCCCCCCC)C(=O)O

>  <INCHIKEY>  (2091) 
XTLFOGNEQSPWGW-SFHVURJKSA-N

$$$$
Lys_nicotinoyl
     RDKit          2D

 18 18  0  0  0  0  0  0  0  0999 V2000
   -5.2698   -1.7320    0.0000 N   0  0  0  0  0  0  0  0  0  0  0  0
   -5.1566   -0.2362    0.0000 C   0  0  0  0  0  0  0  0  0  0  0  0
   -3.8046    0.4135    0.0000 C   0  0  0  0  0  0  0  0  0  0  0  0
   -2.5659   -0.4325    0.0000 C   0  0  0  0  0  0  0  0  0  0  0  0
   -1.2139    0.2173    0.0000 C   0  0  0  0  0  0  0  0  0  0  0  0
    0.0248   -0.6287    0.0000 C   0  0  0  0  0  0  0  0  0  0  0  0
    1.3767    0.0211    0.0000 N   0  0  0  0  0  0  0  0  0  0  0  0
    2.6154   -0.8249    0.0000 C   0  0  0  0  0  0  0  0  0  0  0  0
    2.5021   -2.3206    0.0000 O   0  0  0  0  0  0  0  0  0  0  0  0
    3.9674   -0.1751    0.0000 C   0  0  0  0  0  0  0  0  0  0  0  0
    4.0807    1.3206    0.0000 C   0  0  0  0  0  0  0  0  0  0  0  0
    5.4326    1.9703    0.0000 C   0  0  0  0  0  0  0  0  0  0  0  0
    6.6713    1.1244    0.0000 C   0  0  0  0  0  0  0  0  0  0  0  0
    6.5580   -0.3713    0.0000 N   0  0  0  0  0  0  0  0  0  0  0  0
    5.2061   -1.0211    0.0000 C   0  0  0  0  0  0  0  0  0  0  0  0
   -6.3952    0.6097    0.0000 C   0  0  0  0  0  0  0  0  0  0  0  0
   -6.2820    2.1054    0.0000 O   0  0  0  0  0  0  0  0  0  0  0  0
   -7.7472   -0.0400    0.0000 O   0  0  0  0  0  0  0  0  0  0  0  0
  2  1  1  6
  2  3  1  0
  3  4  1  0
  4  5  1  0
  5  6  1  0
  6  7  1  0
  7  8  1  0
  8  9  2  0
  8 10  1  0
 10 11  2  0
 11 12  1  0
 12 13  2  0
 13 14  1  0
 14 15  2  0
  2 16  1  0
 16 17  2  0
 16 18  1  0
 15 10  1  0
M  END
>  <rName>  (2092) 
Lys_nicotinoyl

>  <PQ_SYMBOL>  (2092) 
Lys_nicotinoyl

>  <FULL_NAME>  (2092) 
N6-(3-Pyridinylcarbonyl)-L-Lysine

>  <IUPAC_CONDENSED>  (2092) 
Lys(nicotinoyl)

>  <IUPAC>  (2092) 
(2S)-2-amino-6-(pyridin-3-ylcarbonylamino)hexanoic acid

>  <TYPE>  (2092) 
Backbone

>  <CLASS>  (2092) 
alpha

>  <ANALOG>  (2092) 
Lys

>  <MOL_WT>  (2092) 
251.28600000000003

>  <LOGP>  (2092) 
0.39359999999999906

>  <TPSA>  (2092) 
105.30999999999999

>  <POPULARITY>  (2092) 
8.8

>  <PROTECTED>  (2092) 
TRUE

>  <SMILES>  (2092) 
N[C@@H](CCCCNC(=O)c1(cccnc1))C(=O)O

>  <INCHIKEY>  (2092) 
GPGQRQZBZHOSJY-JTQLQIEISA-N

$$$$
Lys_octanoyl
     RDKit          2D

 19 18  0  0  0  0  0  0  0  0999 V2000
   10.5282    0.4930    0.0000 C   0  0  0  0  0  0  0  0  0  0  0  0
    9.2305   -0.2594    0.0000 C   0  0  0  0  0  0  0  0  0  0  0  0
    7.9301    0.4882    0.0000 C   0  0  0  0  0  0  0  0  0  0  0  0
    6.6324   -0.2642    0.0000 C   0  0  0  0  0  0  0  0  0  0  0  0
    5.3320    0.4834    0.0000 C   0  0  0  0  0  0  0  0  0  0  0  0
    4.0344   -0.2689    0.0000 C   0  0  0  0  0  0  0  0  0  0  0  0
    2.7339    0.4787    0.0000 C   0  0  0  0  0  0  0  0  0  0  0  0
    1.4363   -0.2737    0.0000 C   0  0  0  0  0  0  0  0  0  0  0  0
    1.4390   -1.7737    0.0000 O   0  0  0  0  0  0  0  0  0  0  0  0
    0.1359    0.4739    0.0000 N   0  0  0  0  0  0  0  0  0  0  0  0
   -1.1618   -0.2784    0.0000 C   0  0  0  0  0  0  0  0  0  0  0  0
   -2.4622    0.4692    0.0000 C   0  0  0  0  0  0  0  0  0  0  0  0
   -3.7599   -0.2832    0.0000 C   0  0  0  0  0  0  0  0  0  0  0  0
   -5.0603    0.4644    0.0000 C   0  0  0  0  0  0  0  0  0  0  0  0
   -6.3579   -0.2880    0.0000 C   0  0  0  0  0  0  0  0  0  0  0  0
   -6.3552   -1.7880    0.0000 N   0  0  0  0  0  0  0  0  0  0  0  0
   -7.6583    0.4597    0.0000 C   0  0  0  0  0  0  0  0  0  0  0  0
   -7.6611    1.9597    0.0000 O   0  0  0  0  0  0  0  0  0  0  0  0
   -8.9560   -0.2927    0.0000 O   0  0  0  0  0  0  0  0  0  0  0  0
  1  2  1  0
  2  3  1  0
  3  4  1  0
  4  5  1  0
  5  6  1  0
  6  7  1  0
  7  8  1  0
  8  9  2  0
  8 10  1  0
 10 11  1  0
 11 12  1  0
 12 13  1  0
 13 14  1  0
 14 15  1  0
 15 16  1  6
 15 17  1  0
 17 18  2  0
 17 19  1  0
M  END
>  <rName>  (2093) 
Lys_octanoyl

>  <PQ_SYMBOL>  (2093) 
Lys_octanoyl

>  <FULL_NAME>  (2093) 
N6-octanoyl-L-lysine

>  <IUPAC_CONDENSED>  (2093) 
Lys(octanoyl)

>  <IUPAC>  (2093) 
(2S)-2-amino-6-heptylcarbonylaminohexanoic acid

>  <TYPE>  (2093) 
Backbone

>  <CLASS>  (2093) 
alpha

>  <ANALOG>  (2093) 
Lys

>  <MOL_WT>  (2093) 
272.38899999999995

>  <LOGP>  (2093) 
2.0453

>  <TPSA>  (2093) 
92.42

>  <POPULARITY>  (2093) 
9.6

>  <PROTECTED>  (2093) 
TRUE

>  <SMILES>  (2093) 
CCCCCCCC(=O)NCCCC[C@H](N)C(=O)O

>  <INCHIKEY>  (2093) 
DUZODDYGMSCYMJ-LBPRGKRZSA-N

$$$$
Lys_palmitoyl
     RDKit          2D

 27 26  0  0  0  0  0  0  0  0999 V2000
  -16.0714   -0.3744    0.0000 C   0  0  0  0  0  0  0  0  0  0  0  0
  -14.7691    0.3699    0.0000 C   0  0  0  0  0  0  0  0  0  0  0  0
  -13.4733   -0.3857    0.0000 C   0  0  0  0  0  0  0  0  0  0  0  0
  -12.1710    0.3586    0.0000 C   0  0  0  0  0  0  0  0  0  0  0  0
  -10.8753   -0.3970    0.0000 C   0  0  0  0  0  0  0  0  0  0  0  0
   -9.5730    0.3473    0.0000 C   0  0  0  0  0  0  0  0  0  0  0  0
   -8.2772   -0.4084    0.0000 C   0  0  0  0  0  0  0  0  0  0  0  0
   -6.9749    0.3360    0.0000 C   0  0  0  0  0  0  0  0  0  0  0  0
   -5.6792   -0.4197    0.0000 C   0  0  0  0  0  0  0  0  0  0  0  0
   -4.3769    0.3246    0.0000 C   0  0  0  0  0  0  0  0  0  0  0  0
   -3.0811   -0.4310    0.0000 C   0  0  0  0  0  0  0  0  0  0  0  0
   -1.7788    0.3133    0.0000 C   0  0  0  0  0  0  0  0  0  0  0  0
   -0.4831   -0.4423    0.0000 C   0  0  0  0  0  0  0  0  0  0  0  0
    0.8192    0.3020    0.0000 C   0  0  0  0  0  0  0  0  0  0  0  0
    2.1150   -0.4537    0.0000 C   0  0  0  0  0  0  0  0  0  0  0  0
    3.4173    0.2907    0.0000 C   0  0  0  0  0  0  0  0  0  0  0  0
    3.4238    1.7906    0.0000 O   0  0  0  0  0  0  0  0  0  0  0  0
    4.7130   -0.4650    0.0000 N   0  0  0  0  0  0  0  0  0  0  0  0
    6.0153    0.2793    0.0000 C   0  0  0  0  0  0  0  0  0  0  0  0
    7.3111   -0.4763    0.0000 C   0  0  0  0  0  0  0  0  0  0  0  0
    8.6134    0.2680    0.0000 C   0  0  0  0  0  0  0  0  0  0  0  0
    9.9091   -0.4876    0.0000 C   0  0  0  0  0  0  0  0  0  0  0  0
   11.2114    0.2567    0.0000 C   0  0  0  0  0  0  0  0  0  0  0  0
   11.2180    1.7567    0.0000 N   0  0  0  0  0  0  0  0  0  0  0  0
   12.5072   -0.4990    0.0000 C   0  0  0  0  0  0  0  0  0  0  0  0
   12.5007   -1.9990    0.0000 O   0  0  0  0  0  0  0  0  0  0  0  0
   13.8095    0.2454    0.0000 O   0  0  0  0  0  0  0  0  0  0  0  0
  1  2  1  0
  2  3  1  0
  3  4  1  0
  4  5  1  0
  5  6  1  0
  6  7  1  0
  7  8  1  0
  8  9  1  0
  9 10  1  0
 10 11  1  0
 11 12  1  0
 12 13  1  0
 13 14  1  0
 14 15  1  0
 15 16  1  0
 16 17  2  0
 16 18  1  0
 18 19  1  0
 19 20  1  0
 20 21  1  0
 21 22  1  0
 22 23  1  0
 23 24  1  6
 23 25  1  0
 25 26  2  0
 25 27  1  0
M  END
>  <rName>  (2094) 
Lys_palmitoyl

>  <PQ_SYMBOL>  (2094) 
Lys_palmitoyl

>  <FULL_NAME>  (2094) 
N6-palmitoyl-L-lysine

>  <IUPAC_CONDENSED>  (2094) 
Lys(palmitoyl)

>  <IUPAC>  (2094) 
(2S)-2-amino-6-(pentadecylcarbonylamino)hexanoic acid

>  <TYPE>  (2094) 
Backbone

>  <CLASS>  (2094) 
alpha

>  <ANALOG>  (2094) 
Lys

>  <MOL_WT>  (2094) 
384.6050000000002

>  <LOGP>  (2094) 
5.166100000000003

>  <TPSA>  (2094) 
92.42

>  <POPULARITY>  (2094) 
8.4

>  <PROTECTED>  (2094) 
TRUE

>  <SMILES>  (2094) 
CCCCCCCCCCCCCCCC(=O)NCCCC[C@H](N)C(=O)O

>  <INCHIKEY>  (2094) 
IWKZTTDNVPAHNP-FQEVSTJZSA-N

$$$$
Lys_pent4ynoyl
     RDKit          2D

 16 15  0  0  0  0  0  0  0  0999 V2000
    8.3748   -1.0810    0.0000 C   0  0  0  0  0  0  0  0  0  0  0  0
    7.0677   -0.3451    0.0000 C   0  0  0  0  0  0  0  0  0  0  0  0
    5.7606    0.3907    0.0000 C   0  0  0  0  0  0  0  0  0  0  0  0
    4.4698   -0.3734    0.0000 C   0  0  0  0  0  0  0  0  0  0  0  0
    3.1627    0.3625    0.0000 C   0  0  0  0  0  0  0  0  0  0  0  0
    3.1464    1.8624    0.0000 O   0  0  0  0  0  0  0  0  0  0  0  0
    1.8718   -0.4016    0.0000 N   0  0  0  0  0  0  0  0  0  0  0  0
    0.5647    0.3343    0.0000 C   0  0  0  0  0  0  0  0  0  0  0  0
   -0.7261   -0.4298    0.0000 C   0  0  0  0  0  0  0  0  0  0  0  0
   -2.0332    0.3061    0.0000 C   0  0  0  0  0  0  0  0  0  0  0  0
   -3.3240   -0.4580    0.0000 C   0  0  0  0  0  0  0  0  0  0  0  0
   -4.6311    0.2779    0.0000 C   0  0  0  0  0  0  0  0  0  0  0  0
   -4.6474    1.7778    0.0000 N   0  0  0  0  0  0  0  0  0  0  0  0
   -5.9219   -0.4862    0.0000 C   0  0  0  0  0  0  0  0  0  0  0  0
   -5.9056   -1.9861    0.0000 O   0  0  0  0  0  0  0  0  0  0  0  0
   -7.2290    0.2496    0.0000 O   0  0  0  0  0  0  0  0  0  0  0  0
  1  2  3  0
  2  3  1  0
  3  4  1  0
  4  5  1  0
  5  6  2  0
  5  7  1  0
  7  8  1  0
  8  9  1  0
  9 10  1  0
 10 11  1  0
 11 12  1  0
 12 13  1  1
 12 14  1  0
 14 15  2  0
 14 16  1  0
M  END
>  <rName>  (2095) 
Lys_pent4ynoyl

>  <PQ_SYMBOL>  (2095) 
Lys_pent4ynoyl

>  <FULL_NAME>  (2095) 
N6-(pent-4-ynoyl)-L-lysine

>  <IUPAC_CONDENSED>  (2095) 
Lys(pent-4-ynoyl)

>  <IUPAC>  (2095) 
(2S)-2-amino-6-(but-3-yn-1-ylcarbonylamino)hexanoic acid

>  <TYPE>  (2095) 
Backbone

>  <CLASS>  (2095) 
alpha

>  <ANALOG>  (2095) 
Lys

>  <MOL_WT>  (2095) 
226.27599999999998

>  <LOGP>  (2095) 
0.09820000000000079

>  <TPSA>  (2095) 
92.42

>  <POPULARITY>  (2095) 
6.0

>  <PROTECTED>  (2095) 
TRUE

>  <SMILES>  (2095) 
C#CCCC(=O)NCCCC[C@H](N)C(=O)O

>  <INCHIKEY>  (2095) 
RYIXPBHBRDRADN-VIFPVBQESA-N

$$$$
Lys_propionyl
     RDKit          2D

 14 13  0  0  0  0  0  0  0  0999 V2000
    3.4434   -1.8746    0.0000 N   0  0  0  0  0  0  0  0  0  0  0  0
    3.5124   -0.3762    0.0000 C   0  0  0  0  0  0  0  0  0  0  0  0
    2.2492    0.4328    0.0000 C   0  0  0  0  0  0  0  0  0  0  0  0
    0.9171   -0.2567    0.0000 C   0  0  0  0  0  0  0  0  0  0  0  0
   -0.3461    0.5522    0.0000 C   0  0  0  0  0  0  0  0  0  0  0  0
   -1.6783   -0.1373    0.0000 C   0  0  0  0  0  0  0  0  0  0  0  0
   -2.9415    0.6717    0.0000 N   0  0  0  0  0  0  0  0  0  0  0  0
   -4.2736   -0.0178    0.0000 C   0  0  0  0  0  0  0  0  0  0  0  0
   -4.3426   -1.5162    0.0000 O   0  0  0  0  0  0  0  0  0  0  0  0
   -5.5368    0.7911    0.0000 C   0  0  0  0  0  0  0  0  0  0  0  0
   -6.8689    0.1016    0.0000 C   0  0  0  0  0  0  0  0  0  0  0  0
    4.8445    0.3133    0.0000 C   0  0  0  0  0  0  0  0  0  0  0  0
    4.9135    1.8117    0.0000 O   0  0  0  0  0  0  0  0  0  0  0  0
    6.1077   -0.4956    0.0000 O   0  0  0  0  0  0  0  0  0  0  0  0
  2  1  1  1
  2  3  1  0
  3  4  1  0
  4  5  1  0
  5  6  1  0
  6  7  1  0
  7  8  1  0
  8  9  2  0
  8 10  1  0
 10 11  1  0
  2 12  1  0
 12 13  2  0
 12 14  1  0
M  END
>  <rName>  (2096) 
Lys_propionyl

>  <PQ_SYMBOL>  (2096) 
Lys_propionyl

>  <FULL_NAME>  (2096) 
N6-propionyl-L-lysine

>  <IUPAC_CONDENSED>  (2096) 
Lys(propionyl)

>  <IUPAC>  (2096) 
(2S)-2-amino-6-ethylcarbonylaminohexanoic acid

>  <TYPE>  (2096) 
Backbone

>  <CLASS>  (2096) 
alpha

>  <ANALOG>  (2096) 
Lys

>  <MOL_WT>  (2096) 
202.254

>  <LOGP>  (2096) 
0.09479999999999905

>  <TPSA>  (2096) 
92.42

>  <POPULARITY>  (2096) 
19.1

>  <PROTECTED>  (2096) 
TRUE

>  <SMILES>  (2096) 
N[C@@H](CCCCNC(=O)CC)C(=O)O

>  <INCHIKEY>  (2096) 
PCANIHQHQYUJPY-ZETCQYMHSA-N

$$$$
Lys_stearoyl
     RDKit          2D

 29 28  0  0  0  0  0  0  0  0999 V2000
   12.4607    1.7553    0.0000 N   0  0  0  0  0  0  0  0  0  0  0  0
   12.4541    0.2553    0.0000 C   0  0  0  0  0  0  0  0  0  0  0  0
   11.1518   -0.4890    0.0000 C   0  0  0  0  0  0  0  0  0  0  0  0
    9.8560    0.2668    0.0000 C   0  0  0  0  0  0  0  0  0  0  0  0
    8.5537   -0.4775    0.0000 C   0  0  0  0  0  0  0  0  0  0  0  0
    7.2580    0.2783    0.0000 C   0  0  0  0  0  0  0  0  0  0  0  0
    5.9557   -0.4660    0.0000 N   0  0  0  0  0  0  0  0  0  0  0  0
    4.6599    0.2897    0.0000 C   0  0  0  0  0  0  0  0  0  0  0  0
    4.6666    1.7897    0.0000 O   0  0  0  0  0  0  0  0  0  0  0  0
    3.3576   -0.4545    0.0000 C   0  0  0  0  0  0  0  0  0  0  0  0
    2.0619    0.3012    0.0000 C   0  0  0  0  0  0  0  0  0  0  0  0
    0.7596   -0.4430    0.0000 C   0  0  0  0  0  0  0  0  0  0  0  0
   -0.5362    0.3127    0.0000 C   0  0  0  0  0  0  0  0  0  0  0  0
   -1.8385   -0.4315    0.0000 C   0  0  0  0  0  0  0  0  0  0  0  0
   -3.1342    0.3242    0.0000 C   0  0  0  0  0  0  0  0  0  0  0  0
   -4.4365   -0.4200    0.0000 C   0  0  0  0  0  0  0  0  0  0  0  0
   -5.7323    0.3357    0.0000 C   0  0  0  0  0  0  0  0  0  0  0  0
   -7.0346   -0.4086    0.0000 C   0  0  0  0  0  0  0  0  0  0  0  0
   -8.3303    0.3472    0.0000 C   0  0  0  0  0  0  0  0  0  0  0  0
   -9.6326   -0.3971    0.0000 C   0  0  0  0  0  0  0  0  0  0  0  0
  -10.9284    0.3587    0.0000 C   0  0  0  0  0  0  0  0  0  0  0  0
  -12.2307   -0.3856    0.0000 C   0  0  0  0  0  0  0  0  0  0  0  0
  -13.5264    0.3702    0.0000 C   0  0  0  0  0  0  0  0  0  0  0  0
  -14.8288   -0.3741    0.0000 C   0  0  0  0  0  0  0  0  0  0  0  0
  -16.1245    0.3817    0.0000 C   0  0  0  0  0  0  0  0  0  0  0  0
  -17.4268   -0.3626    0.0000 C   0  0  0  0  0  0  0  0  0  0  0  0
   13.7498   -0.5005    0.0000 C   0  0  0  0  0  0  0  0  0  0  0  0
   13.7432   -2.0004    0.0000 O   0  0  0  0  0  0  0  0  0  0  0  0
   15.0521    0.2438    0.0000 O   0  0  0  0  0  0  0  0  0  0  0  0
  2  1  1  6
  2  3  1  0
  3  4  1  0
  4  5  1  0
  5  6  1  0
  6  7  1  0
  7  8  1  0
  8  9  2  0
  8 10  1  0
 10 11  1  0
 11 12  1  0
 12 13  1  0
 13 14  1  0
 14 15  1  0
 15 16  1  0
 16 17  1  0
 17 18  1  0
 18 19  1  0
 19 20  1  0
 20 21  1  0
 21 22  1  0
 22 23  1  0
 23 24  1  0
 24 25  1  0
 25 26  1  0
  2 27  1  0
 27 28  2  0
 27 29  1  0
M  END
>  <rName>  (2097) 
Lys_stearoyl

>  <PQ_SYMBOL>  (2097) 
Lys_stearoyl

>  <FULL_NAME>  (2097) 
N6-(1-oxooctadecyl)-L-lysine

>  <IUPAC_CONDENSED>  (2097) 
Lys(stearoyl)

>  <IUPAC>  (2097) 
(2S)-2-amino-6-(octadecanoylamino)hexanoic acid

>  <TYPE>  (2097) 
Backbone

>  <CLASS>  (2097) 
alpha

>  <ANALOG>  (2097) 
Lys

>  <MOL_WT>  (2097) 
412.6590000000003

>  <LOGP>  (2097) 
5.946300000000005

>  <TPSA>  (2097) 
92.42

>  <POPULARITY>  (2097) 
2.2

>  <PROTECTED>  (2097) 
TRUE

>  <SMILES>  (2097) 
N[C@@H](CCCCNC(=O)CCCCCCCCCCCCCCCCC)C(=O)O

>  <INCHIKEY>  (2097) 
PQOQDGZTLPYXJD-QFIPXVFZSA-N

$$$$
Lys_undec10ynoyl
     RDKit          2D

 22 21  0  0  0  0  0  0  0  0999 V2000
   -8.1752    1.7183    0.0000 N   0  0  0  0  0  0  0  0  0  0  0  0
   -8.1527    0.2185    0.0000 C   0  0  0  0  0  0  0  0  0  0  0  0
   -6.8426   -0.5119    0.0000 C   0  0  0  0  0  0  0  0  0  0  0  0
   -5.5549    0.2575    0.0000 C   0  0  0  0  0  0  0  0  0  0  0  0
   -4.2448   -0.4729    0.0000 C   0  0  0  0  0  0  0  0  0  0  0  0
   -2.9571    0.2965    0.0000 C   0  0  0  0  0  0  0  0  0  0  0  0
   -1.6470   -0.4339    0.0000 N   0  0  0  0  0  0  0  0  0  0  0  0
   -0.3594    0.3356    0.0000 C   0  0  0  0  0  0  0  0  0  0  0  0
   -0.3819    1.8354    0.0000 O   0  0  0  0  0  0  0  0  0  0  0  0
    0.9508   -0.3949    0.0000 C   0  0  0  0  0  0  0  0  0  0  0  0
    2.2384    0.3746    0.0000 C   0  0  0  0  0  0  0  0  0  0  0  0
    3.5486   -0.3558    0.0000 C   0  0  0  0  0  0  0  0  0  0  0  0
    4.8362    0.4136    0.0000 C   0  0  0  0  0  0  0  0  0  0  0  0
    6.1464   -0.3168    0.0000 C   0  0  0  0  0  0  0  0  0  0  0  0
    7.4340    0.4526    0.0000 C   0  0  0  0  0  0  0  0  0  0  0  0
    8.7441   -0.2778    0.0000 C   0  0  0  0  0  0  0  0  0  0  0  0
   10.0318    0.4916    0.0000 C   0  0  0  0  0  0  0  0  0  0  0  0
   11.3419   -0.2388    0.0000 C   0  0  0  0  0  0  0  0  0  0  0  0
   12.6521   -0.9692    0.0000 C   0  0  0  0  0  0  0  0  0  0  0  0
   -9.4403   -0.5509    0.0000 C   0  0  0  0  0  0  0  0  0  0  0  0
   -9.4178   -2.0507    0.0000 O   0  0  0  0  0  0  0  0  0  0  0  0
  -10.7505    0.1795    0.0000 O   0  0  0  0  0  0  0  0  0  0  0  0
  2  1  1  1
  2  3  1  0
  3  4  1  0
  4  5  1  0
  5  6  1  0
  6  7  1  0
  7  8  1  0
  8  9  2  0
  8 10  1  0
 10 11  1  0
 11 12  1  0
 12 13  1  0
 13 14  1  0
 14 15  1  0
 15 16  1  0
 16 17  1  0
 17 18  1  0
 18 19  3  0
  2 20  1  0
 20 21  2  0
 20 22  1  0
M  END
>  <rName>  (2098) 
Lys_undec10ynoyl

>  <PQ_SYMBOL>  (2098) 
Lys_undec10ynoyl

>  <FULL_NAME>  (2098) 
Lys(undec-10-ynoyl)

>  <IUPAC_CONDENSED>  (2098) 
Lys(undec-10-ynoyl)

>  <IUPAC>  (2098) 
(2S)-2-amino-6-(dec-9-yn-1-ylcarbonylamino)hexanoic acid

>  <TYPE>  (2098) 
Backbone

>  <CLASS>  (2098) 
alpha

>  <ANALOG>  (2098) 
Lys

>  <MOL_WT>  (2098) 
310.43799999999993

>  <LOGP>  (2098) 
2.4387999999999996

>  <TPSA>  (2098) 
92.42

>  <POPULARITY>  (2098) 
2.2

>  <PROTECTED>  (2098) 
TRUE

>  <SMILES>  (2098) 
N[C@@H](CCCCNC(=O)CCCCCCCCC#C)C(=O)O

>  <INCHIKEY>  (2098) 
HWJKIDXFPJRLAD-HNNXBMFYSA-N

$$$$
M
     RDKit          2D

  9  8  0  0  0  0  0  0  0  0999 V2000
    0.7616   -1.8791    0.0000 N   0  0  0  0  0  0  0  0  0  0  0  0
    0.8459   -0.3815    0.0000 C   0  0  0  0  0  0  0  0  0  0  0  0
   -0.4089    0.4403    0.0000 C   0  0  0  0  0  0  0  0  0  0  0  0
   -1.7480   -0.2354    0.0000 C   0  0  0  0  0  0  0  0  0  0  0  0
   -3.0029    0.5864    0.0000 S   0  0  0  0  0  0  0  0  0  0  0  0
   -4.3420   -0.0894    0.0000 C   0  0  0  0  0  0  0  0  0  0  0  0
    2.1851    0.2943    0.0000 C   0  0  0  0  0  0  0  0  0  0  0  0
    2.2694    1.7919    0.0000 O   0  0  0  0  0  0  0  0  0  0  0  0
    3.4399   -0.5275    0.0000 O   0  0  0  0  0  0  0  0  0  0  0  0
  2  1  1  1
  2  3  1  0
  3  4  1  0
  4  5  1  0
  5  6  1  0
  2  7  1  0
  7  8  2  0
  7  9  1  0
M  END
>  <rName>  (2099) 
M

>  <PQ_SYMBOL>  (2099) 
M

>  <FULL_NAME>  (2099) 
L-Methionine

>  <IUPAC_CONDENSED>  (2099) 
Met

>  <IUPAC>  (2099) 
(2S)-2-amino-4-(methylsulfanyl)butanoic acid

>  <TYPE>  (2099) 
Backbone

>  <CLASS>  (2099) 
alpha

>  <ANALOG>  (2099) 
Met

>  <MOL_WT>  (2099) 
149.215

>  <LOGP>  (2099) 
0.1513999999999997

>  <TPSA>  (2099) 
63.32000000000001

>  <POPULARITY>  (2099) 
92.3

>  <PROTECTED>  (2099) 
TRUE

>  <SMILES>  (2099) 
N[C@@H](CCSC)C(=O)O

>  <INCHIKEY>  (2099) 
FFEARJCKVFRZRR-BYPYZUCNSA-N

$$$$
Mbzl-Gly-
     RDKit          2D

 13 13  0  0  0  0  0  0  0  0999 V2000
   -1.6537   -0.1855    0.0000 N   0  0  0  0  0  0  0  0  0  0  0  0
   -0.4997   -1.1437    0.0000 C   0  0  0  0  0  0  0  0  0  0  0  0
    0.9072   -0.6234    0.0000 C   0  0  0  0  0  0  0  0  0  0  0  0
    1.1600    0.8552    0.0000 C   0  0  0  0  0  0  0  0  0  0  0  0
    2.5669    1.3755    0.0000 C   0  0  0  0  0  0  0  0  0  0  0  0
    3.7209    0.4173    0.0000 C   0  0  0  0  0  0  0  0  0  0  0  0
    5.1278    0.9376    0.0000 C   0  0  0  0  0  0  0  0  0  0  0  0
    3.4681   -1.0612    0.0000 C   0  0  0  0  0  0  0  0  0  0  0  0
    2.0612   -1.5816    0.0000 C   0  0  0  0  0  0  0  0  0  0  0  0
   -3.0606   -0.7058    0.0000 C   0  0  0  0  0  0  0  0  0  0  0  0
   -4.2146    0.2524    0.0000 C   0  0  0  0  0  0  0  0  0  0  0  0
   -3.9618    1.7310    0.0000 O   0  0  0  0  0  0  0  0  0  0  0  0
   -5.6215   -0.2679    0.0000 O   0  0  0  0  0  0  0  0  0  0  0  0
  1  2  1  0
  2  3  1  0
  3  4  1  0
  4  5  2  0
  5  6  1  0
  6  7  1  0
  6  8  2  0
  8  9  1  0
  1 10  1  0
 10 11  1  0
 11 12  2  0
 11 13  1  0
  9  3  2  0
M  END
>  <rName>  (2100) 
Mbzl-Gly-

>  <PQ_SYMBOL>  (2100) 
Mbzl-Gly-

>  <FULL_NAME>  (2100) 
2-[(4-methylphenyl)methylamino]acetic acid

>  <IUPAC_CONDENSED>  (2100) 
Mbzl-Gly-

>  <IUPAC>  (2100) 
2-(((4-methylphenyl)methyl)amino)acetic acid

>  <TYPE>  (2100) 
N-term cap

>  <CLASS>  (2100) 
n_cap

>  <ANALOG>  (2100) 
X

>  <MOL_WT>  (2100) 
179.21899999999997

>  <LOGP>  (2100) 
1.16922

>  <TPSA>  (2100) 
49.33

>  <POPULARITY>  (2100) 
15.5

>  <PROTECTED>  (2100) 
TRUE

>  <SMILES>  (2100) 
N(Cc1(ccc(C)cc1))CC(=O)O

>  <INCHIKEY>  (2100) 
LZBYHWQHNZFDSR-UHFFFAOYSA-N

$$$$
Me-
     RDKit          2D

  2  1  0  0  0  0  0  0  0  0999 V2000
   -0.7500    0.0000    0.0000 C   0  0  0  0  0  0  0  0  0  0  0  0
    0.7500   -0.0000    0.0000 O   0  0  0  0  0  0  0  0  0  0  0  0
  1  2  1  0
M  END
>  <rName>  (2101) 
Me-

>  <PQ_SYMBOL>  (2101) 
Me-

>  <FULL_NAME>  (2101) 
N-Terminal methyl

>  <IUPAC_CONDENSED>  (2101) 
Me-

>  <IUPAC>  (2101) 
methanol

>  <TYPE>  (2101) 
N-term cap

>  <CLASS>  (2101) 
n_cap

>  <ANALOG>  (2101) 
X

>  <MOL_WT>  (2101) 
32.042

>  <LOGP>  (2101) 
-0.3915

>  <TPSA>  (2101) 
20.23

>  <POPULARITY>  (2101) 
2.0

>  <PROTECTED>  (2101) 
FALSE

>  <SMILES>  (2101) 
CO

>  <INCHIKEY>  (2101) 
OKKJLVBELUTLKV-UHFFFAOYSA-N

$$$$
Me-2Thi
     RDKit          2D

 12 12  0  0  0  0  0  0  0  0999 V2000
   -0.9097    1.3884    0.0000 N   0  0  0  0  0  0  0  0  0  0  0  0
   -2.0799    2.3268    0.0000 C   0  0  0  0  0  0  0  0  0  0  0  0
   -1.1374   -0.0943    0.0000 C   0  0  0  0  0  0  0  0  0  0  0  0
    0.0327   -1.0328    0.0000 C   0  0  0  0  0  0  0  0  0  0  0  0
    1.4305   -0.4886    0.0000 C   0  0  0  0  0  0  0  0  0  0  0  0
    2.6924   -1.2997    0.0000 C   0  0  0  0  0  0  0  0  0  0  0  0
    3.8536   -0.3502    0.0000 C   0  0  0  0  0  0  0  0  0  0  0  0
    3.3095    1.0476    0.0000 C   0  0  0  0  0  0  0  0  0  0  0  0
    1.8120    0.9621    0.0000 S   0  0  0  0  0  0  0  0  0  0  0  0
   -2.5353   -0.6384    0.0000 C   0  0  0  0  0  0  0  0  0  0  0  0
   -2.7630   -2.1210    0.0000 O   0  0  0  0  0  0  0  0  0  0  0  0
   -3.7054    0.3001    0.0000 O   0  0  0  0  0  0  0  0  0  0  0  0
  1  2  1  0
  1  3  1  0
  3  4  1  1
  4  5  1  0
  5  6  2  0
  6  7  1  0
  7  8  2  0
  8  9  1  0
  3 10  1  0
 10 11  2  0
 10 12  1  0
  9  5  1  0
M  END
>  <rName>  (2102) 
Me-2Thi

>  <PQ_SYMBOL>  (2102) 
Me-2Thi

>  <FULL_NAME>  (2102) 
(2S)-2-(methylamino)-3-thiophen-2-ylpropanoic acid

>  <IUPAC_CONDENSED>  (2102) 
Me-2Thi

>  <IUPAC>  (2102) 
(2S)-2-(methylamino)-3-thiophen-2-ylpropanoic acid

>  <TYPE>  (2102) 
Backbone

>  <CLASS>  (2102) 
alpha

>  <ANALOG>  (2102) 
Phe

>  <MOL_WT>  (2102) 
185.24799999999996

>  <LOGP>  (2102) 
0.9631999999999998

>  <TPSA>  (2102) 
49.33

>  <POPULARITY>  (2102) 
2.2

>  <PROTECTED>  (2102) 
TRUE

>  <SMILES>  (2102) 
N(C)[C@@H](Cc1(cccs1))C(=O)O

>  <INCHIKEY>  (2102) 
OPSHXRJYPVSUEF-ZETCQYMHSA-N

$$$$
Me-4-aminomethyl-cHex-1-CO2H_1r_4r
     RDKit          2D

 12 12  0  0  0  0  0  0  0  0999 V2000
   -3.7384    0.5803    0.0000 N   0  0  0  0  0  0  0  0  0  0  0  0
   -5.2245    0.3766    0.0000 C   0  0  0  0  0  0  0  0  0  0  0  0
   -2.8190   -0.6049    0.0000 C   0  0  0  0  0  0  0  0  0  0  0  0
   -1.3329   -0.4012    0.0000 C   0  0  0  0  0  0  0  0  0  0  0  0
   -0.7662    0.9876    0.0000 C   0  0  0  0  0  0  0  0  0  0  0  0
    0.7199    1.1913    0.0000 C   0  0  0  0  0  0  0  0  0  0  0  0
    1.6393    0.0062    0.0000 C   0  0  0  0  0  0  0  0  0  0  0  0
    1.0727   -1.3827    0.0000 C   0  0  0  0  0  0  0  0  0  0  0  0
   -0.4134   -1.5864    0.0000 C   0  0  0  0  0  0  0  0  0  0  0  0
    3.1255    0.2098    0.0000 C   0  0  0  0  0  0  0  0  0  0  0  0
    3.6921    1.5987    0.0000 O   0  0  0  0  0  0  0  0  0  0  0  0
    4.0449   -0.9753    0.0000 O   0  0  0  0  0  0  0  0  0  0  0  0
  1  2  1  0
  1  3  1  0
  4  3  1  1
  4  5  1  0
  5  6  1  0
  6  7  1  0
  7  8  1  0
  8  9  1  0
  7 10  1  6
 10 11  2  0
 10 12  1  0
  9  4  1  0
M  END
>  <rName>  (2103) 
Me-4-aminomethyl-cHex-1-CO2H_1r_4r

>  <PQ_SYMBOL>  (2103) 
Me-4-aminomethyl-cHex-1-CO2H_1r_4r

>  <FULL_NAME>  (2103) 
trans-4-Methylaminomethyl-cyclohexanecarboxylic acid

>  <IUPAC_CONDENSED>  (2103) 
Me-4-aminomethyl-cHex-1-CO2H(1r,4r)

>  <IUPAC>  (2103) 
4-(methylaminomethyl)cyclohexane-1-carboxylic acid

>  <TYPE>  (2103) 
Backbone

>  <CLASS>  (2103) 
epsilon

>  <ANALOG>  (2103) 
Ala

>  <MOL_WT>  (2103) 
171.24

>  <LOGP>  (2103) 
1.0967999999999998

>  <TPSA>  (2103) 
49.33

>  <POPULARITY>  (2103) 
12.0

>  <PROTECTED>  (2103) 
TRUE

>  <SMILES>  (2103) 
N(C)C[C@H]1CC[C@@H](CC1)C(=O)O

>  <INCHIKEY>  (2103) 
IDMTVFPMTNDKTC-ZKCHVHJHSA-N

$$$$
Me-Ala-NH2
     RDKit          2D

  7  6  0  0  0  0  0  0  0  0999 V2000
    1.5000   -0.7423    0.0000 N   0  0  0  0  0  0  0  0  0  0  0  0
    2.2500    0.5567    0.0000 C   0  0  0  0  0  0  0  0  0  0  0  0
    0.0000   -0.7423    0.0000 C   0  0  0  0  0  0  0  0  0  0  0  0
   -0.7500   -2.0413    0.0000 C   0  0  0  0  0  0  0  0  0  0  0  0
   -0.7500    0.5567    0.0000 C   0  0  0  0  0  0  0  0  0  0  0  0
   -2.2500    0.5567    0.0000 N   0  0  0  0  0  0  0  0  0  0  0  0
   -0.0000    1.8558    0.0000 O   0  0  0  0  0  0  0  0  0  0  0  0
  1  2  1  0
  1  3  1  0
  3  4  1  1
  3  5  1  0
  5  6  1  0
  5  7  2  0
M  END
>  <rName>  (2104) 
Me-Ala-NH2

>  <PQ_SYMBOL>  (2104) 
Me-Ala-NH2

>  <FULL_NAME>  (2104) 
N^2^-methyl-L-alaninamide

>  <IUPAC_CONDENSED>  (2104) 
Me-Ala-NH2

>  <IUPAC>  (2104) 
(2S)-2-(methylamino)propanamide

>  <TYPE>  (2104) 
C-term cap

>  <CLASS>  (2104) 
c_cap

>  <ANALOG>  (2104) 
X

>  <MOL_WT>  (2104) 
102.137

>  <LOGP>  (2104) 
-0.9204000000000003

>  <TPSA>  (2104) 
55.12

>  <POPULARITY>  (2104) 
17.4

>  <PROTECTED>  (2104) 
FALSE

>  <SMILES>  (2104) 
N(C)[C@@H](C)C(N)=O

>  <INCHIKEY>  (2104) 
QKNFFJHHPCWXTH-VKHMYHEASA-N

$$$$
Me-Ala-OMe
     RDKit          2D

  8  7  0  0  0  0  0  0  0  0999 V2000
    2.1094   -0.1242    0.0000 N   0  0  0  0  0  0  0  0  0  0  0  0
    2.2639    1.3678    0.0000 C   0  0  0  0  0  0  0  0  0  0  0  0
    0.7400   -0.7364    0.0000 C   0  0  0  0  0  0  0  0  0  0  0  0
    0.5855   -2.2284    0.0000 C   0  0  0  0  0  0  0  0  0  0  0  0
   -0.4749    0.1434    0.0000 C   0  0  0  0  0  0  0  0  0  0  0  0
   -0.3204    1.6355    0.0000 O   0  0  0  0  0  0  0  0  0  0  0  0
   -1.8443   -0.4688    0.0000 O   0  0  0  0  0  0  0  0  0  0  0  0
   -3.0591    0.4111    0.0000 C   0  0  0  0  0  0  0  0  0  0  0  0
  1  2  1  0
  1  3  1  0
  3  4  1  1
  3  5  1  0
  5  6  2  0
  5  7  1  0
  7  8  1  0
M  END
>  <rName>  (2105) 
Me-Ala-OMe

>  <PQ_SYMBOL>  (2105) 
Me-Ala-OMe

>  <FULL_NAME>  (2105) 
methyl (2S)-2-(methylamino)propanoate

>  <IUPAC_CONDENSED>  (2105) 
Me-Ala-OMe

>  <IUPAC>  (2105) 
methyl (2S)-2-(methylamino)propanoate

>  <TYPE>  (2105) 
C-term cap

>  <CLASS>  (2105) 
c_cap

>  <ANALOG>  (2105) 
X

>  <MOL_WT>  (2105) 
117.14799999999998

>  <LOGP>  (2105) 
-0.23270000000000035

>  <TPSA>  (2105) 
38.33

>  <POPULARITY>  (2105) 
17.0

>  <PROTECTED>  (2105) 
TRUE

>  <SMILES>  (2105) 
N(C)[C@@H](C)C(=O)OC

>  <INCHIKEY>  (2105) 
PQIUHUKRJAOTLS-BYPYZUCNSA-N

$$$$
Me-D-Ala-OMe
     RDKit          2D

  8  7  0  0  0  0  0  0  0  0999 V2000
    2.1094   -0.1242    0.0000 N   0  0  0  0  0  0  0  0  0  0  0  0
    2.2639    1.3678    0.0000 C   0  0  0  0  0  0  0  0  0  0  0  0
    0.7400   -0.7364    0.0000 C   0  0  0  0  0  0  0  0  0  0  0  0
    0.5855   -2.2284    0.0000 C   0  0  0  0  0  0  0  0  0  0  0  0
   -0.4749    0.1434    0.0000 C   0  0  0  0  0  0  0  0  0  0  0  0
   -0.3204    1.6355    0.0000 O   0  0  0  0  0  0  0  0  0  0  0  0
   -1.8443   -0.4688    0.0000 O   0  0  0  0  0  0  0  0  0  0  0  0
   -3.0591    0.4111    0.0000 C   0  0  0  0  0  0  0  0  0  0  0  0
  1  2  1  0
  1  3  1  0
  3  4  1  6
  3  5  1  0
  5  6  2  0
  5  7  1  0
  7  8  1  0
M  END
>  <rName>  (2106) 
Me-D-Ala-OMe

>  <PQ_SYMBOL>  (2106) 
Me-D-Ala-OMe

>  <FULL_NAME>  (2106) 
methyl (2R)-2-(methylamino)propanoate

>  <IUPAC_CONDENSED>  (2106) 
Me-D-Ala-OMe

>  <IUPAC>  (2106) 
methyl (2R)-2-(methylamino)propanoate

>  <TYPE>  (2106) 
C-term cap

>  <CLASS>  (2106) 
c_cap

>  <ANALOG>  (2106) 
X

>  <MOL_WT>  (2106) 
117.14799999999998

>  <LOGP>  (2106) 
-0.23270000000000035

>  <TPSA>  (2106) 
38.33

>  <POPULARITY>  (2106) 
14.8

>  <PROTECTED>  (2106) 
TRUE

>  <SMILES>  (2106) 
N(C)[C@H](C)C(=O)OC

>  <INCHIKEY>  (2106) 
PQIUHUKRJAOTLS-SCSAIBSYSA-N

$$$$
Me-D-hPhe
     RDKit          2D

 14 14  0  0  0  0  0  0  0  0999 V2000
   -2.5120   -1.5648    0.0000 N   0  0  0  0  0  0  0  0  0  0  0  0
   -3.9573   -1.9664    0.0000 C   0  0  0  0  0  0  0  0  0  0  0  0
   -2.1372   -0.1124    0.0000 C   0  0  0  0  0  0  0  0  0  0  0  0
   -0.6920    0.2892    0.0000 C   0  0  0  0  0  0  0  0  0  0  0  0
    0.3784   -0.7616    0.0000 C   0  0  0  0  0  0  0  0  0  0  0  0
    1.8237   -0.3600    0.0000 C   0  0  0  0  0  0  0  0  0  0  0  0
    2.1985    1.0924    0.0000 C   0  0  0  0  0  0  0  0  0  0  0  0
    3.6437    1.4940    0.0000 C   0  0  0  0  0  0  0  0  0  0  0  0
    4.7141    0.4432    0.0000 C   0  0  0  0  0  0  0  0  0  0  0  0
    4.3393   -1.0092    0.0000 C   0  0  0  0  0  0  0  0  0  0  0  0
    2.8941   -1.4108    0.0000 C   0  0  0  0  0  0  0  0  0  0  0  0
   -3.2076    0.9384    0.0000 C   0  0  0  0  0  0  0  0  0  0  0  0
   -2.8328    2.3908    0.0000 O   0  0  0  0  0  0  0  0  0  0  0  0
   -4.6529    0.5368    0.0000 O   0  0  0  0  0  0  0  0  0  0  0  0
  1  2  1  0
  1  3  1  0
  3  4  1  1
  4  5  1  0
  5  6  1  0
  6  7  2  0
  7  8  1  0
  8  9  2  0
  9 10  1  0
 10 11  2  0
  3 12  1  0
 12 13  2  0
 12 14  1  0
 11  6  1  0
M  END
>  <rName>  (2107) 
Me-D-hPhe

>  <PQ_SYMBOL>  (2107) 
Me-D-hPhe

>  <FULL_NAME>  (2107) 
(R)-2-(Methylamino)-4-phenylbutanoic acid

>  <IUPAC_CONDENSED>  (2107) 
Me-D-hPhe

>  <IUPAC>  (2107) 
(2R)-2-(methylamino)-4-phenylbutanoic acid

>  <TYPE>  (2107) 
Backbone

>  <CLASS>  (2107) 
alpha

>  <ANALOG>  (2107) 
Phe

>  <MOL_WT>  (2107) 
193.24599999999998

>  <LOGP>  (2107) 
1.2918

>  <TPSA>  (2107) 
49.33

>  <POPULARITY>  (2107) 
2.2

>  <PROTECTED>  (2107) 
TRUE

>  <SMILES>  (2107) 
N(C)[C@H](CCc1(ccccc1))C(=O)O

>  <INCHIKEY>  (2107) 
NVXKJPGRZSDYPK-SNVBAGLBSA-N

$$$$
Me-His-NH2
     RDKit          2D

 12 12  0  0  0  0  0  0  0  0999 V2000
   -0.9097    1.3884    0.0000 N   0  0  0  0  0  0  0  0  0  0  0  0
   -2.0799    2.3268    0.0000 C   0  0  0  0  0  0  0  0  0  0  0  0
   -1.1374   -0.0943    0.0000 C   0  0  0  0  0  0  0  0  0  0  0  0
   -2.5353   -0.6384    0.0000 C   0  0  0  0  0  0  0  0  0  0  0  0
   -2.7630   -2.1210    0.0000 O   0  0  0  0  0  0  0  0  0  0  0  0
   -3.7054    0.3001    0.0000 N   0  0  0  0  0  0  0  0  0  0  0  0
    0.0327   -1.0328    0.0000 C   0  0  0  0  0  0  0  0  0  0  0  0
    1.4305   -0.4886    0.0000 C   0  0  0  0  0  0  0  0  0  0  0  0
    2.6924   -1.2997    0.0000 C   0  0  0  0  0  0  0  0  0  0  0  0
    3.8536   -0.3502    0.0000 N   0  0  0  0  0  0  0  0  0  0  0  0
    3.3095    1.0476    0.0000 C   0  0  0  0  0  0  0  0  0  0  0  0
    1.8120    0.9621    0.0000 N   0  0  0  0  0  0  0  0  0  0  0  0
  1  2  1  0
  1  3  1  0
  3  4  1  0
  4  5  2  0
  4  6  1  0
  3  7  1  1
  7  8  1  0
  8  9  2  0
  9 10  1  0
 10 11  1  0
 11 12  2  0
 12  8  1  0
M  END
>  <rName>  (2108) 
Me-His-NH2

>  <PQ_SYMBOL>  (2108) 
Me-His-NH2

>  <FULL_NAME>  (2108) 
N-ALPHA-METHYL-L-HISTIDINAMIDE

>  <IUPAC_CONDENSED>  (2108) 
Me-His-NH2

>  <IUPAC>  (2108) 
(2S)-3-(1H-imidazol-4-yl)-2-(methylamino)propanamide

>  <TYPE>  (2108) 
C-term cap

>  <CLASS>  (2108) 
c_cap

>  <ANALOG>  (2108) 
X

>  <MOL_WT>  (2108) 
168.20000000000002

>  <LOGP>  (2108) 
-0.9744999999999999

>  <TPSA>  (2108) 
83.8

>  <POPULARITY>  (2108) 
13.2

>  <PROTECTED>  (2108) 
FALSE

>  <SMILES>  (2108) 
N(C)[C@H](C(=O)N)Cc1c[nH]cn1

>  <INCHIKEY>  (2108) 
IKHTZFHDCRBHBJ-LURJTMIESA-N

$$$$
Me-Pra
     RDKit          2D

  9  8  0  0  0  0  0  0  0  0999 V2000
    1.7694   -1.2834    0.0000 N   0  0  0  0  0  0  0  0  0  0  0  0
    3.0465   -0.4967    0.0000 C   0  0  0  0  0  0  0  0  0  0  0  0
    0.4495   -0.5707    0.0000 C   0  0  0  0  0  0  0  0  0  0  0  0
   -0.8277   -1.3575    0.0000 C   0  0  0  0  0  0  0  0  0  0  0  0
   -2.1475   -0.6448    0.0000 C   0  0  0  0  0  0  0  0  0  0  0  0
   -3.4674    0.0678    0.0000 C   0  0  0  0  0  0  0  0  0  0  0  0
    0.4067    0.9286    0.0000 C   0  0  0  0  0  0  0  0  0  0  0  0
    1.6838    1.7154    0.0000 O   0  0  0  0  0  0  0  0  0  0  0  0
   -0.9132    1.6413    0.0000 O   0  0  0  0  0  0  0  0  0  0  0  0
  1  2  1  0
  1  3  1  0
  3  4  1  1
  4  5  1  0
  5  6  3  0
  3  7  1  0
  7  8  2  0
  7  9  1  0
M  END
>  <rName>  (2109) 
Me-Pra

>  <PQ_SYMBOL>  (2109) 
Me-Pra

>  <FULL_NAME>  (2109) 
(2S)-2-(methylamino)pent-4-ynoic acid

>  <IUPAC_CONDENSED>  (2109) 
Me-Pra

>  <IUPAC>  (2109) 
(2S)-2-(methylamino)pent-4-ynoic acid

>  <TYPE>  (2109) 
Backbone

>  <CLASS>  (2109) 
alpha

>  <ANALOG>  (2109) 
Val

>  <MOL_WT>  (2109) 
127.14299999999997

>  <LOGP>  (2109) 
-0.31770000000000015

>  <TPSA>  (2109) 
49.33

>  <POPULARITY>  (2109) 
2.2

>  <PROTECTED>  (2109) 
TRUE

>  <SMILES>  (2109) 
N(C)[C@@H](CC#C)C(=O)O

>  <INCHIKEY>  (2109) 
DMGYERSWNFEQDT-YFKPBYRVSA-N

$$$$
Me-b-3-oxa-Ac4c
     RDKit          2D

 10 10  0  0  0  0  0  0  0  0999 V2000
    0.0525   -1.0188    0.0000 N   0  0  0  0  0  0  0  0  0  0  0  0
   -0.6887   -2.3229    0.0000 C   0  0  0  0  0  0  0  0  0  0  0  0
   -0.7063    0.2751    0.0000 C   0  0  0  0  0  0  0  0  0  0  0  0
   -2.0002   -0.4836    0.0000 C   0  0  0  0  0  0  0  0  0  0  0  0
   -2.7590    0.8103    0.0000 O   0  0  0  0  0  0  0  0  0  0  0  0
   -1.4651    1.5691    0.0000 C   0  0  0  0  0  0  0  0  0  0  0  0
    0.5876    1.0339    0.0000 C   0  0  0  0  0  0  0  0  0  0  0  0
    1.8917    0.2927    0.0000 C   0  0  0  0  0  0  0  0  0  0  0  0
    1.9019   -1.2072    0.0000 O   0  0  0  0  0  0  0  0  0  0  0  0
    3.1856    1.0515    0.0000 O   0  0  0  0  0  0  0  0  0  0  0  0
  1  2  1  0
  1  3  1  0
  3  4  1  0
  4  5  1  0
  5  6  1  0
  3  7  1  0
  7  8  1  0
  8  9  2  0
  8 10  1  0
  6  3  1  0
M  END
>  <rName>  (2110) 
Me-b-3-oxa-Ac4c

>  <PQ_SYMBOL>  (2110) 
Me-b-3-oxa-Ac4c

>  <FULL_NAME>  (2110) 
2-[3-(Methylamino)oxetan-3-yl]acetic acid

>  <IUPAC_CONDENSED>  (2110) 
Me-b-3-oxa-Ac4c

>  <IUPAC>  (2110) 
2-(3-(methylamino)-1-oxacyclobutan-3-yl)acetic acid

>  <TYPE>  (2110) 
Backbone

>  <CLASS>  (2110) 
beta

>  <ANALOG>  (2110) 
Ser

>  <MOL_WT>  (2110) 
145.15800000000002

>  <LOGP>  (2110) 
-0.5505000000000002

>  <TPSA>  (2110) 
58.56

>  <POPULARITY>  (2110) 
5.2

>  <PROTECTED>  (2110) 
TRUE

>  <SMILES>  (2110) 
N(C)C1(COC1)CC(=O)O

>  <INCHIKEY>  (2110) 
JDTXERDDQPGWAI-UHFFFAOYSA-N

$$$$
Me-bAib
     RDKit          2D

  8  7  0  0  0  0  0  0  0  0999 V2000
   -1.8248    0.2832    0.0000 N   0  0  0  0  0  0  0  0  0  0  0  0
   -3.3153    0.1141    0.0000 C   0  0  0  0  0  0  0  0  0  0  0  0
   -0.9331   -0.9230    0.0000 C   0  0  0  0  0  0  0  0  0  0  0  0
    0.5573   -0.7539    0.0000 C   0  0  0  0  0  0  0  0  0  0  0  0
    1.4490   -1.9601    0.0000 C   0  0  0  0  0  0  0  0  0  0  0  0
    1.1561    0.6215    0.0000 C   0  0  0  0  0  0  0  0  0  0  0  0
    0.2644    1.8276    0.0000 O   0  0  0  0  0  0  0  0  0  0  0  0
    2.6465    0.7906    0.0000 O   0  0  0  0  0  0  0  0  0  0  0  0
  1  2  1  0
  1  3  1  0
  3  4  1  0
  4  5  1  0
  4  6  1  0
  6  7  2  0
  6  8  1  0
M  END
>  <rName>  (2111) 
Me-bAib

>  <PQ_SYMBOL>  (2111) 
Me-bAib

>  <FULL_NAME>  (2111) 
2-Methyl-3-(methylamino)propanoic acid

>  <IUPAC_CONDENSED>  (2111) 
Me-bAib

>  <IUPAC>  (2111) 
2-methyl-3-(methylamino)propanoic acid

>  <TYPE>  (2111) 
Backbone

>  <CLASS>  (2111) 
beta

>  <ANALOG>  (2111) 
Ala

>  <MOL_WT>  (2111) 
117.14799999999998

>  <LOGP>  (2111) 
-0.07349999999999995

>  <TPSA>  (2111) 
49.33

>  <POPULARITY>  (2111) 
16.7

>  <PROTECTED>  (2111) 
TRUE

>  <SMILES>  (2111) 
N(C)CC(C)C(=O)O

>  <INCHIKEY>  (2111) 
JFOYDXJQOLMUES-UHFFFAOYSA-N

$$$$
Me-bLeu_R
     RDKit          2D

 10  9  0  0  0  0  0  0  0  0999 V2000
   -1.8138    1.4604    0.0000 N   0  0  0  0  0  0  0  0  0  0  0  0
   -3.1802    0.8418    0.0000 C   0  0  0  0  0  0  0  0  0  0  0  0
   -0.5948    0.5863    0.0000 C   0  0  0  0  0  0  0  0  0  0  0  0
   -0.7422   -0.9064    0.0000 C   0  0  0  0  0  0  0  0  0  0  0  0
    0.4768   -1.7805    0.0000 C   0  0  0  0  0  0  0  0  0  0  0  0
   -2.1087   -1.5251    0.0000 C   0  0  0  0  0  0  0  0  0  0  0  0
    0.7717    1.2050    0.0000 C   0  0  0  0  0  0  0  0  0  0  0  0
    1.9907    0.3309    0.0000 C   0  0  0  0  0  0  0  0  0  0  0  0
    1.8433   -1.1619    0.0000 O   0  0  0  0  0  0  0  0  0  0  0  0
    3.3572    0.9495    0.0000 O   0  0  0  0  0  0  0  0  0  0  0  0
  1  2  1  0
  1  3  1  0
  3  4  1  0
  4  5  1  0
  4  6  1  0
  3  7  1  6
  7  8  1  0
  8  9  2  0
  8 10  1  0
M  END
>  <rName>  (2112) 
Me-bLeu_R

>  <PQ_SYMBOL>  (2112) 
Me-bLeu_R

>  <FULL_NAME>  (2112) 
(R)-4-Methyl-3-(methylamino)pentanoic acid

>  <IUPAC_CONDENSED>  (2112) 
Me-bLeu(R)

>  <IUPAC>  (2112) 
(3R)-4-methyl-3-(methylamino)pentanoic acid

>  <TYPE>  (2112) 
Backbone

>  <CLASS>  (2112) 
beta

>  <ANALOG>  (2112) 
Val

>  <MOL_WT>  (2112) 
145.202

>  <LOGP>  (2112) 
0.7051000000000001

>  <TPSA>  (2112) 
49.33

>  <POPULARITY>  (2112) 
12.3

>  <PROTECTED>  (2112) 
TRUE

>  <SMILES>  (2112) 
N(C)[C@@H](C(C)C)CC(=O)O

>  <INCHIKEY>  (2112) 
CXLPKVYJLITGLF-ZCFIWIBFSA-N

$$$$
Me-bLeu_S
     RDKit          2D

 10  9  0  0  0  0  0  0  0  0999 V2000
   -1.8138    1.4604    0.0000 N   0  0  0  0  0  0  0  0  0  0  0  0
   -3.1802    0.8418    0.0000 C   0  0  0  0  0  0  0  0  0  0  0  0
   -0.5948    0.5863    0.0000 C   0  0  0  0  0  0  0  0  0  0  0  0
   -0.7422   -0.9064    0.0000 C   0  0  0  0  0  0  0  0  0  0  0  0
    0.4768   -1.7805    0.0000 C   0  0  0  0  0  0  0  0  0  0  0  0
   -2.1087   -1.5251    0.0000 C   0  0  0  0  0  0  0  0  0  0  0  0
    0.7717    1.2050    0.0000 C   0  0  0  0  0  0  0  0  0  0  0  0
    1.9907    0.3309    0.0000 C   0  0  0  0  0  0  0  0  0  0  0  0
    1.8433   -1.1619    0.0000 O   0  0  0  0  0  0  0  0  0  0  0  0
    3.3572    0.9495    0.0000 O   0  0  0  0  0  0  0  0  0  0  0  0
  1  2  1  0
  1  3  1  0
  3  4  1  0
  4  5  1  0
  4  6  1  0
  3  7  1  1
  7  8  1  0
  8  9  2  0
  8 10  1  0
M  END
>  <rName>  (2113) 
Me-bLeu_S

>  <PQ_SYMBOL>  (2113) 
Me-bLeu_S

>  <FULL_NAME>  (2113) 
(S)-4-Methyl-3-(methylamino)pentanoic acid

>  <IUPAC_CONDENSED>  (2113) 
Me-bLeu(S)

>  <IUPAC>  (2113) 
(3S)-4-methyl-3-(methylamino)pentanoic acid

>  <TYPE>  (2113) 
Backbone

>  <CLASS>  (2113) 
beta

>  <ANALOG>  (2113) 
Val

>  <MOL_WT>  (2113) 
145.202

>  <LOGP>  (2113) 
0.7051000000000001

>  <TPSA>  (2113) 
49.33

>  <POPULARITY>  (2113) 
2.2

>  <PROTECTED>  (2113) 
TRUE

>  <SMILES>  (2113) 
N(C)[C@H](C(C)C)CC(=O)O

>  <INCHIKEY>  (2113) 
CXLPKVYJLITGLF-LURJTMIESA-N

$$$$
Me-bPhe
     RDKit          2D

 13 13  0  0  0  0  0  0  0  0999 V2000
   -1.0067   -1.6435    0.0000 N   0  0  0  0  0  0  0  0  0  0  0  0
   -2.4940   -1.8383    0.0000 C   0  0  0  0  0  0  0  0  0  0  0  0
   -0.4317   -0.2581    0.0000 C   0  0  0  0  0  0  0  0  0  0  0  0
    1.0556   -0.0633    0.0000 C   0  0  0  0  0  0  0  0  0  0  0  0
    1.6306    1.3221    0.0000 C   0  0  0  0  0  0  0  0  0  0  0  0
    3.1179    1.5169    0.0000 C   0  0  0  0  0  0  0  0  0  0  0  0
    4.0302    0.3262    0.0000 C   0  0  0  0  0  0  0  0  0  0  0  0
    3.4552   -1.0592    0.0000 C   0  0  0  0  0  0  0  0  0  0  0  0
    1.9679   -1.2540    0.0000 C   0  0  0  0  0  0  0  0  0  0  0  0
   -1.3440    0.9326    0.0000 C   0  0  0  0  0  0  0  0  0  0  0  0
   -2.8313    0.7378    0.0000 C   0  0  0  0  0  0  0  0  0  0  0  0
   -3.4063   -0.6476    0.0000 O   0  0  0  0  0  0  0  0  0  0  0  0
   -3.7436    1.9285    0.0000 O   0  0  0  0  0  0  0  0  0  0  0  0
  1  2  1  0
  1  3  1  0
  3  4  1  0
  4  5  2  0
  5  6  1  0
  6  7  2  0
  7  8  1  0
  8  9  2  0
  3 10  1  0
 10 11  1  0
 11 12  2  0
 11 13  1  0
  9  4  1  0
M  END
>  <rName>  (2114) 
Me-bPhe

>  <PQ_SYMBOL>  (2114) 
Me-bPhe

>  <FULL_NAME>  (2114) 
3-(Methylamino)-3-phenylpropanoic acid

>  <IUPAC_CONDENSED>  (2114) 
Me-bPhe

>  <IUPAC>  (2114) 
3-(methylamino)-3-phenylpropanoic acid

>  <TYPE>  (2114) 
Backbone

>  <CLASS>  (2114) 
beta

>  <ANALOG>  (2114) 
X

>  <MOL_WT>  (2114) 
179.21899999999994

>  <LOGP>  (2114) 
1.4218

>  <TPSA>  (2114) 
49.33

>  <POPULARITY>  (2114) 
13.8

>  <PROTECTED>  (2114) 
TRUE

>  <SMILES>  (2114) 
N(C)C(c1(ccccc1))CC(=O)O

>  <INCHIKEY>  (2114) 
ZENXBHNUVVFNRD-UHFFFAOYSA-N

$$$$
Me-hLeu
     RDKit          2D

 11 10  0  0  0  0  0  0  0  0999 V2000
   -2.1418    1.5326    0.0000 N   0  0  0  0  0  0  0  0  0  0  0  0
   -3.5967    1.1676    0.0000 C   0  0  0  0  0  0  0  0  0  0  0  0
   -1.0983    0.4550    0.0000 C   0  0  0  0  0  0  0  0  0  0  0  0
    0.3567    0.8200    0.0000 C   0  0  0  0  0  0  0  0  0  0  0  0
    1.4002   -0.2575    0.0000 C   0  0  0  0  0  0  0  0  0  0  0  0
    2.8551    0.1074    0.0000 C   0  0  0  0  0  0  0  0  0  0  0  0
    3.8986   -0.9701    0.0000 C   0  0  0  0  0  0  0  0  0  0  0  0
    3.2665    1.5499    0.0000 C   0  0  0  0  0  0  0  0  0  0  0  0
   -1.5097   -0.9874    0.0000 C   0  0  0  0  0  0  0  0  0  0  0  0
   -2.9646   -1.3524    0.0000 O   0  0  0  0  0  0  0  0  0  0  0  0
   -0.4661   -2.0650    0.0000 O   0  0  0  0  0  0  0  0  0  0  0  0
  1  2  1  0
  1  3  1  0
  3  4  1  1
  4  5  1  0
  5  6  1  0
  6  7  1  0
  6  8  1  0
  3  9  1  0
  9 10  2  0
  9 11  1  0
M  END
>  <rName>  (2115) 
Me-hLeu

>  <PQ_SYMBOL>  (2115) 
Me-hLeu

>  <FULL_NAME>  (2115) 
(2S)-5-methyl-2-(methylamino)hexanoic acid

>  <IUPAC_CONDENSED>  (2115) 
Me-hLeu

>  <IUPAC>  (2115) 
(2S)-5-methyl-2-(methylamino)hexanoic acid

>  <TYPE>  (2115) 
Backbone

>  <CLASS>  (2115) 
alpha

>  <ANALOG>  (2115) 
Leu

>  <MOL_WT>  (2115) 
159.22899999999998

>  <LOGP>  (2115) 
1.0952

>  <TPSA>  (2115) 
49.33

>  <POPULARITY>  (2115) 
19.6

>  <PROTECTED>  (2115) 
TRUE

>  <SMILES>  (2115) 
N(C)[C@@H](CCC(C)C)C(=O)O

>  <INCHIKEY>  (2115) 
NEBSZBVQOBTMPC-ZETCQYMHSA-N

$$$$
Me-hPhe
     RDKit          2D

 14 14  0  0  0  0  0  0  0  0999 V2000
   -2.5120   -1.5648    0.0000 N   0  0  0  0  0  0  0  0  0  0  0  0
   -3.9573   -1.9664    0.0000 C   0  0  0  0  0  0  0  0  0  0  0  0
   -2.1372   -0.1124    0.0000 C   0  0  0  0  0  0  0  0  0  0  0  0
   -0.6920    0.2892    0.0000 C   0  0  0  0  0  0  0  0  0  0  0  0
    0.3784   -0.7616    0.0000 C   0  0  0  0  0  0  0  0  0  0  0  0
    1.8237   -0.3600    0.0000 C   0  0  0  0  0  0  0  0  0  0  0  0
    2.1985    1.0924    0.0000 C   0  0  0  0  0  0  0  0  0  0  0  0
    3.6437    1.4940    0.0000 C   0  0  0  0  0  0  0  0  0  0  0  0
    4.7141    0.4432    0.0000 C   0  0  0  0  0  0  0  0  0  0  0  0
    4.3393   -1.0092    0.0000 C   0  0  0  0  0  0  0  0  0  0  0  0
    2.8941   -1.4108    0.0000 C   0  0  0  0  0  0  0  0  0  0  0  0
   -3.2076    0.9384    0.0000 C   0  0  0  0  0  0  0  0  0  0  0  0
   -2.8328    2.3908    0.0000 O   0  0  0  0  0  0  0  0  0  0  0  0
   -4.6529    0.5368    0.0000 O   0  0  0  0  0  0  0  0  0  0  0  0
  1  2  1  0
  1  3  1  0
  3  4  1  6
  4  5  1  0
  5  6  1  0
  6  7  2  0
  7  8  1  0
  8  9  2  0
  9 10  1  0
 10 11  2  0
  3 12  1  0
 12 13  2  0
 12 14  1  0
 11  6  1  0
M  END
>  <rName>  (2116) 
Me-hPhe

>  <PQ_SYMBOL>  (2116) 
Me-hPhe

>  <FULL_NAME>  (2116) 
N-Methyl-Homo-L-Phenylalanine

>  <IUPAC_CONDENSED>  (2116) 
Me-hPhe

>  <IUPAC>  (2116) 
(2S)-2-(methylamino)-4-phenylbutanoic acid

>  <TYPE>  (2116) 
Backbone

>  <CLASS>  (2116) 
alpha

>  <ANALOG>  (2116) 
Phe

>  <MOL_WT>  (2116) 
193.24599999999998

>  <LOGP>  (2116) 
1.2918

>  <TPSA>  (2116) 
49.33

>  <POPULARITY>  (2116) 
16.3

>  <PROTECTED>  (2116) 
TRUE

>  <SMILES>  (2116) 
N(C)[C@@H](CCc1(ccccc1))C(=O)O

>  <INCHIKEY>  (2116) 
NVXKJPGRZSDYPK-JTQLQIEISA-N

$$$$
Me-hPhe_2Cl
     RDKit          2D

 15 15  0  0  0  0  0  0  0  0999 V2000
   -2.5959   -1.5269    0.0000 N   0  0  0  0  0  0  0  0  0  0  0  0
   -4.0154   -2.0115    0.0000 C   0  0  0  0  0  0  0  0  0  0  0  0
   -2.3059   -0.0552    0.0000 C   0  0  0  0  0  0  0  0  0  0  0  0
   -0.8863    0.4295    0.0000 C   0  0  0  0  0  0  0  0  0  0  0  0
    0.2432   -0.5575    0.0000 C   0  0  0  0  0  0  0  0  0  0  0  0
    1.6627   -0.0729    0.0000 C   0  0  0  0  0  0  0  0  0  0  0  0
    1.9528    1.3988    0.0000 C   0  0  0  0  0  0  0  0  0  0  0  0
    3.3723    1.8835    0.0000 C   0  0  0  0  0  0  0  0  0  0  0  0
    4.5018    0.8964    0.0000 C   0  0  0  0  0  0  0  0  0  0  0  0
    4.2118   -0.5753    0.0000 C   0  0  0  0  0  0  0  0  0  0  0  0
    2.7922   -1.0599    0.0000 C   0  0  0  0  0  0  0  0  0  0  0  0
    2.5022   -2.5316    0.0000 Cl  0  0  0  0  0  0  0  0  0  0  0  0
   -3.4354    0.9319    0.0000 C   0  0  0  0  0  0  0  0  0  0  0  0
   -3.1453    2.4036    0.0000 O   0  0  0  0  0  0  0  0  0  0  0  0
   -4.8549    0.4472    0.0000 O   0  0  0  0  0  0  0  0  0  0  0  0
  1  2  1  0
  1  3  1  0
  3  4  1  6
  4  5  1  0
  5  6  1  0
  6  7  2  0
  7  8  1  0
  8  9  2  0
  9 10  1  0
 10 11  2  0
 11 12  1  0
  3 13  1  0
 13 14  2  0
 13 15  1  0
 11  6  1  0
M  END
>  <rName>  (2117) 
Me-hPhe_2Cl

>  <PQ_SYMBOL>  (2117) 
Me-hPhe_2Cl

>  <FULL_NAME>  (2117) 
(2S)-4-(2-chlorophenyl)-2-(methylamino)butanoic acid

>  <IUPAC_CONDENSED>  (2117) 
Me-hPhe(2-Cl)

>  <IUPAC>  (2117) 
(2S)-4-(2-chlorophenyl)-2-(methylamino)butanoic acid

>  <TYPE>  (2117) 
Backbone

>  <CLASS>  (2117) 
alpha

>  <ANALOG>  (2117) 
Phe

>  <MOL_WT>  (2117) 
227.69099999999997

>  <LOGP>  (2117) 
1.9452

>  <TPSA>  (2117) 
49.33

>  <POPULARITY>  (2117) 
2.2

>  <PROTECTED>  (2117) 
TRUE

>  <SMILES>  (2117) 
N(C)[C@@H](CCc1(ccccc1Cl))C(=O)O

>  <INCHIKEY>  (2117) 
CXQPFJVZGDKOTE-JTQLQIEISA-N

$$$$
Me-hPhe_3Cl
     RDKit          2D

 15 15  0  0  0  0  0  0  0  0999 V2000
   -2.7603   -1.6343    0.0000 N   0  0  0  0  0  0  0  0  0  0  0  0
   -4.1722   -2.1407    0.0000 C   0  0  0  0  0  0  0  0  0  0  0  0
   -2.4930   -0.1583    0.0000 C   0  0  0  0  0  0  0  0  0  0  0  0
   -1.0811    0.3482    0.0000 C   0  0  0  0  0  0  0  0  0  0  0  0
    0.0635   -0.6213    0.0000 C   0  0  0  0  0  0  0  0  0  0  0  0
    1.4754   -0.1148    0.0000 C   0  0  0  0  0  0  0  0  0  0  0  0
    1.7427    1.3612    0.0000 C   0  0  0  0  0  0  0  0  0  0  0  0
    3.1546    1.8677    0.0000 C   0  0  0  0  0  0  0  0  0  0  0  0
    4.2992    0.8982    0.0000 C   0  0  0  0  0  0  0  0  0  0  0  0
    4.0319   -0.5778    0.0000 C   0  0  0  0  0  0  0  0  0  0  0  0
    5.1765   -1.5473    0.0000 Cl  0  0  0  0  0  0  0  0  0  0  0  0
    2.6200   -1.0843    0.0000 C   0  0  0  0  0  0  0  0  0  0  0  0
   -3.6376    0.8112    0.0000 C   0  0  0  0  0  0  0  0  0  0  0  0
   -3.3703    2.2872    0.0000 O   0  0  0  0  0  0  0  0  0  0  0  0
   -5.0495    0.3047    0.0000 O   0  0  0  0  0  0  0  0  0  0  0  0
  1  2  1  0
  1  3  1  0
  3  4  1  6
  4  5  1  0
  5  6  1  0
  6  7  2  0
  7  8  1  0
  8  9  2  0
  9 10  1  0
 10 11  1  0
 10 12  2  0
  3 13  1  0
 13 14  2  0
 13 15  1  0
 12  6  1  0
M  END
>  <rName>  (2118) 
Me-hPhe_3Cl

>  <PQ_SYMBOL>  (2118) 
Me-hPhe_3Cl

>  <FULL_NAME>  (2118) 
(2S)-4-(3-chlorophenyl)-2-(methylamino)butanoic acid

>  <IUPAC_CONDENSED>  (2118) 
Me-hPhe(3-Cl)

>  <IUPAC>  (2118) 
(2S)-4-(3-chlorophenyl)-2-(methylamino)butanoic acid

>  <TYPE>  (2118) 
Backbone

>  <CLASS>  (2118) 
alpha

>  <ANALOG>  (2118) 
Phe

>  <MOL_WT>  (2118) 
227.69099999999997

>  <LOGP>  (2118) 
1.9452

>  <TPSA>  (2118) 
49.33

>  <POPULARITY>  (2118) 
2.2

>  <PROTECTED>  (2118) 
TRUE

>  <SMILES>  (2118) 
N(C)[C@@H](CCc1(cccc(Cl)c1))C(=O)O

>  <INCHIKEY>  (2118) 
TUWREANWYYHVIG-JTQLQIEISA-N

$$$$
Me-hPhe_4Cl
     RDKit          2D

 15 15  0  0  0  0  0  0  0  0999 V2000
   -2.9729   -1.5271    0.0000 N   0  0  0  0  0  0  0  0  0  0  0  0
   -4.4302   -1.8824    0.0000 C   0  0  0  0  0  0  0  0  0  0  0  0
   -2.5519   -0.0874    0.0000 C   0  0  0  0  0  0  0  0  0  0  0  0
   -1.0946    0.2679    0.0000 C   0  0  0  0  0  0  0  0  0  0  0  0
   -0.0583   -0.8165    0.0000 C   0  0  0  0  0  0  0  0  0  0  0  0
    1.3991   -0.4611    0.0000 C   0  0  0  0  0  0  0  0  0  0  0  0
    1.8200    0.9786    0.0000 C   0  0  0  0  0  0  0  0  0  0  0  0
    3.2773    1.3339    0.0000 C   0  0  0  0  0  0  0  0  0  0  0  0
    4.3137    0.2495    0.0000 C   0  0  0  0  0  0  0  0  0  0  0  0
    5.7710    0.6048    0.0000 Cl  0  0  0  0  0  0  0  0  0  0  0  0
    3.8927   -1.1902    0.0000 C   0  0  0  0  0  0  0  0  0  0  0  0
    2.4354   -1.5455    0.0000 C   0  0  0  0  0  0  0  0  0  0  0  0
   -3.5883    0.9970    0.0000 C   0  0  0  0  0  0  0  0  0  0  0  0
   -3.1674    2.4368    0.0000 O   0  0  0  0  0  0  0  0  0  0  0  0
   -5.0456    0.6417    0.0000 O   0  0  0  0  0  0  0  0  0  0  0  0
  1  2  1  0
  1  3  1  0
  3  4  1  6
  4  5  1  0
  5  6  1  0
  6  7  1  0
  7  8  2  0
  8  9  1  0
  9 10  1  0
  9 11  2  0
 11 12  1  0
  3 13  1  0
 13 14  2  0
 13 15  1  0
 12  6  2  0
M  END
>  <rName>  (2119) 
Me-hPhe_4Cl

>  <PQ_SYMBOL>  (2119) 
Me-hPhe_4Cl

>  <FULL_NAME>  (2119) 
(2S)-4-(4-chlorophenyl)-2-(methylamino)butanoic acid

>  <IUPAC_CONDENSED>  (2119) 
Me-hPhe(4-Cl)

>  <IUPAC>  (2119) 
(2S)-4-(4-chlorophenyl)-2-(methylamino)butanoic acid

>  <TYPE>  (2119) 
Backbone

>  <CLASS>  (2119) 
alpha

>  <ANALOG>  (2119) 
Phe

>  <MOL_WT>  (2119) 
227.69099999999997

>  <LOGP>  (2119) 
1.9452

>  <TPSA>  (2119) 
49.33

>  <POPULARITY>  (2119) 
2.2

>  <PROTECTED>  (2119) 
TRUE

>  <SMILES>  (2119) 
N(C)[C@@H](CCc1(ccc(Cl)cc1))C(=O)O

>  <INCHIKEY>  (2119) 
QRKKMRWAIDPRGS-JTQLQIEISA-N

$$$$
MeO-bAla
     RDKit          2D

  8  7  0  0  0  0  0  0  0  0999 V2000
   -1.6672   -0.4165    0.0000 N   0  0  0  0  0  0  0  0  0  0  0  0
   -2.8948    0.4455    0.0000 O   0  0  0  0  0  0  0  0  0  0  0  0
   -4.2551   -0.1865    0.0000 C   0  0  0  0  0  0  0  0  0  0  0  0
   -0.3069    0.2155    0.0000 C   0  0  0  0  0  0  0  0  0  0  0  0
    0.9207   -0.6465    0.0000 C   0  0  0  0  0  0  0  0  0  0  0  0
    2.2810   -0.0145    0.0000 C   0  0  0  0  0  0  0  0  0  0  0  0
    2.4138    1.4796    0.0000 O   0  0  0  0  0  0  0  0  0  0  0  0
    3.5085   -0.8766    0.0000 O   0  0  0  0  0  0  0  0  0  0  0  0
  1  2  1  0
  2  3  1  0
  1  4  1  0
  4  5  1  0
  5  6  1  0
  6  7  2  0
  6  8  1  0
M  END
>  <rName>  (2120) 
MeO-bAla

>  <PQ_SYMBOL>  (2120) 
MeO-bAla

>  <FULL_NAME>  (2120) 
3-(methoxyamino)propanoic acid

>  <IUPAC_CONDENSED>  (2120) 
MeO-bAla

>  <IUPAC>  (2120) 
3-(methoxyamino)propanoic acid

>  <TYPE>  (2120) 
Backbone

>  <CLASS>  (2120) 
beta

>  <ANALOG>  (2120) 
Gly

>  <MOL_WT>  (2120) 
119.11999999999999

>  <LOGP>  (2120) 
-0.3879000000000004

>  <TPSA>  (2120) 
58.56

>  <POPULARITY>  (2120) 
11.6

>  <PROTECTED>  (2120) 
TRUE

>  <SMILES>  (2120) 
N(OC)CCC(=O)O

>  <INCHIKEY>  (2120) 
VKDCHAMVLXCQRF-UHFFFAOYSA-N

$$$$
MeOCO-Trp
     RDKit          2D

 19 20  0  0  0  0  0  0  0  0999 V2000
    5.5400   -0.1709    0.0000 C   0  0  0  0  0  0  0  0  0  0  0  0
    4.6401   -1.3710    0.0000 C   0  0  0  0  0  0  0  0  0  0  0  0
    3.1509   -1.1918    0.0000 C   0  0  0  0  0  0  0  0  0  0  0  0
    2.5614    0.1875    0.0000 C   0  0  0  0  0  0  0  0  0  0  0  0
    3.4613    1.3877    0.0000 C   0  0  0  0  0  0  0  0  0  0  0  0
    4.9505    1.2084    0.0000 C   0  0  0  0  0  0  0  0  0  0  0  0
    1.0675    0.0532    0.0000 C   0  0  0  0  0  0  0  0  0  0  0  0
    0.7336   -1.4092    0.0000 C   0  0  0  0  0  0  0  0  0  0  0  0
    2.0212   -2.1786    0.0000 N   0  0  0  0  0  0  0  0  0  0  0  0
    0.0807    1.1829    0.0000 C   0  0  0  0  0  0  0  0  0  0  0  0
   -1.3911    0.8931    0.0000 C   0  0  0  0  0  0  0  0  0  0  0  0
   -1.8760   -0.5263    0.0000 N   0  0  0  0  0  0  0  0  0  0  0  0
   -3.3478   -0.8161    0.0000 C   0  0  0  0  0  0  0  0  0  0  0  0
   -4.3346    0.3136    0.0000 O   0  0  0  0  0  0  0  0  0  0  0  0
   -3.8327   -2.2355    0.0000 O   0  0  0  0  0  0  0  0  0  0  0  0
   -5.3045   -2.5253    0.0000 C   0  0  0  0  0  0  0  0  0  0  0  0
   -2.3779    2.0228    0.0000 C   0  0  0  0  0  0  0  0  0  0  0  0
   -1.8930    3.4423    0.0000 O   0  0  0  0  0  0  0  0  0  0  0  0
   -3.8496    1.7331    0.0000 O   0  0  0  0  0  0  0  0  0  0  0  0
  1  2  1  0
  2  3  2  0
  3  4  1  0
  4  5  2  0
  5  6  1  0
  4  7  1  0
  7  8  2  0
  8  9  1  0
  7 10  1  0
 11 10  1  6
 11 12  1  0
 12 13  1  0
 13 14  2  0
 13 15  1  0
 15 16  1  0
 11 17  1  0
 17 18  2  0
 17 19  1  0
  9  3  1  0
  6  1  2  0
M  END
>  <rName>  (2121) 
MeOCO-Trp

>  <PQ_SYMBOL>  (2121) 
MeOCO-Trp

>  <FULL_NAME>  (2121) 
(2S)-3-(1H-indol-3-yl)-2-(methoxycarbonylamino)propanoic acid

>  <IUPAC_CONDENSED>  (2121) 
MeOCO-Trp

>  <IUPAC>  (2121) 
(2S)-3-(7-azabicyclo[4.3.0]nona-1(6),2,4,8-tetraen-9-yl)-2-methoxycarbonylaminopropanoic acid

>  <TYPE>  (2121) 
N-term cap

>  <CLASS>  (2121) 
n_cap

>  <ANALOG>  (2121) 
X

>  <MOL_WT>  (2121) 
262.26499999999993

>  <LOGP>  (2121) 
1.5195999999999996

>  <TPSA>  (2121) 
91.42

>  <POPULARITY>  (2121) 
11.1

>  <PROTECTED>  (2121) 
TRUE

>  <SMILES>  (2121) 
c2cc1c(cc2)c(c[nH]1)C[C@H](NC(=O)OC)C(=O)O

>  <INCHIKEY>  (2121) 
YYZYDKOBSFGJNZ-NSHDSACASA-N

$$$$
MeOCO-Val
     RDKit          2D

 12 11  0  0  0  0  0  0  0  0999 V2000
   -4.3201    0.3860    0.0000 C   0  0  0  0  0  0  0  0  0  0  0  0
   -2.9981    1.0948    0.0000 O   0  0  0  0  0  0  0  0  0  0  0  0
   -1.7233    0.3043    0.0000 C   0  0  0  0  0  0  0  0  0  0  0  0
   -1.7705   -1.1949    0.0000 O   0  0  0  0  0  0  0  0  0  0  0  0
   -0.4014    1.0131    0.0000 N   0  0  0  0  0  0  0  0  0  0  0  0
    0.8735    0.2226    0.0000 C   0  0  0  0  0  0  0  0  0  0  0  0
    2.1954    0.9314    0.0000 C   0  0  0  0  0  0  0  0  0  0  0  0
    3.4702    0.1409    0.0000 C   0  0  0  0  0  0  0  0  0  0  0  0
    2.2426    2.4307    0.0000 C   0  0  0  0  0  0  0  0  0  0  0  0
    0.8263   -1.2766    0.0000 C   0  0  0  0  0  0  0  0  0  0  0  0
   -0.4957   -1.9854    0.0000 O   0  0  0  0  0  0  0  0  0  0  0  0
    2.1011   -2.0671    0.0000 O   0  0  0  0  0  0  0  0  0  0  0  0
  1  2  1  0
  2  3  1  0
  3  4  2  0
  3  5  1  0
  6  5  1  1
  6  7  1  0
  7  8  1  0
  7  9  1  0
  6 10  1  0
 10 11  2  0
 10 12  1  0
M  END
>  <rName>  (2122) 
MeOCO-Val

>  <PQ_SYMBOL>  (2122) 
MeOCO-Val

>  <FULL_NAME>  (2122) 
(2S)-2-(methoxycarbonylamino)-3-methylbutanoic acid

>  <IUPAC_CONDENSED>  (2122) 
MeOCO-Val

>  <IUPAC>  (2122) 
(2S)-2-methoxycarbonylamino-3-methylbutanoic acid

>  <TYPE>  (2122) 
N-term cap

>  <CLASS>  (2122) 
n_cap

>  <ANALOG>  (2122) 
X

>  <MOL_WT>  (2122) 
175.18399999999997

>  <LOGP>  (2122) 
0.4515999999999997

>  <TPSA>  (2122) 
75.63

>  <POPULARITY>  (2122) 
15.9

>  <PROTECTED>  (2122) 
TRUE

>  <SMILES>  (2122) 
COC(=O)N[C@@H](C(C)C)C(=O)O

>  <INCHIKEY>  (2122) 
CEFVHPDFGLDQKU-YFKPBYRVSA-N

$$$$
MeOEt-bAla
     RDKit          2D

 10  9  0  0  0  0  0  0  0  0999 V2000
   -0.4208   -0.5004    0.0000 N   0  0  0  0  0  0  0  0  0  0  0  0
   -1.6720    0.3269    0.0000 C   0  0  0  0  0  0  0  0  0  0  0  0
   -3.0141   -0.3430    0.0000 C   0  0  0  0  0  0  0  0  0  0  0  0
   -4.2653    0.4843    0.0000 O   0  0  0  0  0  0  0  0  0  0  0  0
   -5.6074   -0.1857    0.0000 C   0  0  0  0  0  0  0  0  0  0  0  0
    0.9213    0.1695    0.0000 C   0  0  0  0  0  0  0  0  0  0  0  0
    2.1725   -0.6578    0.0000 C   0  0  0  0  0  0  0  0  0  0  0  0
    3.5146    0.0121    0.0000 C   0  0  0  0  0  0  0  0  0  0  0  0
    3.6055    1.5094    0.0000 O   0  0  0  0  0  0  0  0  0  0  0  0
    4.7658   -0.8152    0.0000 O   0  0  0  0  0  0  0  0  0  0  0  0
  1  2  1  0
  2  3  1  0
  3  4  1  0
  4  5  1  0
  1  6  1  0
  6  7  1  0
  7  8  1  0
  8  9  2  0
  8 10  1  0
M  END
>  <rName>  (2123) 
MeOEt-bAla

>  <PQ_SYMBOL>  (2123) 
MeOEt-bAla

>  <FULL_NAME>  (2123) 
3-[(2-Methoxyethyl)amino]propanoic acid

>  <IUPAC_CONDENSED>  (2123) 
MeOEt-bAla

>  <IUPAC>  (2123) 
3-((2-methoxyethyl)amino)propanoic acid

>  <TYPE>  (2123) 
Backbone

>  <CLASS>  (2123) 
beta

>  <ANALOG>  (2123) 
Gly

>  <MOL_WT>  (2123) 
147.174

>  <LOGP>  (2123) 
-0.30290000000000045

>  <TPSA>  (2123) 
58.56

>  <POPULARITY>  (2123) 
15.2

>  <PROTECTED>  (2123) 
TRUE

>  <SMILES>  (2123) 
N(CCOC)CCC(=O)O

>  <INCHIKEY>  (2123) 
BVGXKFLELPHBDT-UHFFFAOYSA-N

$$$$
MeOPhS-Bz_NMeiPrsulfonamido
     RDKit          2D

 26 27  0  0  0  0  0  0  0  0999 V2000
   -8.2705    1.5451    0.0000 C   0  0  0  0  0  0  0  0  0  0  0  0
   -6.8933    2.1397    0.0000 O   0  0  0  0  0  0  0  0  0  0  0  0
   -5.6899    1.2443    0.0000 C   0  0  0  0  0  0  0  0  0  0  0  0
   -5.8636   -0.2457    0.0000 C   0  0  0  0  0  0  0  0  0  0  0  0
   -4.6602   -1.1410    0.0000 C   0  0  0  0  0  0  0  0  0  0  0  0
   -3.2830   -0.5465    0.0000 C   0  0  0  0  0  0  0  0  0  0  0  0
   -3.1093    0.9434    0.0000 C   0  0  0  0  0  0  0  0  0  0  0  0
   -4.3127    1.8388    0.0000 C   0  0  0  0  0  0  0  0  0  0  0  0
   -2.0796   -1.4419    0.0000 S   0  0  0  0  0  0  0  0  0  0  0  0
   -0.7024   -0.8474    0.0000 C   0  0  0  0  0  0  0  0  0  0  0  0
    0.5010   -1.7428    0.0000 C   0  0  0  0  0  0  0  0  0  0  0  0
    1.8782   -1.1483    0.0000 C   0  0  0  0  0  0  0  0  0  0  0  0
    2.0519    0.3416    0.0000 C   0  0  0  0  0  0  0  0  0  0  0  0
    0.8484    1.2370    0.0000 C   0  0  0  0  0  0  0  0  0  0  0  0
   -0.5287    0.6425    0.0000 C   0  0  0  0  0  0  0  0  0  0  0  0
    3.4290    0.9361    0.0000 S   0  0  0  0  0  0  0  0  0  0  0  0
    4.0236   -0.4411    0.0000 O   0  0  0  0  0  0  0  0  0  0  0  0
    2.8345    2.3133    0.0000 O   0  0  0  0  0  0  0  0  0  0  0  0
    4.8062    1.5306    0.0000 N   0  0  0  0  0  0  0  0  0  0  0  0
    4.9799    3.0205    0.0000 C   0  0  0  0  0  0  0  0  0  0  0  0
    6.0096    0.6352    0.0000 C   0  0  0  0  0  0  0  0  0  0  0  0
    7.3868    1.2297    0.0000 C   0  0  0  0  0  0  0  0  0  0  0  0
    5.8359   -0.8547    0.0000 C   0  0  0  0  0  0  0  0  0  0  0  0
    0.3273   -3.2327    0.0000 C   0  0  0  0  0  0  0  0  0  0  0  0
   -1.0499   -3.8272    0.0000 O   0  0  0  0  0  0  0  0  0  0  0  0
    1.5307   -4.1281    0.0000 O   0  0  0  0  0  0  0  0  0  0  0  0
  1  2  1  0
  2  3  1  0
  3  4  1  0
  4  5  2  0
  5  6  1  0
  6  7  2  0
  7  8  1  0
  6  9  1  0
  9 10  1  0
 10 11  2  0
 11 12  1  0
 12 13  2  0
 13 14  1  0
 14 15  2  0
 13 16  1  0
 16 17  2  0
 16 18  2  0
 16 19  1  0
 19 20  1  0
 19 21  1  0
 21 22  1  0
 21 23  1  0
 11 24  1  0
 24 25  2  0
 24 26  1  0
 15 10  1  0
  8  3  2  0
M  END
>  <rName>  (2124) 
MeOPhS-Bz_NMeiPrsulfonamido

>  <PQ_SYMBOL>  (2124) 
MeOPhS-Bz_NMeiPrsulfonamido

>  <FULL_NAME>  (2124) 
2-[(4-methoxyphenyl)sulfanyl]-5-[methyl(propan-2-yl)sulfamoyl]benzoic acid

>  <IUPAC_CONDENSED>  (2124) 
MeOPhS-Bz(NMeiPr-sulfonamido)

>  <IUPAC>  (2124) 
2-((4-methoxyphenyl)sulfanyl)-5-((propan-2-yl)(methyl)sulfamoyl)benzoic acid

>  <TYPE>  (2124) 
N-term cap

>  <CLASS>  (2124) 
n_cap

>  <ANALOG>  (2124) 
X

>  <MOL_WT>  (2124) 
395.5020000000002

>  <LOGP>  (2124) 
3.573500000000002

>  <TPSA>  (2124) 
83.91000000000001

>  <POPULARITY>  (2124) 
0.8

>  <PROTECTED>  (2124) 
FALSE

>  <SMILES>  (2124) 
COc2ccc(cc2)Sc1c(cc(cc1)S(=O)(=O)N(C)C(C)C)C(=O)O

>  <INCHIKEY>  (2124) 
RKJXIRNKSLSTPR-UHFFFAOYSA-N

$$$$
Mes-Val
     RDKit          2D

 12 11  0  0  0  0  0  0  0  0999 V2000
   -2.5705   -1.7533    0.0000 O   0  0  0  0  0  0  0  0  0  0  0  0
   -1.9233   -0.4001    0.0000 S   0  0  0  0  0  0  0  0  0  0  0  0
   -1.2762    0.9531    0.0000 O   0  0  0  0  0  0  0  0  0  0  0  0
   -3.2766    0.2470    0.0000 C   0  0  0  0  0  0  0  0  0  0  0  0
   -0.5701   -1.0473    0.0000 N   0  0  0  0  0  0  0  0  0  0  0  0
    0.6669   -0.1990    0.0000 C   0  0  0  0  0  0  0  0  0  0  0  0
    2.0201   -0.8461    0.0000 C   0  0  0  0  0  0  0  0  0  0  0  0
    3.2572    0.0022    0.0000 C   0  0  0  0  0  0  0  0  0  0  0  0
    2.1363   -2.3416    0.0000 C   0  0  0  0  0  0  0  0  0  0  0  0
    0.5508    1.2965    0.0000 C   0  0  0  0  0  0  0  0  0  0  0  0
   -0.8024    1.9437    0.0000 O   0  0  0  0  0  0  0  0  0  0  0  0
    1.7878    2.1449    0.0000 O   0  0  0  0  0  0  0  0  0  0  0  0
  1  2  2  0
  2  3  2  0
  2  4  1  0
  2  5  1  0
  6  5  1  6
  6  7  1  0
  7  8  1  0
  7  9  1  0
  6 10  1  0
 10 11  2  0
 10 12  1  0
M  END
>  <rName>  (2125) 
Mes-Val

>  <PQ_SYMBOL>  (2125) 
Mes-Val

>  <FULL_NAME>  (2125) 
(2S)-2-(methanesulfonamido)-3-methylbutanoic acid

>  <IUPAC_CONDENSED>  (2125) 
Mes-Val

>  <IUPAC>  (2125) 
(2S)-3-methyl-2-methylsulfonylaminobutanoic acid

>  <TYPE>  (2125) 
N-term cap

>  <CLASS>  (2125) 
n_cap

>  <ANALOG>  (2125) 
X

>  <MOL_WT>  (2125) 
195.23999999999998

>  <LOGP>  (2125) 
-0.35520000000000046

>  <TPSA>  (2125) 
83.47

>  <POPULARITY>  (2125) 
9.4

>  <PROTECTED>  (2125) 
TRUE

>  <SMILES>  (2125) 
O=S(=O)(C)N[C@@H](C(C)C)C(=O)O

>  <INCHIKEY>  (2125) 
AKFZJYZYVABSGC-YFKPBYRVSA-N

$$$$
Met-Gly
     RDKit          2D

 13 12  0  0  0  0  0  0  0  0999 V2000
   -1.6032    0.1982    0.0000 N   0  0  0  0  0  0  0  0  0  0  0  0
   -0.2892   -0.5252    0.0000 C   0  0  0  0  0  0  0  0  0  0  0  0
   -0.2587   -2.0249    0.0000 O   0  0  0  0  0  0  0  0  0  0  0  0
    0.9944    0.2510    0.0000 C   0  0  0  0  0  0  0  0  0  0  0  0
    0.9639    1.7507    0.0000 N   0  0  0  0  0  0  0  0  0  0  0  0
    2.3084   -0.4724    0.0000 C   0  0  0  0  0  0  0  0  0  0  0  0
    3.5919    0.3038    0.0000 C   0  0  0  0  0  0  0  0  0  0  0  0
    4.9059   -0.4196    0.0000 S   0  0  0  0  0  0  0  0  0  0  0  0
    6.1894    0.3566    0.0000 C   0  0  0  0  0  0  0  0  0  0  0  0
   -2.8867   -0.5780    0.0000 C   0  0  0  0  0  0  0  0  0  0  0  0
   -4.2007    0.1455    0.0000 C   0  0  0  0  0  0  0  0  0  0  0  0
   -4.2312    1.6451    0.0000 O   0  0  0  0  0  0  0  0  0  0  0  0
   -5.4842   -0.6308    0.0000 O   0  0  0  0  0  0  0  0  0  0  0  0
  1  2  1  0
  2  3  2  0
  2  4  1  0
  4  5  1  1
  4  6  1  0
  6  7  1  0
  7  8  1  0
  8  9  1  0
  1 10  1  0
 10 11  1  0
 11 12  2  0
 11 13  1  0
M  END
>  <rName>  (2126) 
Met-Gly

>  <PQ_SYMBOL>  (2126) 
Met-Gly

>  <FULL_NAME>  (2126) 
L-methionylglycine

>  <IUPAC_CONDENSED>  (2126) 
Met-Gly

>  <IUPAC>  (2126) 
2-((1S)-1-amino-3-(methylsulfanyl)propylcarbonylamino)acetic acid

>  <TYPE>  (2126) 
Backbone

>  <CLASS>  (2126) 
alpha

>  <ANALOG>  (2126) 
Gly

>  <MOL_WT>  (2126) 
206.267

>  <LOGP>  (2126) 
-0.7324000000000002

>  <TPSA>  (2126) 
92.42

>  <POPULARITY>  (2126) 
11.0

>  <PROTECTED>  (2126) 
TRUE

>  <SMILES>  (2126) 
N(C(=O)[C@@H](N)CCSC)CC(=O)O

>  <INCHIKEY>  (2126) 
QXOHLNCNYLGICT-YFKPBYRVSA-N

$$$$
Met-OEt
     RDKit          2D

 11 10  0  0  0  0  0  0  0  0999 V2000
   -0.1663    1.8372    0.0000 N   0  0  0  0  0  0  0  0  0  0  0  0
   -0.1270    0.3377    0.0000 C   0  0  0  0  0  0  0  0  0  0  0  0
    1.1913   -0.3780    0.0000 C   0  0  0  0  0  0  0  0  0  0  0  0
    1.2306   -1.8775    0.0000 O   0  0  0  0  0  0  0  0  0  0  0  0
    2.4702    0.4058    0.0000 O   0  0  0  0  0  0  0  0  0  0  0  0
    3.7884   -0.3099    0.0000 C   0  0  0  0  0  0  0  0  0  0  0  0
    5.0674    0.4739    0.0000 C   0  0  0  0  0  0  0  0  0  0  0  0
   -1.4059   -0.4461    0.0000 C   0  0  0  0  0  0  0  0  0  0  0  0
   -2.7242    0.2696    0.0000 C   0  0  0  0  0  0  0  0  0  0  0  0
   -4.0031   -0.5142    0.0000 S   0  0  0  0  0  0  0  0  0  0  0  0
   -5.3214    0.2015    0.0000 C   0  0  0  0  0  0  0  0  0  0  0  0
  2  1  1  6
  2  3  1  0
  3  4  2  0
  3  5  1  0
  5  6  1  0
  6  7  1  0
  2  8  1  0
  8  9  1  0
  9 10  1  0
 10 11  1  0
M  END
>  <rName>  (2127) 
Met-OEt

>  <PQ_SYMBOL>  (2127) 
Met-OEt

>  <FULL_NAME>  (2127) 
ethyl (2S)-2-amino-4-methylsulfanylbutanoate

>  <IUPAC_CONDENSED>  (2127) 
Met-OEt

>  <IUPAC>  (2127) 
ethyl (2S)-2-amino-4-(methylsulfanyl)butanoate

>  <TYPE>  (2127) 
C-term cap

>  <CLASS>  (2127) 
c_cap

>  <ANALOG>  (2127) 
X

>  <MOL_WT>  (2127) 
177.269

>  <LOGP>  (2127) 
0.6298999999999999

>  <TPSA>  (2127) 
52.32000000000001

>  <POPULARITY>  (2127) 
9.5

>  <PROTECTED>  (2127) 
TRUE

>  <SMILES>  (2127) 
N[C@H](C(=O)OCC)CCSC

>  <INCHIKEY>  (2127) 
ARJXIGOIOGJAKR-LURJTMIESA-N

$$$$
Met-OMe
     RDKit          2D

 10  9  0  0  0  0  0  0  0  0999 V2000
   -0.2656    1.8966    0.0000 N   0  0  0  0  0  0  0  0  0  0  0  0
   -0.3642    0.3998    0.0000 C   0  0  0  0  0  0  0  0  0  0  0  0
   -1.7097   -0.2632    0.0000 C   0  0  0  0  0  0  0  0  0  0  0  0
   -1.8084   -1.7599    0.0000 O   0  0  0  0  0  0  0  0  0  0  0  0
   -2.9567    0.5706    0.0000 O   0  0  0  0  0  0  0  0  0  0  0  0
   -4.3022   -0.0924    0.0000 C   0  0  0  0  0  0  0  0  0  0  0  0
    0.8827   -0.4340    0.0000 C   0  0  0  0  0  0  0  0  0  0  0  0
    2.2282    0.2290    0.0000 C   0  0  0  0  0  0  0  0  0  0  0  0
    3.4752   -0.6047    0.0000 S   0  0  0  0  0  0  0  0  0  0  0  0
    4.8207    0.0582    0.0000 C   0  0  0  0  0  0  0  0  0  0  0  0
  2  1  1  1
  2  3  1  0
  3  4  2  0
  3  5  1  0
  5  6  1  0
  2  7  1  0
  7  8  1  0
  8  9  1  0
  9 10  1  0
M  END
>  <rName>  (2128) 
Met-OMe

>  <PQ_SYMBOL>  (2128) 
Met-OMe

>  <FULL_NAME>  (2128) 
L-Methionine methyl ester

>  <IUPAC_CONDENSED>  (2128) 
Met-OMe

>  <IUPAC>  (2128) 
methyl (2S)-2-amino-4-(methylsulfanyl)butanoate

>  <TYPE>  (2128) 
C-term cap

>  <CLASS>  (2128) 
c_cap

>  <ANALOG>  (2128) 
X

>  <MOL_WT>  (2128) 
163.242

>  <LOGP>  (2128) 
0.2398

>  <TPSA>  (2128) 
52.32000000000001

>  <POPULARITY>  (2128) 
16.6

>  <PROTECTED>  (2128) 
TRUE

>  <SMILES>  (2128) 
N[C@H](C(=O)OC)CCSC

>  <INCHIKEY>  (2128) 
UIHPNZDZCOEZEN-YFKPBYRVSA-N

$$$$
Met-SH
     RDKit          2D

  9  8  0  0  0  0  0  0  0  0999 V2000
    0.7616   -1.8791    0.0000 N   0  0  0  0  0  0  0  0  0  0  0  0
    0.8459   -0.3815    0.0000 C   0  0  0  0  0  0  0  0  0  0  0  0
    2.1851    0.2943    0.0000 C   0  0  0  0  0  0  0  0  0  0  0  0
    3.4399   -0.5275    0.0000 O   0  0  0  0  0  0  0  0  0  0  0  0
    2.2694    1.7919    0.0000 S   0  0  0  0  0  0  0  0  0  0  0  0
   -0.4089    0.4403    0.0000 C   0  0  0  0  0  0  0  0  0  0  0  0
   -1.7480   -0.2354    0.0000 C   0  0  0  0  0  0  0  0  0  0  0  0
   -3.0029    0.5864    0.0000 S   0  0  0  0  0  0  0  0  0  0  0  0
   -4.3420   -0.0894    0.0000 C   0  0  0  0  0  0  0  0  0  0  0  0
  2  1  1  1
  2  3  1  0
  3  4  1  0
  3  5  2  0
  2  6  1  0
  6  7  1  0
  7  8  1  0
  8  9  1  0
M  END
>  <rName>  (2129) 
Met-SH

>  <PQ_SYMBOL>  (2129) 
Met-SH

>  <FULL_NAME>  (2129) 
(2S)-2-amino-4-(methylsulfanyl)butane-1-thiol

>  <IUPAC_CONDENSED>  (2129) 
Met-SH

>  <IUPAC>  (2129) 
(2S)-2-amino-4-(methylsulfanyl)-1-thioxobutan-1-ol

>  <TYPE>  (2129) 
C-term cap

>  <CLASS>  (2129) 
c_cap

>  <ANALOG>  (2129) 
X

>  <MOL_WT>  (2129) 
165.28300000000002

>  <LOGP>  (2129) 
0.9522000000000002

>  <TPSA>  (2129) 
46.25

>  <POPULARITY>  (2129) 
22.2

>  <PROTECTED>  (2129) 
FALSE

>  <SMILES>  (2129) 
N[C@H](C(O)=S)CCSC

>  <INCHIKEY>  (2129) 
IXNUCNJMRZVHDV-BYPYZUCNSA-N

$$$$
Met_62F
     RDKit          2D

 11 10  0  0  0  0  0  0  0  0999 V2000
   -1.6269   -1.8430    0.0000 N   0  0  0  0  0  0  0  0  0  0  0  0
   -1.7489   -0.3480    0.0000 C   0  0  0  0  0  0  0  0  0  0  0  0
   -3.1047    0.2938    0.0000 C   0  0  0  0  0  0  0  0  0  0  0  0
   -3.2267    1.7889    0.0000 O   0  0  0  0  0  0  0  0  0  0  0  0
   -4.3384   -0.5594    0.0000 O   0  0  0  0  0  0  0  0  0  0  0  0
   -0.5152    0.5052    0.0000 C   0  0  0  0  0  0  0  0  0  0  0  0
    0.8406   -0.1366    0.0000 C   0  0  0  0  0  0  0  0  0  0  0  0
    2.0743    0.7166    0.0000 S   0  0  0  0  0  0  0  0  0  0  0  0
    3.4300    0.0748    0.0000 C   0  0  0  0  0  0  0  0  0  0  0  0
    4.6637    0.9280    0.0000 F   0  0  0  0  0  0  0  0  0  0  0  0
    3.5521   -1.4203    0.0000 F   0  0  0  0  0  0  0  0  0  0  0  0
  2  1  1  6
  2  3  1  0
  3  4  2  0
  3  5  1  0
  2  6  1  0
  6  7  1  0
  7  8  1  0
  8  9  1  0
  9 10  1  0
  9 11  1  0
M  END
>  <rName>  (2130) 
Met_62F

>  <PQ_SYMBOL>  (2130) 
Met_62F

>  <FULL_NAME>  (2130) 
S-(DIFLUOROMETHYL)HOMOCYSTEINE

>  <IUPAC_CONDENSED>  (2130) 
Met(6-2F)

>  <IUPAC>  (2130) 
(2S)-2-amino-4-((difluoromethyl)sulfanyl)butanoic acid

>  <TYPE>  (2130) 
Backbone

>  <CLASS>  (2130) 
alpha

>  <ANALOG>  (2130) 
X

>  <MOL_WT>  (2130) 
185.195

>  <LOGP>  (2130) 
0.7442

>  <TPSA>  (2130) 
63.32000000000001

>  <POPULARITY>  (2130) 
2.2

>  <PROTECTED>  (2130) 
TRUE

>  <SMILES>  (2130) 
N[C@H](C(=O)O)CCSC(F)F

>  <INCHIKEY>  (2130) 
YHBNXKYHZMAFED-VKHMYHEASA-N

$$$$
Met_CO2H
     RDKit          2D

 12 11  0  0  0  0  0  0  0  0999 V2000
    2.4617    1.9005    0.0000 N   0  0  0  0  0  0  0  0  0  0  0  0
    2.4001    0.4018    0.0000 C   0  0  0  0  0  0  0  0  0  0  0  0
    1.0713   -0.2943    0.0000 C   0  0  0  0  0  0  0  0  0  0  0  0
   -0.1958    0.5085    0.0000 C   0  0  0  0  0  0  0  0  0  0  0  0
   -1.5245   -0.1875    0.0000 S   0  0  0  0  0  0  0  0  0  0  0  0
   -2.7917    0.6152    0.0000 C   0  0  0  0  0  0  0  0  0  0  0  0
   -4.1204   -0.0808    0.0000 C   0  0  0  0  0  0  0  0  0  0  0  0
   -4.1820   -1.5796    0.0000 O   0  0  0  0  0  0  0  0  0  0  0  0
   -5.3876    0.7219    0.0000 O   0  0  0  0  0  0  0  0  0  0  0  0
    3.6672   -0.4010    0.0000 C   0  0  0  0  0  0  0  0  0  0  0  0
    3.6056   -1.8997    0.0000 O   0  0  0  0  0  0  0  0  0  0  0  0
    4.9960    0.2950    0.0000 O   0  0  0  0  0  0  0  0  0  0  0  0
  2  1  1  6
  2  3  1  0
  3  4  1  0
  4  5  1  0
  5  6  1  0
  6  7  1  0
  7  8  2  0
  7  9  1  0
  2 10  1  0
 10 11  2  0
 10 12  1  0
M  END
>  <rName>  (2131) 
Met_CO2H

>  <PQ_SYMBOL>  (2131) 
Met_CO2H

>  <FULL_NAME>  (2131) 
S-carboxymethyl-homocysteine

>  <IUPAC_CONDENSED>  (2131) 
Met(CO2H)

>  <IUPAC>  (2131) 
(2S)-2-amino-4-(carboxymethylsulfanyl)butanoic acid

>  <TYPE>  (2131) 
Backbone

>  <CLASS>  (2131) 
alpha

>  <ANALOG>  (2131) 
Met

>  <MOL_WT>  (2131) 
193.224

>  <LOGP>  (2131) 
-0.3938000000000004

>  <TPSA>  (2131) 
100.62000000000002

>  <POPULARITY>  (2131) 
2.2

>  <PROTECTED>  (2131) 
TRUE

>  <SMILES>  (2131) 
N[C@@H](CCSCC(=O)O)C(=O)O

>  <INCHIKEY>  (2131) 
BWLMCOKQHQOEEE-BYPYZUCNSA-N

$$$$
Met_EtO2H
     RDKit          2D

 13 12  0  0  0  0  0  0  0  0999 V2000
   -2.9072   -1.8790    0.0000 N   0  0  0  0  0  0  0  0  0  0  0  0
   -2.9824   -0.3808    0.0000 C   0  0  0  0  0  0  0  0  0  0  0  0
   -1.7226    0.4334    0.0000 C   0  0  0  0  0  0  0  0  0  0  0  0
   -0.3876   -0.2505    0.0000 C   0  0  0  0  0  0  0  0  0  0  0  0
    0.8722    0.5637    0.0000 S   0  0  0  0  0  0  0  0  0  0  0  0
    2.2072   -0.1202    0.0000 C   0  0  0  0  0  0  0  0  0  0  0  0
    3.4670    0.6940    0.0000 C   0  0  0  0  0  0  0  0  0  0  0  0
    4.8020    0.0101    0.0000 C   0  0  0  0  0  0  0  0  0  0  0  0
    4.8772   -1.4880    0.0000 O   0  0  0  0  0  0  0  0  0  0  0  0
    6.0618    0.8243    0.0000 O   0  0  0  0  0  0  0  0  0  0  0  0
   -4.3175    0.3030    0.0000 C   0  0  0  0  0  0  0  0  0  0  0  0
   -4.3927    1.8012    0.0000 O   0  0  0  0  0  0  0  0  0  0  0  0
   -5.5772   -0.5112    0.0000 O   0  0  0  0  0  0  0  0  0  0  0  0
  2  1  1  6
  2  3  1  0
  3  4  1  0
  4  5  1  0
  5  6  1  0
  6  7  1  0
  7  8  1  0
  8  9  2  0
  8 10  1  0
  2 11  1  0
 11 12  2  0
 11 13  1  0
M  END
>  <rName>  (2132) 
Met_EtO2H

>  <PQ_SYMBOL>  (2132) 
Met_EtO2H

>  <FULL_NAME>  (2132) 
S-carboxyethyl-l-homocysteine

>  <IUPAC_CONDENSED>  (2132) 
Met(EtO2H)

>  <IUPAC>  (2132) 
(2S)-2-amino-4-(2-carboxyethylsulfanyl)butanoic acid

>  <TYPE>  (2132) 
Backbone

>  <CLASS>  (2132) 
alpha

>  <ANALOG>  (2132) 
Met

>  <MOL_WT>  (2132) 
207.251

>  <LOGP>  (2132) 
-0.0037000000000005917

>  <TPSA>  (2132) 
100.62000000000002

>  <POPULARITY>  (2132) 
2.2

>  <PROTECTED>  (2132) 
TRUE

>  <SMILES>  (2132) 
N[C@@H](CCSCCC(=O)O)C(=O)O

>  <INCHIKEY>  (2132) 
QBETWIZYARXLPZ-YFKPBYRVSA-N

$$$$
Met_MeNH2
     RDKit          2D

 17 16  0  0  0  0  0  0  0  0999 V2000
    4.7116   -1.9182    0.0000 N   0  0  0  0  0  0  0  0  0  0  0  0
    4.7323   -0.4183    0.0000 C   0  0  0  0  0  0  0  0  0  0  0  0
    3.4438    0.3496    0.0000 C   0  0  0  0  0  0  0  0  0  0  0  0
    2.1345   -0.3824    0.0000 C   0  0  0  0  0  0  0  0  0  0  0  0
    0.8460    0.3854    0.0000 S   0  0  0  0  0  0  0  0  0  0  0  0
   -0.4633   -0.3466    0.0000 C   0  0  0  0  0  0  0  0  0  0  0  0
   -1.7519    0.4213    0.0000 C   0  0  0  0  0  0  0  0  0  0  0  0
   -1.7312    1.9211    0.0000 N   0  0  0  0  0  0  0  0  0  0  0  0
   -3.0611   -0.3107    0.0000 C   0  0  0  0  0  0  0  0  0  0  0  0
   -3.0818   -1.8106    0.0000 O   0  0  0  0  0  0  0  0  0  0  0  0
   -4.3497    0.4571    0.0000 O   0  0  0  0  0  0  0  0  0  0  0  0
   -5.6590   -0.2749    0.0000 C   0  0  0  0  0  0  0  0  0  0  0  0
   -6.9475    0.4930    0.0000 C   0  0  0  0  0  0  0  0  0  0  0  0
   -8.2568   -0.2390    0.0000 C   0  0  0  0  0  0  0  0  0  0  0  0
    6.0416    0.3137    0.0000 C   0  0  0  0  0  0  0  0  0  0  0  0
    6.0623    1.8136    0.0000 O   0  0  0  0  0  0  0  0  0  0  0  0
    7.3302   -0.4542    0.0000 O   0  0  0  0  0  0  0  0  0  0  0  0
  2  1  1  1
  2  3  1  0
  3  4  1  0
  4  5  1  0
  5  6  1  0
  6  7  1  0
  7  8  1  1
  7  9  1  0
  9 10  2  0
  9 11  1  0
 11 12  1  0
 12 13  1  0
 13 14  2  0
  2 15  1  0
 15 16  2  0
 15 17  1  0
M  END
>  <rName>  (2133) 
Met_MeNH2

>  <PQ_SYMBOL>  (2133) 
Met_MeNH2

>  <FULL_NAME>  (2133) 
S-((R)-3-(allyloxy)-2-amino-3-oxopropyl)-L-homocysteine

>  <IUPAC_CONDENSED>  (2133) 
Met(MeNH2)

>  <IUPAC>  (2133) 
(2S)-2-amino-4-(((2R)-2-amino-3-oxo-3-((prop-2-en-1-yl)oxy)propyl)sulfanyl)butanoic acid

>  <TYPE>  (2133) 
Backbone

>  <CLASS>  (2133) 
alpha

>  <ANALOG>  (2133) 
Met

>  <MOL_WT>  (2133) 
262.3309999999999

>  <LOGP>  (2133) 
-0.4218999999999989

>  <TPSA>  (2133) 
115.64

>  <POPULARITY>  (2133) 
2.7

>  <PROTECTED>  (2133) 
TRUE

>  <SMILES>  (2133) 
N[C@@H](CCSC[C@H](N)C(=O)OCC=C)C(=O)O

>  <INCHIKEY>  (2133) 
NVESXHCHBASTJR-YUMQZZPRSA-N

$$$$
Met_O
     RDKit          2D

 10  9  0  0  0  0  0  0  0  0999 V2000
   -1.2717    1.9622    0.0000 N   0  0  0  0  0  0  0  0  0  0  0  0
   -1.1946    0.4642    0.0000 C   0  0  0  0  0  0  0  0  0  0  0  0
    0.1413   -0.2180    0.0000 C   0  0  0  0  0  0  0  0  0  0  0  0
    1.4001    0.5978    0.0000 C   0  0  0  0  0  0  0  0  0  0  0  0
    2.7359   -0.0845    0.0000 S   0  0  0  0  0  0  0  0  0  0  0  0
    2.8131   -1.5825    0.0000 O   0  0  0  0  0  0  0  0  0  0  0  0
    3.9947    0.7313    0.0000 C   0  0  0  0  0  0  0  0  0  0  0  0
   -2.4533   -0.3516    0.0000 C   0  0  0  0  0  0  0  0  0  0  0  0
   -2.3762   -1.8496    0.0000 O   0  0  0  0  0  0  0  0  0  0  0  0
   -3.7892    0.3306    0.0000 O   0  0  0  0  0  0  0  0  0  0  0  0
  2  1  1  1
  2  3  1  0
  3  4  1  0
  4  5  1  0
  5  6  2  0
  5  7  1  0
  2  8  1  0
  8  9  2  0
  8 10  1  0
M  END
>  <rName>  (2134) 
Met_O

>  <PQ_SYMBOL>  (2134) 
Met_O

>  <FULL_NAME>  (2134) 
L-Methionine Sulfoxide

>  <IUPAC_CONDENSED>  (2134) 
Met(O)

>  <IUPAC>  (2134) 
(2S)-2-amino-4-(methylsulfinyl)butanoic acid

>  <TYPE>  (2134) 
Backbone

>  <CLASS>  (2134) 
alpha

>  <ANALOG>  (2134) 
Met

>  <MOL_WT>  (2134) 
165.214

>  <LOGP>  (2134) 
-0.8331000000000004

>  <TPSA>  (2134) 
80.39

>  <POPULARITY>  (2134) 
20.4

>  <PROTECTED>  (2134) 
TRUE

>  <SMILES>  (2134) 
N[C@@H](CCS(=O)C)C(=O)O

>  <INCHIKEY>  (2134) 
QEFRNWWLZKMPFJ-YGVKFDHGSA-N

$$$$
Met_O2
     RDKit          2D

 11 10  0  0  0  0  0  0  0  0999 V2000
    1.5275   -1.9644    0.0000 N   0  0  0  0  0  0  0  0  0  0  0  0
    1.4450   -0.4666    0.0000 C   0  0  0  0  0  0  0  0  0  0  0  0
    0.1067    0.2107    0.0000 C   0  0  0  0  0  0  0  0  0  0  0  0
   -1.1491   -0.6096    0.0000 C   0  0  0  0  0  0  0  0  0  0  0  0
   -2.4875    0.0678    0.0000 S   0  0  0  0  0  0  0  0  0  0  0  0
   -3.1649   -1.2706    0.0000 O   0  0  0  0  0  0  0  0  0  0  0  0
   -1.8101    1.4061    0.0000 O   0  0  0  0  0  0  0  0  0  0  0  0
   -3.8258    0.7452    0.0000 C   0  0  0  0  0  0  0  0  0  0  0  0
    2.7008    0.3537    0.0000 C   0  0  0  0  0  0  0  0  0  0  0  0
    2.6183    1.8514    0.0000 O   0  0  0  0  0  0  0  0  0  0  0  0
    4.0391   -0.3237    0.0000 O   0  0  0  0  0  0  0  0  0  0  0  0
  2  1  1  1
  2  3  1  0
  3  4  1  0
  4  5  1  0
  5  6  2  0
  5  7  2  0
  5  8  1  0
  2  9  1  0
  9 10  2  0
  9 11  1  0
M  END
>  <rName>  (2135) 
Met_O2

>  <PQ_SYMBOL>  (2135) 
Met_O2

>  <FULL_NAME>  (2135) 
L-Methionine Sulfone

>  <IUPAC_CONDENSED>  (2135) 
Met(O2)

>  <IUPAC>  (2135) 
(2S)-2-amino-4-(methylsulfonyl)butanoic acid

>  <TYPE>  (2135) 
Backbone

>  <CLASS>  (2135) 
alpha

>  <ANALOG>  (2135) 
X

>  <MOL_WT>  (2135) 
181.213

>  <LOGP>  (2135) 
-1.167

>  <TPSA>  (2135) 
97.46000000000001

>  <POPULARITY>  (2135) 
32.0

>  <PROTECTED>  (2135) 
TRUE

>  <SMILES>  (2135) 
N[C@@H](CCS(=O)(=O)C)C(=O)O

>  <INCHIKEY>  (2135) 
UCUNFLYVYCGDHP-BYPYZUCNSA-N

$$$$
Met_Pr
     RDKit          2D

 12 11  0  0  0  0  0  0  0  0999 V2000
    2.5981    1.8750    0.0000 N   0  0  0  0  0  0  0  0  0  0  0  0
    2.5981    0.3750    0.0000 C   0  0  0  0  0  0  0  0  0  0  0  0
    1.2990   -0.3750    0.0000 C   0  0  0  0  0  0  0  0  0  0  0  0
    0.0000    0.3750    0.0000 C   0  0  0  0  0  0  0  0  0  0  0  0
   -1.2990   -0.3750    0.0000 S   0  0  0  0  0  0  0  0  0  0  0  0
   -2.5981    0.3750    0.0000 C   0  0  0  0  0  0  0  0  0  0  0  0
   -3.8971   -0.3750    0.0000 C   0  0  0  0  0  0  0  0  0  0  0  0
   -5.1962    0.3750    0.0000 C   0  0  0  0  0  0  0  0  0  0  0  0
   -6.4952   -0.3750    0.0000 C   0  0  0  0  0  0  0  0  0  0  0  0
    3.8971   -0.3750    0.0000 C   0  0  0  0  0  0  0  0  0  0  0  0
    3.8971   -1.8750    0.0000 O   0  0  0  0  0  0  0  0  0  0  0  0
    5.1962    0.3750    0.0000 O   0  0  0  0  0  0  0  0  0  0  0  0
  2  1  1  6
  2  3  1  0
  3  4  1  0
  4  5  1  0
  5  6  1  0
  6  7  1  0
  7  8  1  0
  8  9  1  0
  2 10  1  0
 10 11  2  0
 10 12  1  0
M  END
>  <rName>  (2136) 
Met_Pr

>  <PQ_SYMBOL>  (2136) 
Met_Pr

>  <FULL_NAME>  (2136) 
L-Buthionine

>  <IUPAC_CONDENSED>  (2136) 
Met(Pr)

>  <IUPAC>  (2136) 
(2S)-2-amino-4-butylsulfanylbutanoic acid

>  <TYPE>  (2136) 
Backbone

>  <CLASS>  (2136) 
alpha

>  <ANALOG>  (2136) 
Met

>  <MOL_WT>  (2136) 
191.296

>  <LOGP>  (2136) 
1.3216999999999999

>  <TPSA>  (2136) 
63.32000000000001

>  <POPULARITY>  (2136) 
3.5

>  <PROTECTED>  (2136) 
TRUE

>  <SMILES>  (2136) 
N[C@@H](CCSCCCC)C(=O)O

>  <INCHIKEY>  (2136) 
LAXXPOJCFVMVAX-ZETCQYMHSA-N

$$$$
Met_S3F
     RDKit          2D

 12 11  0  0  0  0  0  0  0  0999 V2000
   -1.9172   -1.8446    0.0000 N   0  0  0  0  0  0  0  0  0  0  0  0
   -2.0356   -0.3492    0.0000 C   0  0  0  0  0  0  0  0  0  0  0  0
   -0.7998    0.5009    0.0000 C   0  0  0  0  0  0  0  0  0  0  0  0
    0.5544   -0.1442    0.0000 C   0  0  0  0  0  0  0  0  0  0  0  0
    1.7902    0.7060    0.0000 S   0  0  0  0  0  0  0  0  0  0  0  0
    3.1443    0.0608    0.0000 C   0  0  0  0  0  0  0  0  0  0  0  0
    3.7895    1.4150    0.0000 F   0  0  0  0  0  0  0  0  0  0  0  0
    2.4992   -1.2933    0.0000 F   0  0  0  0  0  0  0  0  0  0  0  0
    4.4985   -0.5843    0.0000 F   0  0  0  0  0  0  0  0  0  0  0  0
   -3.3898    0.2959    0.0000 C   0  0  0  0  0  0  0  0  0  0  0  0
   -3.5082    1.7912    0.0000 O   0  0  0  0  0  0  0  0  0  0  0  0
   -4.6256   -0.5543    0.0000 O   0  0  0  0  0  0  0  0  0  0  0  0
  2  1  1  6
  2  3  1  0
  3  4  1  0
  4  5  1  0
  5  6  1  0
  6  7  1  0
  6  8  1  0
  6  9  1  0
  2 10  1  0
 10 11  2  0
 10 12  1  0
M  END
>  <rName>  (2137) 
Met_S3F

>  <PQ_SYMBOL>  (2137) 
Met_S3F

>  <FULL_NAME>  (2137) 
Trifluoro-L-Methionine

>  <IUPAC_CONDENSED>  (2137) 
Met(S-3F)

>  <IUPAC>  (2137) 
(2S)-2-amino-4-((trifluoromethyl)sulfanyl)butanoic acid

>  <TYPE>  (2137) 
Backbone

>  <CLASS>  (2137) 
alpha

>  <ANALOG>  (2137) 
Met

>  <MOL_WT>  (2137) 
203.18499999999997

>  <LOGP>  (2137) 
1.0414

>  <TPSA>  (2137) 
63.32000000000001

>  <POPULARITY>  (2137) 
10.5

>  <PROTECTED>  (2137) 
TRUE

>  <SMILES>  (2137) 
N[C@@H](CCSC(F)(F)F)C(=O)O

>  <INCHIKEY>  (2137) 
YLJLTSVBCXYTQK-VKHMYHEASA-N

$$$$
Met_SO
     RDKit          2D

 10  9  0  0  0  0  0  0  0  0999 V2000
   -1.2717    1.9622    0.0000 N   0  0  0  0  0  0  0  0  0  0  0  0
   -1.1946    0.4642    0.0000 C   0  0  0  0  0  0  0  0  0  0  0  0
    0.1413   -0.2180    0.0000 C   0  0  0  0  0  0  0  0  0  0  0  0
    1.4001    0.5978    0.0000 C   0  0  0  0  0  0  0  0  0  0  0  0
    2.7359   -0.0845    0.0000 S   0  0  0  0  0  4  0  0  0  0  0  0
    2.8131   -1.5825    0.0000 O   0  0  0  0  0  0  0  0  0  0  0  0
    3.9947    0.7313    0.0000 C   0  0  0  0  0  0  0  0  0  0  0  0
   -2.4533   -0.3516    0.0000 C   0  0  0  0  0  0  0  0  0  0  0  0
   -2.3762   -1.8496    0.0000 O   0  0  0  0  0  0  0  0  0  0  0  0
   -3.7892    0.3306    0.0000 O   0  0  0  0  0  0  0  0  0  0  0  0
  2  1  1  1
  2  3  1  0
  3  4  1  0
  4  5  1  0
  5  6  2  0
  5  7  1  6
  2  8  1  0
  8  9  2  0
  8 10  1  0
M  END
>  <rName>  (2138) 
Met_SO

>  <PQ_SYMBOL>  (2138) 
Met_SO

>  <FULL_NAME>  (2138) 
S-OXYMETHIONINE

>  <IUPAC_CONDENSED>  (2138) 
Met(S-O)

>  <IUPAC>  (2138) 
(2S)-2-amino-4-((S)-methylsulfinyl)butanoic acid

>  <TYPE>  (2138) 
Backbone

>  <CLASS>  (2138) 
alpha

>  <ANALOG>  (2138) 
Met

>  <MOL_WT>  (2138) 
165.214

>  <LOGP>  (2138) 
-0.8331000000000004

>  <TPSA>  (2138) 
80.39

>  <POPULARITY>  (2138) 
21.2

>  <PROTECTED>  (2138) 
TRUE

>  <SMILES>  (2138) 
N[C@@H](CC[S@@](=O)C)C(=O)O

>  <INCHIKEY>  (2138) 
QEFRNWWLZKMPFJ-MFXDVPHUSA-N

$$$$
Met_ethynyl
     RDKit          2D

 11 10  0  0  0  0  0  0  0  0999 V2000
   -2.1124    1.8649    0.0000 N   0  0  0  0  0  0  0  0  0  0  0  0
   -2.0306    0.3672    0.0000 C   0  0  0  0  0  0  0  0  0  0  0  0
   -0.6927   -0.3109    0.0000 C   0  0  0  0  0  0  0  0  0  0  0  0
    0.5636    0.5087    0.0000 C   0  0  0  0  0  0  0  0  0  0  0  0
    1.9016   -0.1694    0.0000 S   0  0  0  0  0  0  0  0  0  0  0  0
    3.1578    0.6503    0.0000 C   0  0  0  0  0  0  0  0  0  0  0  0
    4.4958   -0.0278    0.0000 C   0  0  0  0  0  0  0  0  0  0  0  0
    5.8338   -0.7059    0.0000 C   0  0  0  0  0  0  0  0  0  0  0  0
   -3.2869   -0.4525    0.0000 C   0  0  0  0  0  0  0  0  0  0  0  0
   -3.2051   -1.9503    0.0000 O   0  0  0  0  0  0  0  0  0  0  0  0
   -4.6248    0.2256    0.0000 O   0  0  0  0  0  0  0  0  0  0  0  0
  2  1  1  1
  2  3  1  0
  3  4  1  0
  4  5  1  0
  5  6  1  0
  6  7  1  0
  7  8  3  0
  2  9  1  0
  9 10  2  0
  9 11  1  0
M  END
>  <rName>  (2139) 
Met_ethynyl

>  <PQ_SYMBOL>  (2139) 
Met_ethynyl

>  <FULL_NAME>  (2139) 
(2S)-2-amino-4-prop-2-ynylsulfanylbutanoic acid

>  <IUPAC_CONDENSED>  (2139) 
Met(ethynyl)

>  <IUPAC>  (2139) 
(2S)-2-amino-4-prop-2-ynylsulfanylbutanoic acid

>  <TYPE>  (2139) 
Backbone

>  <CLASS>  (2139) 
alpha

>  <ANALOG>  (2139) 
Met

>  <MOL_WT>  (2139) 
173.237

>  <LOGP>  (2139) 
0.15479999999999977

>  <TPSA>  (2139) 
63.32000000000001

>  <POPULARITY>  (2139) 
2.2

>  <PROTECTED>  (2139) 
TRUE

>  <SMILES>  (2139) 
N[C@@H](CCSCC#C)C(=O)O

>  <INCHIKEY>  (2139) 
ZKPBZLQVASOHOQ-LURJTMIESA-N

$$$$
Ms-spiroindoline-piperidine
     RDKit          2D

 18 20  0  0  0  0  0  0  0  0999 V2000
   -4.0262   -1.1901    0.0000 N   0  0  0  0  0  0  0  0  0  0  0  0
   -3.5998    0.2480    0.0000 C   0  0  0  0  0  0  0  0  0  0  0  0
   -2.1412    0.5978    0.0000 C   0  0  0  0  0  0  0  0  0  0  0  0
   -1.1089   -0.4905    0.0000 C   0  0  0  0  0  0  0  0  0  0  0  0
   -1.5353   -1.9286    0.0000 C   0  0  0  0  0  0  0  0  0  0  0  0
   -2.9940   -2.2784    0.0000 C   0  0  0  0  0  0  0  0  0  0  0  0
   -0.5345    0.8951    0.0000 C   0  0  0  0  0  0  0  0  0  0  0  0
   -1.1799    2.2492    0.0000 C   0  0  0  0  0  0  0  0  0  0  0  0
   -0.3300    3.4852    0.0000 C   0  0  0  0  0  0  0  0  0  0  0  0
    1.1653    3.3671    0.0000 C   0  0  0  0  0  0  0  0  0  0  0  0
    1.8108    2.0130    0.0000 C   0  0  0  0  0  0  0  0  0  0  0  0
    0.9608    0.7771    0.0000 C   0  0  0  0  0  0  0  0  0  0  0  0
    1.3106   -0.6816    0.0000 N   0  0  0  0  0  0  0  0  0  0  0  0
    0.0314   -1.4650    0.0000 C   0  0  0  0  0  0  0  0  0  0  0  0
    2.6963   -1.2560    0.0000 S   0  0  0  0  0  0  0  0  0  0  0  0
    3.2707    0.1297    0.0000 O   0  0  0  0  0  0  0  0  0  0  0  0
    2.1219   -2.6416    0.0000 O   0  0  0  0  0  0  0  0  0  0  0  0
    4.0819   -1.8304    0.0000 C   0  0  0  0  0  0  0  0  0  0  0  0
  1  2  1  0
  2  3  1  0
  3  4  1  0
  4  5  1  0
  5  6  1  0
  4  7  1  0
  7  8  2  0
  8  9  1  0
  9 10  2  0
 10 11  1  0
 11 12  2  0
 12 13  1  0
 13 14  1  0
 13 15  1  0
 15 16  2  0
 15 17  2  0
 15 18  1  0
 12  7  1  0
 14  4  1  0
  6  1  1  0
M  END
>  <rName>  (2140) 
Ms-spiroindoline-piperidine

>  <PQ_SYMBOL>  (2140) 
Ms-spiroindoline-piperidine

>  <FULL_NAME>  (2140) 
1-(Methylsulfonyl)spiro[indoline-3,4'-piperidine]

>  <IUPAC_CONDENSED>  (2140) 
Ms-spiro[indoline-piperidine]

>  <IUPAC>  (2140) 
1-(methylsulfonyl)spiro[indoline-3,4'-piperidine]

>  <TYPE>  (2140) 
C-term cap

>  <CLASS>  (2140) 
c_cap

>  <ANALOG>  (2140) 
X

>  <MOL_WT>  (2140) 
266.366

>  <LOGP>  (2140) 
1.0874

>  <TPSA>  (2140) 
49.410000000000004

>  <POPULARITY>  (2140) 
7.8

>  <PROTECTED>  (2140) 
TRUE

>  <SMILES>  (2140) 
N3CCC2(CC3)c1ccccc1N(C2)S(=O)(=O)C

>  <INCHIKEY>  (2140) 
NSECJXCOETXUHS-UHFFFAOYSA-N

$$$$
MsO
     RDKit          2D

  5  4  0  0  0  0  0  0  0  0999 V2000
    0.7500   -1.2990    0.0000 O   0  0  0  0  0  0  0  0  0  0  0  0
    0.0000   -0.0000    0.0000 S   0  0  0  0  0  0  0  0  0  0  0  0
   -0.7500    1.2990    0.0000 O   0  0  0  0  0  0  0  0  0  0  0  0
   -1.2990   -0.7500    0.0000 C   0  0  0  0  0  0  0  0  0  0  0  0
    1.2990    0.7500    0.0000 O   0  0  0  0  0  0  0  0  0  0  0  0
  1  2  2  0
  2  3  2  0
  2  4  1  0
  2  5  1  0
M  END
>  <rName>  (2141) 
MsO

>  <PQ_SYMBOL>  (2141) 
MsO

>  <FULL_NAME>  (2141) 
Mesylate

>  <IUPAC_CONDENSED>  (2141) 
MsO

>  <IUPAC>  (2141) 
methanesulfonic acid

>  <TYPE>  (2141) 
N-term cap

>  <CLASS>  (2141) 
n_cap

>  <ANALOG>  (2141) 
X

>  <MOL_WT>  (2141) 
96.10699999999999

>  <LOGP>  (2141) 
-0.49599999999999983

>  <TPSA>  (2141) 
54.370000000000005

>  <POPULARITY>  (2141) 
12.9

>  <PROTECTED>  (2141) 
FALSE

>  <SMILES>  (2141) 
O=S(=O)(C)O

>  <INCHIKEY>  (2141) 
AFVFQIVMOAPDHO-UHFFFAOYSA-N

$$$$
N
     RDKit          2D

  9  8  0  0  0  0  0  0  0  0999 V2000
   -0.2826   -1.7410    0.0000 N   0  0  0  0  0  0  0  0  0  0  0  0
   -0.5402   -0.2633    0.0000 C   0  0  0  0  0  0  0  0  0  0  0  0
    0.6108    0.6986    0.0000 C   0  0  0  0  0  0  0  0  0  0  0  0
    2.0193    0.1828    0.0000 C   0  0  0  0  0  0  0  0  0  0  0  0
    2.2769   -1.2950    0.0000 O   0  0  0  0  0  0  0  0  0  0  0  0
    3.1703    1.1447    0.0000 N   0  0  0  0  0  0  0  0  0  0  0  0
   -1.9487    0.2525    0.0000 C   0  0  0  0  0  0  0  0  0  0  0  0
   -2.2062    1.7302    0.0000 O   0  0  0  0  0  0  0  0  0  0  0  0
   -3.0997   -0.7094    0.0000 O   0  0  0  0  0  0  0  0  0  0  0  0
  2  1  1  6
  2  3  1  0
  3  4  1  0
  4  5  2  0
  4  6  1  0
  2  7  1  0
  7  8  2  0
  7  9  1  0
M  END
>  <rName>  (2142) 
N

>  <PQ_SYMBOL>  (2142) 
N

>  <FULL_NAME>  (2142) 
L-Asparagine

>  <IUPAC_CONDENSED>  (2142) 
Asn

>  <IUPAC>  (2142) 
(2S)-2-amino-3-carbamoylpropanoic acid

>  <TYPE>  (2142) 
Backbone

>  <CLASS>  (2142) 
alpha

>  <ANALOG>  (2142) 
Asn

>  <MOL_WT>  (2142) 
132.119

>  <LOGP>  (2142) 
-1.7263000000000002

>  <TPSA>  (2142) 
106.41000000000001

>  <POPULARITY>  (2142) 
94.4

>  <PROTECTED>  (2142) 
TRUE

>  <SMILES>  (2142) 
N[C@@H](CC(=O)N)C(=O)O

>  <INCHIKEY>  (2142) 
DCXYFEDJOCDNAF-REOHCLBHSA-N

$$$$
N3-guan-propGly
     RDKit          2D

 12 11  0  0  0  0  0  0  0  0999 V2000
    1.9732   -0.2100    0.0000 N   0  0  0  0  0  0  0  0  0  0  0  0
    0.6157    0.4282    0.0000 C   0  0  0  0  0  0  0  0  0  0  0  0
   -0.6157   -0.4282    0.0000 C   0  0  0  0  0  0  0  0  0  0  0  0
   -1.9732    0.2100    0.0000 C   0  0  0  0  0  0  0  0  0  0  0  0
   -3.2046   -0.6465    0.0000 N   0  0  0  0  0  0  0  0  0  0  0  0
   -4.5621   -0.0083    0.0000 C   0  0  0  0  0  0  0  0  0  0  0  0
   -4.6881    1.4864    0.0000 N   0  0  0  0  0  0  0  0  0  0  0  0
   -5.7935   -0.8647    0.0000 N   0  0  0  0  0  0  0  0  0  0  0  0
    3.2046    0.6465    0.0000 C   0  0  0  0  0  0  0  0  0  0  0  0
    4.5621    0.0083    0.0000 C   0  0  0  0  0  0  0  0  0  0  0  0
    4.6881   -1.4864    0.0000 O   0  0  0  0  0  0  0  0  0  0  0  0
    5.7935    0.8647    0.0000 O   0  0  0  0  0  0  0  0  0  0  0  0
  1  2  1  0
  2  3  1  0
  3  4  1  0
  4  5  1  0
  5  6  1  0
  6  7  2  0
  6  8  1  0
  1  9  1  0
  9 10  1  0
 10 11  2  0
 10 12  1  0
M  END
>  <rName>  (2143) 
N3-guan-propGly

>  <PQ_SYMBOL>  (2143) 
N3-guan-propGly

>  <FULL_NAME>  (2143) 
N-(3-guanidino-propyl)-glycine

>  <IUPAC_CONDENSED>  (2143) 
N(3-guan-prop)Gly

>  <IUPAC>  (2143) 
2-((3-(((amino)(imino)methyl)amino)propyl)amino)acetic acid

>  <TYPE>  (2143) 
Backbone

>  <CLASS>  (2143) 
alpha

>  <ANALOG>  (2143) 
Gly

>  <MOL_WT>  (2143) 
174.20399999999998

>  <LOGP>  (2143) 
-1.466229999999999

>  <TPSA>  (2143) 
111.23

>  <POPULARITY>  (2143) 
17.1

>  <PROTECTED>  (2143) 
TRUE

>  <SMILES>  (2143) 
N(CCCNC(=N)N)CC(=O)O

>  <INCHIKEY>  (2143) 
YDBPFLZECVWPSH-UHFFFAOYSA-N

$$$$
NBn-A
     RDKit          2D

 13 13  0  0  0  0  0  0  0  0999 V2000
   -1.0194    0.9008    0.0000 N   0  0  0  0  0  0  0  0  0  0  0  0
   -0.1419   -0.3157    0.0000 C   0  0  0  0  0  0  0  0  0  0  0  0
    1.3504   -0.1640    0.0000 C   0  0  0  0  0  0  0  0  0  0  0  0
    1.9652    1.2042    0.0000 C   0  0  0  0  0  0  0  0  0  0  0  0
    3.4575    1.3560    0.0000 C   0  0  0  0  0  0  0  0  0  0  0  0
    4.3351    0.1395    0.0000 C   0  0  0  0  0  0  0  0  0  0  0  0
    3.7203   -1.2288    0.0000 C   0  0  0  0  0  0  0  0  0  0  0  0
    2.2280   -1.3805    0.0000 C   0  0  0  0  0  0  0  0  0  0  0  0
   -2.5117    0.7490    0.0000 C   0  0  0  0  0  0  0  0  0  0  0  0
   -3.3893    1.9655    0.0000 C   0  0  0  0  0  0  0  0  0  0  0  0
   -3.1265   -0.6192    0.0000 C   0  0  0  0  0  0  0  0  0  0  0  0
   -2.2489   -1.8357    0.0000 O   0  0  0  0  0  0  0  0  0  0  0  0
   -4.6188   -0.7710    0.0000 O   0  0  0  0  0  0  0  0  0  0  0  0
  1  2  1  0
  2  3  1  0
  3  4  2  0
  4  5  1  0
  5  6  2  0
  6  7  1  0
  7  8  2  0
  1  9  1  0
  9 10  1  6
  9 11  1  0
 11 12  2  0
 11 13  1  0
  8  3  1  0
M  END
>  <rName>  (2144) 
NBn-A

>  <PQ_SYMBOL>  (2144) 
NBn-A

>  <FULL_NAME>  (2144) 
(2S)-2-(benzylamino)propanoic acid

>  <IUPAC_CONDENSED>  (2144) 
Bn-Ala

>  <IUPAC>  (2144) 
(2S)-2-(benzylamino)propanoic acid

>  <TYPE>  (2144) 
Backbone

>  <CLASS>  (2144) 
alpha

>  <ANALOG>  (2144) 
Ala

>  <MOL_WT>  (2144) 
179.21899999999997

>  <LOGP>  (2144) 
1.2493

>  <TPSA>  (2144) 
49.33

>  <POPULARITY>  (2144) 
20.5

>  <PROTECTED>  (2144) 
TRUE

>  <SMILES>  (2144) 
N(Cc1(ccccc1))[C@@H](C)C(=O)O

>  <INCHIKEY>  (2144) 
RLIHXKPTGKETCC-QMMMGPOBSA-N

$$$$
NBn-G
     RDKit          2D

 12 12  0  0  0  0  0  0  0  0999 V2000
   -1.2194   -0.1693    0.0000 N   0  0  0  0  0  0  0  0  0  0  0  0
   -0.0183   -1.0678    0.0000 C   0  0  0  0  0  0  0  0  0  0  0  0
    1.3604   -0.4769    0.0000 C   0  0  0  0  0  0  0  0  0  0  0  0
    1.5380    1.0126    0.0000 C   0  0  0  0  0  0  0  0  0  0  0  0
    2.9167    1.6035    0.0000 C   0  0  0  0  0  0  0  0  0  0  0  0
    4.1178    0.7050    0.0000 C   0  0  0  0  0  0  0  0  0  0  0  0
    3.9402   -0.7845    0.0000 C   0  0  0  0  0  0  0  0  0  0  0  0
    2.5615   -1.3754    0.0000 C   0  0  0  0  0  0  0  0  0  0  0  0
   -2.5981   -0.7603    0.0000 C   0  0  0  0  0  0  0  0  0  0  0  0
   -3.7992    0.1382    0.0000 C   0  0  0  0  0  0  0  0  0  0  0  0
   -3.6216    1.6277    0.0000 O   0  0  0  0  0  0  0  0  0  0  0  0
   -5.1779   -0.4527    0.0000 O   0  0  0  0  0  0  0  0  0  0  0  0
  1  2  1  0
  2  3  1  0
  3  4  2  0
  4  5  1  0
  5  6  2  0
  6  7  1  0
  7  8  2  0
  1  9  1  0
  9 10  1  0
 10 11  2  0
 10 12  1  0
  8  3  1  0
M  END
>  <rName>  (2145) 
NBn-G

>  <PQ_SYMBOL>  (2145) 
NBn-G

>  <FULL_NAME>  (2145) 
N-Benzyl-Glycine

>  <IUPAC_CONDENSED>  (2145) 
Bn-Gly

>  <IUPAC>  (2145) 
2-(benzylamino)acetic acid

>  <TYPE>  (2145) 
Backbone

>  <CLASS>  (2145) 
alpha

>  <ANALOG>  (2145) 
Gly

>  <MOL_WT>  (2145) 
165.19199999999998

>  <LOGP>  (2145) 
0.8608

>  <TPSA>  (2145) 
49.33

>  <POPULARITY>  (2145) 
34.8

>  <PROTECTED>  (2145) 
TRUE

>  <SMILES>  (2145) 
N(Cc1(ccccc1))CC(=O)O

>  <INCHIKEY>  (2145) 
KGSVNOLLROCJQM-UHFFFAOYSA-N

$$$$
NBn-Gaba
     RDKit          2D

 14 14  0  0  0  0  0  0  0  0999 V2000
   -0.0181   -0.2135    0.0000 N   0  0  0  0  0  0  0  0  0  0  0  0
    1.2129   -1.0706    0.0000 C   0  0  0  0  0  0  0  0  0  0  0  0
    2.5707   -0.4330    0.0000 C   0  0  0  0  0  0  0  0  0  0  0  0
    2.6974    1.0617    0.0000 C   0  0  0  0  0  0  0  0  0  0  0  0
    4.0551    1.6993    0.0000 C   0  0  0  0  0  0  0  0  0  0  0  0
    5.2862    0.8422    0.0000 C   0  0  0  0  0  0  0  0  0  0  0  0
    5.1595   -0.6524    0.0000 C   0  0  0  0  0  0  0  0  0  0  0  0
    3.8017   -1.2900    0.0000 C   0  0  0  0  0  0  0  0  0  0  0  0
   -1.3758   -0.8511    0.0000 C   0  0  0  0  0  0  0  0  0  0  0  0
   -2.6069    0.0059    0.0000 C   0  0  0  0  0  0  0  0  0  0  0  0
   -3.9646   -0.6317    0.0000 C   0  0  0  0  0  0  0  0  0  0  0  0
   -5.1957    0.2254    0.0000 C   0  0  0  0  0  0  0  0  0  0  0  0
   -5.0690    1.7200    0.0000 O   0  0  0  0  0  0  0  0  0  0  0  0
   -6.5534   -0.4122    0.0000 O   0  0  0  0  0  0  0  0  0  0  0  0
  1  2  1  0
  2  3  1  0
  3  4  2  0
  4  5  1  0
  5  6  2  0
  6  7  1  0
  7  8  2  0
  1  9  1  0
  9 10  1  0
 10 11  1  0
 11 12  1  0
 12 13  2  0
 12 14  1  0
  8  3  1  0
M  END
>  <rName>  (2146) 
NBn-Gaba

>  <PQ_SYMBOL>  (2146) 
NBn-Gaba

>  <FULL_NAME>  (2146) 
4-(benzylamino)butanoic Acid

>  <IUPAC_CONDENSED>  (2146) 
Bn-Gaba

>  <IUPAC>  (2146) 
4-(benzylamino)butanoic acid

>  <TYPE>  (2146) 
Backbone

>  <CLASS>  (2146) 
gamma

>  <ANALOG>  (2146) 
Gly

>  <MOL_WT>  (2146) 
193.24599999999995

>  <LOGP>  (2146) 
1.641

>  <TPSA>  (2146) 
49.33

>  <POPULARITY>  (2146) 
15.7

>  <PROTECTED>  (2146) 
TRUE

>  <SMILES>  (2146) 
N(Cc1(ccccc1))CCCC(=O)O

>  <INCHIKEY>  (2146) 
XZJMQNMFQZJPHN-UHFFFAOYSA-N

$$$$
NBn-Nle
     RDKit          2D

 16 16  0  0  0  0  0  0  0  0999 V2000
    0.0065    0.4296    0.0000 N   0  0  0  0  0  0  0  0  0  0  0  0
    1.1254   -0.5695    0.0000 C   0  0  0  0  0  0  0  0  0  0  0  0
    2.5500   -0.1001    0.0000 C   0  0  0  0  0  0  0  0  0  0  0  0
    2.8558    1.3684    0.0000 C   0  0  0  0  0  0  0  0  0  0  0  0
    4.2805    1.8378    0.0000 C   0  0  0  0  0  0  0  0  0  0  0  0
    5.3994    0.8387    0.0000 C   0  0  0  0  0  0  0  0  0  0  0  0
    5.0935   -0.6298    0.0000 C   0  0  0  0  0  0  0  0  0  0  0  0
    3.6689   -1.0992    0.0000 C   0  0  0  0  0  0  0  0  0  0  0  0
   -1.4181   -0.0398    0.0000 C   0  0  0  0  0  0  0  0  0  0  0  0
   -2.5370    0.9592    0.0000 C   0  0  0  0  0  0  0  0  0  0  0  0
   -3.9616    0.4898    0.0000 C   0  0  0  0  0  0  0  0  0  0  0  0
   -5.0805    1.4889    0.0000 C   0  0  0  0  0  0  0  0  0  0  0  0
   -6.5052    1.0195    0.0000 C   0  0  0  0  0  0  0  0  0  0  0  0
   -1.7239   -1.5083    0.0000 C   0  0  0  0  0  0  0  0  0  0  0  0
   -0.6051   -2.5074    0.0000 O   0  0  0  0  0  0  0  0  0  0  0  0
   -3.1486   -1.9778    0.0000 O   0  0  0  0  0  0  0  0  0  0  0  0
  1  2  1  0
  2  3  1  0
  3  4  2  0
  4  5  1  0
  5  6  2  0
  6  7  1  0
  7  8  2  0
  1  9  1  0
  9 10  1  6
 10 11  1  0
 11 12  1  0
 12 13  1  0
  9 14  1  0
 14 15  2  0
 14 16  1  0
  8  3  1  0
M  END
>  <rName>  (2147) 
NBn-Nle

>  <PQ_SYMBOL>  (2147) 
NBn-Nle

>  <FULL_NAME>  (2147) 
(2S)-2-(benzylamino)hexanoic acid

>  <IUPAC_CONDENSED>  (2147) 
Bn-Nle

>  <IUPAC>  (2147) 
(2S)-2-(benzylamino)hexanoic acid

>  <TYPE>  (2147) 
N-term cap

>  <CLASS>  (2147) 
n_cap

>  <ANALOG>  (2147) 
X

>  <MOL_WT>  (2147) 
221.29999999999993

>  <LOGP>  (2147) 
2.4196

>  <TPSA>  (2147) 
49.33

>  <POPULARITY>  (2147) 
11.5

>  <PROTECTED>  (2147) 
TRUE

>  <SMILES>  (2147) 
N(Cc1(ccccc1))[C@@H](CCCC)C(=O)O

>  <INCHIKEY>  (2147) 
HQDXZMGISBZJCQ-LBPRGKRZSA-N

$$$$
NBn-Y
     RDKit          2D

 20 21  0  0  0  0  0  0  0  0999 V2000
    1.2907    0.5453    0.0000 N   0  0  0  0  0  0  0  0  0  0  0  0
    2.3496   -0.5171    0.0000 C   0  0  0  0  0  0  0  0  0  0  0  0
    3.7991   -0.1312    0.0000 C   0  0  0  0  0  0  0  0  0  0  0  0
    4.8581   -1.1936    0.0000 C   0  0  0  0  0  0  0  0  0  0  0  0
    6.3076   -0.8077    0.0000 C   0  0  0  0  0  0  0  0  0  0  0  0
    6.6982    0.6406    0.0000 C   0  0  0  0  0  0  0  0  0  0  0  0
    5.6392    1.7030    0.0000 C   0  0  0  0  0  0  0  0  0  0  0  0
    4.1897    1.3171    0.0000 C   0  0  0  0  0  0  0  0  0  0  0  0
   -0.1588    0.1594    0.0000 C   0  0  0  0  0  0  0  0  0  0  0  0
   -1.2178    1.2217    0.0000 C   0  0  0  0  0  0  0  0  0  0  0  0
   -2.6673    0.8358    0.0000 C   0  0  0  0  0  0  0  0  0  0  0  0
   -3.7263    1.8982    0.0000 C   0  0  0  0  0  0  0  0  0  0  0  0
   -5.1758    1.5123    0.0000 C   0  0  0  0  0  0  0  0  0  0  0  0
   -5.5663    0.0640    0.0000 C   0  0  0  0  0  0  0  0  0  0  0  0
   -7.0158   -0.3219    0.0000 O   0  0  0  0  0  0  0  0  0  0  0  0
   -4.5074   -0.9984    0.0000 C   0  0  0  0  0  0  0  0  0  0  0  0
   -3.0579   -0.6125    0.0000 C   0  0  0  0  0  0  0  0  0  0  0  0
   -0.5494   -1.2889    0.0000 C   0  0  0  0  0  0  0  0  0  0  0  0
    0.5096   -2.3513    0.0000 O   0  0  0  0  0  0  0  0  0  0  0  0
   -1.9989   -1.6748    0.0000 O   0  0  0  0  0  0  0  0  0  0  0  0
  1  2  1  0
  2  3  1  0
  3  4  2  0
  4  5  1  0
  5  6  2  0
  6  7  1  0
  7  8  2  0
  1  9  1  0
  9 10  1  6
 10 11  1  0
 11 12  1  0
 12 13  2  0
 13 14  1  0
 14 15  1  0
 14 16  2  0
 16 17  1  0
  9 18  1  0
 18 19  2  0
 18 20  1  0
  8  3  1  0
 17 11  2  0
M  END
>  <rName>  (2148) 
NBn-Y

>  <PQ_SYMBOL>  (2148) 
NBn-Y

>  <FULL_NAME>  (2148) 
(2S)-2-(benzylamino)-3-(4-hydroxyphenyl)propanoic acid

>  <IUPAC_CONDENSED>  (2148) 
Bn-Tyr

>  <IUPAC>  (2148) 
(2S)-2-(benzylamino)-3-(4-hydroxyphenyl)propanoic acid

>  <TYPE>  (2148) 
N-term cap

>  <CLASS>  (2148) 
n_cap

>  <ANALOG>  (2148) 
X

>  <MOL_WT>  (2148) 
271.316

>  <LOGP>  (2148) 
2.1776999999999997

>  <TPSA>  (2148) 
69.56

>  <POPULARITY>  (2148) 
16.9

>  <PROTECTED>  (2148) 
TRUE

>  <SMILES>  (2148) 
N(Cc1(ccccc1))[C@@H](Cc2(ccc(O)cc2))C(=O)O

>  <INCHIKEY>  (2148) 
WUTPXBXSEMJIDW-HNNXBMFYSA-N

$$$$
NBn-bAla
     RDKit          2D

 13 13  0  0  0  0  0  0  0  0999 V2000
   -0.5884    0.1150    0.0000 N   0  0  0  0  0  0  0  0  0  0  0  0
    0.5426   -0.8703    0.0000 C   0  0  0  0  0  0  0  0  0  0  0  0
    1.9614   -0.3834    0.0000 C   0  0  0  0  0  0  0  0  0  0  0  0
    2.2491    1.0888    0.0000 C   0  0  0  0  0  0  0  0  0  0  0  0
    3.6679    1.5757    0.0000 C   0  0  0  0  0  0  0  0  0  0  0  0
    4.7990    0.5904    0.0000 C   0  0  0  0  0  0  0  0  0  0  0  0
    4.5112   -0.8817    0.0000 C   0  0  0  0  0  0  0  0  0  0  0  0
    3.0925   -1.3686    0.0000 C   0  0  0  0  0  0  0  0  0  0  0  0
   -2.0072   -0.3719    0.0000 C   0  0  0  0  0  0  0  0  0  0  0  0
   -3.1382    0.6134    0.0000 C   0  0  0  0  0  0  0  0  0  0  0  0
   -4.5570    0.1265    0.0000 C   0  0  0  0  0  0  0  0  0  0  0  0
   -4.8448   -1.3456    0.0000 O   0  0  0  0  0  0  0  0  0  0  0  0
   -5.6881    1.1118    0.0000 O   0  0  0  0  0  0  0  0  0  0  0  0
  1  2  1  0
  2  3  1  0
  3  4  2  0
  4  5  1  0
  5  6  2  0
  6  7  1  0
  7  8  2  0
  1  9  1  0
  9 10  1  0
 10 11  1  0
 11 12  2  0
 11 13  1  0
  8  3  1  0
M  END
>  <rName>  (2149) 
NBn-bAla

>  <PQ_SYMBOL>  (2149) 
NBn-bAla

>  <FULL_NAME>  (2149) 
N-Benzyl-beta-alanine

>  <IUPAC_CONDENSED>  (2149) 
Bn-bAla

>  <IUPAC>  (2149) 
3-(benzylamino)propanoic acid

>  <TYPE>  (2149) 
Backbone

>  <CLASS>  (2149) 
beta

>  <ANALOG>  (2149) 
Gly

>  <MOL_WT>  (2149) 
179.21899999999997

>  <LOGP>  (2149) 
1.2509000000000001

>  <TPSA>  (2149) 
49.33

>  <POPULARITY>  (2149) 
16.0

>  <PROTECTED>  (2149) 
TRUE

>  <SMILES>  (2149) 
N(Cc1(ccccc1))CCC(=O)O

>  <INCHIKEY>  (2149) 
QRDUQWYMGXZIKM-UHFFFAOYSA-N

$$$$
NBn-dA
     RDKit          2D

 13 13  0  0  0  0  0  0  0  0999 V2000
   -1.0194    0.9008    0.0000 N   0  0  0  0  0  0  0  0  0  0  0  0
   -0.1419   -0.3157    0.0000 C   0  0  0  0  0  0  0  0  0  0  0  0
    1.3504   -0.1640    0.0000 C   0  0  0  0  0  0  0  0  0  0  0  0
    1.9652    1.2042    0.0000 C   0  0  0  0  0  0  0  0  0  0  0  0
    3.4575    1.3560    0.0000 C   0  0  0  0  0  0  0  0  0  0  0  0
    4.3351    0.1395    0.0000 C   0  0  0  0  0  0  0  0  0  0  0  0
    3.7203   -1.2288    0.0000 C   0  0  0  0  0  0  0  0  0  0  0  0
    2.2280   -1.3805    0.0000 C   0  0  0  0  0  0  0  0  0  0  0  0
   -2.5117    0.7490    0.0000 C   0  0  0  0  0  0  0  0  0  0  0  0
   -3.3893    1.9655    0.0000 C   0  0  0  0  0  0  0  0  0  0  0  0
   -3.1265   -0.6192    0.0000 C   0  0  0  0  0  0  0  0  0  0  0  0
   -2.2489   -1.8357    0.0000 O   0  0  0  0  0  0  0  0  0  0  0  0
   -4.6188   -0.7710    0.0000 O   0  0  0  0  0  0  0  0  0  0  0  0
  1  2  1  0
  2  3  1  0
  3  4  2  0
  4  5  1  0
  5  6  2  0
  6  7  1  0
  7  8  2  0
  1  9  1  0
  9 10  1  1
  9 11  1  0
 11 12  2  0
 11 13  1  0
  8  3  1  0
M  END
>  <rName>  (2150) 
NBn-dA

>  <PQ_SYMBOL>  (2150) 
NBn-dA

>  <FULL_NAME>  (2150) 
(2R)-2-(benzylamino)propanoic acid

>  <IUPAC_CONDENSED>  (2150) 
Bn-D-Ala

>  <IUPAC>  (2150) 
(2R)-2-(benzylamino)propanoic acid

>  <TYPE>  (2150) 
Backbone

>  <CLASS>  (2150) 
alpha

>  <ANALOG>  (2150) 
Ala

>  <MOL_WT>  (2150) 
179.21899999999997

>  <LOGP>  (2150) 
1.2493

>  <TPSA>  (2150) 
49.33

>  <POPULARITY>  (2150) 
13.9

>  <PROTECTED>  (2150) 
TRUE

>  <SMILES>  (2150) 
N(Cc1(ccccc1))[C@H](C)C(=O)O

>  <INCHIKEY>  (2150) 
RLIHXKPTGKETCC-MRVPVSSYSA-N

$$$$
NBn246triOMe-G
     RDKit          2D

 18 18  0  0  0  0  0  0  0  0999 V2000
   -2.2596   -0.3306    0.0000 N   0  0  0  0  0  0  0  0  0  0  0  0
   -1.0053   -1.1531    0.0000 C   0  0  0  0  0  0  0  0  0  0  0  0
    0.3342   -0.4781    0.0000 C   0  0  0  0  0  0  0  0  0  0  0  0
    0.4194    1.0195    0.0000 C   0  0  0  0  0  0  0  0  0  0  0  0
   -0.8350    1.8420    0.0000 O   0  0  0  0  0  0  0  0  0  0  0  0
   -0.7498    3.3396    0.0000 C   0  0  0  0  0  0  0  0  0  0  0  0
    1.7589    1.6945    0.0000 C   0  0  0  0  0  0  0  0  0  0  0  0
    3.0133    0.8720    0.0000 C   0  0  0  0  0  0  0  0  0  0  0  0
    4.3528    1.5470    0.0000 O   0  0  0  0  0  0  0  0  0  0  0  0
    5.6072    0.7245    0.0000 C   0  0  0  0  0  0  0  0  0  0  0  0
    2.9281   -0.6256    0.0000 C   0  0  0  0  0  0  0  0  0  0  0  0
    1.5886   -1.3006    0.0000 C   0  0  0  0  0  0  0  0  0  0  0  0
    1.5034   -2.7982    0.0000 O   0  0  0  0  0  0  0  0  0  0  0  0
    2.7578   -3.6208    0.0000 C   0  0  0  0  0  0  0  0  0  0  0  0
   -3.5992   -1.0056    0.0000 C   0  0  0  0  0  0  0  0  0  0  0  0
   -4.8535   -0.1831    0.0000 C   0  0  0  0  0  0  0  0  0  0  0  0
   -4.7684    1.3145    0.0000 O   0  0  0  0  0  0  0  0  0  0  0  0
   -6.1931   -0.8581    0.0000 O   0  0  0  0  0  0  0  0  0  0  0  0
  1  2  1  0
  2  3  1  0
  3  4  2  0
  4  5  1  0
  5  6  1  0
  4  7  1  0
  7  8  2  0
  8  9  1  0
  9 10  1  0
  8 11  1  0
 11 12  2  0
 12 13  1  0
 13 14  1  0
  1 15  1  0
 15 16  1  0
 16 17  2  0
 16 18  1  0
 12  3  1  0
M  END
>  <rName>  (2151) 
NBn246triOMe-G

>  <PQ_SYMBOL>  (2151) 
NBn246triOMe-G

>  <FULL_NAME>  (2151) 
(2,4,6-trimethoxybenzyl)glycine

>  <IUPAC_CONDENSED>  (2151) 
Bn(2,4,6-triOMe)-Gly

>  <IUPAC>  (2151) 
2-(((2,4,6-trimethoxyphenyl)methyl)amino)acetic acid

>  <TYPE>  (2151) 
Backbone

>  <CLASS>  (2151) 
alpha

>  <ANALOG>  (2151) 
Gly

>  <MOL_WT>  (2151) 
255.26999999999995

>  <LOGP>  (2151) 
0.8865999999999998

>  <TPSA>  (2151) 
77.02

>  <POPULARITY>  (2151) 
5.4

>  <PROTECTED>  (2151) 
TRUE

>  <SMILES>  (2151) 
N(Cc1(c(OC)cc(OC)cc1OC))CC(=O)O

>  <INCHIKEY>  (2151) 
IKJLUKFTUYDVAJ-UHFFFAOYSA-N

$$$$
NBn2Br-G
     RDKit          2D

 13 13  0  0  0  0  0  0  0  0999 V2000
   -1.4032   -0.0365    0.0000 N   0  0  0  0  0  0  0  0  0  0  0  0
   -0.1485   -0.8584    0.0000 C   0  0  0  0  0  0  0  0  0  0  0  0
    1.1907   -0.1827    0.0000 C   0  0  0  0  0  0  0  0  0  0  0  0
    1.2751    1.3149    0.0000 C   0  0  0  0  0  0  0  0  0  0  0  0
    2.6143    1.9906    0.0000 C   0  0  0  0  0  0  0  0  0  0  0  0
    3.8691    1.1687    0.0000 C   0  0  0  0  0  0  0  0  0  0  0  0
    3.7847   -0.3289    0.0000 C   0  0  0  0  0  0  0  0  0  0  0  0
    2.4455   -1.0046    0.0000 C   0  0  0  0  0  0  0  0  0  0  0  0
    2.3611   -2.5022    0.0000 Br  0  0  0  0  0  0  0  0  0  0  0  0
   -2.7424   -0.7122    0.0000 C   0  0  0  0  0  0  0  0  0  0  0  0
   -3.9972    0.1097    0.0000 C   0  0  0  0  0  0  0  0  0  0  0  0
   -3.9128    1.6074    0.0000 O   0  0  0  0  0  0  0  0  0  0  0  0
   -5.3364   -0.5660    0.0000 O   0  0  0  0  0  0  0  0  0  0  0  0
  1  2  1  0
  2  3  1  0
  3  4  2  0
  4  5  1  0
  5  6  2  0
  6  7  1  0
  7  8  2  0
  8  9  1  0
  1 10  1  0
 10 11  1  0
 11 12  2  0
 11 13  1  0
  8  3  1  0
M  END
>  <rName>  (2152) 
NBn2Br-G

>  <PQ_SYMBOL>  (2152) 
NBn2Br-G

>  <FULL_NAME>  (2152) 
(2-bromobenzyl)glycine

>  <IUPAC_CONDENSED>  (2152) 
Bn(2-Br)-Gly

>  <IUPAC>  (2152) 
2-(((2-bromophenyl)methyl)amino)acetic acid

>  <TYPE>  (2152) 
Backbone

>  <CLASS>  (2152) 
alpha

>  <ANALOG>  (2152) 
Gly

>  <MOL_WT>  (2152) 
244.08799999999997

>  <LOGP>  (2152) 
1.6233000000000002

>  <TPSA>  (2152) 
49.33

>  <POPULARITY>  (2152) 
10.1

>  <PROTECTED>  (2152) 
TRUE

>  <SMILES>  (2152) 
N(Cc1(ccccc1Br))CC(=O)O

>  <INCHIKEY>  (2152) 
KHUZHEPVJSJMMQ-UHFFFAOYSA-N

$$$$
NBn2Cl-G
     RDKit          2D

 13 13  0  0  0  0  0  0  0  0999 V2000
   -1.4032   -0.0365    0.0000 N   0  0  0  0  0  0  0  0  0  0  0  0
   -0.1485   -0.8584    0.0000 C   0  0  0  0  0  0  0  0  0  0  0  0
    1.1907   -0.1827    0.0000 C   0  0  0  0  0  0  0  0  0  0  0  0
    1.2751    1.3149    0.0000 C   0  0  0  0  0  0  0  0  0  0  0  0
    2.6143    1.9906    0.0000 C   0  0  0  0  0  0  0  0  0  0  0  0
    3.8691    1.1687    0.0000 C   0  0  0  0  0  0  0  0  0  0  0  0
    3.7847   -0.3289    0.0000 C   0  0  0  0  0  0  0  0  0  0  0  0
    2.4455   -1.0046    0.0000 C   0  0  0  0  0  0  0  0  0  0  0  0
    2.3611   -2.5022    0.0000 Cl  0  0  0  0  0  0  0  0  0  0  0  0
   -2.7424   -0.7122    0.0000 C   0  0  0  0  0  0  0  0  0  0  0  0
   -3.9972    0.1097    0.0000 C   0  0  0  0  0  0  0  0  0  0  0  0
   -3.9128    1.6074    0.0000 O   0  0  0  0  0  0  0  0  0  0  0  0
   -5.3364   -0.5660    0.0000 O   0  0  0  0  0  0  0  0  0  0  0  0
  1  2  1  0
  2  3  1  0
  3  4  2  0
  4  5  1  0
  5  6  2  0
  6  7  1  0
  7  8  2  0
  8  9  1  0
  1 10  1  0
 10 11  1  0
 11 12  2  0
 11 13  1  0
  8  3  1  0
M  END
>  <rName>  (2153) 
NBn2Cl-G

>  <PQ_SYMBOL>  (2153) 
NBn2Cl-G

>  <FULL_NAME>  (2153) 
(2-chlorobenzyl)glycine

>  <IUPAC_CONDENSED>  (2153) 
Bn(2-Cl)-Gly

>  <IUPAC>  (2153) 
2-(((2-chlorophenyl)methyl)amino)acetic acid

>  <TYPE>  (2153) 
Backbone

>  <CLASS>  (2153) 
alpha

>  <ANALOG>  (2153) 
Gly

>  <MOL_WT>  (2153) 
199.63699999999994

>  <LOGP>  (2153) 
1.5142

>  <TPSA>  (2153) 
49.33

>  <POPULARITY>  (2153) 
12.8

>  <PROTECTED>  (2153) 
TRUE

>  <SMILES>  (2153) 
N(Cc1(ccccc1Cl))CC(=O)O

>  <INCHIKEY>  (2153) 
CBQHOZRSTUYWGQ-UHFFFAOYSA-N

$$$$
NBn2F-G
     RDKit          2D

 13 13  0  0  0  0  0  0  0  0999 V2000
   -1.4032   -0.0365    0.0000 N   0  0  0  0  0  0  0  0  0  0  0  0
   -0.1485   -0.8584    0.0000 C   0  0  0  0  0  0  0  0  0  0  0  0
    1.1907   -0.1827    0.0000 C   0  0  0  0  0  0  0  0  0  0  0  0
    1.2751    1.3149    0.0000 C   0  0  0  0  0  0  0  0  0  0  0  0
    2.6143    1.9906    0.0000 C   0  0  0  0  0  0  0  0  0  0  0  0
    3.8691    1.1687    0.0000 C   0  0  0  0  0  0  0  0  0  0  0  0
    3.7847   -0.3289    0.0000 C   0  0  0  0  0  0  0  0  0  0  0  0
    2.4455   -1.0046    0.0000 C   0  0  0  0  0  0  0  0  0  0  0  0
    2.3611   -2.5022    0.0000 F   0  0  0  0  0  0  0  0  0  0  0  0
   -2.7424   -0.7122    0.0000 C   0  0  0  0  0  0  0  0  0  0  0  0
   -3.9972    0.1097    0.0000 C   0  0  0  0  0  0  0  0  0  0  0  0
   -3.9128    1.6074    0.0000 O   0  0  0  0  0  0  0  0  0  0  0  0
   -5.3364   -0.5660    0.0000 O   0  0  0  0  0  0  0  0  0  0  0  0
  1  2  1  0
  2  3  1  0
  3  4  2  0
  4  5  1  0
  5  6  2  0
  6  7  1  0
  7  8  2  0
  8  9  1  0
  1 10  1  0
 10 11  1  0
 11 12  2  0
 11 13  1  0
  8  3  1  0
M  END
>  <rName>  (2154) 
NBn2F-G

>  <PQ_SYMBOL>  (2154) 
NBn2F-G

>  <FULL_NAME>  (2154) 
(2-Fluoro-benzylamino)-acetic acid

>  <IUPAC_CONDENSED>  (2154) 
Bn(2-F)-Gly

>  <IUPAC>  (2154) 
2-[(2-fluorophenyl)methylamino]acetic acid

>  <TYPE>  (2154) 
Backbone

>  <CLASS>  (2154) 
alpha

>  <ANALOG>  (2154) 
Gly

>  <MOL_WT>  (2154) 
183.18199999999996

>  <LOGP>  (2154) 
0.9999

>  <TPSA>  (2154) 
49.33

>  <POPULARITY>  (2154) 
2.2

>  <PROTECTED>  (2154) 
TRUE

>  <SMILES>  (2154) 
N(Cc1(ccccc1F))CC(=O)O

>  <INCHIKEY>  (2154) 
IHEGXQRJGUZMSF-UHFFFAOYSA-N

$$$$
NBn2Me-G
     RDKit          2D

 13 13  0  0  0  0  0  0  0  0999 V2000
   -1.4032   -0.0365    0.0000 N   0  0  0  0  0  0  0  0  0  0  0  0
   -0.1485   -0.8584    0.0000 C   0  0  0  0  0  0  0  0  0  0  0  0
    1.1907   -0.1827    0.0000 C   0  0  0  0  0  0  0  0  0  0  0  0
    1.2751    1.3149    0.0000 C   0  0  0  0  0  0  0  0  0  0  0  0
    2.6143    1.9906    0.0000 C   0  0  0  0  0  0  0  0  0  0  0  0
    3.8691    1.1687    0.0000 C   0  0  0  0  0  0  0  0  0  0  0  0
    3.7847   -0.3289    0.0000 C   0  0  0  0  0  0  0  0  0  0  0  0
    2.4455   -1.0046    0.0000 C   0  0  0  0  0  0  0  0  0  0  0  0
    2.3611   -2.5022    0.0000 C   0  0  0  0  0  0  0  0  0  0  0  0
   -2.7424   -0.7122    0.0000 C   0  0  0  0  0  0  0  0  0  0  0  0
   -3.9972    0.1097    0.0000 C   0  0  0  0  0  0  0  0  0  0  0  0
   -3.9128    1.6074    0.0000 O   0  0  0  0  0  0  0  0  0  0  0  0
   -5.3364   -0.5660    0.0000 O   0  0  0  0  0  0  0  0  0  0  0  0
  1  2  1  0
  2  3  1  0
  3  4  2  0
  4  5  1  0
  5  6  2  0
  6  7  1  0
  7  8  2  0
  8  9  1  0
  1 10  1  0
 10 11  1  0
 11 12  2  0
 11 13  1  0
  8  3  1  0
M  END
>  <rName>  (2155) 
NBn2Me-G

>  <PQ_SYMBOL>  (2155) 
NBn2Me-G

>  <FULL_NAME>  (2155) 
(2-methylbenzyl)glycine

>  <IUPAC_CONDENSED>  (2155) 
Bn(2-Me)-Gly

>  <IUPAC>  (2155) 
2-(((2-methylphenyl)methyl)amino)acetic acid

>  <TYPE>  (2155) 
Backbone

>  <CLASS>  (2155) 
alpha

>  <ANALOG>  (2155) 
Gly

>  <MOL_WT>  (2155) 
179.21899999999997

>  <LOGP>  (2155) 
1.16922

>  <TPSA>  (2155) 
49.33

>  <POPULARITY>  (2155) 
15.3

>  <PROTECTED>  (2155) 
TRUE

>  <SMILES>  (2155) 
N(Cc1(ccccc1C))CC(=O)O

>  <INCHIKEY>  (2155) 
FSHQMEULJGMJPU-UHFFFAOYSA-N

$$$$
NBn2NO2-G
     RDKit          2D

 15 15  0  0  0  0  0  0  0  0999 V2000
   -1.7503    0.1627    0.0000 N   0  0  0  0  0  0  0  0  0  0  0  0
   -0.3962   -0.4827    0.0000 C   0  0  0  0  0  0  0  0  0  0  0  0
    0.8397    0.3672    0.0000 C   0  0  0  0  0  0  0  0  0  0  0  0
    0.7217    1.8626    0.0000 C   0  0  0  0  0  0  0  0  0  0  0  0
    1.9576    2.7125    0.0000 C   0  0  0  0  0  0  0  0  0  0  0  0
    3.3117    2.0671    0.0000 C   0  0  0  0  0  0  0  0  0  0  0  0
    3.4297    0.5717    0.0000 C   0  0  0  0  0  0  0  0  0  0  0  0
    2.1938   -0.2782    0.0000 C   0  0  0  0  0  0  0  0  0  0  0  0
    2.3118   -1.7735    0.0000 N   0  0  0  0  0  0  0  0  0  0  0  0
    1.0759   -2.6235    0.0000 O   0  0  0  0  0  0  0  0  0  0  0  0
    3.6659   -2.4190    0.0000 O   0  0  0  0  0  0  0  0  0  0  0  0
   -2.9863   -0.6872    0.0000 C   0  0  0  0  0  0  0  0  0  0  0  0
   -4.3403   -0.0418    0.0000 C   0  0  0  0  0  0  0  0  0  0  0  0
   -4.4584    1.4536    0.0000 O   0  0  0  0  0  0  0  0  0  0  0  0
   -5.5763   -0.8917    0.0000 O   0  0  0  0  0  0  0  0  0  0  0  0
  1  2  1  0
  2  3  1  0
  3  4  2  0
  4  5  1  0
  5  6  2  0
  6  7  1  0
  7  8  2  0
  8  9  1  0
  9 10  2  0
  9 11  1  0
  1 12  1  0
 12 13  1  0
 13 14  2  0
 13 15  1  0
  8  3  1  0
M  CHG  2   9   1  11  -1
M  END
>  <rName>  (2156) 
NBn2NO2-G

>  <PQ_SYMBOL>  (2156) 
NBn2NO2-G

>  <FULL_NAME>  (2156) 
(2-nitrobenzyl)glycine

>  <IUPAC_CONDENSED>  (2156) 
Bn(2-NO2)-Gly

>  <IUPAC>  (2156) 
2-(((2-nitrophenyl)methyl)amino)acetic acid

>  <TYPE>  (2156) 
Backbone

>  <CLASS>  (2156) 
alpha

>  <ANALOG>  (2156) 
Gly

>  <MOL_WT>  (2156) 
210.18899999999996

>  <LOGP>  (2156) 
0.7689999999999999

>  <TPSA>  (2156) 
92.47000000000001

>  <POPULARITY>  (2156) 
8.1

>  <PROTECTED>  (2156) 
TRUE

>  <SMILES>  (2156) 
N(Cc1(ccccc1[N+](=O)[O-]))CC(=O)O

>  <INCHIKEY>  (2156) 
PRJCIUDMDQNJCJ-UHFFFAOYSA-N

$$$$
NBn2OMe-G
     RDKit          2D

 14 14  0  0  0  0  0  0  0  0999 V2000
   -1.6735    0.0233    0.0000 N   0  0  0  0  0  0  0  0  0  0  0  0
   -0.3385   -0.6607    0.0000 C   0  0  0  0  0  0  0  0  0  0  0  0
    0.9213    0.1535    0.0000 C   0  0  0  0  0  0  0  0  0  0  0  0
    0.8462    1.6516    0.0000 C   0  0  0  0  0  0  0  0  0  0  0  0
    2.1060    2.4658    0.0000 C   0  0  0  0  0  0  0  0  0  0  0  0
    3.4410    1.7819    0.0000 C   0  0  0  0  0  0  0  0  0  0  0  0
    3.5162    0.2838    0.0000 C   0  0  0  0  0  0  0  0  0  0  0  0
    2.2563   -0.5304    0.0000 C   0  0  0  0  0  0  0  0  0  0  0  0
    2.3315   -2.0285    0.0000 O   0  0  0  0  0  0  0  0  0  0  0  0
    3.6665   -2.7125    0.0000 C   0  0  0  0  0  0  0  0  0  0  0  0
   -2.9333   -0.7909    0.0000 C   0  0  0  0  0  0  0  0  0  0  0  0
   -4.2683   -0.1070    0.0000 C   0  0  0  0  0  0  0  0  0  0  0  0
   -4.3435    1.3912    0.0000 O   0  0  0  0  0  0  0  0  0  0  0  0
   -5.5281   -0.9211    0.0000 O   0  0  0  0  0  0  0  0  0  0  0  0
  1  2  1  0
  2  3  1  0
  3  4  2  0
  4  5  1  0
  5  6  2  0
  6  7  1  0
  7  8  2  0
  8  9  1  0
  9 10  1  0
  1 11  1  0
 11 12  1  0
 12 13  2  0
 12 14  1  0
  8  3  1  0
M  END
>  <rName>  (2157) 
NBn2OMe-G

>  <PQ_SYMBOL>  (2157) 
NBn2OMe-G

>  <FULL_NAME>  (2157) 
N-(2-methoxybenzyl)glycine

>  <IUPAC_CONDENSED>  (2157) 
Bn(2-OMe)-Gly

>  <IUPAC>  (2157) 
2-[(2-methoxyphenyl)methylamino]acetic acid

>  <TYPE>  (2157) 
Backbone

>  <CLASS>  (2157) 
alpha

>  <ANALOG>  (2157) 
Gly

>  <MOL_WT>  (2157) 
195.21799999999996

>  <LOGP>  (2157) 
0.8694

>  <TPSA>  (2157) 
58.56

>  <POPULARITY>  (2157) 
2.2

>  <PROTECTED>  (2157) 
TRUE

>  <SMILES>  (2157) 
N(Cc1(ccccc1OC))CC(=O)O

>  <INCHIKEY>  (2157) 
GZWRFKISPFGGPQ-UHFFFAOYSA-N

$$$$
NBn3Br-G
     RDKit          2D

 13 13  0  0  0  0  0  0  0  0999 V2000
   -1.6091   -0.1426    0.0000 N   0  0  0  0  0  0  0  0  0  0  0  0
   -0.3532   -0.9628    0.0000 C   0  0  0  0  0  0  0  0  0  0  0  0
    0.9851   -0.2853    0.0000 C   0  0  0  0  0  0  0  0  0  0  0  0
    1.0675    1.2124    0.0000 C   0  0  0  0  0  0  0  0  0  0  0  0
    2.4057    1.8899    0.0000 C   0  0  0  0  0  0  0  0  0  0  0  0
    3.6616    1.0697    0.0000 C   0  0  0  0  0  0  0  0  0  0  0  0
    3.5792   -0.4280    0.0000 C   0  0  0  0  0  0  0  0  0  0  0  0
    4.8351   -1.2482    0.0000 Br  0  0  0  0  0  0  0  0  0  0  0  0
    2.2410   -1.1055    0.0000 C   0  0  0  0  0  0  0  0  0  0  0  0
   -2.9473   -0.8201    0.0000 C   0  0  0  0  0  0  0  0  0  0  0  0
   -4.2032    0.0001    0.0000 C   0  0  0  0  0  0  0  0  0  0  0  0
   -4.1208    1.4978    0.0000 O   0  0  0  0  0  0  0  0  0  0  0  0
   -5.5415   -0.6774    0.0000 O   0  0  0  0  0  0  0  0  0  0  0  0
  1  2  1  0
  2  3  1  0
  3  4  2  0
  4  5  1  0
  5  6  2  0
  6  7  1  0
  7  8  1  0
  7  9  2  0
  1 10  1  0
 10 11  1  0
 11 12  2  0
 11 13  1  0
  9  3  1  0
M  END
>  <rName>  (2158) 
NBn3Br-G

>  <PQ_SYMBOL>  (2158) 
NBn3Br-G

>  <FULL_NAME>  (2158) 
(3-bromobenzyl)glycine

>  <IUPAC_CONDENSED>  (2158) 
Bn(3-Br)-Gly

>  <IUPAC>  (2158) 
2-(((3-bromophenyl)methyl)amino)acetic acid

>  <TYPE>  (2158) 
Backbone

>  <CLASS>  (2158) 
alpha

>  <ANALOG>  (2158) 
Gly

>  <MOL_WT>  (2158) 
244.08799999999997

>  <LOGP>  (2158) 
1.6233

>  <TPSA>  (2158) 
49.33

>  <POPULARITY>  (2158) 
9.8

>  <PROTECTED>  (2158) 
TRUE

>  <SMILES>  (2158) 
N(Cc1(cccc(Br)c1))CC(=O)O

>  <INCHIKEY>  (2158) 
VQMCEIXNBBYYAF-UHFFFAOYSA-N

$$$$
NBn3Cl-G
     RDKit          2D

 13 13  0  0  0  0  0  0  0  0999 V2000
   -1.6091   -0.1426    0.0000 N   0  0  0  0  0  0  0  0  0  0  0  0
   -0.3532   -0.9628    0.0000 C   0  0  0  0  0  0  0  0  0  0  0  0
    0.9851   -0.2853    0.0000 C   0  0  0  0  0  0  0  0  0  0  0  0
    1.0675    1.2124    0.0000 C   0  0  0  0  0  0  0  0  0  0  0  0
    2.4057    1.8899    0.0000 C   0  0  0  0  0  0  0  0  0  0  0  0
    3.6616    1.0697    0.0000 C   0  0  0  0  0  0  0  0  0  0  0  0
    3.5792   -0.4280    0.0000 C   0  0  0  0  0  0  0  0  0  0  0  0
    4.8351   -1.2482    0.0000 Cl  0  0  0  0  0  0  0  0  0  0  0  0
    2.2410   -1.1055    0.0000 C   0  0  0  0  0  0  0  0  0  0  0  0
   -2.9473   -0.8201    0.0000 C   0  0  0  0  0  0  0  0  0  0  0  0
   -4.2032    0.0001    0.0000 C   0  0  0  0  0  0  0  0  0  0  0  0
   -4.1208    1.4978    0.0000 O   0  0  0  0  0  0  0  0  0  0  0  0
   -5.5415   -0.6774    0.0000 O   0  0  0  0  0  0  0  0  0  0  0  0
  1  2  1  0
  2  3  1  0
  3  4  2  0
  4  5  1  0
  5  6  2  0
  6  7  1  0
  7  8  1  0
  7  9  2  0
  1 10  1  0
 10 11  1  0
 11 12  2  0
 11 13  1  0
  9  3  1  0
M  END
>  <rName>  (2159) 
NBn3Cl-G

>  <PQ_SYMBOL>  (2159) 
NBn3Cl-G

>  <FULL_NAME>  (2159) 
(3-chlorobenzyl)glycine

>  <IUPAC_CONDENSED>  (2159) 
Bn(3-Cl)-Gly

>  <IUPAC>  (2159) 
2-(((3-chlorophenyl)methyl)amino)acetic acid

>  <TYPE>  (2159) 
Backbone

>  <CLASS>  (2159) 
alpha

>  <ANALOG>  (2159) 
Gly

>  <MOL_WT>  (2159) 
199.63699999999997

>  <LOGP>  (2159) 
1.5142

>  <TPSA>  (2159) 
49.33

>  <POPULARITY>  (2159) 
13.4

>  <PROTECTED>  (2159) 
TRUE

>  <SMILES>  (2159) 
N(Cc1(cccc(Cl)c1))CC(=O)O

>  <INCHIKEY>  (2159) 
AVQLNLPZBVURGB-UHFFFAOYSA-N

$$$$
NBn3F-G
     RDKit          2D

 13 13  0  0  0  0  0  0  0  0999 V2000
   -1.6091   -0.1426    0.0000 N   0  0  0  0  0  0  0  0  0  0  0  0
   -0.3532   -0.9628    0.0000 C   0  0  0  0  0  0  0  0  0  0  0  0
    0.9851   -0.2853    0.0000 C   0  0  0  0  0  0  0  0  0  0  0  0
    1.0675    1.2124    0.0000 C   0  0  0  0  0  0  0  0  0  0  0  0
    2.4057    1.8899    0.0000 C   0  0  0  0  0  0  0  0  0  0  0  0
    3.6616    1.0697    0.0000 C   0  0  0  0  0  0  0  0  0  0  0  0
    3.5792   -0.4280    0.0000 C   0  0  0  0  0  0  0  0  0  0  0  0
    4.8351   -1.2482    0.0000 F   0  0  0  0  0  0  0  0  0  0  0  0
    2.2410   -1.1055    0.0000 C   0  0  0  0  0  0  0  0  0  0  0  0
   -2.9473   -0.8201    0.0000 C   0  0  0  0  0  0  0  0  0  0  0  0
   -4.2032    0.0001    0.0000 C   0  0  0  0  0  0  0  0  0  0  0  0
   -4.1208    1.4978    0.0000 O   0  0  0  0  0  0  0  0  0  0  0  0
   -5.5415   -0.6774    0.0000 O   0  0  0  0  0  0  0  0  0  0  0  0
  1  2  1  0
  2  3  1  0
  3  4  2  0
  4  5  1  0
  5  6  2  0
  6  7  1  0
  7  8  1  0
  7  9  2  0
  1 10  1  0
 10 11  1  0
 11 12  2  0
 11 13  1  0
  9  3  1  0
M  END
>  <rName>  (2160) 
NBn3F-G

>  <PQ_SYMBOL>  (2160) 
NBn3F-G

>  <FULL_NAME>  (2160) 
(3-fluorobenzyl)glycine

>  <IUPAC_CONDENSED>  (2160) 
Bn(3-F)-Gly

>  <IUPAC>  (2160) 
2-(((3-fluorophenyl)methyl)amino)acetic acid

>  <TYPE>  (2160) 
Backbone

>  <CLASS>  (2160) 
alpha

>  <ANALOG>  (2160) 
Gly

>  <MOL_WT>  (2160) 
183.18199999999996

>  <LOGP>  (2160) 
0.9999000000000002

>  <TPSA>  (2160) 
49.33

>  <POPULARITY>  (2160) 
11.4

>  <PROTECTED>  (2160) 
TRUE

>  <SMILES>  (2160) 
N(Cc1(cccc(F)c1))CC(=O)O

>  <INCHIKEY>  (2160) 
FYGJHZLHWJYEAC-UHFFFAOYSA-N

$$$$
NBn3Me-G
     RDKit          2D

 13 13  0  0  0  0  0  0  0  0999 V2000
   -1.6091   -0.1426    0.0000 N   0  0  0  0  0  0  0  0  0  0  0  0
   -0.3532   -0.9628    0.0000 C   0  0  0  0  0  0  0  0  0  0  0  0
    0.9851   -0.2853    0.0000 C   0  0  0  0  0  0  0  0  0  0  0  0
    1.0675    1.2124    0.0000 C   0  0  0  0  0  0  0  0  0  0  0  0
    2.4057    1.8899    0.0000 C   0  0  0  0  0  0  0  0  0  0  0  0
    3.6616    1.0697    0.0000 C   0  0  0  0  0  0  0  0  0  0  0  0
    3.5792   -0.4280    0.0000 C   0  0  0  0  0  0  0  0  0  0  0  0
    4.8351   -1.2482    0.0000 C   0  0  0  0  0  0  0  0  0  0  0  0
    2.2410   -1.1055    0.0000 C   0  0  0  0  0  0  0  0  0  0  0  0
   -2.9473   -0.8201    0.0000 C   0  0  0  0  0  0  0  0  0  0  0  0
   -4.2032    0.0001    0.0000 C   0  0  0  0  0  0  0  0  0  0  0  0
   -4.1208    1.4978    0.0000 O   0  0  0  0  0  0  0  0  0  0  0  0
   -5.5415   -0.6774    0.0000 O   0  0  0  0  0  0  0  0  0  0  0  0
  1  2  1  0
  2  3  1  0
  3  4  2  0
  4  5  1  0
  5  6  2  0
  6  7  1  0
  7  8  1  0
  7  9  2  0
  1 10  1  0
 10 11  1  0
 11 12  2  0
 11 13  1  0
  9  3  1  0
M  END
>  <rName>  (2161) 
NBn3Me-G

>  <PQ_SYMBOL>  (2161) 
NBn3Me-G

>  <FULL_NAME>  (2161) 
(3-methylbenzyl)glycine

>  <IUPAC_CONDENSED>  (2161) 
Bn(3-Me)-Gly

>  <IUPAC>  (2161) 
2-(((3-methylphenyl)methyl)amino)acetic acid

>  <TYPE>  (2161) 
Backbone

>  <CLASS>  (2161) 
alpha

>  <ANALOG>  (2161) 
Gly

>  <MOL_WT>  (2161) 
179.21899999999997

>  <LOGP>  (2161) 
1.16922

>  <TPSA>  (2161) 
49.33

>  <POPULARITY>  (2161) 
15.2

>  <PROTECTED>  (2161) 
TRUE

>  <SMILES>  (2161) 
N(Cc1(cccc(C)c1))CC(=O)O

>  <INCHIKEY>  (2161) 
SGXUVYXVOSVNPH-UHFFFAOYSA-N

$$$$
NBn4Br-G
     RDKit          2D

 13 13  0  0  0  0  0  0  0  0999 V2000
   -1.6537   -0.1855    0.0000 N   0  0  0  0  0  0  0  0  0  0  0  0
   -0.4997   -1.1437    0.0000 C   0  0  0  0  0  0  0  0  0  0  0  0
    0.9072   -0.6234    0.0000 C   0  0  0  0  0  0  0  0  0  0  0  0
    1.1600    0.8552    0.0000 C   0  0  0  0  0  0  0  0  0  0  0  0
    2.5669    1.3755    0.0000 C   0  0  0  0  0  0  0  0  0  0  0  0
    3.7209    0.4173    0.0000 C   0  0  0  0  0  0  0  0  0  0  0  0
    5.1278    0.9376    0.0000 Br  0  0  0  0  0  0  0  0  0  0  0  0
    3.4681   -1.0612    0.0000 C   0  0  0  0  0  0  0  0  0  0  0  0
    2.0612   -1.5816    0.0000 C   0  0  0  0  0  0  0  0  0  0  0  0
   -3.0606   -0.7058    0.0000 C   0  0  0  0  0  0  0  0  0  0  0  0
   -4.2146    0.2524    0.0000 C   0  0  0  0  0  0  0  0  0  0  0  0
   -3.9618    1.7310    0.0000 O   0  0  0  0  0  0  0  0  0  0  0  0
   -5.6215   -0.2679    0.0000 O   0  0  0  0  0  0  0  0  0  0  0  0
  1  2  1  0
  2  3  1  0
  3  4  1  0
  4  5  2  0
  5  6  1  0
  6  7  1  0
  6  8  2  0
  8  9  1  0
  1 10  1  0
 10 11  1  0
 11 12  2  0
 11 13  1  0
  9  3  2  0
M  END
>  <rName>  (2162) 
NBn4Br-G

>  <PQ_SYMBOL>  (2162) 
NBn4Br-G

>  <FULL_NAME>  (2162) 
N-[(4-Bromophenyl)methyl]glycine

>  <IUPAC_CONDENSED>  (2162) 
Bn(4-Br)-Gly

>  <IUPAC>  (2162) 
2-(((4-bromophenyl)methyl)amino)acetic acid

>  <TYPE>  (2162) 
Backbone

>  <CLASS>  (2162) 
alpha

>  <ANALOG>  (2162) 
Gly

>  <MOL_WT>  (2162) 
244.08799999999997

>  <LOGP>  (2162) 
1.6233000000000002

>  <TPSA>  (2162) 
49.33

>  <POPULARITY>  (2162) 
8.4

>  <PROTECTED>  (2162) 
TRUE

>  <SMILES>  (2162) 
N(Cc1(ccc(Br)cc1))CC(=O)O

>  <INCHIKEY>  (2162) 
XZAVLWRLWHNWFP-UHFFFAOYSA-N

$$$$
NBn4CF3-G
     RDKit          2D

 16 16  0  0  0  0  0  0  0  0999 V2000
   -2.7241   -0.2035    0.0000 N   0  0  0  0  0  0  0  0  0  0  0  0
   -1.6400   -1.2402    0.0000 C   0  0  0  0  0  0  0  0  0  0  0  0
   -0.2001   -0.8197    0.0000 C   0  0  0  0  0  0  0  0  0  0  0  0
    0.1556    0.6375    0.0000 C   0  0  0  0  0  0  0  0  0  0  0  0
    1.5955    1.0580    0.0000 C   0  0  0  0  0  0  0  0  0  0  0  0
    2.6796    0.0213    0.0000 C   0  0  0  0  0  0  0  0  0  0  0  0
    2.3238   -1.4359    0.0000 C   0  0  0  0  0  0  0  0  0  0  0  0
    0.8840   -1.8564    0.0000 C   0  0  0  0  0  0  0  0  0  0  0  0
    4.1194    0.4419    0.0000 C   0  0  0  0  0  0  0  0  0  0  0  0
    5.5593    0.8624    0.0000 F   0  0  0  0  0  0  0  0  0  0  0  0
    4.5400   -0.9980    0.0000 F   0  0  0  0  0  0  0  0  0  0  0  0
    3.6989    1.8817    0.0000 F   0  0  0  0  0  0  0  0  0  0  0  0
   -4.1639   -0.6240    0.0000 C   0  0  0  0  0  0  0  0  0  0  0  0
   -5.2480    0.4127    0.0000 C   0  0  0  0  0  0  0  0  0  0  0  0
   -4.8923    1.8699    0.0000 O   0  0  0  0  0  0  0  0  0  0  0  0
   -6.6879   -0.0078    0.0000 O   0  0  0  0  0  0  0  0  0  0  0  0
  1  2  1  0
  2  3  1  0
  3  4  1  0
  4  5  2  0
  5  6  1  0
  6  7  2  0
  7  8  1  0
  6  9  1  0
  9 10  1  0
  9 11  1  0
  9 12  1  0
  1 13  1  0
 13 14  1  0
 14 15  2  0
 14 16  1  0
  8  3  2  0
M  END
>  <rName>  (2163) 
NBn4CF3-G

>  <PQ_SYMBOL>  (2163) 
NBn4CF3-G

>  <FULL_NAME>  (2163) 
(4-(trifluoromethyl)benzyl)glycine

>  <IUPAC_CONDENSED>  (2163) 
Bn(4-CF3)-Gly

>  <IUPAC>  (2163) 
2-(((4-(trifluoromethyl)phenyl)methyl)amino)acetic acid

>  <TYPE>  (2163) 
Backbone

>  <CLASS>  (2163) 
alpha

>  <ANALOG>  (2163) 
Gly

>  <MOL_WT>  (2163) 
233.18899999999994

>  <LOGP>  (2163) 
1.8796000000000002

>  <TPSA>  (2163) 
49.33

>  <POPULARITY>  (2163) 
9.3

>  <PROTECTED>  (2163) 
TRUE

>  <SMILES>  (2163) 
N(Cc1(ccc(cc1)C(F)(F)F))CC(=O)O

>  <INCHIKEY>  (2163) 
PWHUOSWTEIHEEV-UHFFFAOYSA-N

$$$$
NBn4Cl-G
     RDKit          2D

 13 13  0  0  0  0  0  0  0  0999 V2000
   -1.6537   -0.1855    0.0000 N   0  0  0  0  0  0  0  0  0  0  0  0
   -0.4997   -1.1437    0.0000 C   0  0  0  0  0  0  0  0  0  0  0  0
    0.9072   -0.6234    0.0000 C   0  0  0  0  0  0  0  0  0  0  0  0
    1.1600    0.8552    0.0000 C   0  0  0  0  0  0  0  0  0  0  0  0
    2.5669    1.3755    0.0000 C   0  0  0  0  0  0  0  0  0  0  0  0
    3.7209    0.4173    0.0000 C   0  0  0  0  0  0  0  0  0  0  0  0
    5.1278    0.9376    0.0000 Cl  0  0  0  0  0  0  0  0  0  0  0  0
    3.4681   -1.0612    0.0000 C   0  0  0  0  0  0  0  0  0  0  0  0
    2.0612   -1.5816    0.0000 C   0  0  0  0  0  0  0  0  0  0  0  0
   -3.0606   -0.7058    0.0000 C   0  0  0  0  0  0  0  0  0  0  0  0
   -4.2146    0.2524    0.0000 C   0  0  0  0  0  0  0  0  0  0  0  0
   -3.9618    1.7310    0.0000 O   0  0  0  0  0  0  0  0  0  0  0  0
   -5.6215   -0.2679    0.0000 O   0  0  0  0  0  0  0  0  0  0  0  0
  1  2  1  0
  2  3  1  0
  3  4  1  0
  4  5  2  0
  5  6  1  0
  6  7  1  0
  6  8  2  0
  8  9  1  0
  1 10  1  0
 10 11  1  0
 11 12  2  0
 11 13  1  0
  9  3  2  0
M  END
>  <rName>  (2164) 
NBn4Cl-G

>  <PQ_SYMBOL>  (2164) 
NBn4Cl-G

>  <FULL_NAME>  (2164) 
N-(4-chlorobenzyl)-glycine

>  <IUPAC_CONDENSED>  (2164) 
Bn(4-Cl)-Gly

>  <IUPAC>  (2164) 
2-(((4-chlorophenyl)methyl)amino)acetic acid

>  <TYPE>  (2164) 
Backbone

>  <CLASS>  (2164) 
alpha

>  <ANALOG>  (2164) 
Gly

>  <MOL_WT>  (2164) 
199.63699999999997

>  <LOGP>  (2164) 
1.5142

>  <TPSA>  (2164) 
49.33

>  <POPULARITY>  (2164) 
13.1

>  <PROTECTED>  (2164) 
TRUE

>  <SMILES>  (2164) 
N(Cc1(ccc(Cl)cc1))CC(=O)O

>  <INCHIKEY>  (2164) 
AEUCLXJGFMJQMP-UHFFFAOYSA-N

$$$$
NBn4F-G
     RDKit          2D

 13 13  0  0  0  0  0  0  0  0999 V2000
   -1.6537   -0.1855    0.0000 N   0  0  0  0  0  0  0  0  0  0  0  0
   -0.4997   -1.1437    0.0000 C   0  0  0  0  0  0  0  0  0  0  0  0
    0.9072   -0.6234    0.0000 C   0  0  0  0  0  0  0  0  0  0  0  0
    1.1600    0.8552    0.0000 C   0  0  0  0  0  0  0  0  0  0  0  0
    2.5669    1.3755    0.0000 C   0  0  0  0  0  0  0  0  0  0  0  0
    3.7209    0.4173    0.0000 C   0  0  0  0  0  0  0  0  0  0  0  0
    5.1278    0.9376    0.0000 F   0  0  0  0  0  0  0  0  0  0  0  0
    3.4681   -1.0612    0.0000 C   0  0  0  0  0  0  0  0  0  0  0  0
    2.0612   -1.5816    0.0000 C   0  0  0  0  0  0  0  0  0  0  0  0
   -3.0606   -0.7058    0.0000 C   0  0  0  0  0  0  0  0  0  0  0  0
   -4.2146    0.2524    0.0000 C   0  0  0  0  0  0  0  0  0  0  0  0
   -3.9618    1.7310    0.0000 O   0  0  0  0  0  0  0  0  0  0  0  0
   -5.6215   -0.2679    0.0000 O   0  0  0  0  0  0  0  0  0  0  0  0
  1  2  1  0
  2  3  1  0
  3  4  1  0
  4  5  2  0
  5  6  1  0
  6  7  1  0
  6  8  2  0
  8  9  1  0
  1 10  1  0
 10 11  1  0
 11 12  2  0
 11 13  1  0
  9  3  2  0
M  END
>  <rName>  (2165) 
NBn4F-G

>  <PQ_SYMBOL>  (2165) 
NBn4F-G

>  <FULL_NAME>  (2165) 
(4-fluorobenzyl)glycine

>  <IUPAC_CONDENSED>  (2165) 
Bn(4-F)-Gly

>  <IUPAC>  (2165) 
2-(((4-fluorophenyl)methyl)amino)acetic acid

>  <TYPE>  (2165) 
Backbone

>  <CLASS>  (2165) 
alpha

>  <ANALOG>  (2165) 
Gly

>  <MOL_WT>  (2165) 
183.18199999999996

>  <LOGP>  (2165) 
0.9999000000000002

>  <TPSA>  (2165) 
49.33

>  <POPULARITY>  (2165) 
10.5

>  <PROTECTED>  (2165) 
TRUE

>  <SMILES>  (2165) 
N(Cc1(ccc(F)cc1))CC(=O)O

>  <INCHIKEY>  (2165) 
NWZUJCANYJTQFS-UHFFFAOYSA-N

$$$$
NBn4NO2-G
     RDKit          2D

 15 15  0  0  0  0  0  0  0  0999 V2000
   -2.4475   -0.1997    0.0000 N   0  0  0  0  0  0  0  0  0  0  0  0
   -1.3526   -1.2250    0.0000 C   0  0  0  0  0  0  0  0  0  0  0  0
    0.0828   -0.7894    0.0000 C   0  0  0  0  0  0  0  0  0  0  0  0
    0.4233    0.6715    0.0000 C   0  0  0  0  0  0  0  0  0  0  0  0
    1.8586    1.1071    0.0000 C   0  0  0  0  0  0  0  0  0  0  0  0
    2.9535    0.0818    0.0000 C   0  0  0  0  0  0  0  0  0  0  0  0
    2.6131   -1.3791    0.0000 C   0  0  0  0  0  0  0  0  0  0  0  0
    1.1777   -1.8147    0.0000 C   0  0  0  0  0  0  0  0  0  0  0  0
    4.3889    0.5174    0.0000 N   0  0  0  0  0  0  0  0  0  0  0  0
    4.7293    1.9782    0.0000 O   0  0  0  0  0  0  0  0  0  0  0  0
    5.4838   -0.5079    0.0000 O   0  0  0  0  0  0  0  0  0  0  0  0
   -3.8828   -0.6353    0.0000 C   0  0  0  0  0  0  0  0  0  0  0  0
   -4.9777    0.3899    0.0000 C   0  0  0  0  0  0  0  0  0  0  0  0
   -4.6373    1.8508    0.0000 O   0  0  0  0  0  0  0  0  0  0  0  0
   -6.4131   -0.0456    0.0000 O   0  0  0  0  0  0  0  0  0  0  0  0
  1  2  1  0
  2  3  1  0
  3  4  1  0
  4  5  2  0
  5  6  1  0
  6  7  2  0
  7  8  1  0
  6  9  1  0
  9 10  2  0
  9 11  1  0
  1 12  1  0
 12 13  1  0
 13 14  2  0
 13 15  1  0
  8  3  2  0
M  CHG  2   9   1  11  -1
M  END
>  <rName>  (2166) 
NBn4NO2-G

>  <PQ_SYMBOL>  (2166) 
NBn4NO2-G

>  <FULL_NAME>  (2166) 
(4-nitrobenzyl)glycine

>  <IUPAC_CONDENSED>  (2166) 
Bn(4-NO2)-Gly

>  <IUPAC>  (2166) 
2-(((4-nitrophenyl)methyl)amino)acetic acid

>  <TYPE>  (2166) 
Backbone

>  <CLASS>  (2166) 
alpha

>  <ANALOG>  (2166) 
Gly

>  <MOL_WT>  (2166) 
210.18899999999996

>  <LOGP>  (2166) 
0.7690000000000001

>  <TPSA>  (2166) 
92.47000000000001

>  <POPULARITY>  (2166) 
8.6

>  <PROTECTED>  (2166) 
TRUE

>  <SMILES>  (2166) 
N(Cc1(ccc(cc1)[N+](=O)[O-]))CC(=O)O

>  <INCHIKEY>  (2166) 
WNQZQOVOWAVAHI-UHFFFAOYSA-N

$$$$
NBn4OH-G
     RDKit          2D

 13 13  0  0  0  0  0  0  0  0999 V2000
   -1.6537   -0.1855    0.0000 N   0  0  0  0  0  0  0  0  0  0  0  0
   -0.4997   -1.1437    0.0000 C   0  0  0  0  0  0  0  0  0  0  0  0
    0.9072   -0.6234    0.0000 C   0  0  0  0  0  0  0  0  0  0  0  0
    1.1600    0.8552    0.0000 C   0  0  0  0  0  0  0  0  0  0  0  0
    2.5669    1.3755    0.0000 C   0  0  0  0  0  0  0  0  0  0  0  0
    3.7209    0.4173    0.0000 C   0  0  0  0  0  0  0  0  0  0  0  0
    5.1278    0.9376    0.0000 O   0  0  0  0  0  0  0  0  0  0  0  0
    3.4681   -1.0612    0.0000 C   0  0  0  0  0  0  0  0  0  0  0  0
    2.0612   -1.5816    0.0000 C   0  0  0  0  0  0  0  0  0  0  0  0
   -3.0606   -0.7058    0.0000 C   0  0  0  0  0  0  0  0  0  0  0  0
   -4.2146    0.2524    0.0000 C   0  0  0  0  0  0  0  0  0  0  0  0
   -3.9618    1.7310    0.0000 O   0  0  0  0  0  0  0  0  0  0  0  0
   -5.6215   -0.2679    0.0000 O   0  0  0  0  0  0  0  0  0  0  0  0
  1  2  1  0
  2  3  1  0
  3  4  1  0
  4  5  2  0
  5  6  1  0
  6  7  1  0
  6  8  2  0
  8  9  1  0
  1 10  1  0
 10 11  1  0
 11 12  2  0
 11 13  1  0
  9  3  2  0
M  END
>  <rName>  (2167) 
NBn4OH-G

>  <PQ_SYMBOL>  (2167) 
NBn4OH-G

>  <FULL_NAME>  (2167) 
2-[(4-hydroxyphenyl)methylamino]acetic acid

>  <IUPAC_CONDENSED>  (2167) 
Bn(4-OH)-Gly

>  <IUPAC>  (2167) 
2-(((4-hydroxyphenyl)methyl)amino)acetic acid

>  <TYPE>  (2167) 
Backbone

>  <CLASS>  (2167) 
alpha

>  <ANALOG>  (2167) 
Gly

>  <MOL_WT>  (2167) 
181.19099999999995

>  <LOGP>  (2167) 
0.5664

>  <TPSA>  (2167) 
69.56

>  <POPULARITY>  (2167) 
17.9

>  <PROTECTED>  (2167) 
TRUE

>  <SMILES>  (2167) 
N(Cc1(ccc(O)cc1))CC(=O)O

>  <INCHIKEY>  (2167) 
BUOQVRZPWJORPW-UHFFFAOYSA-N

$$$$
NBu-G
     RDKit          2D

  9  8  0  0  0  0  0  0  0  0999 V2000
   -0.2960    0.1534    0.0000 N   0  0  0  0  0  0  0  0  0  0  0  0
    1.0358   -0.5368    0.0000 C   0  0  0  0  0  0  0  0  0  0  0  0
    2.2994    0.2714    0.0000 C   0  0  0  0  0  0  0  0  0  0  0  0
    3.6312   -0.4188    0.0000 C   0  0  0  0  0  0  0  0  0  0  0  0
    4.8948    0.3895    0.0000 C   0  0  0  0  0  0  0  0  0  0  0  0
   -1.5596   -0.6549    0.0000 C   0  0  0  0  0  0  0  0  0  0  0  0
   -2.8913    0.0353    0.0000 C   0  0  0  0  0  0  0  0  0  0  0  0
   -2.9595    1.5338    0.0000 O   0  0  0  0  0  0  0  0  0  0  0  0
   -4.1550   -0.7729    0.0000 O   0  0  0  0  0  0  0  0  0  0  0  0
  1  2  1  0
  2  3  1  0
  3  4  1  0
  4  5  1  0
  1  6  1  0
  6  7  1  0
  7  8  2  0
  7  9  1  0
M  END
>  <rName>  (2168) 
NBu-G

>  <PQ_SYMBOL>  (2168) 
NBu-G

>  <FULL_NAME>  (2168) 
N-butylglycine

>  <IUPAC_CONDENSED>  (2168) 
Bu-Gly

>  <IUPAC>  (2168) 
2-(butylamino)acetic acid

>  <TYPE>  (2168) 
Backbone

>  <CLASS>  (2168) 
alpha

>  <ANALOG>  (2168) 
Gly

>  <MOL_WT>  (2168) 
131.175

>  <LOGP>  (2168) 
0.46069999999999983

>  <TPSA>  (2168) 
49.33

>  <POPULARITY>  (2168) 
26.6

>  <PROTECTED>  (2168) 
TRUE

>  <SMILES>  (2168) 
N(CCCC)CC(=O)O

>  <INCHIKEY>  (2168) 
RRWZZMHRVSMLCT-UHFFFAOYSA-N

$$$$
NBuN3-G
     RDKit          2D

 12 11  0  0  0  0  0  0  0  0999 V2000
   -2.1642    0.1387    0.0000 N   0  0  0  0  0  0  0  0  0  0  0  0
   -0.8700   -0.6195    0.0000 C   0  0  0  0  0  0  0  0  0  0  0  0
    0.4338    0.1223    0.0000 C   0  0  0  0  0  0  0  0  0  0  0  0
    1.7281   -0.6360    0.0000 C   0  0  0  0  0  0  0  0  0  0  0  0
    3.0318    0.1058    0.0000 C   0  0  0  0  0  0  0  0  0  0  0  0
    4.3261   -0.6524    0.0000 N   0  0  0  0  0  0  0  0  0  0  0  0
    5.6298    0.0893    0.0000 N   0  0  0  0  0  0  0  0  0  0  0  0
    6.9336    0.8311    0.0000 N   0  0  0  0  0  0  0  0  0  0  0  0
   -3.4680   -0.6030    0.0000 C   0  0  0  0  0  0  0  0  0  0  0  0
   -4.7623    0.1552    0.0000 C   0  0  0  0  0  0  0  0  0  0  0  0
   -4.7527    1.6552    0.0000 O   0  0  0  0  0  0  0  0  0  0  0  0
   -6.0660   -0.5866    0.0000 O   0  0  0  0  0  0  0  0  0  0  0  0
  1  2  1  0
  2  3  1  0
  3  4  1  0
  4  5  1  0
  5  6  1  0
  6  7  2  0
  7  8  2  0
  1  9  1  0
  9 10  1  0
 10 11  2  0
 10 12  1  0
M  CHG  2   7   1   8  -1
M  END
>  <rName>  (2169) 
NBuN3-G

>  <PQ_SYMBOL>  (2169) 
NBuN3-G

>  <FULL_NAME>  (2169) 
2-(4-Azidobutylamino)acetic acid

>  <IUPAC_CONDENSED>  (2169) 
BuN3-Gly

>  <IUPAC>  (2169) 
2-(4-azidobutylamino)acetic acid

>  <TYPE>  (2169) 
Backbone

>  <CLASS>  (2169) 
alpha

>  <ANALOG>  (2169) 
Gly

>  <MOL_WT>  (2169) 
172.18800000000002

>  <LOGP>  (2169) 
0.7511000000000001

>  <TPSA>  (2169) 
98.09000000000002

>  <POPULARITY>  (2169) 
3.5

>  <PROTECTED>  (2169) 
TRUE

>  <SMILES>  (2169) 
N(CCCCN=[N+]=[N-])CC(=O)O

>  <INCHIKEY>  (2169) 
KNJYUFWMLJNTGU-UHFFFAOYSA-N

$$$$
NBuNH2-6-Ahx
     RDKit          2D

 15 14  0  0  0  0  0  0  0  0999 V2000
    1.5372   -0.4764    0.0000 N   0  0  0  0  0  0  0  0  0  0  0  0
    2.8717    0.2085    0.0000 C   0  0  0  0  0  0  0  0  0  0  0  0
    2.9457    1.7067    0.0000 O   0  0  0  0  0  0  0  0  0  0  0  0
    4.1321   -0.6047    0.0000 C   0  0  0  0  0  0  0  0  0  0  0  0
    5.4666    0.0803    0.0000 C   0  0  0  0  0  0  0  0  0  0  0  0
    6.7270   -0.7329    0.0000 C   0  0  0  0  0  0  0  0  0  0  0  0
    8.0615   -0.0479    0.0000 N   0  0  0  0  0  0  0  0  0  0  0  0
    0.2768    0.3368    0.0000 C   0  0  0  0  0  0  0  0  0  0  0  0
   -1.0577   -0.3482    0.0000 C   0  0  0  0  0  0  0  0  0  0  0  0
   -2.3181    0.4650    0.0000 C   0  0  0  0  0  0  0  0  0  0  0  0
   -3.6526   -0.2200    0.0000 C   0  0  0  0  0  0  0  0  0  0  0  0
   -4.9131    0.5932    0.0000 C   0  0  0  0  0  0  0  0  0  0  0  0
   -6.2475   -0.0918    0.0000 C   0  0  0  0  0  0  0  0  0  0  0  0
   -6.3215   -1.5900    0.0000 O   0  0  0  0  0  0  0  0  0  0  0  0
   -7.5080    0.7214    0.0000 O   0  0  0  0  0  0  0  0  0  0  0  0
  1  2  1  0
  2  3  2  0
  2  4  1  0
  4  5  1  0
  5  6  1  0
  6  7  1  0
  1  8  1  0
  8  9  1  0
  9 10  1  0
 10 11  1  0
 11 12  1  0
 12 13  1  0
 13 14  2  0
 13 15  1  0
M  END
>  <rName>  (2170) 
NBuNH2-6-Ahx

>  <PQ_SYMBOL>  (2170) 
NBuNH2-6-Ahx

>  <FULL_NAME>  (2170) 
6-(4-Aminobutanamido)hexanoic acid

>  <IUPAC_CONDENSED>  (2170) 
H2NBu-6-Ahx

>  <IUPAC>  (2170) 
6-(3-aminopropylcarbonylamino)hexanoic acid

>  <TYPE>  (2170) 
Backbone

>  <CLASS>  (2170) 
epsilon

>  <ANALOG>  (2170) 
Gly

>  <MOL_WT>  (2170) 
216.28099999999998

>  <LOGP>  (2170) 
0.48649999999999965

>  <TPSA>  (2170) 
92.42

>  <POPULARITY>  (2170) 
9.5

>  <PROTECTED>  (2170) 
TRUE

>  <SMILES>  (2170) 
N(C(=O)CCCN)CCCCCC(=O)O

>  <INCHIKEY>  (2170) 
RJXZMHVOZCBGSF-UHFFFAOYSA-N

$$$$
NBuNH2-G
     RDKit          2D

 10  9  0  0  0  0  0  0  0  0999 V2000
    0.9213   -0.1695    0.0000 N   0  0  0  0  0  0  0  0  0  0  0  0
   -0.4208    0.5004    0.0000 C   0  0  0  0  0  0  0  0  0  0  0  0
   -1.6720   -0.3269    0.0000 C   0  0  0  0  0  0  0  0  0  0  0  0
   -3.0141    0.3430    0.0000 C   0  0  0  0  0  0  0  0  0  0  0  0
   -4.2653   -0.4843    0.0000 C   0  0  0  0  0  0  0  0  0  0  0  0
   -5.6074    0.1857    0.0000 N   0  0  0  0  0  0  0  0  0  0  0  0
    2.1725    0.6578    0.0000 C   0  0  0  0  0  0  0  0  0  0  0  0
    3.5146   -0.0121    0.0000 C   0  0  0  0  0  0  0  0  0  0  0  0
    3.6055   -1.5094    0.0000 O   0  0  0  0  0  0  0  0  0  0  0  0
    4.7658    0.8152    0.0000 O   0  0  0  0  0  0  0  0  0  0  0  0
  1  2  1  0
  2  3  1  0
  3  4  1  0
  4  5  1  0
  5  6  1  0
  1  7  1  0
  7  8  1  0
  8  9  2  0
  8 10  1  0
M  END
>  <rName>  (2171) 
NBuNH2-G

>  <PQ_SYMBOL>  (2171) 
NBuNH2-G

>  <FULL_NAME>  (2171) 
N-(4-aminobutyl)-Glycine

>  <IUPAC_CONDENSED>  (2171) 
NH2Bu-Gly

>  <IUPAC>  (2171) 
2-((4-aminobutyl)amino)acetic acid

>  <TYPE>  (2171) 
Backbone

>  <CLASS>  (2171) 
alpha

>  <ANALOG>  (2171) 
Gly

>  <MOL_WT>  (2171) 
146.19000000000003

>  <LOGP>  (2171) 
-0.6004999999999998

>  <TPSA>  (2171) 
75.35

>  <POPULARITY>  (2171) 
35.2

>  <PROTECTED>  (2171) 
TRUE

>  <SMILES>  (2171) 
N(CCCCN)CC(=O)O

>  <INCHIKEY>  (2171) 
OGAULEBSQQMUKP-UHFFFAOYSA-N

$$$$
NCF3CH2-G
     RDKit          2D

 10  9  0  0  0  0  0  0  0  0999 V2000
   -0.2598    0.0000    0.0000 N   0  0  0  0  0  0  0  0  0  0  0  0
    1.0392   -0.7500    0.0000 C   0  0  0  0  0  0  0  0  0  0  0  0
    2.3383   -0.0000    0.0000 C   0  0  0  0  0  0  0  0  0  0  0  0
    3.6373    0.7500    0.0000 F   0  0  0  0  0  0  0  0  0  0  0  0
    3.0883   -1.2990    0.0000 F   0  0  0  0  0  0  0  0  0  0  0  0
    1.5883    1.2990    0.0000 F   0  0  0  0  0  0  0  0  0  0  0  0
   -1.5588   -0.7500    0.0000 C   0  0  0  0  0  0  0  0  0  0  0  0
   -2.8579    0.0000    0.0000 C   0  0  0  0  0  0  0  0  0  0  0  0
   -2.8579    1.5000    0.0000 O   0  0  0  0  0  0  0  0  0  0  0  0
   -4.1569   -0.7500    0.0000 O   0  0  0  0  0  0  0  0  0  0  0  0
  1  2  1  0
  2  3  1  0
  3  4  1  0
  3  5  1  0
  3  6  1  0
  1  7  1  0
  7  8  1  0
  8  9  2  0
  8 10  1  0
M  END
>  <rName>  (2172) 
NCF3CH2-G

>  <PQ_SYMBOL>  (2172) 
NCF3CH2-G

>  <FULL_NAME>  (2172) 
(2,2,2-trifluoroethyl)glycine

>  <IUPAC_CONDENSED>  (2172) 
CF3CH2-Gly

>  <IUPAC>  (2172) 
2-((2,2,2-trifluoroethyl)amino)acetic acid

>  <TYPE>  (2172) 
Backbone

>  <CLASS>  (2172) 
alpha

>  <ANALOG>  (2172) 
Gly

>  <MOL_WT>  (2172) 
157.091

>  <LOGP>  (2172) 
0.22289999999999982

>  <TPSA>  (2172) 
49.33

>  <POPULARITY>  (2172) 
11.8

>  <PROTECTED>  (2172) 
TRUE

>  <SMILES>  (2172) 
N(CC(F)(F)F)CC(=O)O

>  <INCHIKEY>  (2172) 
ULINGFKOGLHDJP-UHFFFAOYSA-N

$$$$
NCH2CHF2-G
     RDKit          2D

  9  8  0  0  0  0  0  0  0  0999 V2000
    0.0000    0.0000    0.0000 N   0  0  0  0  0  0  0  0  0  0  0  0
    1.2990   -0.7500    0.0000 C   0  0  0  0  0  0  0  0  0  0  0  0
    2.5981   -0.0000    0.0000 C   0  0  0  0  0  0  0  0  0  0  0  0
    3.8971   -0.7500    0.0000 F   0  0  0  0  0  0  0  0  0  0  0  0
    2.5981    1.5000    0.0000 F   0  0  0  0  0  0  0  0  0  0  0  0
   -1.2990   -0.7500    0.0000 C   0  0  0  0  0  0  0  0  0  0  0  0
   -2.5981    0.0000    0.0000 C   0  0  0  0  0  0  0  0  0  0  0  0
   -2.5981    1.5000    0.0000 O   0  0  0  0  0  0  0  0  0  0  0  0
   -3.8971   -0.7500    0.0000 O   0  0  0  0  0  0  0  0  0  0  0  0
  1  2  1  0
  2  3  1  0
  3  4  1  0
  3  5  1  0
  1  6  1  0
  6  7  1  0
  7  8  2  0
  7  9  1  0
M  END
>  <rName>  (2173) 
NCH2CHF2-G

>  <PQ_SYMBOL>  (2173) 
NCH2CHF2-G

>  <FULL_NAME>  (2173) 
Difluoroethylglycine

>  <IUPAC_CONDENSED>  (2173) 
CH2CHF2-Gly

>  <IUPAC>  (2173) 
2-((2,2-difluoroethyl)amino)acetic acid

>  <TYPE>  (2173) 
Backbone

>  <CLASS>  (2173) 
alpha

>  <ANALOG>  (2173) 
Gly

>  <MOL_WT>  (2173) 
139.101

>  <LOGP>  (2173) 
-0.07430000000000031

>  <TPSA>  (2173) 
49.33

>  <POPULARITY>  (2173) 
11.2

>  <PROTECTED>  (2173) 
TRUE

>  <SMILES>  (2173) 
N(CC(F)F)CC(=O)O

>  <INCHIKEY>  (2173) 
YFCOMGKRSHQPEM-UHFFFAOYSA-N

$$$$
NCH2CN-G
     RDKit          2D

  8  7  0  0  0  0  0  0  0  0999 V2000
    0.3245   -0.0130    0.0000 N   0  0  0  0  0  0  0  0  0  0  0  0
    1.5925   -0.8143    0.0000 C   0  0  0  0  0  0  0  0  0  0  0  0
    2.9205   -0.1168    0.0000 C   0  0  0  0  0  0  0  0  0  0  0  0
    4.2485    0.5807    0.0000 N   0  0  0  0  0  0  0  0  0  0  0  0
   -1.0035   -0.7105    0.0000 C   0  0  0  0  0  0  0  0  0  0  0  0
   -2.2715    0.0908    0.0000 C   0  0  0  0  0  0  0  0  0  0  0  0
   -2.2116    1.5896    0.0000 O   0  0  0  0  0  0  0  0  0  0  0  0
   -3.5995   -0.6067    0.0000 O   0  0  0  0  0  0  0  0  0  0  0  0
  1  2  1  0
  2  3  1  0
  3  4  3  0
  1  5  1  0
  5  6  1  0
  6  7  2  0
  6  8  1  0
M  END
>  <rName>  (2174) 
NCH2CN-G

>  <PQ_SYMBOL>  (2174) 
NCH2CN-G

>  <FULL_NAME>  (2174) 
N-(cyanomethyl)glycine

>  <IUPAC_CONDENSED>  (2174) 
CH2CN-Gly

>  <IUPAC>  (2174) 
2-((2-nitriloethyl)amino)acetic acid

>  <TYPE>  (2174) 
Backbone

>  <CLASS>  (2174) 
alpha

>  <ANALOG>  (2174) 
Gly

>  <MOL_WT>  (2174) 
114.10399999999998

>  <LOGP>  (2174) 
-0.81582

>  <TPSA>  (2174) 
73.12

>  <POPULARITY>  (2174) 
7.7

>  <PROTECTED>  (2174) 
TRUE

>  <SMILES>  (2174) 
N(CC#N)CC(=O)O

>  <INCHIKEY>  (2174) 
QGLKBDIZFCYGIX-UHFFFAOYSA-N

$$$$
NEt-5-Ava
     RDKit          2D

 10  9  0  0  0  0  0  0  0  0999 V2000
   -3.0141   -0.3430    0.0000 N   0  0  0  0  0  0  0  0  0  0  0  0
   -4.2653    0.4843    0.0000 C   0  0  0  0  0  0  0  0  0  0  0  0
   -5.6074   -0.1857    0.0000 C   0  0  0  0  0  0  0  0  0  0  0  0
   -1.6720    0.3269    0.0000 C   0  0  0  0  0  0  0  0  0  0  0  0
   -0.4208   -0.5004    0.0000 C   0  0  0  0  0  0  0  0  0  0  0  0
    0.9213    0.1695    0.0000 C   0  0  0  0  0  0  0  0  0  0  0  0
    2.1725   -0.6578    0.0000 C   0  0  0  0  0  0  0  0  0  0  0  0
    3.5146    0.0121    0.0000 C   0  0  0  0  0  0  0  0  0  0  0  0
    3.6055    1.5094    0.0000 O   0  0  0  0  0  0  0  0  0  0  0  0
    4.7658   -0.8152    0.0000 O   0  0  0  0  0  0  0  0  0  0  0  0
  1  2  1  0
  2  3  1  0
  1  4  1  0
  4  5  1  0
  5  6  1  0
  6  7  1  0
  7  8  1  0
  8  9  2  0
  8 10  1  0
M  END
>  <rName>  (2175) 
NEt-5-Ava

>  <PQ_SYMBOL>  (2175) 
NEt-5-Ava

>  <FULL_NAME>  (2175) 
5-(Ethylamino)pentanoic acid

>  <IUPAC_CONDENSED>  (2175) 
Et-5-Ava

>  <IUPAC>  (2175) 
5-(ethylamino)pentanoic acid

>  <TYPE>  (2175) 
Backbone

>  <CLASS>  (2175) 
delta

>  <ANALOG>  (2175) 
Gly

>  <MOL_WT>  (2175) 
145.202

>  <LOGP>  (2175) 
0.8507999999999998

>  <TPSA>  (2175) 
49.33

>  <POPULARITY>  (2175) 
16.4

>  <PROTECTED>  (2175) 
TRUE

>  <SMILES>  (2175) 
N(CC)CCCCC(=O)O

>  <INCHIKEY>  (2175) 
PVCJCCPKWQZJOB-UHFFFAOYSA-N

$$$$
NEt-A
     RDKit          2D

  8  7  0  0  0  0  0  0  0  0999 V2000
   -0.9331   -0.9230    0.0000 N   0  0  0  0  0  0  0  0  0  0  0  0
   -1.8248    0.2832    0.0000 C   0  0  0  0  0  0  0  0  0  0  0  0
   -3.3153    0.1141    0.0000 C   0  0  0  0  0  0  0  0  0  0  0  0
    0.5573   -0.7539    0.0000 C   0  0  0  0  0  0  0  0  0  0  0  0
    1.4490   -1.9601    0.0000 C   0  0  0  0  0  0  0  0  0  0  0  0
    1.1561    0.6215    0.0000 C   0  0  0  0  0  0  0  0  0  0  0  0
    0.2644    1.8276    0.0000 O   0  0  0  0  0  0  0  0  0  0  0  0
    2.6465    0.7906    0.0000 O   0  0  0  0  0  0  0  0  0  0  0  0
  1  2  1  0
  2  3  1  0
  1  4  1  0
  4  5  1  6
  4  6  1  0
  6  7  2  0
  6  8  1  0
M  END
>  <rName>  (2176) 
NEt-A

>  <PQ_SYMBOL>  (2176) 
NEt-A

>  <FULL_NAME>  (2176) 
N-Ethylalanine

>  <IUPAC_CONDENSED>  (2176) 
Et-Ala

>  <IUPAC>  (2176) 
(2S)-2-(ethylamino)propanoic acid

>  <TYPE>  (2176) 
Backbone

>  <CLASS>  (2176) 
alpha

>  <ANALOG>  (2176) 
Ala

>  <MOL_WT>  (2176) 
117.14799999999998

>  <LOGP>  (2176) 
0.06900000000000012

>  <TPSA>  (2176) 
49.33

>  <POPULARITY>  (2176) 
18.8

>  <PROTECTED>  (2176) 
TRUE

>  <SMILES>  (2176) 
N(CC)[C@@H](C)C(=O)O

>  <INCHIKEY>  (2176) 
DATPFTPVGIHCCM-BYPYZUCNSA-N

$$$$
NEt-Aib
     RDKit          2D

  9  8  0  0  0  0  0  0  0  0999 V2000
   -1.1986   -0.6515    0.0000 N   0  0  0  0  0  0  0  0  0  0  0  0
   -2.2832    0.3846    0.0000 C   0  0  0  0  0  0  0  0  0  0  0  0
   -3.7229   -0.0367    0.0000 C   0  0  0  0  0  0  0  0  0  0  0  0
    0.2410   -0.2302    0.0000 C   0  0  0  0  0  0  0  0  0  0  0  0
    0.6623   -1.6699    0.0000 C   0  0  0  0  0  0  0  0  0  0  0  0
   -0.1803    1.2094    0.0000 C   0  0  0  0  0  0  0  0  0  0  0  0
    1.6807    0.1911    0.0000 C   0  0  0  0  0  0  0  0  0  0  0  0
    2.7653   -0.8450    0.0000 O   0  0  0  0  0  0  0  0  0  0  0  0
    2.0356    1.6484    0.0000 O   0  0  0  0  0  0  0  0  0  0  0  0
  1  2  1  0
  2  3  1  0
  1  4  1  0
  4  5  1  0
  4  6  1  0
  4  7  1  0
  7  8  2  0
  7  9  1  0
M  END
>  <rName>  (2177) 
NEt-Aib

>  <PQ_SYMBOL>  (2177) 
NEt-Aib

>  <FULL_NAME>  (2177) 
2-Ethylamino-2-methylpropionic acid

>  <IUPAC_CONDENSED>  (2177) 
Et-Aib

>  <IUPAC>  (2177) 
2-(ethylamino)-2-methylpropanoic acid

>  <TYPE>  (2177) 
Backbone

>  <CLASS>  (2177) 
alpha

>  <ANALOG>  (2177) 
Ala

>  <MOL_WT>  (2177) 
131.17499999999998

>  <LOGP>  (2177) 
0.4591

>  <TPSA>  (2177) 
49.33

>  <POPULARITY>  (2177) 
2.2

>  <PROTECTED>  (2177) 
TRUE

>  <SMILES>  (2177) 
N(CC)C(C)(C)C(=O)O

>  <INCHIKEY>  (2177) 
MYIUHRPGMOFDKD-UHFFFAOYSA-N

$$$$
NEt-Chg
     RDKit          2D

 13 13  0  0  0  0  0  0  0  0999 V2000
    1.6284    1.0564    0.0000 N   0  0  0  0  0  0  0  0  0  0  0  0
    3.1098    0.8208    0.0000 C   0  0  0  0  0  0  0  0  0  0  0  0
    4.0545    1.9859    0.0000 C   0  0  0  0  0  0  0  0  0  0  0  0
    0.6837   -0.1087    0.0000 C   0  0  0  0  0  0  0  0  0  0  0  0
   -0.7977    0.1269    0.0000 C   0  0  0  0  0  0  0  0  0  0  0  0
   -1.7424   -1.0383    0.0000 C   0  0  0  0  0  0  0  0  0  0  0  0
   -3.2238   -0.8027    0.0000 C   0  0  0  0  0  0  0  0  0  0  0  0
   -3.7604    0.5980    0.0000 C   0  0  0  0  0  0  0  0  0  0  0  0
   -2.8157    1.7632    0.0000 C   0  0  0  0  0  0  0  0  0  0  0  0
   -1.3343    1.5276    0.0000 C   0  0  0  0  0  0  0  0  0  0  0  0
    1.2204   -1.5094    0.0000 C   0  0  0  0  0  0  0  0  0  0  0  0
    0.2757   -2.6746    0.0000 O   0  0  0  0  0  0  0  0  0  0  0  0
    2.7018   -1.7450    0.0000 O   0  0  0  0  0  0  0  0  0  0  0  0
  1  2  1  0
  2  3  1  0
  4  1  1  6
  4  5  1  0
  5  6  1  0
  6  7  1  0
  7  8  1  0
  8  9  1  0
  9 10  1  0
  4 11  1  0
 11 12  2  0
 11 13  1  0
 10  5  1  0
M  END
>  <rName>  (2178) 
NEt-Chg

>  <PQ_SYMBOL>  (2178) 
NEt-Chg

>  <FULL_NAME>  (2178) 
(2S)-2-cyclohexyl-2-(ethylamino)acetic acid

>  <IUPAC_CONDENSED>  (2178) 
Et-Chg

>  <IUPAC>  (2178) 
(2S)-2-cyclohexyl-2-(ethylamino)acetic acid

>  <TYPE>  (2178) 
Backbone

>  <CLASS>  (2178) 
alpha

>  <ANALOG>  (2178) 
X

>  <MOL_WT>  (2178) 
185.267

>  <LOGP>  (2178) 
1.6294000000000002

>  <TPSA>  (2178) 
49.33

>  <POPULARITY>  (2178) 
10.7

>  <PROTECTED>  (2178) 
TRUE

>  <SMILES>  (2178) 
N(CC)[C@@H](C1(CCCCC1))C(=O)O

>  <INCHIKEY>  (2178) 
WANNHJLYBWUSQS-VIFPVBQESA-N

$$$$
NEt-D
     RDKit          2D

 11 10  0  0  0  0  0  0  0  0999 V2000
   -1.6099   -1.0529    0.0000 N   0  0  0  0  0  0  0  0  0  0  0  0
   -2.8554   -0.2170    0.0000 C   0  0  0  0  0  0  0  0  0  0  0  0
   -4.2021   -0.8776    0.0000 C   0  0  0  0  0  0  0  0  0  0  0  0
   -0.2632   -0.3922    0.0000 C   0  0  0  0  0  0  0  0  0  0  0  0
    0.9822   -1.2281    0.0000 C   0  0  0  0  0  0  0  0  0  0  0  0
    2.3289   -0.5675    0.0000 C   0  0  0  0  0  0  0  0  0  0  0  0
    2.4301    0.9291    0.0000 O   0  0  0  0  0  0  0  0  0  0  0  0
    3.5744   -1.4034    0.0000 O   0  0  0  0  0  0  0  0  0  0  0  0
   -0.1621    1.1044    0.0000 C   0  0  0  0  0  0  0  0  0  0  0  0
   -1.4075    1.9403    0.0000 O   0  0  0  0  0  0  0  0  0  0  0  0
    1.1846    1.7650    0.0000 O   0  0  0  0  0  0  0  0  0  0  0  0
  1  2  1  0
  2  3  1  0
  1  4  1  0
  4  5  1  6
  5  6  1  0
  6  7  2  0
  6  8  1  0
  4  9  1  0
  9 10  2  0
  9 11  1  0
M  END
>  <rName>  (2179) 
NEt-D

>  <PQ_SYMBOL>  (2179) 
NEt-D

>  <FULL_NAME>  (2179) 
N-Ethyl-L-aspartic acid

>  <IUPAC_CONDENSED>  (2179) 
Et-Asp

>  <IUPAC>  (2179) 
(2S)-2-(ethylamino)butanedioic acid

>  <TYPE>  (2179) 
Backbone

>  <CLASS>  (2179) 
alpha

>  <ANALOG>  (2179) 
Asp

>  <MOL_WT>  (2179) 
161.15699999999998

>  <LOGP>  (2179) 
-0.4762

>  <TPSA>  (2179) 
86.63000000000001

>  <POPULARITY>  (2179) 
2.2

>  <PROTECTED>  (2179) 
TRUE

>  <SMILES>  (2179) 
N(CC)[C@@H](CC(=O)O)C(=O)O

>  <INCHIKEY>  (2179) 
DRMDGQXVYQXMFW-BYPYZUCNSA-N

$$$$
NEt-F
     RDKit          2D

 14 14  0  0  0  0  0  0  0  0999 V2000
   -1.1639    0.9643    0.0000 N   0  0  0  0  0  0  0  0  0  0  0  0
   -2.4277    1.7722    0.0000 C   0  0  0  0  0  0  0  0  0  0  0  0
   -2.3599    3.2707    0.0000 C   0  0  0  0  0  0  0  0  0  0  0  0
   -1.2317   -0.5342    0.0000 C   0  0  0  0  0  0  0  0  0  0  0  0
    0.0322   -1.3421    0.0000 C   0  0  0  0  0  0  0  0  0  0  0  0
    1.3638   -0.6516    0.0000 C   0  0  0  0  0  0  0  0  0  0  0  0
    1.4316    0.8469    0.0000 C   0  0  0  0  0  0  0  0  0  0  0  0
    2.7632    1.5374    0.0000 C   0  0  0  0  0  0  0  0  0  0  0  0
    4.0270    0.7295    0.0000 C   0  0  0  0  0  0  0  0  0  0  0  0
    3.9592   -0.7690    0.0000 C   0  0  0  0  0  0  0  0  0  0  0  0
    2.6276   -1.4595    0.0000 C   0  0  0  0  0  0  0  0  0  0  0  0
   -2.5633   -1.2247    0.0000 C   0  0  0  0  0  0  0  0  0  0  0  0
   -2.6311   -2.7232    0.0000 O   0  0  0  0  0  0  0  0  0  0  0  0
   -3.8271   -0.4167    0.0000 O   0  0  0  0  0  0  0  0  0  0  0  0
  1  2  1  0
  2  3  1  0
  1  4  1  0
  4  5  1  1
  5  6  1  0
  6  7  2  0
  7  8  1  0
  8  9  2  0
  9 10  1  0
 10 11  2  0
  4 12  1  0
 12 13  2  0
 12 14  1  0
 11  6  1  0
M  END
>  <rName>  (2180) 
NEt-F

>  <PQ_SYMBOL>  (2180) 
NEt-F

>  <FULL_NAME>  (2180) 
N-ethyl-L-phenylalanine

>  <IUPAC_CONDENSED>  (2180) 
Et-Phe

>  <IUPAC>  (2180) 
(2S)-2-(ethylamino)-3-phenylpropanoic acid

>  <TYPE>  (2180) 
Backbone

>  <CLASS>  (2180) 
alpha

>  <ANALOG>  (2180) 
Phe

>  <MOL_WT>  (2180) 
193.24599999999998

>  <LOGP>  (2180) 
1.2918

>  <TPSA>  (2180) 
49.33

>  <POPULARITY>  (2180) 
17.9

>  <PROTECTED>  (2180) 
TRUE

>  <SMILES>  (2180) 
N(CC)[C@@H](Cc1(ccccc1))C(=O)O

>  <INCHIKEY>  (2180) 
ZHLKFJCNKZEBNG-JTQLQIEISA-N

$$$$
NEt-G
     RDKit          2D

  7  6  0  0  0  0  0  0  0  0999 V2000
    0.9202    0.1603    0.0000 N   0  0  0  0  0  0  0  0  0  0  0  0
    2.2602   -0.5139    0.0000 C   0  0  0  0  0  0  0  0  0  0  0  0
    3.5140    0.3095    0.0000 C   0  0  0  0  0  0  0  0  0  0  0  0
   -0.3336   -0.6631    0.0000 C   0  0  0  0  0  0  0  0  0  0  0  0
   -1.6736    0.0110    0.0000 C   0  0  0  0  0  0  0  0  0  0  0  0
   -1.7598    1.5085    0.0000 O   0  0  0  0  0  0  0  0  0  0  0  0
   -2.9274   -0.8124    0.0000 O   0  0  0  0  0  0  0  0  0  0  0  0
  1  2  1  0
  2  3  1  0
  1  4  1  0
  4  5  1  0
  5  6  2  0
  5  7  1  0
M  END
>  <rName>  (2181) 
NEt-G

>  <PQ_SYMBOL>  (2181) 
NEt-G

>  <FULL_NAME>  (2181) 
N-ethylglycine

>  <IUPAC_CONDENSED>  (2181) 
Et-Gly

>  <IUPAC>  (2181) 
2-(ethylamino)acetic acid

>  <TYPE>  (2181) 
Backbone

>  <CLASS>  (2181) 
alpha

>  <ANALOG>  (2181) 
Gly

>  <MOL_WT>  (2181) 
103.12099999999998

>  <LOGP>  (2181) 
-0.31949999999999995

>  <TPSA>  (2181) 
49.33

>  <POPULARITY>  (2181) 
23.4

>  <PROTECTED>  (2181) 
TRUE

>  <SMILES>  (2181) 
N(CC)CC(=O)O

>  <INCHIKEY>  (2181) 
YPIGGYHFMKJNKV-UHFFFAOYSA-N

$$$$
NEt-Gaba
     RDKit          2D

  9  8  0  0  0  0  0  0  0  0999 V2000
    2.2994    0.2714    0.0000 N   0  0  0  0  0  0  0  0  0  0  0  0
    3.6312   -0.4188    0.0000 C   0  0  0  0  0  0  0  0  0  0  0  0
    4.8948    0.3895    0.0000 C   0  0  0  0  0  0  0  0  0  0  0  0
    1.0358   -0.5368    0.0000 C   0  0  0  0  0  0  0  0  0  0  0  0
   -0.2960    0.1534    0.0000 C   0  0  0  0  0  0  0  0  0  0  0  0
   -1.5596   -0.6549    0.0000 C   0  0  0  0  0  0  0  0  0  0  0  0
   -2.8913    0.0353    0.0000 C   0  0  0  0  0  0  0  0  0  0  0  0
   -2.9595    1.5338    0.0000 O   0  0  0  0  0  0  0  0  0  0  0  0
   -4.1550   -0.7729    0.0000 O   0  0  0  0  0  0  0  0  0  0  0  0
  1  2  1  0
  2  3  1  0
  1  4  1  0
  4  5  1  0
  5  6  1  0
  6  7  1  0
  7  8  2  0
  7  9  1  0
M  END
>  <rName>  (2182) 
NEt-Gaba

>  <PQ_SYMBOL>  (2182) 
NEt-Gaba

>  <FULL_NAME>  (2182) 
4-(ethylamino)butanoic acid

>  <IUPAC_CONDENSED>  (2182) 
Et-Gaba

>  <IUPAC>  (2182) 
4-(ethylamino)butanoic acid

>  <TYPE>  (2182) 
Backbone

>  <CLASS>  (2182) 
gamma

>  <ANALOG>  (2182) 
Gly

>  <MOL_WT>  (2182) 
131.175

>  <LOGP>  (2182) 
0.46069999999999983

>  <TPSA>  (2182) 
49.33

>  <POPULARITY>  (2182) 
17.9

>  <PROTECTED>  (2182) 
TRUE

>  <SMILES>  (2182) 
N(CC)CCCC(=O)O

>  <INCHIKEY>  (2182) 
FSCWTVQILXCITB-UHFFFAOYSA-N

$$$$
NEt-I
     RDKit          2D

 11 10  0  0  0  0  0  0  0  0999 V2000
    0.9715    1.0584    0.0000 N   0  0  0  0  0  0  0  0  0  0  0  0
    2.4575    0.8540    0.0000 C   0  0  0  0  0  0  0  0  0  0  0  0
    3.3775    2.0387    0.0000 C   0  0  0  0  0  0  0  0  0  0  0  0
    0.0515   -0.1263    0.0000 C   0  0  0  0  0  0  0  0  0  0  0  0
   -1.4346    0.0781    0.0000 C   0  0  0  0  0  0  0  0  0  0  0  0
   -2.3546   -1.1066    0.0000 C   0  0  0  0  0  0  0  0  0  0  0  0
   -2.0005    1.4673    0.0000 C   0  0  0  0  0  0  0  0  0  0  0  0
   -3.4865    1.6717    0.0000 C   0  0  0  0  0  0  0  0  0  0  0  0
    0.6174   -1.5154    0.0000 C   0  0  0  0  0  0  0  0  0  0  0  0
    2.1034   -1.7198    0.0000 O   0  0  0  0  0  0  0  0  0  0  0  0
   -0.3026   -2.7001    0.0000 O   0  0  0  0  0  0  0  0  0  0  0  0
  1  2  1  0
  2  3  1  0
  4  1  1  6
  4  5  1  0
  5  6  1  1
  5  7  1  0
  7  8  1  0
  4  9  1  0
  9 10  2  0
  9 11  1  0
M  END
>  <rName>  (2183) 
NEt-I

>  <PQ_SYMBOL>  (2183) 
NEt-I

>  <FULL_NAME>  (2183) 
ethyl-L-isoleucine

>  <IUPAC_CONDENSED>  (2183) 
Et-Ile

>  <IUPAC>  (2183) 
(2S,3S)-2-(ethylamino)-3-methylpentanoic acid

>  <TYPE>  (2183) 
Backbone

>  <CLASS>  (2183) 
alpha

>  <ANALOG>  (2183) 
Ile

>  <MOL_WT>  (2183) 
159.22899999999998

>  <LOGP>  (2183) 
1.0952

>  <TPSA>  (2183) 
49.33

>  <POPULARITY>  (2183) 
14.9

>  <PROTECTED>  (2183) 
TRUE

>  <SMILES>  (2183) 
N(CC)[C@@H]([C@@H](C)CC)C(=O)O

>  <INCHIKEY>  (2183) 
CPDIYSDSKGPIFR-BQBZGAKWSA-N

$$$$
NEt-Phe_4Cl
     RDKit          2D

 15 15  0  0  0  0  0  0  0  0999 V2000
   -1.4440    0.9924    0.0000 N   0  0  0  0  0  0  0  0  0  0  0  0
   -2.6367    1.9020    0.0000 C   0  0  0  0  0  0  0  0  0  0  0  0
   -2.4453    3.3898    0.0000 C   0  0  0  0  0  0  0  0  0  0  0  0
   -1.6354   -0.4953    0.0000 C   0  0  0  0  0  0  0  0  0  0  0  0
   -0.4427   -1.4050    0.0000 C   0  0  0  0  0  0  0  0  0  0  0  0
    0.9414   -0.8269    0.0000 C   0  0  0  0  0  0  0  0  0  0  0  0
    1.1328    0.6608    0.0000 C   0  0  0  0  0  0  0  0  0  0  0  0
    2.5170    1.2389    0.0000 C   0  0  0  0  0  0  0  0  0  0  0  0
    3.7097    0.3293    0.0000 C   0  0  0  0  0  0  0  0  0  0  0  0
    5.0938    0.9073    0.0000 Cl  0  0  0  0  0  0  0  0  0  0  0  0
    3.5182   -1.1585    0.0000 C   0  0  0  0  0  0  0  0  0  0  0  0
    2.1341   -1.7366    0.0000 C   0  0  0  0  0  0  0  0  0  0  0  0
   -3.0196   -1.0734    0.0000 C   0  0  0  0  0  0  0  0  0  0  0  0
   -3.2110   -2.5612    0.0000 O   0  0  0  0  0  0  0  0  0  0  0  0
   -4.2123   -0.1638    0.0000 O   0  0  0  0  0  0  0  0  0  0  0  0
  1  2  1  0
  2  3  1  0
  1  4  1  0
  4  5  1  1
  5  6  1  0
  6  7  1  0
  7  8  2  0
  8  9  1  0
  9 10  1  0
  9 11  2  0
 11 12  1  0
  4 13  1  0
 13 14  2  0
 13 15  1  0
 12  6  2  0
M  END
>  <rName>  (2184) 
NEt-Phe_4Cl

>  <PQ_SYMBOL>  (2184) 
NEt-Phe_4Cl

>  <FULL_NAME>  (2184) 
(2S)-3-(4-chlorophenyl)-2-(ethylamino)propanoic acid

>  <IUPAC_CONDENSED>  (2184) 
Et-Phe(4-Cl)

>  <IUPAC>  (2184) 
(2S)-3-(4-chlorophenyl)-2-(ethylamino)propanoic acid

>  <TYPE>  (2184) 
Backbone

>  <CLASS>  (2184) 
alpha

>  <ANALOG>  (2184) 
Phe

>  <MOL_WT>  (2184) 
227.69099999999997

>  <LOGP>  (2184) 
1.9452

>  <TPSA>  (2184) 
49.33

>  <POPULARITY>  (2184) 
2.2

>  <PROTECTED>  (2184) 
TRUE

>  <SMILES>  (2184) 
N(CC)[C@@H](Cc1(ccc(Cl)cc1))C(=O)O

>  <INCHIKEY>  (2184) 
DRFUDDZUWZWEIK-JTQLQIEISA-N

$$$$
NEt-Phe_4Me
     RDKit          2D

 15 15  0  0  0  0  0  0  0  0999 V2000
   -1.4440    0.9924    0.0000 N   0  0  0  0  0  0  0  0  0  0  0  0
   -2.6367    1.9020    0.0000 C   0  0  0  0  0  0  0  0  0  0  0  0
   -2.4453    3.3898    0.0000 C   0  0  0  0  0  0  0  0  0  0  0  0
   -1.6354   -0.4953    0.0000 C   0  0  0  0  0  0  0  0  0  0  0  0
   -0.4427   -1.4050    0.0000 C   0  0  0  0  0  0  0  0  0  0  0  0
    0.9414   -0.8269    0.0000 C   0  0  0  0  0  0  0  0  0  0  0  0
    1.1328    0.6608    0.0000 C   0  0  0  0  0  0  0  0  0  0  0  0
    2.5170    1.2389    0.0000 C   0  0  0  0  0  0  0  0  0  0  0  0
    3.7097    0.3293    0.0000 C   0  0  0  0  0  0  0  0  0  0  0  0
    5.0938    0.9073    0.0000 C   0  0  0  0  0  0  0  0  0  0  0  0
    3.5182   -1.1585    0.0000 C   0  0  0  0  0  0  0  0  0  0  0  0
    2.1341   -1.7366    0.0000 C   0  0  0  0  0  0  0  0  0  0  0  0
   -3.0196   -1.0734    0.0000 C   0  0  0  0  0  0  0  0  0  0  0  0
   -3.2110   -2.5612    0.0000 O   0  0  0  0  0  0  0  0  0  0  0  0
   -4.2123   -0.1638    0.0000 O   0  0  0  0  0  0  0  0  0  0  0  0
  1  2  1  0
  2  3  1  0
  1  4  1  0
  4  5  1  1
  5  6  1  0
  6  7  1  0
  7  8  2  0
  8  9  1  0
  9 10  1  0
  9 11  2  0
 11 12  1  0
  4 13  1  0
 13 14  2  0
 13 15  1  0
 12  6  2  0
M  END
>  <rName>  (2185) 
NEt-Phe_4Me

>  <PQ_SYMBOL>  (2185) 
NEt-Phe_4Me

>  <FULL_NAME>  (2185) 
N-ethyl-4-methyl-L-phenylalanine

>  <IUPAC_CONDENSED>  (2185) 
Et-Phe(4-Me)

>  <IUPAC>  (2185) 
(2S)-2-(ethylamino)-3-(4-methylphenyl)propanoic acid

>  <TYPE>  (2185) 
Backbone

>  <CLASS>  (2185) 
alpha

>  <ANALOG>  (2185) 
Phe

>  <MOL_WT>  (2185) 
207.273

>  <LOGP>  (2185) 
1.60022

>  <TPSA>  (2185) 
49.33

>  <POPULARITY>  (2185) 
13.9

>  <PROTECTED>  (2185) 
TRUE

>  <SMILES>  (2185) 
N(CC)[C@@H](Cc1(ccc(C)cc1))C(=O)O

>  <INCHIKEY>  (2185) 
AWWFDZMDQNOGTL-NSHDSACASA-N

$$$$
NEt-bAla
     RDKit          2D

  8  7  0  0  0  0  0  0  0  0999 V2000
   -1.6672   -0.4165    0.0000 N   0  0  0  0  0  0  0  0  0  0  0  0
   -2.8948    0.4455    0.0000 C   0  0  0  0  0  0  0  0  0  0  0  0
   -4.2551   -0.1865    0.0000 C   0  0  0  0  0  0  0  0  0  0  0  0
   -0.3069    0.2155    0.0000 C   0  0  0  0  0  0  0  0  0  0  0  0
    0.9207   -0.6465    0.0000 C   0  0  0  0  0  0  0  0  0  0  0  0
    2.2810   -0.0145    0.0000 C   0  0  0  0  0  0  0  0  0  0  0  0
    2.4138    1.4796    0.0000 O   0  0  0  0  0  0  0  0  0  0  0  0
    3.5085   -0.8766    0.0000 O   0  0  0  0  0  0  0  0  0  0  0  0
  1  2  1  0
  2  3  1  0
  1  4  1  0
  4  5  1  0
  5  6  1  0
  6  7  2  0
  6  8  1  0
M  END
>  <rName>  (2186) 
NEt-bAla

>  <PQ_SYMBOL>  (2186) 
NEt-bAla

>  <FULL_NAME>  (2186) 
3-(Ethylamino)propanoic acid

>  <IUPAC_CONDENSED>  (2186) 
Et-bAla

>  <IUPAC>  (2186) 
3-(ethylamino)propanoic acid

>  <TYPE>  (2186) 
Backbone

>  <CLASS>  (2186) 
beta

>  <ANALOG>  (2186) 
Gly

>  <MOL_WT>  (2186) 
117.14799999999998

>  <LOGP>  (2186) 
0.07059999999999994

>  <TPSA>  (2186) 
49.33

>  <POPULARITY>  (2186) 
18.2

>  <PROTECTED>  (2186) 
TRUE

>  <SMILES>  (2186) 
N(CC)CCC(=O)O

>  <INCHIKEY>  (2186) 
YZPJYHCJKCSXBS-UHFFFAOYSA-N

$$$$
NEt-dA
     RDKit          2D

  8  7  0  0  0  0  0  0  0  0999 V2000
   -0.9331   -0.9230    0.0000 N   0  0  0  0  0  0  0  0  0  0  0  0
   -1.8248    0.2832    0.0000 C   0  0  0  0  0  0  0  0  0  0  0  0
   -3.3153    0.1141    0.0000 C   0  0  0  0  0  0  0  0  0  0  0  0
    0.5573   -0.7539    0.0000 C   0  0  0  0  0  0  0  0  0  0  0  0
    1.4490   -1.9601    0.0000 C   0  0  0  0  0  0  0  0  0  0  0  0
    1.1561    0.6215    0.0000 C   0  0  0  0  0  0  0  0  0  0  0  0
    0.2644    1.8276    0.0000 O   0  0  0  0  0  0  0  0  0  0  0  0
    2.6465    0.7906    0.0000 O   0  0  0  0  0  0  0  0  0  0  0  0
  1  2  1  0
  2  3  1  0
  1  4  1  0
  4  5  1  1
  4  6  1  0
  6  7  2  0
  6  8  1  0
M  END
>  <rName>  (2187) 
NEt-dA

>  <PQ_SYMBOL>  (2187) 
NEt-dA

>  <FULL_NAME>  (2187) 
ethyl-D-alanine

>  <IUPAC_CONDENSED>  (2187) 
Et-D-Ala

>  <IUPAC>  (2187) 
(2R)-2-(ethylamino)propanoic acid

>  <TYPE>  (2187) 
Backbone

>  <CLASS>  (2187) 
alpha

>  <ANALOG>  (2187) 
Ala

>  <MOL_WT>  (2187) 
117.14799999999998

>  <LOGP>  (2187) 
0.06900000000000012

>  <TPSA>  (2187) 
49.33

>  <POPULARITY>  (2187) 
18.2

>  <PROTECTED>  (2187) 
TRUE

>  <SMILES>  (2187) 
N(CC)[C@H](C)C(=O)O

>  <INCHIKEY>  (2187) 
DATPFTPVGIHCCM-SCSAIBSYSA-N

$$$$
NEt-indolGly
     RDKit          2D

 16 17  0  0  0  0  0  0  0  0999 V2000
   -2.9678    0.2672    0.0000 N   0  0  0  0  0  0  0  0  0  0  0  0
   -1.6534   -0.4555    0.0000 C   0  0  0  0  0  0  0  0  0  0  0  0
   -0.3702    0.3213    0.0000 C   0  0  0  0  0  0  0  0  0  0  0  0
    0.9441   -0.4015    0.0000 C   0  0  0  0  0  0  0  0  0  0  0  0
    1.1319   -1.8896    0.0000 C   0  0  0  0  0  0  0  0  0  0  0  0
    2.6053   -2.1709    0.0000 N   0  0  0  0  0  0  0  0  0  0  0  0
    3.3281   -0.8565    0.0000 C   0  0  0  0  0  0  0  0  0  0  0  0
    4.7885   -0.5142    0.0000 C   0  0  0  0  0  0  0  0  0  0  0  0
    5.2223    0.9217    0.0000 C   0  0  0  0  0  0  0  0  0  0  0  0
    4.1956    2.0153    0.0000 C   0  0  0  0  0  0  0  0  0  0  0  0
    2.7352    1.6730    0.0000 C   0  0  0  0  0  0  0  0  0  0  0  0
    2.3014    0.2370    0.0000 C   0  0  0  0  0  0  0  0  0  0  0  0
   -4.2509   -0.5096    0.0000 C   0  0  0  0  0  0  0  0  0  0  0  0
   -5.5653    0.2131    0.0000 C   0  0  0  0  0  0  0  0  0  0  0  0
   -5.5965    1.7128    0.0000 O   0  0  0  0  0  0  0  0  0  0  0  0
   -6.8484   -0.5637    0.0000 O   0  0  0  0  0  0  0  0  0  0  0  0
  1  2  1  0
  2  3  1  0
  3  4  1  0
  4  5  2  0
  5  6  1  0
  6  7  1  0
  7  8  2  0
  8  9  1  0
  9 10  2  0
 10 11  1  0
 11 12  2  0
  1 13  1  0
 13 14  1  0
 14 15  2  0
 14 16  1  0
 12  4  1  0
 12  7  1  0
M  END
>  <rName>  (2188) 
NEt-indolGly

>  <PQ_SYMBOL>  (2188) 
NEt-indolGly

>  <FULL_NAME>  (2188) 
N-[2-(1H-indol-3-yl)ethyl]glycine

>  <IUPAC_CONDENSED>  (2188) 
N(Et-indol)Gly

>  <IUPAC>  (2188) 
2-((2-(1H-indol-3-yl)ethyl)amino)acetic acid

>  <TYPE>  (2188) 
Backbone

>  <CLASS>  (2188) 
alpha

>  <ANALOG>  (2188) 
Gly

>  <MOL_WT>  (2188) 
218.25599999999997

>  <LOGP>  (2188) 
1.3846000000000003

>  <TPSA>  (2188) 
65.12

>  <POPULARITY>  (2188) 
18.0

>  <PROTECTED>  (2188) 
TRUE

>  <SMILES>  (2188) 
N(CCc1(c[nH]c2(ccccc12)))CC(=O)O

>  <INCHIKEY>  (2188) 
DPSHLVRITCJXMK-UHFFFAOYSA-N

$$$$
NEtN3-G
     RDKit          2D

 10  9  0  0  0  0  0  0  0  0999 V2000
   -0.9081    0.0887    0.0000 N   0  0  0  0  0  0  0  0  0  0  0  0
    0.3795   -0.6808    0.0000 C   0  0  0  0  0  0  0  0  0  0  0  0
    1.6897    0.0496    0.0000 C   0  0  0  0  0  0  0  0  0  0  0  0
    2.9773   -0.7199    0.0000 N   0  0  0  0  0  0  0  0  0  0  0  0
    4.2875    0.0104    0.0000 N   0  0  0  0  0  0  0  0  0  0  0  0
    5.5977    0.7408    0.0000 N   0  0  0  0  0  0  0  0  0  0  0  0
   -2.2183   -0.6417    0.0000 C   0  0  0  0  0  0  0  0  0  0  0  0
   -3.5059    0.1278    0.0000 C   0  0  0  0  0  0  0  0  0  0  0  0
   -3.4833    1.6277    0.0000 O   0  0  0  0  0  0  0  0  0  0  0  0
   -4.8161   -0.6025    0.0000 O   0  0  0  0  0  0  0  0  0  0  0  0
  1  2  1  0
  2  3  1  0
  3  4  1  0
  4  5  2  0
  5  6  2  0
  1  7  1  0
  7  8  1  0
  8  9  2  0
  8 10  1  0
M  CHG  2   5   1   6  -1
M  END
>  <rName>  (2189) 
NEtN3-G

>  <PQ_SYMBOL>  (2189) 
NEtN3-G

>  <FULL_NAME>  (2189) 
2-[(2-Azidoethyl)amino]acetic acid

>  <IUPAC_CONDENSED>  (2189) 
EtN3-Gly

>  <IUPAC>  (2189) 
2-(2-azidoethylamino)acetic acid

>  <TYPE>  (2189) 
Backbone

>  <CLASS>  (2189) 
alpha

>  <ANALOG>  (2189) 
Gly

>  <MOL_WT>  (2189) 
144.13400000000001

>  <LOGP>  (2189) 
-0.02910000000000018

>  <TPSA>  (2189) 
98.09000000000002

>  <POPULARITY>  (2189) 
3.5

>  <PROTECTED>  (2189) 
TRUE

>  <SMILES>  (2189) 
N(CCN=[N+]=[N-])CC(=O)O

>  <INCHIKEY>  (2189) 
VUSMLWZLQRININ-UHFFFAOYSA-N

$$$$
NEtNH2-G
     RDKit          2D

  8  7  0  0  0  0  0  0  0  0999 V2000
   -0.3069   -0.2155    0.0000 N   0  0  0  0  0  0  0  0  0  0  0  0
   -1.6672    0.4165    0.0000 C   0  0  0  0  0  0  0  0  0  0  0  0
   -2.8948   -0.4455    0.0000 C   0  0  0  0  0  0  0  0  0  0  0  0
   -4.2551    0.1865    0.0000 N   0  0  0  0  0  0  0  0  0  0  0  0
    0.9207    0.6465    0.0000 C   0  0  0  0  0  0  0  0  0  0  0  0
    2.2810    0.0145    0.0000 C   0  0  0  0  0  0  0  0  0  0  0  0
    2.4138   -1.4796    0.0000 O   0  0  0  0  0  0  0  0  0  0  0  0
    3.5085    0.8766    0.0000 O   0  0  0  0  0  0  0  0  0  0  0  0
  1  2  1  0
  2  3  1  0
  3  4  1  0
  1  5  1  0
  5  6  1  0
  6  7  2  0
  6  8  1  0
M  END
>  <rName>  (2190) 
NEtNH2-G

>  <PQ_SYMBOL>  (2190) 
NEtNH2-G

>  <FULL_NAME>  (2190) 
N-(2-aminoethyl)-Glycine

>  <IUPAC_CONDENSED>  (2190) 
H2NEt-Gly

>  <IUPAC>  (2190) 
2-((2-aminoethyl)amino)acetic acid

>  <TYPE>  (2190) 
Backbone

>  <CLASS>  (2190) 
alpha

>  <ANALOG>  (2190) 
Gly

>  <MOL_WT>  (2190) 
118.13599999999998

>  <LOGP>  (2190) 
-1.3806999999999996

>  <TPSA>  (2190) 
75.35

>  <POPULARITY>  (2190) 
26.8

>  <PROTECTED>  (2190) 
TRUE

>  <SMILES>  (2190) 
N(CCN)CC(=O)O

>  <INCHIKEY>  (2190) 
PIINGYXNCHTJTF-UHFFFAOYSA-N

$$$$
NEtOEt-G
     RDKit          2D

 10  9  0  0  0  0  0  0  0  0999 V2000
    0.9213    0.1695    0.0000 N   0  0  0  0  0  0  0  0  0  0  0  0
   -0.4208   -0.5004    0.0000 C   0  0  0  0  0  0  0  0  0  0  0  0
   -1.6720    0.3269    0.0000 C   0  0  0  0  0  0  0  0  0  0  0  0
   -3.0141   -0.3430    0.0000 O   0  0  0  0  0  0  0  0  0  0  0  0
   -4.2653    0.4843    0.0000 C   0  0  0  0  0  0  0  0  0  0  0  0
   -5.6074   -0.1857    0.0000 C   0  0  0  0  0  0  0  0  0  0  0  0
    2.1725   -0.6578    0.0000 C   0  0  0  0  0  0  0  0  0  0  0  0
    3.5146    0.0121    0.0000 C   0  0  0  0  0  0  0  0  0  0  0  0
    3.6055    1.5094    0.0000 O   0  0  0  0  0  0  0  0  0  0  0  0
    4.7658   -0.8152    0.0000 O   0  0  0  0  0  0  0  0  0  0  0  0
  1  2  1  0
  2  3  1  0
  3  4  1  0
  4  5  1  0
  5  6  1  0
  1  7  1  0
  7  8  1  0
  8  9  2  0
  8 10  1  0
M  END
>  <rName>  (2191) 
NEtOEt-G

>  <PQ_SYMBOL>  (2191) 
NEtOEt-G

>  <FULL_NAME>  (2191) 
2-(2-Ethoxyethylamino)acetic acid

>  <IUPAC_CONDENSED>  (2191) 
EtOEt-Gly

>  <IUPAC>  (2191) 
2-((2-ethoxyethyl)amino)acetic acid

>  <TYPE>  (2191) 
Backbone

>  <CLASS>  (2191) 
alpha

>  <ANALOG>  (2191) 
Gly

>  <MOL_WT>  (2191) 
147.174

>  <LOGP>  (2191) 
-0.30290000000000045

>  <TPSA>  (2191) 
58.56

>  <POPULARITY>  (2191) 
18.0

>  <PROTECTED>  (2191) 
TRUE

>  <SMILES>  (2191) 
N(CCOCC)CC(=O)O

>  <INCHIKEY>  (2191) 
AQSWGBNUHGXKBD-UHFFFAOYSA-N

$$$$
NEtOH-G
     RDKit          2D

  8  7  0  0  0  0  0  0  0  0999 V2000
   -0.3069   -0.2155    0.0000 N   0  0  0  0  0  0  0  0  0  0  0  0
   -1.6672    0.4165    0.0000 C   0  0  0  0  0  0  0  0  0  0  0  0
   -2.8948   -0.4455    0.0000 C   0  0  0  0  0  0  0  0  0  0  0  0
   -4.2551    0.1865    0.0000 O   0  0  0  0  0  0  0  0  0  0  0  0
    0.9207    0.6465    0.0000 C   0  0  0  0  0  0  0  0  0  0  0  0
    2.2810    0.0145    0.0000 C   0  0  0  0  0  0  0  0  0  0  0  0
    2.4138   -1.4796    0.0000 O   0  0  0  0  0  0  0  0  0  0  0  0
    3.5085    0.8766    0.0000 O   0  0  0  0  0  0  0  0  0  0  0  0
  1  2  1  0
  2  3  1  0
  3  4  1  0
  1  5  1  0
  5  6  1  0
  6  7  2  0
  6  8  1  0
M  END
>  <rName>  (2192) 
NEtOH-G

>  <PQ_SYMBOL>  (2192) 
NEtOH-G

>  <FULL_NAME>  (2192) 
N-(2-hydroxyethyl)-Glycine, Petalonine

>  <IUPAC_CONDENSED>  (2192) 
EtOH-Gly

>  <IUPAC>  (2192) 
2-((2-hydroxyethyl)amino)acetic acid

>  <TYPE>  (2192) 
Backbone

>  <CLASS>  (2192) 
alpha

>  <ANALOG>  (2192) 
Gly

>  <MOL_WT>  (2192) 
119.11999999999999

>  <LOGP>  (2192) 
-1.3470999999999997

>  <TPSA>  (2192) 
69.56

>  <POPULARITY>  (2192) 
21.0

>  <PROTECTED>  (2192) 
TRUE

>  <SMILES>  (2192) 
N(CCO)CC(=O)O

>  <INCHIKEY>  (2192) 
FOUZISDNESEYLX-UHFFFAOYSA-N

$$$$
NH2NHex-G
     RDKit          2D

 12 11  0  0  0  0  0  0  0  0999 V2000
    6.9435   -0.1938    0.0000 N   0  0  0  0  0  0  0  0  0  0  0  0
    5.6127    0.4981    0.0000 C   0  0  0  0  0  0  0  0  0  0  0  0
    4.3480   -0.3085    0.0000 C   0  0  0  0  0  0  0  0  0  0  0  0
    3.0171    0.3835    0.0000 C   0  0  0  0  0  0  0  0  0  0  0  0
    1.7524   -0.4231    0.0000 C   0  0  0  0  0  0  0  0  0  0  0  0
    0.4216    0.2689    0.0000 C   0  0  0  0  0  0  0  0  0  0  0  0
   -0.8431   -0.5377    0.0000 C   0  0  0  0  0  0  0  0  0  0  0  0
   -2.1740    0.1542    0.0000 N   0  0  0  0  0  0  0  0  0  0  0  0
   -3.4387   -0.6523    0.0000 C   0  0  0  0  0  0  0  0  0  0  0  0
   -4.7695    0.0396    0.0000 C   0  0  0  0  0  0  0  0  0  0  0  0
   -4.8357    1.5381    0.0000 O   0  0  0  0  0  0  0  0  0  0  0  0
   -6.0342   -0.7670    0.0000 O   0  0  0  0  0  0  0  0  0  0  0  0
  1  2  1  0
  2  3  1  0
  3  4  1  0
  4  5  1  0
  5  6  1  0
  6  7  1  0
  7  8  1  0
  8  9  1  0
  9 10  1  0
 10 11  2  0
 10 12  1  0
M  END
>  <rName>  (2193) 
NH2NHex-G

>  <PQ_SYMBOL>  (2193) 
NH2NHex-G

>  <FULL_NAME>  (2193) 
2-(6-aminohexylamino)acetic acid

>  <IUPAC_CONDENSED>  (2193) 
H2NHex-Gly

>  <IUPAC>  (2193) 
2-((6-aminohexyl)amino)acetic acid

>  <TYPE>  (2193) 
Backbone

>  <CLASS>  (2193) 
alpha

>  <ANALOG>  (2193) 
Gly

>  <MOL_WT>  (2193) 
174.244

>  <LOGP>  (2193) 
0.17970000000000041

>  <TPSA>  (2193) 
75.35

>  <POPULARITY>  (2193) 
23.0

>  <PROTECTED>  (2193) 
TRUE

>  <SMILES>  (2193) 
NCCCCCCNCC(=O)O

>  <INCHIKEY>  (2193) 
NOCTZBYMEXZKLK-UHFFFAOYSA-N

$$$$
NH2NOct-G
     RDKit          2D

 14 13  0  0  0  0  0  0  0  0999 V2000
    3.4402   -0.1523    0.0000 N   0  0  0  0  0  0  0  0  0  0  0  0
    2.1167    0.5536    0.0000 C   0  0  0  0  0  0  0  0  0  0  0  0
    0.8436   -0.2396    0.0000 C   0  0  0  0  0  0  0  0  0  0  0  0
   -0.4799    0.4663    0.0000 C   0  0  0  0  0  0  0  0  0  0  0  0
   -1.7530   -0.3270    0.0000 C   0  0  0  0  0  0  0  0  0  0  0  0
   -3.0765    0.3790    0.0000 C   0  0  0  0  0  0  0  0  0  0  0  0
   -4.3496   -0.4143    0.0000 C   0  0  0  0  0  0  0  0  0  0  0  0
   -5.6731    0.2917    0.0000 C   0  0  0  0  0  0  0  0  0  0  0  0
   -6.9462   -0.5016    0.0000 C   0  0  0  0  0  0  0  0  0  0  0  0
   -8.2697    0.2044    0.0000 N   0  0  0  0  0  0  0  0  0  0  0  0
    4.7133    0.6409    0.0000 C   0  0  0  0  0  0  0  0  0  0  0  0
    6.0368   -0.0650    0.0000 C   0  0  0  0  0  0  0  0  0  0  0  0
    6.0873   -1.5642    0.0000 O   0  0  0  0  0  0  0  0  0  0  0  0
    7.3099    0.7282    0.0000 O   0  0  0  0  0  0  0  0  0  0  0  0
  1  2  1  0
  2  3  1  0
  3  4  1  0
  4  5  1  0
  5  6  1  0
  6  7  1  0
  7  8  1  0
  8  9  1  0
  9 10  1  0
  1 11  1  0
 11 12  1  0
 12 13  2  0
 12 14  1  0
M  END
>  <rName>  (2194) 
NH2NOct-G

>  <PQ_SYMBOL>  (2194) 
NH2NOct-G

>  <FULL_NAME>  (2194) 
H2NOct-Gly

>  <IUPAC_CONDENSED>  (2194) 
H2NOct-Gly

>  <IUPAC>  (2194) 
2-((8-aminooctyl)amino)acetic acid

>  <TYPE>  (2194) 
Backbone

>  <CLASS>  (2194) 
alpha

>  <ANALOG>  (2194) 
Gly

>  <MOL_WT>  (2194) 
202.29799999999997

>  <LOGP>  (2194) 
0.9598999999999998

>  <TPSA>  (2194) 
75.35

>  <POPULARITY>  (2194) 
2.2

>  <PROTECTED>  (2194) 
TRUE

>  <SMILES>  (2194) 
N(CCCCCCCCN)CC(=O)O

>  <INCHIKEY>  (2194) 
ATUFHKONKQYDQF-UHFFFAOYSA-N

$$$$
NH2NPent-G
     RDKit          2D

 11 10  0  0  0  0  0  0  0  0999 V2000
    1.5414   -0.1513    0.0000 N   0  0  0  0  0  0  0  0  0  0  0  0
    0.2172    0.5533    0.0000 C   0  0  0  0  0  0  0  0  0  0  0  0
   -1.0551   -0.2412    0.0000 C   0  0  0  0  0  0  0  0  0  0  0  0
   -2.3793    0.4635    0.0000 C   0  0  0  0  0  0  0  0  0  0  0  0
   -3.6517   -0.3310    0.0000 C   0  0  0  0  0  0  0  0  0  0  0  0
   -4.9759    0.3736    0.0000 C   0  0  0  0  0  0  0  0  0  0  0  0
   -6.2482   -0.4209    0.0000 N   0  0  0  0  0  0  0  0  0  0  0  0
    2.8137    0.6431    0.0000 C   0  0  0  0  0  0  0  0  0  0  0  0
    4.1379   -0.0615    0.0000 C   0  0  0  0  0  0  0  0  0  0  0  0
    4.1898   -1.5606    0.0000 O   0  0  0  0  0  0  0  0  0  0  0  0
    5.4102    0.7330    0.0000 O   0  0  0  0  0  0  0  0  0  0  0  0
  1  2  1  0
  2  3  1  0
  3  4  1  0
  4  5  1  0
  5  6  1  0
  6  7  1  0
  1  8  1  0
  8  9  1  0
  9 10  2  0
  9 11  1  0
M  END
>  <rName>  (2195) 
NH2NPent-G

>  <PQ_SYMBOL>  (2195) 
NH2NPent-G

>  <FULL_NAME>  (2195) 
2-((5-Aminopentyl)amino)acetic acid

>  <IUPAC_CONDENSED>  (2195) 
H2NPent-Gly

>  <IUPAC>  (2195) 
2-(5-aminopentylamino)acetic acid

>  <TYPE>  (2195) 
Backbone

>  <CLASS>  (2195) 
alpha

>  <ANALOG>  (2195) 
Gly

>  <MOL_WT>  (2195) 
160.217

>  <LOGP>  (2195) 
-0.2104000000000002

>  <TPSA>  (2195) 
75.35

>  <POPULARITY>  (2195) 
2.2

>  <PROTECTED>  (2195) 
TRUE

>  <SMILES>  (2195) 
N(CCCCCN)CC(=O)O

>  <INCHIKEY>  (2195) 
RHTMZEMDWRPOIH-UHFFFAOYSA-N

$$$$
NHBn
     RDKit          2D

  8  8  0  0  0  0  0  0  0  0999 V2000
   -3.0851    0.4695    0.0000 N   0  0  0  0  0  0  0  0  0  0  0  0
   -2.0677   -0.6327    0.0000 C   0  0  0  0  0  0  0  0  0  0  0  0
   -0.6045   -0.3028    0.0000 C   0  0  0  0  0  0  0  0  0  0  0  0
   -0.1586    1.1294    0.0000 C   0  0  0  0  0  0  0  0  0  0  0  0
    1.3047    1.4594    0.0000 C   0  0  0  0  0  0  0  0  0  0  0  0
    2.3221    0.3572    0.0000 C   0  0  0  0  0  0  0  0  0  0  0  0
    1.8762   -1.0750    0.0000 C   0  0  0  0  0  0  0  0  0  0  0  0
    0.4129   -1.4050    0.0000 C   0  0  0  0  0  0  0  0  0  0  0  0
  1  2  1  0
  2  3  1  0
  3  4  2  0
  4  5  1  0
  5  6  2  0
  6  7  1  0
  7  8  2  0
  8  3  1  0
M  END
>  <rName>  (2196) 
NHBn

>  <PQ_SYMBOL>  (2196) 
NHBn

>  <FULL_NAME>  (2196) 
Benzylamine

>  <IUPAC_CONDENSED>  (2196) 
NHBn

>  <IUPAC>  (2196) 
1-phenylmethanamine

>  <TYPE>  (2196) 
C-term cap

>  <CLASS>  (2196) 
c_cap

>  <ANALOG>  (2196) 
X

>  <MOL_WT>  (2196) 
107.15599999999996

>  <LOGP>  (2196) 
1.1453

>  <TPSA>  (2196) 
26.02

>  <POPULARITY>  (2196) 
14.8

>  <PROTECTED>  (2196) 
FALSE

>  <SMILES>  (2196) 
NCc1ccccc1

>  <INCHIKEY>  (2196) 
WGQKYBSKWIADBV-UHFFFAOYSA-N

$$$$
NHBn-
     RDKit          2D

  9  9  0  0  0  0  0  0  0  0999 V2000
   -4.0444    0.0606    0.0000 O   0  0  0  0  0  0  0  0  0  0  0  0
   -2.5865    0.4135    0.0000 N   0  0  0  0  0  0  0  0  0  0  0  0
   -1.5520   -0.6727    0.0000 C   0  0  0  0  0  0  0  0  0  0  0  0
   -0.0941   -0.3198    0.0000 C   0  0  0  0  0  0  0  0  0  0  0  0
    0.3293    1.1192    0.0000 C   0  0  0  0  0  0  0  0  0  0  0  0
    1.7872    1.4721    0.0000 C   0  0  0  0  0  0  0  0  0  0  0  0
    2.8217    0.3860    0.0000 C   0  0  0  0  0  0  0  0  0  0  0  0
    2.3984   -1.0531    0.0000 C   0  0  0  0  0  0  0  0  0  0  0  0
    0.9405   -1.4059    0.0000 C   0  0  0  0  0  0  0  0  0  0  0  0
  1  2  1  0
  2  3  1  0
  3  4  1  0
  4  5  2  0
  5  6  1  0
  6  7  2  0
  7  8  1  0
  8  9  2  0
  9  4  1  0
M  END
>  <rName>  (2197) 
NHBn-

>  <PQ_SYMBOL>  (2197) 
NHBn-

>  <FULL_NAME>  (2197) 
N-Terminal 1-phenylmethanamine

>  <IUPAC_CONDENSED>  (2197) 
NHBn-

>  <IUPAC>  (2197) 
N-hydroxy-1-phenylmethanamine

>  <TYPE>  (2197) 
N-term cap

>  <CLASS>  (2197) 
n_cap

>  <ANALOG>  (2197) 
X

>  <MOL_WT>  (2197) 
123.15499999999996

>  <LOGP>  (2197) 
1.1654000000000002

>  <TPSA>  (2197) 
32.26

>  <POPULARITY>  (2197) 
14.8

>  <PROTECTED>  (2197) 
FALSE

>  <SMILES>  (2197) 
ONCc1ccccc1

>  <INCHIKEY>  (2197) 
LVCDXCQFSONNDO-UHFFFAOYSA-N

$$$$
NHBn_2NO2
     RDKit          2D

 11 11  0  0  0  0  0  0  0  0999 V2000
   -1.0063   -3.1763    0.0000 N   0  0  0  0  0  0  0  0  0  0  0  0
   -0.0316   -2.0361    0.0000 C   0  0  0  0  0  0  0  0  0  0  0  0
   -0.5316   -0.6219    0.0000 C   0  0  0  0  0  0  0  0  0  0  0  0
   -2.0064   -0.3479    0.0000 C   0  0  0  0  0  0  0  0  0  0  0  0
   -2.5065    1.0663    0.0000 C   0  0  0  0  0  0  0  0  0  0  0  0
   -1.5318    2.2065    0.0000 C   0  0  0  0  0  0  0  0  0  0  0  0
   -0.0570    1.9324    0.0000 C   0  0  0  0  0  0  0  0  0  0  0  0
    0.4430    0.5183    0.0000 C   0  0  0  0  0  0  0  0  0  0  0  0
    1.9178    0.2442    0.0000 N   0  0  0  0  0  0  0  0  0  0  0  0
    2.4179   -1.1699    0.0000 O   0  0  0  0  0  0  0  0  0  0  0  0
    2.8925    1.3844    0.0000 O   0  0  0  0  0  0  0  0  0  0  0  0
  1  2  1  0
  2  3  1  0
  3  4  2  0
  4  5  1  0
  5  6  2  0
  6  7  1  0
  7  8  2  0
  8  9  1  0
  9 10  2  0
  9 11  1  0
  8  3  1  0
M  CHG  2   9   1  11  -1
M  END
>  <rName>  (2198) 
NHBn_2NO2

>  <PQ_SYMBOL>  (2198) 
NHBn_2NO2

>  <FULL_NAME>  (2198) 
(2-Nitrophenyl)methanamine

>  <IUPAC_CONDENSED>  (2198) 
NHBn(2-NO2)

>  <IUPAC>  (2198) 
1-(2-nitrophenyl)methanamine

>  <TYPE>  (2198) 
C-term cap

>  <CLASS>  (2198) 
c_cap

>  <ANALOG>  (2198) 
X

>  <MOL_WT>  (2198) 
152.15299999999996

>  <LOGP>  (2198) 
1.0535

>  <TPSA>  (2198) 
69.16

>  <POPULARITY>  (2198) 
9.3

>  <PROTECTED>  (2198) 
TRUE

>  <SMILES>  (2198) 
NCc1ccccc1[N+](=O)[O-]

>  <INCHIKEY>  (2198) 
PYYRNLDFMZVKCV-UHFFFAOYSA-N

$$$$
NHBn_2OPr
     RDKit          2D

 12 12  0  0  0  0  0  0  0  0999 V2000
   -0.0649   -2.8304    0.0000 N   0  0  0  0  0  0  0  0  0  0  0  0
    1.3249   -2.2661    0.0000 C   0  0  0  0  0  0  0  0  0  0  0  0
    1.5311   -0.7804    0.0000 C   0  0  0  0  0  0  0  0  0  0  0  0
    0.3475    0.1411    0.0000 C   0  0  0  0  0  0  0  0  0  0  0  0
    0.5536    1.6268    0.0000 C   0  0  0  0  0  0  0  0  0  0  0  0
    1.9435    2.1911    0.0000 C   0  0  0  0  0  0  0  0  0  0  0  0
    3.1271    1.2697    0.0000 C   0  0  0  0  0  0  0  0  0  0  0  0
    2.9209   -0.2161    0.0000 C   0  0  0  0  0  0  0  0  0  0  0  0
   -1.0424   -0.4232    0.0000 O   0  0  0  0  0  0  0  0  0  0  0  0
   -2.2260    0.4982    0.0000 C   0  0  0  0  0  0  0  0  0  0  0  0
   -3.6158   -0.0661    0.0000 C   0  0  0  0  0  0  0  0  0  0  0  0
   -4.7994    0.8554    0.0000 C   0  0  0  0  0  0  0  0  0  0  0  0
  1  2  1  0
  2  3  1  0
  3  4  1  0
  4  5  2  0
  5  6  1  0
  6  7  2  0
  7  8  1  0
  4  9  1  0
  9 10  1  0
 10 11  1  0
 11 12  1  0
  8  3  2  0
M  END
>  <rName>  (2199) 
NHBn_2OPr

>  <PQ_SYMBOL>  (2199) 
NHBn_2OPr

>  <FULL_NAME>  (2199) 
(2-Propoxyphenyl)methanamine

>  <IUPAC_CONDENSED>  (2199) 
NHBn(2-OPr)

>  <IUPAC>  (2199) 
1-(2-propoxyphenyl)methanamine

>  <TYPE>  (2199) 
C-term cap

>  <CLASS>  (2199) 
c_cap

>  <ANALOG>  (2199) 
X

>  <MOL_WT>  (2199) 
165.23599999999993

>  <LOGP>  (2199) 
1.9341

>  <TPSA>  (2199) 
35.25

>  <POPULARITY>  (2199) 
13.3

>  <PROTECTED>  (2199) 
TRUE

>  <SMILES>  (2199) 
NCc1c(cccc1)OCCC

>  <INCHIKEY>  (2199) 
OGRKHGGNPBWHSN-UHFFFAOYSA-N

$$$$
NHBn_2OsBu
     RDKit          2D

 13 13  0  0  0  0  0  0  0  0999 V2000
    0.9220   -3.0025    0.0000 N   0  0  0  0  0  0  0  0  0  0  0  0
    2.0751   -2.0432    0.0000 C   0  0  0  0  0  0  0  0  0  0  0  0
    1.8209   -0.5649    0.0000 C   0  0  0  0  0  0  0  0  0  0  0  0
    0.4135   -0.0460    0.0000 C   0  0  0  0  0  0  0  0  0  0  0  0
    0.1592    1.4323    0.0000 C   0  0  0  0  0  0  0  0  0  0  0  0
    1.3123    2.3917    0.0000 C   0  0  0  0  0  0  0  0  0  0  0  0
    2.7197    1.8728    0.0000 C   0  0  0  0  0  0  0  0  0  0  0  0
    2.9740    0.3945    0.0000 C   0  0  0  0  0  0  0  0  0  0  0  0
   -0.7396   -1.0053    0.0000 O   0  0  0  0  0  0  0  0  0  0  0  0
   -2.1470   -0.4864    0.0000 C   0  0  0  0  0  0  0  0  0  0  0  0
   -3.3001   -1.4457    0.0000 C   0  0  0  0  0  0  0  0  0  0  0  0
   -2.4013    0.9919    0.0000 C   0  0  0  0  0  0  0  0  0  0  0  0
   -3.8087    1.5108    0.0000 C   0  0  0  0  0  0  0  0  0  0  0  0
  1  2  1  0
  2  3  1  0
  3  4  1  0
  4  5  2  0
  5  6  1  0
  6  7  2  0
  7  8  1  0
  4  9  1  0
  9 10  1  0
 10 11  1  0
 10 12  1  0
 12 13  1  0
  8  3  2  0
M  END
>  <rName>  (2200) 
NHBn_2OsBu

>  <PQ_SYMBOL>  (2200) 
NHBn_2OsBu

>  <FULL_NAME>  (2200) 
2-Sec-butoxybenzyl)amine

>  <IUPAC_CONDENSED>  (2200) 
NHBn(2-OsBu)

>  <IUPAC>  (2200) 
1-(2-(sec-butoxy)phenyl)methanamine

>  <TYPE>  (2200) 
C-term cap

>  <CLASS>  (2200) 
c_cap

>  <ANALOG>  (2200) 
X

>  <MOL_WT>  (2200) 
179.26299999999995

>  <LOGP>  (2200) 
2.3226000000000004

>  <TPSA>  (2200) 
35.25

>  <POPULARITY>  (2200) 
11.0

>  <PROTECTED>  (2200) 
TRUE

>  <SMILES>  (2200) 
NCc1c(cccc1)OC(C)CC

>  <INCHIKEY>  (2200) 
XHKNZQJAMBTBKQ-UHFFFAOYSA-N

$$$$
NHBn_2Ph
     RDKit          2D

 14 15  0  0  0  0  0  0  0  0999 V2000
   -0.7500   -2.2269    0.0000 N   0  0  0  0  0  0  0  0  0  0  0  0
    0.7500   -2.2269    0.0000 C   0  0  0  0  0  0  0  0  0  0  0  0
    1.5000   -0.9279    0.0000 C   0  0  0  0  0  0  0  0  0  0  0  0
    0.7500    0.3712    0.0000 C   0  0  0  0  0  0  0  0  0  0  0  0
    1.5000    1.6702    0.0000 C   0  0  0  0  0  0  0  0  0  0  0  0
    3.0000    1.6702    0.0000 C   0  0  0  0  0  0  0  0  0  0  0  0
    3.7500    0.3712    0.0000 C   0  0  0  0  0  0  0  0  0  0  0  0
    3.0000   -0.9279    0.0000 C   0  0  0  0  0  0  0  0  0  0  0  0
   -0.7500    0.3712    0.0000 C   0  0  0  0  0  0  0  0  0  0  0  0
   -1.5000    1.6702    0.0000 C   0  0  0  0  0  0  0  0  0  0  0  0
   -3.0000    1.6702    0.0000 C   0  0  0  0  0  0  0  0  0  0  0  0
   -3.7500    0.3712    0.0000 C   0  0  0  0  0  0  0  0  0  0  0  0
   -3.0000   -0.9279    0.0000 C   0  0  0  0  0  0  0  0  0  0  0  0
   -1.5000   -0.9279    0.0000 C   0  0  0  0  0  0  0  0  0  0  0  0
  1  2  1  0
  2  3  1  0
  3  4  1  0
  4  5  2  0
  5  6  1  0
  6  7  2  0
  7  8  1  0
  4  9  1  0
  9 10  2  0
 10 11  1  0
 11 12  2  0
 12 13  1  0
 13 14  2  0
 14  9  1  0
  8  3  2  0
M  END
>  <rName>  (2201) 
NHBn_2Ph

>  <PQ_SYMBOL>  (2201) 
NHBn_2Ph

>  <FULL_NAME>  (2201) 
1-Biphenyl-2-Ylmethanamine

>  <IUPAC_CONDENSED>  (2201) 
NHBn(2-Ph)

>  <IUPAC>  (2201) 
1-(2-phenylphenyl)methanamine

>  <TYPE>  (2201) 
C-term cap

>  <CLASS>  (2201) 
c_cap

>  <ANALOG>  (2201) 
X

>  <MOL_WT>  (2201) 
183.254

>  <LOGP>  (2201) 
2.8123000000000014

>  <TPSA>  (2201) 
26.02

>  <POPULARITY>  (2201) 
13.0

>  <PROTECTED>  (2201) 
TRUE

>  <SMILES>  (2201) 
NCc2c(cccc2)c1ccccc1

>  <INCHIKEY>  (2201) 
YHXKXVFQHWJYOD-UHFFFAOYSA-N

$$$$
NHBn_3CF3
     RDKit          2D

 12 12  0  0  0  0  0  0  0  0999 V2000
    3.0893   -2.1367    0.0000 N   0  0  0  0  0  0  0  0  0  0  0  0
    3.1251   -0.6371    0.0000 C   0  0  0  0  0  0  0  0  0  0  0  0
    1.8442    0.1436    0.0000 C   0  0  0  0  0  0  0  0  0  0  0  0
    0.5277   -0.5752    0.0000 C   0  0  0  0  0  0  0  0  0  0  0  0
   -0.7531    0.2055    0.0000 C   0  0  0  0  0  0  0  0  0  0  0  0
   -0.7174    1.7051    0.0000 C   0  0  0  0  0  0  0  0  0  0  0  0
    0.5992    2.4239    0.0000 C   0  0  0  0  0  0  0  0  0  0  0  0
    1.8800    1.6432    0.0000 C   0  0  0  0  0  0  0  0  0  0  0  0
   -2.0696   -0.5134    0.0000 C   0  0  0  0  0  0  0  0  0  0  0  0
   -3.3862   -1.2322    0.0000 F   0  0  0  0  0  0  0  0  0  0  0  0
   -2.7885    0.8032    0.0000 F   0  0  0  0  0  0  0  0  0  0  0  0
   -1.3508   -1.8299    0.0000 F   0  0  0  0  0  0  0  0  0  0  0  0
  1  2  1  0
  2  3  1  0
  3  4  2  0
  4  5  1  0
  5  6  2  0
  6  7  1  0
  7  8  2  0
  5  9  1  0
  9 10  1  0
  9 11  1  0
  9 12  1  0
  8  3  1  0
M  END
>  <rName>  (2202) 
NHBn_3CF3

>  <PQ_SYMBOL>  (2202) 
NHBn_3CF3

>  <FULL_NAME>  (2202) 
[3-(trifluoromethyl)phenyl]methanamine

>  <IUPAC_CONDENSED>  (2202) 
NHBn(3-CF3)

>  <IUPAC>  (2202) 
1-(3-(trifluoromethyl)phenyl)methanamine

>  <TYPE>  (2202) 
C-term cap

>  <CLASS>  (2202) 
c_cap

>  <ANALOG>  (2202) 
X

>  <MOL_WT>  (2202) 
175.15299999999993

>  <LOGP>  (2202) 
2.1641000000000004

>  <TPSA>  (2202) 
26.02

>  <POPULARITY>  (2202) 
14.5

>  <PROTECTED>  (2202) 
FALSE

>  <SMILES>  (2202) 
NCc1cc(ccc1)C(F)(F)F

>  <INCHIKEY>  (2202) 
YKNZTUQUXUXTLE-UHFFFAOYSA-N

$$$$
NHBn_3Ph
     RDKit          2D

 14 15  0  0  0  0  0  0  0  0999 V2000
    3.3370   -2.6440    0.0000 N   0  0  0  0  0  0  0  0  0  0  0  0
    3.7163   -1.1927    0.0000 C   0  0  0  0  0  0  0  0  0  0  0  0
    2.6491   -0.1386    0.0000 C   0  0  0  0  0  0  0  0  0  0  0  0
    1.2026   -0.5358    0.0000 C   0  0  0  0  0  0  0  0  0  0  0  0
    0.1355    0.5183    0.0000 C   0  0  0  0  0  0  0  0  0  0  0  0
    0.5147    1.9696    0.0000 C   0  0  0  0  0  0  0  0  0  0  0  0
    1.9612    2.3667    0.0000 C   0  0  0  0  0  0  0  0  0  0  0  0
    3.0284    1.3126    0.0000 C   0  0  0  0  0  0  0  0  0  0  0  0
   -1.3110    0.1212    0.0000 C   0  0  0  0  0  0  0  0  0  0  0  0
   -2.3782    1.1753    0.0000 C   0  0  0  0  0  0  0  0  0  0  0  0
   -3.8247    0.7781    0.0000 C   0  0  0  0  0  0  0  0  0  0  0  0
   -4.2039   -0.6732    0.0000 C   0  0  0  0  0  0  0  0  0  0  0  0
   -3.1368   -1.7273    0.0000 C   0  0  0  0  0  0  0  0  0  0  0  0
   -1.6903   -1.3301    0.0000 C   0  0  0  0  0  0  0  0  0  0  0  0
  1  2  1  0
  2  3  1  0
  3  4  2  0
  4  5  1  0
  5  6  2  0
  6  7  1  0
  7  8  2  0
  5  9  1  0
  9 10  2  0
 10 11  1  0
 11 12  2  0
 12 13  1  0
 13 14  2  0
 14  9  1  0
  8  3  1  0
M  END
>  <rName>  (2203) 
NHBn_3Ph

>  <PQ_SYMBOL>  (2203) 
NHBn_3Ph

>  <FULL_NAME>  (2203) 
3-Phenylbenzylamine

>  <IUPAC_CONDENSED>  (2203) 
NHBn(3-Ph)

>  <IUPAC>  (2203) 
1-(3-phenylphenyl)methanamine

>  <TYPE>  (2203) 
C-term cap

>  <CLASS>  (2203) 
c_cap

>  <ANALOG>  (2203) 
X

>  <MOL_WT>  (2203) 
183.254

>  <LOGP>  (2203) 
2.8123000000000014

>  <TPSA>  (2203) 
26.02

>  <POPULARITY>  (2203) 
12.8

>  <PROTECTED>  (2203) 
TRUE

>  <SMILES>  (2203) 
NCc2cc(ccc2)c1ccccc1

>  <INCHIKEY>  (2203) 
WKHABRRJMGVELW-UHFFFAOYSA-N

$$$$
NHEt
     RDKit          2D

  3  2  0  0  0  0  0  0  0  0999 V2000
    1.2990   -0.2500    0.0000 N   0  0  0  0  0  0  0  0  0  0  0  0
    0.0000    0.5000    0.0000 C   0  0  0  0  0  0  0  0  0  0  0  0
   -1.2990   -0.2500    0.0000 C   0  0  0  0  0  0  0  0  0  0  0  0
  1  2  1  0
  2  3  1  0
M  END
>  <rName>  (2204) 
NHEt

>  <PQ_SYMBOL>  (2204) 
NHEt

>  <FULL_NAME>  (2204) 
Ethylamine

>  <IUPAC_CONDENSED>  (2204) 
NHEt

>  <IUPAC>  (2204) 
ethanamine

>  <TYPE>  (2204) 
C-term cap

>  <CLASS>  (2204) 
c_cap

>  <ANALOG>  (2204) 
X

>  <MOL_WT>  (2204) 
45.084999999999994

>  <LOGP>  (2204) 
-0.03499999999999992

>  <TPSA>  (2204) 
26.02

>  <POPULARITY>  (2204) 
2.0

>  <PROTECTED>  (2204) 
FALSE

>  <SMILES>  (2204) 
NCC

>  <INCHIKEY>  (2204) 
QUSNBJAOOMFDIB-UHFFFAOYSA-N

$$$$
NHMe
     RDKit          2D

  2  1  0  0  0  0  0  0  0  0999 V2000
    0.7500   -0.0000    0.0000 N   0  0  0  0  0  0  0  0  0  0  0  0
   -0.7500    0.0000    0.0000 C   0  0  0  0  0  0  0  0  0  0  0  0
  1  2  1  0
M  END
>  <rName>  (2205) 
NHMe

>  <PQ_SYMBOL>  (2205) 
NHMe

>  <FULL_NAME>  (2205) 
N-methyl amide

>  <IUPAC_CONDENSED>  (2205) 
NHMe

>  <IUPAC>  (2205) 
methanamine

>  <TYPE>  (2205) 
C-term cap

>  <CLASS>  (2205) 
c_cap

>  <ANALOG>  (2205) 
X

>  <MOL_WT>  (2205) 
31.058

>  <LOGP>  (2205) 
-0.42510000000000003

>  <TPSA>  (2205) 
26.02

>  <POPULARITY>  (2205) 
2.0

>  <PROTECTED>  (2205) 
FALSE

>  <SMILES>  (2205) 
NC

>  <INCHIKEY>  (2205) 
BAVYZALUXZFZLV-UHFFFAOYSA-N

$$$$
NHOBu-G
     RDKit          2D

 10  9  0  0  0  0  0  0  0  0999 V2000
    0.9213   -0.1695    0.0000 N   0  0  0  0  0  0  0  0  0  0  0  0
   -0.4208    0.5004    0.0000 C   0  0  0  0  0  0  0  0  0  0  0  0
   -1.6720   -0.3269    0.0000 C   0  0  0  0  0  0  0  0  0  0  0  0
   -3.0141    0.3430    0.0000 C   0  0  0  0  0  0  0  0  0  0  0  0
   -4.2653   -0.4843    0.0000 C   0  0  0  0  0  0  0  0  0  0  0  0
   -5.6074    0.1857    0.0000 O   0  0  0  0  0  0  0  0  0  0  0  0
    2.1725    0.6578    0.0000 C   0  0  0  0  0  0  0  0  0  0  0  0
    3.5146   -0.0121    0.0000 C   0  0  0  0  0  0  0  0  0  0  0  0
    3.6055   -1.5094    0.0000 O   0  0  0  0  0  0  0  0  0  0  0  0
    4.7658    0.8152    0.0000 O   0  0  0  0  0  0  0  0  0  0  0  0
  1  2  1  0
  2  3  1  0
  3  4  1  0
  4  5  1  0
  5  6  1  0
  1  7  1  0
  7  8  1  0
  8  9  2  0
  8 10  1  0
M  END
>  <rName>  (2206) 
NHOBu-G

>  <PQ_SYMBOL>  (2206) 
NHOBu-G

>  <FULL_NAME>  (2206) 
2-[(4-Hydroxybutyl)amino]acetic acid

>  <IUPAC_CONDENSED>  (2206) 
HOBu-Gly

>  <IUPAC>  (2206) 
2-((4-hydroxybutyl)amino)acetic acid

>  <TYPE>  (2206) 
Backbone

>  <CLASS>  (2206) 
alpha

>  <ANALOG>  (2206) 
Gly

>  <MOL_WT>  (2206) 
147.174

>  <LOGP>  (2206) 
-0.5669000000000004

>  <TPSA>  (2206) 
69.56

>  <POPULARITY>  (2206) 
14.8

>  <PROTECTED>  (2206) 
TRUE

>  <SMILES>  (2206) 
N(CCCCO)CC(=O)O

>  <INCHIKEY>  (2206) 
HXMLCZPKTGULRR-UHFFFAOYSA-N

$$$$
NHOCOCH2-G
     RDKit          2D

  9  8  0  0  0  0  0  0  0  0999 V2000
    0.0000    0.0000    0.0000 N   0  0  0  0  0  0  0  0  0  0  0  0
    1.2990   -0.7500    0.0000 C   0  0  0  0  0  0  0  0  0  0  0  0
    2.5981   -0.0000    0.0000 C   0  0  0  0  0  0  0  0  0  0  0  0
    2.5981    1.5000    0.0000 O   0  0  0  0  0  0  0  0  0  0  0  0
    3.8971   -0.7500    0.0000 O   0  0  0  0  0  0  0  0  0  0  0  0
   -1.2990   -0.7500    0.0000 C   0  0  0  0  0  0  0  0  0  0  0  0
   -2.5981    0.0000    0.0000 C   0  0  0  0  0  0  0  0  0  0  0  0
   -2.5981    1.5000    0.0000 O   0  0  0  0  0  0  0  0  0  0  0  0
   -3.8971   -0.7500    0.0000 O   0  0  0  0  0  0  0  0  0  0  0  0
  1  2  1  0
  2  3  1  0
  3  4  2  0
  3  5  1  0
  1  6  1  0
  6  7  1  0
  7  8  2  0
  7  9  1  0
M  END
>  <rName>  (2207) 
NHOCOCH2-G

>  <PQ_SYMBOL>  (2207) 
NHOCOCH2-G

>  <FULL_NAME>  (2207) 
2,2'-azanediyldiacetic acid

>  <IUPAC_CONDENSED>  (2207) 
HOCOCH2-Gly

>  <IUPAC>  (2207) 
2-((2-hydroxy-2-oxoethyl)amino)acetic acid

>  <TYPE>  (2207) 
Backbone

>  <CLASS>  (2207) 
alpha

>  <ANALOG>  (2207) 
Gly

>  <MOL_WT>  (2207) 
133.103

>  <LOGP>  (2207) 
-1.2548

>  <TPSA>  (2207) 
86.63000000000001

>  <POPULARITY>  (2207) 
17.0

>  <PROTECTED>  (2207) 
TRUE

>  <SMILES>  (2207) 
N(CC(=O)O)CC(=O)O

>  <INCHIKEY>  (2207) 
NBZBKCUXIYYUSX-UHFFFAOYSA-N

$$$$
NHOCOCH2-bAla
     RDKit          2D

 10  9  0  0  0  0  0  0  0  0999 V2000
    0.6897   -0.2947    0.0000 N   0  0  0  0  0  0  0  0  0  0  0  0
   -0.6897    0.2947    0.0000 C   0  0  0  0  0  0  0  0  0  0  0  0
   -1.8898   -0.6050    0.0000 C   0  0  0  0  0  0  0  0  0  0  0  0
   -3.2691   -0.0155    0.0000 C   0  0  0  0  0  0  0  0  0  0  0  0
   -3.4483    1.4737    0.0000 O   0  0  0  0  0  0  0  0  0  0  0  0
   -4.4693   -0.9153    0.0000 O   0  0  0  0  0  0  0  0  0  0  0  0
    1.8898    0.6050    0.0000 C   0  0  0  0  0  0  0  0  0  0  0  0
    3.2691    0.0155    0.0000 C   0  0  0  0  0  0  0  0  0  0  0  0
    3.4483   -1.4737    0.0000 O   0  0  0  0  0  0  0  0  0  0  0  0
    4.4693    0.9153    0.0000 O   0  0  0  0  0  0  0  0  0  0  0  0
  1  2  1  0
  2  3  1  0
  3  4  1  0
  4  5  2  0
  4  6  1  0
  1  7  1  0
  7  8  1  0
  8  9  2  0
  8 10  1  0
M  END
>  <rName>  (2208) 
NHOCOCH2-bAla

>  <PQ_SYMBOL>  (2208) 
NHOCOCH2-bAla

>  <FULL_NAME>  (2208) 
N-(carboxymethyl)-beta alanine

>  <IUPAC_CONDENSED>  (2208) 
HOCOCH2-bAla

>  <IUPAC>  (2208) 
3-((2-hydroxy-2-oxoethyl)amino)propanoic acid

>  <TYPE>  (2208) 
Backbone

>  <CLASS>  (2208) 
alpha

>  <ANALOG>  (2208) 
Gly

>  <MOL_WT>  (2208) 
147.13

>  <LOGP>  (2208) 
-0.8646999999999994

>  <TPSA>  (2208) 
86.63000000000001

>  <POPULARITY>  (2208) 
14.1

>  <PROTECTED>  (2208) 
TRUE

>  <SMILES>  (2208) 
N(CCC(=O)O)CC(=O)O

>  <INCHIKEY>  (2208) 
GAUBNQMYYJLWNF-UHFFFAOYSA-N

$$$$
NHSEt-G
     RDKit          2D

  8  7  0  0  0  0  0  0  0  0999 V2000
   -0.3069   -0.2155    0.0000 N   0  0  0  0  0  0  0  0  0  0  0  0
   -1.6672    0.4165    0.0000 C   0  0  0  0  0  0  0  0  0  0  0  0
   -2.8948   -0.4455    0.0000 C   0  0  0  0  0  0  0  0  0  0  0  0
   -4.2551    0.1865    0.0000 S   0  0  0  0  0  0  0  0  0  0  0  0
    0.9207    0.6465    0.0000 C   0  0  0  0  0  0  0  0  0  0  0  0
    2.2810    0.0145    0.0000 C   0  0  0  0  0  0  0  0  0  0  0  0
    2.4138   -1.4796    0.0000 O   0  0  0  0  0  0  0  0  0  0  0  0
    3.5085    0.8766    0.0000 O   0  0  0  0  0  0  0  0  0  0  0  0
  1  2  1  0
  2  3  1  0
  3  4  1  0
  1  5  1  0
  5  6  1  0
  6  7  2  0
  6  8  1  0
M  END
>  <rName>  (2209) 
NHSEt-G

>  <PQ_SYMBOL>  (2209) 
NHSEt-G

>  <FULL_NAME>  (2209) 
2-(2-sulfanylethylamino)acetic acid

>  <IUPAC_CONDENSED>  (2209) 
HSEt-Gly

>  <IUPAC>  (2209) 
2-((2-sulfanylethyl)amino)acetic acid

>  <TYPE>  (2209) 
Backbone

>  <CLASS>  (2209) 
alpha

>  <ANALOG>  (2209) 
Gly

>  <MOL_WT>  (2209) 
135.188

>  <LOGP>  (2209) 
-0.40960000000000024

>  <TPSA>  (2209) 
49.33

>  <POPULARITY>  (2209) 
23.0

>  <PROTECTED>  (2209) 
TRUE

>  <SMILES>  (2209) 
N(CCS)CC(=O)O

>  <INCHIKEY>  (2209) 
IAICFWDJMWEXAO-UHFFFAOYSA-N

$$$$
NHnaphth-1-ylmethyl
     RDKit          2D

 12 13  0  0  0  0  0  0  0  0999 V2000
   -3.6663   -1.3735    0.0000 N   0  0  0  0  0  0  0  0  0  0  0  0
   -2.1699   -1.4772    0.0000 C   0  0  0  0  0  0  0  0  0  0  0  0
   -1.3318   -0.2332    0.0000 C   0  0  0  0  0  0  0  0  0  0  0  0
    0.1646   -0.3370    0.0000 C   0  0  0  0  0  0  0  0  0  0  0  0
    0.8229   -1.6848    0.0000 C   0  0  0  0  0  0  0  0  0  0  0  0
    2.3193   -1.7885    0.0000 C   0  0  0  0  0  0  0  0  0  0  0  0
    3.1574   -0.5445    0.0000 C   0  0  0  0  0  0  0  0  0  0  0  0
    2.4991    0.8033    0.0000 C   0  0  0  0  0  0  0  0  0  0  0  0
    1.0027    0.9071    0.0000 C   0  0  0  0  0  0  0  0  0  0  0  0
    0.3443    2.2549    0.0000 C   0  0  0  0  0  0  0  0  0  0  0  0
   -1.1521    2.3587    0.0000 C   0  0  0  0  0  0  0  0  0  0  0  0
   -1.9902    1.1146    0.0000 C   0  0  0  0  0  0  0  0  0  0  0  0
  1  2  1  0
  2  3  1  0
  3  4  1  0
  4  5  2  0
  5  6  1  0
  6  7  2  0
  7  8  1  0
  8  9  2  0
  9 10  1  0
 10 11  2  0
 11 12  1  0
  9  4  1  0
 12  3  2  0
M  END
>  <rName>  (2210) 
NHnaphth-1-ylmethyl

>  <PQ_SYMBOL>  (2210) 
NHnaphth-1-ylmethyl

>  <FULL_NAME>  (2210) 
1-Naphthalenemethylamine

>  <IUPAC_CONDENSED>  (2210) 
NHnaphth-1-ylmethyl

>  <IUPAC>  (2210) 
1-(naphthalen-1-yl)methanamine

>  <TYPE>  (2210) 
C-term cap

>  <CLASS>  (2210) 
c_cap

>  <ANALOG>  (2210) 
X

>  <MOL_WT>  (2210) 
157.21599999999998

>  <LOGP>  (2210) 
2.2985000000000007

>  <TPSA>  (2210) 
26.02

>  <POPULARITY>  (2210) 
13.9

>  <PROTECTED>  (2210) 
TRUE

>  <SMILES>  (2210) 
NCc2c1ccccc1ccc2

>  <INCHIKEY>  (2210) 
NVSYANRBXPURRQ-UHFFFAOYSA-N

$$$$
NMbzl-G
     RDKit          2D

 13 13  0  0  0  0  0  0  0  0999 V2000
   -1.6537   -0.1855    0.0000 N   0  0  0  0  0  0  0  0  0  0  0  0
   -0.4997   -1.1437    0.0000 C   0  0  0  0  0  0  0  0  0  0  0  0
    0.9072   -0.6234    0.0000 C   0  0  0  0  0  0  0  0  0  0  0  0
    1.1600    0.8552    0.0000 C   0  0  0  0  0  0  0  0  0  0  0  0
    2.5669    1.3755    0.0000 C   0  0  0  0  0  0  0  0  0  0  0  0
    3.7209    0.4173    0.0000 C   0  0  0  0  0  0  0  0  0  0  0  0
    5.1278    0.9376    0.0000 C   0  0  0  0  0  0  0  0  0  0  0  0
    3.4681   -1.0612    0.0000 C   0  0  0  0  0  0  0  0  0  0  0  0
    2.0612   -1.5816    0.0000 C   0  0  0  0  0  0  0  0  0  0  0  0
   -3.0606   -0.7058    0.0000 C   0  0  0  0  0  0  0  0  0  0  0  0
   -4.2146    0.2524    0.0000 C   0  0  0  0  0  0  0  0  0  0  0  0
   -3.9618    1.7310    0.0000 O   0  0  0  0  0  0  0  0  0  0  0  0
   -5.6215   -0.2679    0.0000 O   0  0  0  0  0  0  0  0  0  0  0  0
  1  2  1  0
  2  3  1  0
  3  4  1  0
  4  5  2  0
  5  6  1  0
  6  7  1  0
  6  8  2  0
  8  9  1  0
  1 10  1  0
 10 11  1  0
 11 12  2  0
 11 13  1  0
  9  3  2  0
M  END
>  <rName>  (2211) 
NMbzl-G

>  <PQ_SYMBOL>  (2211) 
NMbzl-G

>  <FULL_NAME>  (2211) 
(4-methylbenzyl)glycine

>  <IUPAC_CONDENSED>  (2211) 
Mbzl-Gly

>  <IUPAC>  (2211) 
2-(((4-methylphenyl)methyl)amino)acetic acid

>  <TYPE>  (2211) 
Backbone

>  <CLASS>  (2211) 
alpha

>  <ANALOG>  (2211) 
Gly

>  <MOL_WT>  (2211) 
179.21899999999997

>  <LOGP>  (2211) 
1.16922

>  <TPSA>  (2211) 
49.33

>  <POPULARITY>  (2211) 
14.9

>  <PROTECTED>  (2211) 
TRUE

>  <SMILES>  (2211) 
N(Cc1(ccc(C)cc1))CC(=O)O

>  <INCHIKEY>  (2211) 
LZBYHWQHNZFDSR-UHFFFAOYSA-N

$$$$
NMe-1Nal
     RDKit          2D

 17 18  0  0  0  0  0  0  0  0999 V2000
   -2.6226   -1.3014    0.0000 N   0  0  0  0  0  0  0  0  0  0  0  0
   -4.0285   -1.8243    0.0000 C   0  0  0  0  0  0  0  0  0  0  0  0
   -2.3724    0.1776    0.0000 C   0  0  0  0  0  0  0  0  0  0  0  0
   -0.9665    0.7004    0.0000 C   0  0  0  0  0  0  0  0  0  0  0  0
    0.1892   -0.2557    0.0000 C   0  0  0  0  0  0  0  0  0  0  0  0
   -0.0609   -1.7347    0.0000 C   0  0  0  0  0  0  0  0  0  0  0  0
    1.0949   -2.6909    0.0000 C   0  0  0  0  0  0  0  0  0  0  0  0
    2.5008   -2.1680    0.0000 C   0  0  0  0  0  0  0  0  0  0  0  0
    2.7509   -0.6890    0.0000 C   0  0  0  0  0  0  0  0  0  0  0  0
    4.1569   -0.1662    0.0000 C   0  0  0  0  0  0  0  0  0  0  0  0
    4.4070    1.3128    0.0000 C   0  0  0  0  0  0  0  0  0  0  0  0
    3.2512    2.2690    0.0000 C   0  0  0  0  0  0  0  0  0  0  0  0
    1.8453    1.7461    0.0000 C   0  0  0  0  0  0  0  0  0  0  0  0
    1.5952    0.2671    0.0000 C   0  0  0  0  0  0  0  0  0  0  0  0
   -3.5282    1.1337    0.0000 C   0  0  0  0  0  0  0  0  0  0  0  0
   -3.2781    2.6127    0.0000 O   0  0  0  0  0  0  0  0  0  0  0  0
   -4.9341    0.6108    0.0000 O   0  0  0  0  0  0  0  0  0  0  0  0
  1  2  1  0
  1  3  1  0
  3  4  1  6
  4  5  1  0
  5  6  2  0
  6  7  1  0
  7  8  2  0
  8  9  1  0
  9 10  2  0
 10 11  1  0
 11 12  2  0
 12 13  1  0
 13 14  2  0
  3 15  1  0
 15 16  2  0
 15 17  1  0
 14  5  1  0
 14  9  1  0
M  END
>  <rName>  (2212) 
NMe-1Nal

>  <PQ_SYMBOL>  (2212) 
NMe-1Nal

>  <FULL_NAME>  (2212) 
N-methyl-3-(1-naphthyl)-L-Alanine

>  <IUPAC_CONDENSED>  (2212) 
Me-1Nal

>  <IUPAC>  (2212) 
(2S)-2-(methylamino)-3-(naphthalen-1-yl)propanoic acid

>  <TYPE>  (2212) 
Backbone

>  <CLASS>  (2212) 
alpha

>  <ANALOG>  (2212) 
Phe

>  <MOL_WT>  (2212) 
229.279

>  <LOGP>  (2212) 
2.0548999999999995

>  <TPSA>  (2212) 
49.33

>  <POPULARITY>  (2212) 
11.1

>  <PROTECTED>  (2212) 
TRUE

>  <SMILES>  (2212) 
N(C)[C@@H](Cc1(cccc2(ccccc12)))C(=O)O

>  <INCHIKEY>  (2212) 
BNIHASXPOKDHFH-ZDUSSCGKSA-N

$$$$
NMe-2Abz
     RDKit          2D

 11 11  0  0  0  0  0  0  0  0999 V2000
    0.0316   -2.0361    0.0000 N   0  0  0  0  0  0  0  0  0  0  0  0
    1.0063   -3.1763    0.0000 C   0  0  0  0  0  0  0  0  0  0  0  0
    0.5316   -0.6219    0.0000 C   0  0  0  0  0  0  0  0  0  0  0  0
   -0.4430    0.5183    0.0000 C   0  0  0  0  0  0  0  0  0  0  0  0
    0.0570    1.9324    0.0000 C   0  0  0  0  0  0  0  0  0  0  0  0
    1.5318    2.2065    0.0000 C   0  0  0  0  0  0  0  0  0  0  0  0
    2.5065    1.0663    0.0000 C   0  0  0  0  0  0  0  0  0  0  0  0
    2.0064   -0.3479    0.0000 C   0  0  0  0  0  0  0  0  0  0  0  0
   -1.9178    0.2442    0.0000 C   0  0  0  0  0  0  0  0  0  0  0  0
   -2.4179   -1.1699    0.0000 O   0  0  0  0  0  0  0  0  0  0  0  0
   -2.8925    1.3844    0.0000 O   0  0  0  0  0  0  0  0  0  0  0  0
  1  2  1  0
  1  3  1  0
  3  4  1  0
  4  5  2  0
  5  6  1  0
  6  7  2  0
  7  8  1  0
  4  9  1  0
  9 10  2  0
  9 11  1  0
  8  3  2  0
M  END
>  <rName>  (2213) 
NMe-2Abz

>  <PQ_SYMBOL>  (2213) 
NMe-2Abz

>  <FULL_NAME>  (2213) 
2-(methylamino)benzoic acid

>  <IUPAC_CONDENSED>  (2213) 
Me-2Abz

>  <IUPAC>  (2213) 
2-(methylamino)benzoic acid

>  <TYPE>  (2213) 
Backbone

>  <CLASS>  (2213) 
beta

>  <ANALOG>  (2213) 
X

>  <MOL_WT>  (2213) 
151.16499999999996

>  <LOGP>  (2213) 
1.4264999999999999

>  <TPSA>  (2213) 
49.33

>  <POPULARITY>  (2213) 
13.6

>  <PROTECTED>  (2213) 
FALSE

>  <SMILES>  (2213) 
N(C)c1c(cccc1)C(=O)O

>  <INCHIKEY>  (2213) 
WVMBPWMAQDVZCM-UHFFFAOYSA-N

$$$$
NMe-2Nal
     RDKit          2D

 17 18  0  0  0  0  0  0  0  0999 V2000
   -1.9873    1.3489    0.0000 N   0  0  0  0  0  0  0  0  0  0  0  0
   -2.8552    2.5724    0.0000 C   0  0  0  0  0  0  0  0  0  0  0  0
   -2.6130   -0.0144    0.0000 C   0  0  0  0  0  0  0  0  0  0  0  0
   -1.7451   -1.2379    0.0000 C   0  0  0  0  0  0  0  0  0  0  0  0
   -0.2517   -1.0980    0.0000 C   0  0  0  0  0  0  0  0  0  0  0  0
    0.6162   -2.3215    0.0000 C   0  0  0  0  0  0  0  0  0  0  0  0
    2.1096   -2.1817    0.0000 C   0  0  0  0  0  0  0  0  0  0  0  0
    2.7353   -0.8184    0.0000 C   0  0  0  0  0  0  0  0  0  0  0  0
    4.2287   -0.6785    0.0000 C   0  0  0  0  0  0  0  0  0  0  0  0
    4.8544    0.6848    0.0000 C   0  0  0  0  0  0  0  0  0  0  0  0
    3.9865    1.9082    0.0000 C   0  0  0  0  0  0  0  0  0  0  0  0
    2.4931    1.7684    0.0000 C   0  0  0  0  0  0  0  0  0  0  0  0
    1.8674    0.4051    0.0000 C   0  0  0  0  0  0  0  0  0  0  0  0
    0.3740    0.2653    0.0000 C   0  0  0  0  0  0  0  0  0  0  0  0
   -4.1064   -0.1542    0.0000 C   0  0  0  0  0  0  0  0  0  0  0  0
   -4.7321   -1.5175    0.0000 O   0  0  0  0  0  0  0  0  0  0  0  0
   -4.9743    1.0692    0.0000 O   0  0  0  0  0  0  0  0  0  0  0  0
  1  2  1  0
  1  3  1  0
  3  4  1  1
  4  5  1  0
  5  6  1  0
  6  7  2  0
  7  8  1  0
  8  9  2  0
  9 10  1  0
 10 11  2  0
 11 12  1  0
 12 13  2  0
 13 14  1  0
  3 15  1  0
 15 16  2  0
 15 17  1  0
 13  8  1  0
 14  5  2  0
M  END
>  <rName>  (2214) 
NMe-2Nal

>  <PQ_SYMBOL>  (2214) 
NMe-2Nal

>  <FULL_NAME>  (2214) 
N-methyl-3-(2-naphthyl)-L-Alanine

>  <IUPAC_CONDENSED>  (2214) 
Me-2Nal

>  <IUPAC>  (2214) 
(2S)-2-(methylamino)-3-(naphthalen-2-yl)propanoic acid

>  <TYPE>  (2214) 
Backbone

>  <CLASS>  (2214) 
alpha

>  <ANALOG>  (2214) 
Phe

>  <MOL_WT>  (2214) 
229.279

>  <LOGP>  (2214) 
2.0548999999999995

>  <TPSA>  (2214) 
49.33

>  <POPULARITY>  (2214) 
15.1

>  <PROTECTED>  (2214) 
TRUE

>  <SMILES>  (2214) 
N(C)[C@@H](Cc2(ccc1(ccccc1c2)))C(=O)O

>  <INCHIKEY>  (2214) 
XRBFRWVSTGFFCB-ZDUSSCGKSA-N

$$$$
NMe-3-oxa-Ac4c
     RDKit          2D

  9  9  0  0  0  0  0  0  0  0999 V2000
   -0.5215   -1.3307    0.0000 N   0  0  0  0  0  0  0  0  0  0  0  0
   -1.9619   -1.7491    0.0000 C   0  0  0  0  0  0  0  0  0  0  0  0
   -0.1637    0.1260    0.0000 C   0  0  0  0  0  0  0  0  0  0  0  0
   -1.6204    0.4838    0.0000 C   0  0  0  0  0  0  0  0  0  0  0  0
   -1.2625    1.9405    0.0000 O   0  0  0  0  0  0  0  0  0  0  0  0
    0.1942    1.5827    0.0000 C   0  0  0  0  0  0  0  0  0  0  0  0
    1.2930   -0.2318    0.0000 C   0  0  0  0  0  0  0  0  0  0  0  0
    2.3313    0.8508    0.0000 O   0  0  0  0  0  0  0  0  0  0  0  0
    1.7115   -1.6723    0.0000 O   0  0  0  0  0  0  0  0  0  0  0  0
  1  2  1  0
  1  3  1  0
  3  4  1  0
  4  5  1  0
  5  6  1  0
  3  7  1  0
  7  8  2  0
  7  9  1  0
  6  3  1  0
M  END
>  <rName>  (2215) 
NMe-3-oxa-Ac4c

>  <PQ_SYMBOL>  (2215) 
NMe-3-oxa-Ac4c

>  <FULL_NAME>  (2215) 
3-(methylamino)oxetane-3-carboxylic acid

>  <IUPAC_CONDENSED>  (2215) 
Me-3-oxa-Ac4c

>  <IUPAC>  (2215) 
3-(methylamino)-1-oxacyclobutane-3-carboxylic acid

>  <TYPE>  (2215) 
Backbone

>  <CLASS>  (2215) 
alpha

>  <ANALOG>  (2215) 
Ser

>  <MOL_WT>  (2215) 
131.131

>  <LOGP>  (2215) 
-0.9406000000000001

>  <TPSA>  (2215) 
58.56

>  <POPULARITY>  (2215) 
8.0

>  <PROTECTED>  (2215) 
TRUE

>  <SMILES>  (2215) 
N(C)C1(COC1)C(=O)O

>  <INCHIKEY>  (2215) 
UFXHHNPUXSLYAC-UHFFFAOYSA-N

$$$$
NMe-3Pal
     RDKit          2D

 13 13  0  0  0  0  0  0  0  0999 V2000
   -1.1846    1.3730    0.0000 N   0  0  0  0  0  0  0  0  0  0  0  0
   -2.3388    2.3311    0.0000 C   0  0  0  0  0  0  0  0  0  0  0  0
   -1.4373   -0.1056    0.0000 C   0  0  0  0  0  0  0  0  0  0  0  0
   -0.2831   -1.0637    0.0000 C   0  0  0  0  0  0  0  0  0  0  0  0
    1.1237   -0.5432    0.0000 C   0  0  0  0  0  0  0  0  0  0  0  0
    1.3763    0.9354    0.0000 C   0  0  0  0  0  0  0  0  0  0  0  0
    2.7831    1.4559    0.0000 C   0  0  0  0  0  0  0  0  0  0  0  0
    3.9373    0.4978    0.0000 C   0  0  0  0  0  0  0  0  0  0  0  0
    3.6846   -0.9808    0.0000 N   0  0  0  0  0  0  0  0  0  0  0  0
    2.2778   -1.5013    0.0000 C   0  0  0  0  0  0  0  0  0  0  0  0
   -2.8441   -0.6260    0.0000 C   0  0  0  0  0  0  0  0  0  0  0  0
   -3.0967   -2.1046    0.0000 O   0  0  0  0  0  0  0  0  0  0  0  0
   -3.9982    0.3321    0.0000 O   0  0  0  0  0  0  0  0  0  0  0  0
  1  2  1  0
  1  3  1  0
  3  4  1  1
  4  5  1  0
  5  6  2  0
  6  7  1  0
  7  8  2  0
  8  9  1  0
  9 10  2  0
  3 11  1  0
 11 12  2  0
 11 13  1  0
 10  5  1  0
M  END
>  <rName>  (2216) 
NMe-3Pal

>  <PQ_SYMBOL>  (2216) 
NMe-3Pal

>  <FULL_NAME>  (2216) 
methyl 3-(2-pyridyl)-alanine

>  <IUPAC_CONDENSED>  (2216) 
Me-3Pal

>  <IUPAC>  (2216) 
(2S)-2-(methylamino)-3-(pyridin-3-yl)propanoic acid

>  <TYPE>  (2216) 
Backbone

>  <CLASS>  (2216) 
alpha

>  <ANALOG>  (2216) 
Phe

>  <MOL_WT>  (2216) 
180.207

>  <LOGP>  (2216) 
0.2966999999999999

>  <TPSA>  (2216) 
62.22

>  <POPULARITY>  (2216) 
9.9

>  <PROTECTED>  (2216) 
TRUE

>  <SMILES>  (2216) 
N(C)[C@@H](Cc1(cccnc1))C(=O)O

>  <INCHIKEY>  (2216) 
ISIUXZWRXGGAQB-QMMMGPOBSA-N

$$$$
NMe-3Pal_6Me
     RDKit          2D

 14 14  0  0  0  0  0  0  0  0999 V2000
   -1.4939    1.3829    0.0000 N   0  0  0  0  0  0  0  0  0  0  0  0
   -2.5947    2.4018    0.0000 C   0  0  0  0  0  0  0  0  0  0  0  0
   -1.8260   -0.0799    0.0000 C   0  0  0  0  0  0  0  0  0  0  0  0
   -0.7252   -1.0989    0.0000 C   0  0  0  0  0  0  0  0  0  0  0  0
    0.7076   -0.6550    0.0000 C   0  0  0  0  0  0  0  0  0  0  0  0
    1.0397    0.8077    0.0000 C   0  0  0  0  0  0  0  0  0  0  0  0
    2.4725    1.2516    0.0000 C   0  0  0  0  0  0  0  0  0  0  0  0
    3.5733    0.2326    0.0000 C   0  0  0  0  0  0  0  0  0  0  0  0
    5.0062    0.6765    0.0000 C   0  0  0  0  0  0  0  0  0  0  0  0
    3.2413   -1.2302    0.0000 N   0  0  0  0  0  0  0  0  0  0  0  0
    1.8084   -1.6740    0.0000 C   0  0  0  0  0  0  0  0  0  0  0  0
   -3.2588   -0.5237    0.0000 C   0  0  0  0  0  0  0  0  0  0  0  0
   -3.5909   -1.9865    0.0000 O   0  0  0  0  0  0  0  0  0  0  0  0
   -4.3596    0.4952    0.0000 O   0  0  0  0  0  0  0  0  0  0  0  0
  1  2  1  0
  1  3  1  0
  3  4  1  1
  4  5  1  0
  5  6  1  0
  6  7  2  0
  7  8  1  0
  8  9  1  0
  8 10  2  0
 10 11  1  0
  3 12  1  0
 12 13  2  0
 12 14  1  0
 11  5  2  0
M  END
>  <rName>  (2217) 
NMe-3Pal_6Me

>  <PQ_SYMBOL>  (2217) 
NMe-3Pal_6Me

>  <FULL_NAME>  (2217) 
(S)-2-(methylamino)-3-(6-methylpyridin-3-yl)propanoic acid

>  <IUPAC_CONDENSED>  (2217) 
Me-3Pal(6-Me)

>  <IUPAC>  (2217) 
(2S)-2-(methylamino)-3-(6-methylpyridin-3-yl)propanoic acid

>  <TYPE>  (2217) 
Backbone

>  <CLASS>  (2217) 
alpha

>  <ANALOG>  (2217) 
Phe

>  <MOL_WT>  (2217) 
194.23399999999998

>  <LOGP>  (2217) 
0.6051199999999999

>  <TPSA>  (2217) 
62.22

>  <POPULARITY>  (2217) 
5.4

>  <PROTECTED>  (2217) 
TRUE

>  <SMILES>  (2217) 
N(C)[C@@H](Cc1(ccc(C)nc1))C(=O)O

>  <INCHIKEY>  (2217) 
GQTLMMCPKUQWBP-VIFPVBQESA-N

$$$$
NMe-4-oxa-Ac6c
     RDKit          2D

 11 11  0  0  0  0  0  0  0  0999 V2000
    1.2281   -1.1676    0.0000 N   0  0  0  0  0  0  0  0  0  0  0  0
    0.7853   -2.6007    0.0000 C   0  0  0  0  0  0  0  0  0  0  0  0
    0.2083   -0.0675    0.0000 C   0  0  0  0  0  0  0  0  0  0  0  0
   -0.6979   -1.2628    0.0000 C   0  0  0  0  0  0  0  0  0  0  0  0
   -2.1862   -1.0757    0.0000 C   0  0  0  0  0  0  0  0  0  0  0  0
   -2.7683    0.3068    0.0000 O   0  0  0  0  0  0  0  0  0  0  0  0
   -1.8620    1.5021    0.0000 C   0  0  0  0  0  0  0  0  0  0  0  0
   -0.3737    1.3149    0.0000 C   0  0  0  0  0  0  0  0  0  0  0  0
    1.4687    0.7457    0.0000 C   0  0  0  0  0  0  0  0  0  0  0  0
    1.3946    2.2439    0.0000 O   0  0  0  0  0  0  0  0  0  0  0  0
    2.8032    0.0608    0.0000 O   0  0  0  0  0  0  0  0  0  0  0  0
  1  2  1  0
  1  3  1  0
  3  4  1  0
  4  5  1  0
  5  6  1  0
  6  7  1  0
  7  8  1  0
  3  9  1  0
  9 10  2  0
  9 11  1  0
  8  3  1  0
M  END
>  <rName>  (2218) 
NMe-4-oxa-Ac6c

>  <PQ_SYMBOL>  (2218) 
NMe-4-oxa-Ac6c

>  <FULL_NAME>  (2218) 
4-(methylamino)tetrahydro-2H-pyran-4-carboxylic acid

>  <IUPAC_CONDENSED>  (2218) 
Me-4-oxa-Ac6c

>  <IUPAC>  (2218) 
4-(methylamino)oxane-4-carboxylic acid

>  <TYPE>  (2218) 
Backbone

>  <CLASS>  (2218) 
alpha

>  <ANALOG>  (2218) 
Ser

>  <MOL_WT>  (2218) 
159.185

>  <LOGP>  (2218) 
-0.16040000000000038

>  <TPSA>  (2218) 
58.56

>  <POPULARITY>  (2218) 
8.1

>  <PROTECTED>  (2218) 
TRUE

>  <SMILES>  (2218) 
N(C)C1(CCOCC1)C(=O)O

>  <INCHIKEY>  (2218) 
XQSFETBRMIRLGH-UHFFFAOYSA-N

$$$$
NMe-4Abz
     RDKit          2D

 11 11  0  0  0  0  0  0  0  0999 V2000
   -3.3137   -0.4417    0.0000 N   0  0  0  0  0  0  0  0  0  0  0  0
   -4.1862    0.7785    0.0000 C   0  0  0  0  0  0  0  0  0  0  0  0
   -1.8208   -0.2961    0.0000 C   0  0  0  0  0  0  0  0  0  0  0  0
   -1.2003    1.0695    0.0000 C   0  0  0  0  0  0  0  0  0  0  0  0
    0.2926    1.2151    0.0000 C   0  0  0  0  0  0  0  0  0  0  0  0
    1.1651   -0.0051    0.0000 C   0  0  0  0  0  0  0  0  0  0  0  0
    0.5446   -1.3708    0.0000 C   0  0  0  0  0  0  0  0  0  0  0  0
   -0.9483   -1.5163    0.0000 C   0  0  0  0  0  0  0  0  0  0  0  0
    2.6580    0.1404    0.0000 C   0  0  0  0  0  0  0  0  0  0  0  0
    3.2784    1.5061    0.0000 O   0  0  0  0  0  0  0  0  0  0  0  0
    3.5305   -1.0797    0.0000 O   0  0  0  0  0  0  0  0  0  0  0  0
  1  2  1  0
  1  3  1  0
  3  4  1  0
  4  5  2  0
  5  6  1  0
  6  7  2  0
  7  8  1  0
  6  9  1  0
  9 10  2  0
  9 11  1  0
  8  3  2  0
M  END
>  <rName>  (2219) 
NMe-4Abz

>  <PQ_SYMBOL>  (2219) 
NMe-4Abz

>  <FULL_NAME>  (2219) 
4-(methylamino)benzoic acid

>  <IUPAC_CONDENSED>  (2219) 
Me-4Abz

>  <IUPAC>  (2219) 
4-(methylamino)benzoic acid

>  <TYPE>  (2219) 
Backbone

>  <CLASS>  (2219) 
delta

>  <ANALOG>  (2219) 
X

>  <MOL_WT>  (2219) 
151.165

>  <LOGP>  (2219) 
1.4264999999999999

>  <TPSA>  (2219) 
49.33

>  <POPULARITY>  (2219) 
13.6

>  <PROTECTED>  (2219) 
FALSE

>  <SMILES>  (2219) 
N(C)c1ccc(cc1)C(=O)O

>  <INCHIKEY>  (2219) 
ZVIDMSBTYRSMAR-UHFFFAOYSA-N

$$$$
NMe-4Pal
     RDKit          2D

 13 13  0  0  0  0  0  0  0  0999 V2000
   -1.1846    1.3730    0.0000 N   0  0  0  0  0  0  0  0  0  0  0  0
   -2.3388    2.3311    0.0000 C   0  0  0  0  0  0  0  0  0  0  0  0
   -1.4373   -0.1056    0.0000 C   0  0  0  0  0  0  0  0  0  0  0  0
   -0.2831   -1.0637    0.0000 C   0  0  0  0  0  0  0  0  0  0  0  0
    1.1237   -0.5432    0.0000 C   0  0  0  0  0  0  0  0  0  0  0  0
    1.3763    0.9354    0.0000 C   0  0  0  0  0  0  0  0  0  0  0  0
    2.7831    1.4559    0.0000 C   0  0  0  0  0  0  0  0  0  0  0  0
    3.9373    0.4978    0.0000 N   0  0  0  0  0  0  0  0  0  0  0  0
    3.6846   -0.9808    0.0000 C   0  0  0  0  0  0  0  0  0  0  0  0
    2.2778   -1.5013    0.0000 C   0  0  0  0  0  0  0  0  0  0  0  0
   -2.8441   -0.6260    0.0000 C   0  0  0  0  0  0  0  0  0  0  0  0
   -3.0967   -2.1046    0.0000 O   0  0  0  0  0  0  0  0  0  0  0  0
   -3.9982    0.3321    0.0000 O   0  0  0  0  0  0  0  0  0  0  0  0
  1  2  1  0
  1  3  1  0
  3  4  1  1
  4  5  1  0
  5  6  1  0
  6  7  2  0
  7  8  1  0
  8  9  2  0
  9 10  1  0
  3 11  1  0
 11 12  2  0
 11 13  1  0
 10  5  2  0
M  END
>  <rName>  (2220) 
NMe-4Pal

>  <PQ_SYMBOL>  (2220) 
NMe-4Pal

>  <FULL_NAME>  (2220) 
(2S)-2-(methylamino)-3-pyridin-4-ylpropanoic acid

>  <IUPAC_CONDENSED>  (2220) 
Me-4Pal

>  <IUPAC>  (2220) 
(2S)-2-(methylamino)-3-(pyridin-4-yl)propanoic acid

>  <TYPE>  (2220) 
Backbone

>  <CLASS>  (2220) 
alpha

>  <ANALOG>  (2220) 
Phe

>  <MOL_WT>  (2220) 
180.207

>  <LOGP>  (2220) 
0.29669999999999946

>  <TPSA>  (2220) 
62.22

>  <POPULARITY>  (2220) 
7.5

>  <PROTECTED>  (2220) 
TRUE

>  <SMILES>  (2220) 
N(C)[C@@H](Cc1(ccncc1))C(=O)O

>  <INCHIKEY>  (2220) 
HVGBCUMYUJNQQY-QMMMGPOBSA-N

$$$$
NMe-5-Ava
     RDKit          2D

  9  8  0  0  0  0  0  0  0  0999 V2000
    3.6312   -0.4188    0.0000 N   0  0  0  0  0  0  0  0  0  0  0  0
    4.8948    0.3895    0.0000 C   0  0  0  0  0  0  0  0  0  0  0  0
    2.2994    0.2714    0.0000 C   0  0  0  0  0  0  0  0  0  0  0  0
    1.0358   -0.5368    0.0000 C   0  0  0  0  0  0  0  0  0  0  0  0
   -0.2960    0.1534    0.0000 C   0  0  0  0  0  0  0  0  0  0  0  0
   -1.5596   -0.6549    0.0000 C   0  0  0  0  0  0  0  0  0  0  0  0
   -2.8913    0.0353    0.0000 C   0  0  0  0  0  0  0  0  0  0  0  0
   -2.9595    1.5338    0.0000 O   0  0  0  0  0  0  0  0  0  0  0  0
   -4.1550   -0.7729    0.0000 O   0  0  0  0  0  0  0  0  0  0  0  0
  1  2  1  0
  1  3  1  0
  3  4  1  0
  4  5  1  0
  5  6  1  0
  6  7  1  0
  7  8  2  0
  7  9  1  0
M  END
>  <rName>  (2221) 
NMe-5-Ava

>  <PQ_SYMBOL>  (2221) 
NMe-5-Ava

>  <FULL_NAME>  (2221) 
5-(methylamino)pentanoic acid

>  <IUPAC_CONDENSED>  (2221) 
Me-5-Ava

>  <IUPAC>  (2221) 
5-(methylamino)pentanoic acid

>  <TYPE>  (2221) 
Backbone

>  <CLASS>  (2221) 
delta

>  <ANALOG>  (2221) 
Gly

>  <MOL_WT>  (2221) 
131.175

>  <LOGP>  (2221) 
0.46069999999999983

>  <TPSA>  (2221) 
49.33

>  <POPULARITY>  (2221) 
18.9

>  <PROTECTED>  (2221) 
TRUE

>  <SMILES>  (2221) 
N(C)CCCCC(=O)O

>  <INCHIKEY>  (2221) 
CMVZMERLBCRJAH-UHFFFAOYSA-N

$$$$
NMe-6-Ahx
     RDKit          2D

 10  9  0  0  0  0  0  0  0  0999 V2000
   -4.2653    0.4843    0.0000 N   0  0  0  0  0  0  0  0  0  0  0  0
   -5.6074   -0.1857    0.0000 C   0  0  0  0  0  0  0  0  0  0  0  0
   -3.0141   -0.3430    0.0000 C   0  0  0  0  0  0  0  0  0  0  0  0
   -1.6720    0.3269    0.0000 C   0  0  0  0  0  0  0  0  0  0  0  0
   -0.4208   -0.5004    0.0000 C   0  0  0  0  0  0  0  0  0  0  0  0
    0.9213    0.1695    0.0000 C   0  0  0  0  0  0  0  0  0  0  0  0
    2.1725   -0.6578    0.0000 C   0  0  0  0  0  0  0  0  0  0  0  0
    3.5146    0.0121    0.0000 C   0  0  0  0  0  0  0  0  0  0  0  0
    3.6055    1.5094    0.0000 O   0  0  0  0  0  0  0  0  0  0  0  0
    4.7658   -0.8152    0.0000 O   0  0  0  0  0  0  0  0  0  0  0  0
  1  2  1  0
  1  3  1  0
  3  4  1  0
  4  5  1  0
  5  6  1  0
  6  7  1  0
  7  8  1  0
  8  9  2  0
  8 10  1  0
M  END
>  <rName>  (2222) 
NMe-6-Ahx

>  <PQ_SYMBOL>  (2222) 
NMe-6-Ahx

>  <FULL_NAME>  (2222) 
6-(methylamino)hexanoic acid

>  <IUPAC_CONDENSED>  (2222) 
Me-6-Ahx

>  <IUPAC>  (2222) 
6-(methylamino)hexanoic acid

>  <TYPE>  (2222) 
Backbone

>  <CLASS>  (2222) 
epsilon

>  <ANALOG>  (2222) 
Gly

>  <MOL_WT>  (2222) 
145.202

>  <LOGP>  (2222) 
0.8507999999999998

>  <TPSA>  (2222) 
49.33

>  <POPULARITY>  (2222) 
19.1

>  <PROTECTED>  (2222) 
TRUE

>  <SMILES>  (2222) 
N(C)CCCCCC(=O)O

>  <INCHIKEY>  (2222) 
XRUDAAKPTLVBMB-UHFFFAOYSA-N

$$$$
NMe-A
     RDKit          2D

  7  6  0  0  0  0  0  0  0  0999 V2000
    1.5000   -0.7423    0.0000 N   0  0  0  0  0  0  0  0  0  0  0  0
    2.2500    0.5567    0.0000 C   0  0  0  0  0  0  0  0  0  0  0  0
    0.0000   -0.7423    0.0000 C   0  0  0  0  0  0  0  0  0  0  0  0
   -0.7500   -2.0413    0.0000 C   0  0  0  0  0  0  0  0  0  0  0  0
   -0.7500    0.5567    0.0000 C   0  0  0  0  0  0  0  0  0  0  0  0
   -0.0000    1.8558    0.0000 O   0  0  0  0  0  0  0  0  0  0  0  0
   -2.2500    0.5567    0.0000 O   0  0  0  0  0  0  0  0  0  0  0  0
  1  2  1  0
  1  3  1  0
  3  4  1  1
  3  5  1  0
  5  6  2  0
  5  7  1  0
M  END
>  <rName>  (2223) 
NMe-A

>  <PQ_SYMBOL>  (2223) 
NMe-A

>  <FULL_NAME>  (2223) 
N-Methyl-L-Alanine

>  <IUPAC_CONDENSED>  (2223) 
Me-Ala

>  <IUPAC>  (2223) 
(2S)-2-(methylamino)propanoic acid

>  <TYPE>  (2223) 
Backbone

>  <CLASS>  (2223) 
alpha

>  <ANALOG>  (2223) 
Ala

>  <MOL_WT>  (2223) 
103.12099999999998

>  <LOGP>  (2223) 
-0.3211000000000002

>  <TPSA>  (2223) 
49.33

>  <POPULARITY>  (2223) 
50.7

>  <PROTECTED>  (2223) 
TRUE

>  <SMILES>  (2223) 
N(C)[C@@H](C)C(=O)O

>  <INCHIKEY>  (2223) 
GDFAOVXKHJXLEI-VKHMYHEASA-N

$$$$
NMe-Aad
     RDKit          2D

 12 11  0  0  0  0  0  0  0  0999 V2000
   -2.9097    1.4095    0.0000 N   0  0  0  0  0  0  0  0  0  0  0  0
   -4.2745    0.7871    0.0000 C   0  0  0  0  0  0  0  0  0  0  0  0
   -1.6883    0.5388    0.0000 C   0  0  0  0  0  0  0  0  0  0  0  0
   -0.3235    1.1612    0.0000 C   0  0  0  0  0  0  0  0  0  0  0  0
    0.8979    0.2905    0.0000 C   0  0  0  0  0  0  0  0  0  0  0  0
    2.2627    0.9129    0.0000 C   0  0  0  0  0  0  0  0  0  0  0  0
    3.4841    0.0422    0.0000 C   0  0  0  0  0  0  0  0  0  0  0  0
    3.3407   -1.4509    0.0000 O   0  0  0  0  0  0  0  0  0  0  0  0
    4.8489    0.6647    0.0000 O   0  0  0  0  0  0  0  0  0  0  0  0
   -1.8316   -0.9543    0.0000 C   0  0  0  0  0  0  0  0  0  0  0  0
   -3.1964   -1.5768    0.0000 O   0  0  0  0  0  0  0  0  0  0  0  0
   -0.6102   -1.8250    0.0000 O   0  0  0  0  0  0  0  0  0  0  0  0
  1  2  1  0
  1  3  1  0
  3  4  1  1
  4  5  1  0
  5  6  1  0
  6  7  1  0
  7  8  2  0
  7  9  1  0
  3 10  1  0
 10 11  2  0
 10 12  1  0
M  END
>  <rName>  (2224) 
NMe-Aad

>  <PQ_SYMBOL>  (2224) 
NMe-Aad

>  <FULL_NAME>  (2224) 
(2S)-2-(methylamino)hexanedioic acid

>  <IUPAC_CONDENSED>  (2224) 
Me-Aad

>  <IUPAC>  (2224) 
(2S)-2-(methylamino)hexanedioic acid

>  <TYPE>  (2224) 
Backbone

>  <CLASS>  (2224) 
alpha

>  <ANALOG>  (2224) 
X

>  <MOL_WT>  (2224) 
175.184

>  <LOGP>  (2224) 
-0.08610000000000018

>  <TPSA>  (2224) 
86.63000000000001

>  <POPULARITY>  (2224) 
2.2

>  <PROTECTED>  (2224) 
TRUE

>  <SMILES>  (2224) 
N(C)[C@@H](CCCC(=O)O)C(=O)O

>  <INCHIKEY>  (2224) 
WFAJUCNUFIIUDH-YFKPBYRVSA-N

$$$$
NMe-Abu
     RDKit          2D

  8  7  0  0  0  0  0  0  0  0999 V2000
   -1.2990    1.3125    0.0000 N   0  0  0  0  0  0  0  0  0  0  0  0
   -2.5981    0.5625    0.0000 C   0  0  0  0  0  0  0  0  0  0  0  0
    0.0000    0.5625    0.0000 C   0  0  0  0  0  0  0  0  0  0  0  0
    1.2990    1.3125    0.0000 C   0  0  0  0  0  0  0  0  0  0  0  0
    2.5981    0.5625    0.0000 C   0  0  0  0  0  0  0  0  0  0  0  0
    0.0000   -0.9375    0.0000 C   0  0  0  0  0  0  0  0  0  0  0  0
   -1.2990   -1.6875    0.0000 O   0  0  0  0  0  0  0  0  0  0  0  0
    1.2990   -1.6875    0.0000 O   0  0  0  0  0  0  0  0  0  0  0  0
  1  2  1  0
  1  3  1  0
  3  4  1  1
  4  5  1  0
  3  6  1  0
  6  7  2  0
  6  8  1  0
M  END
>  <rName>  (2225) 
NMe-Abu

>  <PQ_SYMBOL>  (2225) 
NMe-Abu

>  <FULL_NAME>  (2225) 
(2S)-2-(Methylamino)butanoic acid

>  <IUPAC_CONDENSED>  (2225) 
Me-Abu

>  <IUPAC>  (2225) 
(2S)-2-(methylamino)butanoic acid

>  <TYPE>  (2225) 
Backbone

>  <CLASS>  (2225) 
alpha

>  <ANALOG>  (2225) 
Ala

>  <MOL_WT>  (2225) 
117.14799999999998

>  <LOGP>  (2225) 
0.06899999999999967

>  <TPSA>  (2225) 
49.33

>  <POPULARITY>  (2225) 
22.4

>  <PROTECTED>  (2225) 
TRUE

>  <SMILES>  (2225) 
N(C)[C@@H](CC)C(=O)O

>  <INCHIKEY>  (2225) 
CQJAWZCYNRBZDL-BYPYZUCNSA-N

$$$$
NMe-Abu_ethynyl
     RDKit          2D

 10  9  0  0  0  0  0  0  0  0999 V2000
   -1.8318    1.5723    0.0000 N   0  0  0  0  0  0  0  0  0  0  0  0
   -3.2922    1.2303    0.0000 C   0  0  0  0  0  0  0  0  0  0  0  0
   -0.8053    0.4785    0.0000 C   0  0  0  0  0  0  0  0  0  0  0  0
    0.6552    0.8205    0.0000 C   0  0  0  0  0  0  0  0  0  0  0  0
    1.6816   -0.2733    0.0000 C   0  0  0  0  0  0  0  0  0  0  0  0
    3.1421    0.0687    0.0000 C   0  0  0  0  0  0  0  0  0  0  0  0
    4.6026    0.4108    0.0000 C   0  0  0  0  0  0  0  0  0  0  0  0
   -1.2394   -0.9573    0.0000 C   0  0  0  0  0  0  0  0  0  0  0  0
   -2.6998   -1.2994    0.0000 O   0  0  0  0  0  0  0  0  0  0  0  0
   -0.2129   -2.0511    0.0000 O   0  0  0  0  0  0  0  0  0  0  0  0
  1  2  1  0
  1  3  1  0
  3  4  1  1
  4  5  1  0
  5  6  1  0
  6  7  3  0
  3  8  1  0
  8  9  2  0
  8 10  1  0
M  END
>  <rName>  (2226) 
NMe-Abu_ethynyl

>  <PQ_SYMBOL>  (2226) 
NMe-Abu_ethynyl

>  <FULL_NAME>  (2226) 
(2S)-2-(methylamino)hex-5-ynoic acid

>  <IUPAC_CONDENSED>  (2226) 
Me-Abu(ethynyl)

>  <IUPAC>  (2226) 
(2S)-2-(methylamino)hex-5-ynoic acid

>  <TYPE>  (2226) 
Backbone

>  <CLASS>  (2226) 
alpha

>  <ANALOG>  (2226) 
Leu

>  <MOL_WT>  (2226) 
141.17

>  <LOGP>  (2226) 
0.07239999999999974

>  <TPSA>  (2226) 
49.33

>  <POPULARITY>  (2226) 
2.2

>  <PROTECTED>  (2226) 
TRUE

>  <SMILES>  (2226) 
N(C)[C@@H](CCC#C)C(=O)O

>  <INCHIKEY>  (2226) 
IMOREHZOKUDFLS-LURJTMIESA-N

$$$$
NMe-Abu_piperidino_44diF
     RDKit          2D

 16 16  0  0  0  0  0  0  0  0999 V2000
   -3.3051   -1.5242    0.0000 N   0  0  0  0  0  0  0  0  0  0  0  0
   -4.7656   -1.8660    0.0000 C   0  0  0  0  0  0  0  0  0  0  0  0
   -2.8709   -0.0884    0.0000 C   0  0  0  0  0  0  0  0  0  0  0  0
   -1.4104    0.2535    0.0000 C   0  0  0  0  0  0  0  0  0  0  0  0
   -0.3841   -0.8404    0.0000 C   0  0  0  0  0  0  0  0  0  0  0  0
    1.0764   -0.4985    0.0000 N   0  0  0  0  0  0  0  0  0  0  0  0
    1.5106    0.9373    0.0000 C   0  0  0  0  0  0  0  0  0  0  0  0
    2.9711    1.2792    0.0000 C   0  0  0  0  0  0  0  0  0  0  0  0
    3.9975    0.1853    0.0000 C   0  0  0  0  0  0  0  0  0  0  0  0
    4.8965    1.3860    0.0000 F   0  0  0  0  0  0  0  0  0  0  0  0
    5.3361   -0.4916    0.0000 F   0  0  0  0  0  0  0  0  0  0  0  0
    3.5633   -1.2505    0.0000 C   0  0  0  0  0  0  0  0  0  0  0  0
    2.1028   -1.5924    0.0000 C   0  0  0  0  0  0  0  0  0  0  0  0
   -3.8973    1.0055    0.0000 C   0  0  0  0  0  0  0  0  0  0  0  0
   -3.4631    2.4413    0.0000 O   0  0  0  0  0  0  0  0  0  0  0  0
   -5.3578    0.6636    0.0000 O   0  0  0  0  0  0  0  0  0  0  0  0
  1  2  1  0
  1  3  1  0
  3  4  1  6
  4  5  1  0
  5  6  1  0
  6  7  1  0
  7  8  1  0
  8  9  1  0
  9 10  1  0
  9 11  1  0
  9 12  1  0
 12 13  1  0
  3 14  1  0
 14 15  2  0
 14 16  1  0
 13  6  1  0
M  END
>  <rName>  (2227) 
NMe-Abu_piperidino_44diF

>  <PQ_SYMBOL>  (2227) 
NMe-Abu_piperidino_44diF

>  <FULL_NAME>  (2227) 
(2S)-4-(4,4-difluoropiperidin-1-yl)-2-(methylamino)butanoic acid

>  <IUPAC_CONDENSED>  (2227) 
Me-Abu(piperidino(4,4-diF))

>  <IUPAC>  (2227) 
(2S)-4-(4,4-difluoropiperidin-1-yl)-2-(methylamino)butanoic acid

>  <TYPE>  (2227) 
Backbone

>  <CLASS>  (2227) 
alpha

>  <ANALOG>  (2227) 
X

>  <MOL_WT>  (2227) 
236.26199999999997

>  <LOGP>  (2227) 
0.7802000000000002

>  <TPSA>  (2227) 
52.57000000000001

>  <POPULARITY>  (2227) 
2.2

>  <PROTECTED>  (2227) 
TRUE

>  <SMILES>  (2227) 
N(C)[C@@H](CCN1(CCC(F)(F)CC1))C(=O)O

>  <INCHIKEY>  (2227) 
YEDLQCFNELHRCA-QMMMGPOBSA-N

$$$$
NMe-Abu_pyrid3yl
     RDKit          2D

 14 14  0  0  0  0  0  0  0  0999 V2000
   -2.5120   -1.5648    0.0000 N   0  0  0  0  0  0  0  0  0  0  0  0
   -3.9573   -1.9664    0.0000 C   0  0  0  0  0  0  0  0  0  0  0  0
   -2.1372   -0.1124    0.0000 C   0  0  0  0  0  0  0  0  0  0  0  0
   -0.6920    0.2892    0.0000 C   0  0  0  0  0  0  0  0  0  0  0  0
    0.3784   -0.7616    0.0000 C   0  0  0  0  0  0  0  0  0  0  0  0
    1.8237   -0.3600    0.0000 C   0  0  0  0  0  0  0  0  0  0  0  0
    2.1985    1.0924    0.0000 C   0  0  0  0  0  0  0  0  0  0  0  0
    3.6437    1.4940    0.0000 C   0  0  0  0  0  0  0  0  0  0  0  0
    4.7141    0.4432    0.0000 C   0  0  0  0  0  0  0  0  0  0  0  0
    4.3393   -1.0092    0.0000 N   0  0  0  0  0  0  0  0  0  0  0  0
    2.8941   -1.4108    0.0000 C   0  0  0  0  0  0  0  0  0  0  0  0
   -3.2076    0.9384    0.0000 C   0  0  0  0  0  0  0  0  0  0  0  0
   -2.8328    2.3908    0.0000 O   0  0  0  0  0  0  0  0  0  0  0  0
   -4.6529    0.5368    0.0000 O   0  0  0  0  0  0  0  0  0  0  0  0
  1  2  1  0
  1  3  1  0
  3  4  1  6
  4  5  1  0
  5  6  1  0
  6  7  2  0
  7  8  1  0
  8  9  2  0
  9 10  1  0
 10 11  2  0
  3 12  1  0
 12 13  2  0
 12 14  1  0
 11  6  1  0
M  END
>  <rName>  (2228) 
NMe-Abu_pyrid3yl

>  <PQ_SYMBOL>  (2228) 
NMe-Abu_pyrid3yl

>  <FULL_NAME>  (2228) 
(2S)-2-(methylamino)-4-pyridin-3-ylbutanoic acid

>  <IUPAC_CONDENSED>  (2228) 
Me-Abu(pyrid-3-yl)

>  <IUPAC>  (2228) 
(2S)-2-(methylamino)-4-pyridin-3-ylbutanoic acid

>  <TYPE>  (2228) 
Backbone

>  <CLASS>  (2228) 
alpha

>  <ANALOG>  (2228) 
Phe

>  <MOL_WT>  (2228) 
194.23399999999998

>  <LOGP>  (2228) 
0.6867999999999999

>  <TPSA>  (2228) 
62.22

>  <POPULARITY>  (2228) 
2.2

>  <PROTECTED>  (2228) 
TRUE

>  <SMILES>  (2228) 
N(C)[C@@H](CCc1(cccnc1))C(=O)O

>  <INCHIKEY>  (2228) 
YPQFGJZFVGNYBS-VIFPVBQESA-N

$$$$
NMe-Abu_pyrid4yl
     RDKit          2D

 14 14  0  0  0  0  0  0  0  0999 V2000
   -2.5120   -1.5648    0.0000 N   0  0  0  0  0  0  0  0  0  0  0  0
   -3.9573   -1.9664    0.0000 C   0  0  0  0  0  0  0  0  0  0  0  0
   -2.1372   -0.1124    0.0000 C   0  0  0  0  0  0  0  0  0  0  0  0
   -0.6920    0.2892    0.0000 C   0  0  0  0  0  0  0  0  0  0  0  0
    0.3784   -0.7616    0.0000 C   0  0  0  0  0  0  0  0  0  0  0  0
    1.8237   -0.3600    0.0000 C   0  0  0  0  0  0  0  0  0  0  0  0
    2.1985    1.0924    0.0000 C   0  0  0  0  0  0  0  0  0  0  0  0
    3.6437    1.4940    0.0000 C   0  0  0  0  0  0  0  0  0  0  0  0
    4.7141    0.4432    0.0000 N   0  0  0  0  0  0  0  0  0  0  0  0
    4.3393   -1.0092    0.0000 C   0  0  0  0  0  0  0  0  0  0  0  0
    2.8941   -1.4108    0.0000 C   0  0  0  0  0  0  0  0  0  0  0  0
   -3.2076    0.9384    0.0000 C   0  0  0  0  0  0  0  0  0  0  0  0
   -2.8328    2.3908    0.0000 O   0  0  0  0  0  0  0  0  0  0  0  0
   -4.6529    0.5368    0.0000 O   0  0  0  0  0  0  0  0  0  0  0  0
  1  2  1  0
  1  3  1  0
  3  4  1  6
  4  5  1  0
  5  6  1  0
  6  7  1  0
  7  8  2  0
  8  9  1  0
  9 10  2  0
 10 11  1  0
  3 12  1  0
 12 13  2  0
 12 14  1  0
 11  6  2  0
M  END
>  <rName>  (2229) 
NMe-Abu_pyrid4yl

>  <PQ_SYMBOL>  (2229) 
NMe-Abu_pyrid4yl

>  <FULL_NAME>  (2229) 
Me-Abu(pyrid-4-yl)

>  <IUPAC_CONDENSED>  (2229) 
Me-Abu(pyrid-4-yl)

>  <IUPAC>  (2229) 
(2S)-2-(methylamino)-4-(pyridin-4-yl)butanoic acid

>  <TYPE>  (2229) 
Backbone

>  <CLASS>  (2229) 
alpha

>  <ANALOG>  (2229) 
Phe

>  <MOL_WT>  (2229) 
194.234

>  <LOGP>  (2229) 
0.6867999999999999

>  <TPSA>  (2229) 
62.22

>  <POPULARITY>  (2229) 
2.2

>  <PROTECTED>  (2229) 
TRUE

>  <SMILES>  (2229) 
N(C)[C@@H](CCc1(ccncc1))C(=O)O

>  <INCHIKEY>  (2229) 
JCLWANFQBVKFNT-VIFPVBQESA-N

$$$$
NMe-Abu_vinyl
     RDKit          2D

 10  9  0  0  0  0  0  0  0  0999 V2000
   -2.0182    1.4385    0.0000 N   0  0  0  0  0  0  0  0  0  0  0  0
   -3.4137    0.8883    0.0000 C   0  0  0  0  0  0  0  0  0  0  0  0
   -0.8441    0.5050    0.0000 C   0  0  0  0  0  0  0  0  0  0  0  0
    0.5514    1.0552    0.0000 C   0  0  0  0  0  0  0  0  0  0  0  0
    1.7256    0.1218    0.0000 C   0  0  0  0  0  0  0  0  0  0  0  0
    3.1211    0.6719    0.0000 C   0  0  0  0  0  0  0  0  0  0  0  0
    4.2952   -0.2615    0.0000 C   0  0  0  0  0  0  0  0  0  0  0  0
   -1.0653   -0.9785    0.0000 C   0  0  0  0  0  0  0  0  0  0  0  0
   -2.4608   -1.5287    0.0000 O   0  0  0  0  0  0  0  0  0  0  0  0
    0.1088   -1.9120    0.0000 O   0  0  0  0  0  0  0  0  0  0  0  0
  1  2  1  0
  1  3  1  0
  3  4  1  1
  4  5  1  0
  5  6  1  0
  6  7  2  0
  3  8  1  0
  8  9  2  0
  8 10  1  0
M  END
>  <rName>  (2230) 
NMe-Abu_vinyl

>  <PQ_SYMBOL>  (2230) 
NMe-Abu_vinyl

>  <FULL_NAME>  (2230) 
(2S)-2-(methylamino)hex-5-enoic acid

>  <IUPAC_CONDENSED>  (2230) 
Me-Abu(vinyl)

>  <IUPAC>  (2230) 
(2S)-2-(methylamino)hex-5-enoic acid

>  <TYPE>  (2230) 
Backbone

>  <CLASS>  (2230) 
alpha

>  <ANALOG>  (2230) 
Leu

>  <MOL_WT>  (2230) 
143.186

>  <LOGP>  (2230) 
0.6251999999999998

>  <TPSA>  (2230) 
49.33

>  <POPULARITY>  (2230) 
13.5

>  <PROTECTED>  (2230) 
TRUE

>  <SMILES>  (2230) 
N(C)[C@@H](CCC=C)C(=O)O

>  <INCHIKEY>  (2230) 
SUMIEJINJLACMR-LURJTMIESA-N

$$$$
NMe-Ac3c
     RDKit          2D

  8  8  0  0  0  0  0  0  0  0999 V2000
   -1.0647   -0.9225    0.0000 N   0  0  0  0  0  0  0  0  0  0  0  0
   -2.5574   -0.7748    0.0000 C   0  0  0  0  0  0  0  0  0  0  0  0
   -0.1904    0.2963    0.0000 C   0  0  0  0  0  0  0  0  0  0  0  0
    0.2143    1.7407    0.0000 C   0  0  0  0  0  0  0  0  0  0  0  0
   -1.2389    1.3690    0.0000 C   0  0  0  0  0  0  0  0  0  0  0  0
    1.1617   -0.3531    0.0000 C   0  0  0  0  0  0  0  0  0  0  0  0
    2.4002    0.4932    0.0000 O   0  0  0  0  0  0  0  0  0  0  0  0
    1.2754   -1.8488    0.0000 O   0  0  0  0  0  0  0  0  0  0  0  0
  1  2  1  0
  1  3  1  0
  3  4  1  0
  4  5  1  0
  3  6  1  0
  6  7  2  0
  6  8  1  0
  5  3  1  0
M  END
>  <rName>  (2231) 
NMe-Ac3c

>  <PQ_SYMBOL>  (2231) 
NMe-Ac3c

>  <FULL_NAME>  (2231) 
1-(methylamino)cyclopropane-1-carboxylic acid

>  <IUPAC_CONDENSED>  (2231) 
Me-Ac3c

>  <IUPAC>  (2231) 
1-(methylamino)cyclopropanecarboxylic acid

>  <TYPE>  (2231) 
Backbone

>  <CLASS>  (2231) 
alpha

>  <ANALOG>  (2231) 
X

>  <MOL_WT>  (2231) 
115.13199999999999

>  <LOGP>  (2231) 
-0.17700000000000032

>  <TPSA>  (2231) 
49.33

>  <POPULARITY>  (2231) 
14.5

>  <PROTECTED>  (2231) 
TRUE

>  <SMILES>  (2231) 
N(C)C1(CC1)C(=O)O

>  <INCHIKEY>  (2231) 
ZCLBLSZZIRMCLZ-UHFFFAOYSA-N

$$$$
NMe-Ac4c
     RDKit          2D

  9  9  0  0  0  0  0  0  0  0999 V2000
   -0.5215   -1.3307    0.0000 N   0  0  0  0  0  0  0  0  0  0  0  0
   -1.9619   -1.7491    0.0000 C   0  0  0  0  0  0  0  0  0  0  0  0
   -0.1637    0.1260    0.0000 C   0  0  0  0  0  0  0  0  0  0  0  0
   -1.6204    0.4838    0.0000 C   0  0  0  0  0  0  0  0  0  0  0  0
   -1.2625    1.9405    0.0000 C   0  0  0  0  0  0  0  0  0  0  0  0
    0.1942    1.5827    0.0000 C   0  0  0  0  0  0  0  0  0  0  0  0
    1.2930   -0.2318    0.0000 C   0  0  0  0  0  0  0  0  0  0  0  0
    2.3313    0.8508    0.0000 O   0  0  0  0  0  0  0  0  0  0  0  0
    1.7115   -1.6723    0.0000 O   0  0  0  0  0  0  0  0  0  0  0  0
  1  2  1  0
  1  3  1  0
  3  4  1  0
  4  5  1  0
  5  6  1  0
  3  7  1  0
  7  8  2  0
  7  9  1  0
  6  3  1  0
M  END
>  <rName>  (2232) 
NMe-Ac4c

>  <PQ_SYMBOL>  (2232) 
NMe-Ac4c

>  <FULL_NAME>  (2232) 
1-(methylamino)cyclobutane-1-carboxylic acid

>  <IUPAC_CONDENSED>  (2232) 
Me-Ac4c

>  <IUPAC>  (2232) 
1-(methylamino)cyclobutanecarboxylic acid

>  <TYPE>  (2232) 
Backbone

>  <CLASS>  (2232) 
alpha

>  <ANALOG>  (2232) 
X

>  <MOL_WT>  (2232) 
129.15900000000002

>  <LOGP>  (2232) 
0.2131

>  <TPSA>  (2232) 
49.33

>  <POPULARITY>  (2232) 
10.6

>  <PROTECTED>  (2232) 
TRUE

>  <SMILES>  (2232) 
N(C)C1(CCC1)C(=O)O

>  <INCHIKEY>  (2232) 
ZGIIYBQFEOZGIX-UHFFFAOYSA-N

$$$$
NMe-Ac4c_33F
     RDKit          2D

 11 11  0  0  0  0  0  0  0  0999 V2000
    1.3230   -1.3052    0.0000 N   0  0  0  0  0  0  0  0  0  0  0  0
    0.7494   -2.6912    0.0000 C   0  0  0  0  0  0  0  0  0  0  0  0
    0.4094   -0.1154    0.0000 C   0  0  0  0  0  0  0  0  0  0  0  0
   -0.7803   -1.0289    0.0000 C   0  0  0  0  0  0  0  0  0  0  0  0
   -1.6938    0.1608    0.0000 C   0  0  0  0  0  0  0  0  0  0  0  0
   -2.8836   -0.7527    0.0000 F   0  0  0  0  0  0  0  0  0  0  0  0
   -2.6073    1.3505    0.0000 F   0  0  0  0  0  0  0  0  0  0  0  0
   -0.5041    1.0743    0.0000 C   0  0  0  0  0  0  0  0  0  0  0  0
    1.5992    0.7981    0.0000 C   0  0  0  0  0  0  0  0  0  0  0  0
    1.4029    2.2852    0.0000 O   0  0  0  0  0  0  0  0  0  0  0  0
    2.9852    0.2245    0.0000 O   0  0  0  0  0  0  0  0  0  0  0  0
  1  2  1  0
  1  3  1  0
  3  4  1  0
  4  5  1  0
  5  6  1  0
  5  7  1  0
  5  8  1  0
  3  9  1  0
  9 10  2  0
  9 11  1  0
  8  3  1  0
M  END
>  <rName>  (2233) 
NMe-Ac4c_33F

>  <PQ_SYMBOL>  (2233) 
NMe-Ac4c_33F

>  <FULL_NAME>  (2233) 
3,3-Difluoro-1-(methylamino)cyclobutane-1-carboxylic acid

>  <IUPAC_CONDENSED>  (2233) 
Me-Ac4c(3,3-F)

>  <IUPAC>  (2233) 
3,3-difluoro-1-(methylamino)cyclobutanecarboxylic acid

>  <TYPE>  (2233) 
Backbone

>  <CLASS>  (2233) 
alpha

>  <ANALOG>  (2233) 
X

>  <MOL_WT>  (2233) 
165.139

>  <LOGP>  (2233) 
0.4583000000000001

>  <TPSA>  (2233) 
49.33

>  <POPULARITY>  (2233) 
7.0

>  <PROTECTED>  (2233) 
TRUE

>  <SMILES>  (2233) 
N(C)C1(CC(F)(F)C1)C(=O)O

>  <INCHIKEY>  (2233) 
PVLBNLMQHQYJIC-UHFFFAOYSA-N

$$$$
NMe-Ac4c_3diMe
     RDKit          2D

 11 11  0  0  0  0  0  0  0  0999 V2000
    1.3230   -1.3052    0.0000 N   0  0  0  0  0  0  0  0  0  0  0  0
    0.7494   -2.6912    0.0000 C   0  0  0  0  0  0  0  0  0  0  0  0
    0.4094   -0.1154    0.0000 C   0  0  0  0  0  0  0  0  0  0  0  0
   -0.7803   -1.0289    0.0000 C   0  0  0  0  0  0  0  0  0  0  0  0
   -1.6938    0.1608    0.0000 C   0  0  0  0  0  0  0  0  0  0  0  0
   -2.8836   -0.7527    0.0000 C   0  0  0  0  0  0  0  0  0  0  0  0
   -2.6073    1.3505    0.0000 C   0  0  0  0  0  0  0  0  0  0  0  0
   -0.5041    1.0743    0.0000 C   0  0  0  0  0  0  0  0  0  0  0  0
    1.5992    0.7981    0.0000 C   0  0  0  0  0  0  0  0  0  0  0  0
    1.4029    2.2852    0.0000 O   0  0  0  0  0  0  0  0  0  0  0  0
    2.9852    0.2245    0.0000 O   0  0  0  0  0  0  0  0  0  0  0  0
  1  2  1  0
  1  3  1  0
  3  4  1  0
  4  5  1  0
  5  6  1  0
  5  7  1  0
  5  8  1  0
  3  9  1  0
  9 10  2  0
  9 11  1  0
  8  3  1  0
M  END
>  <rName>  (2234) 
NMe-Ac4c_3diMe

>  <PQ_SYMBOL>  (2234) 
NMe-Ac4c_3diMe

>  <FULL_NAME>  (2234) 
3,3-Dimethyl-1-(methylamino)cyclobutane-1-carboxylic acid

>  <IUPAC_CONDENSED>  (2234) 
Me-Ac4c(3-diMe)

>  <IUPAC>  (2234) 
3,3-dimethyl-1-(methylamino)cyclobutanecarboxylic acid

>  <TYPE>  (2234) 
Backbone

>  <CLASS>  (2234) 
alpha

>  <ANALOG>  (2234) 
X

>  <MOL_WT>  (2234) 
157.213

>  <LOGP>  (2234) 
0.8492

>  <TPSA>  (2234) 
49.33

>  <POPULARITY>  (2234) 
5.7

>  <PROTECTED>  (2234) 
TRUE

>  <SMILES>  (2234) 
N(C)C1(CC(C)(C)C1)C(=O)O

>  <INCHIKEY>  (2234) 
DPRBKWLKZKPKTH-UHFFFAOYSA-N

$$$$
NMe-Ac5c
     RDKit          2D

 10 10  0  0  0  0  0  0  0  0999 V2000
    0.7424   -1.3457    0.0000 N   0  0  0  0  0  0  0  0  0  0  0  0
    0.0009   -2.6496    0.0000 C   0  0  0  0  0  0  0  0  0  0  0  0
   -0.0160   -0.0516    0.0000 C   0  0  0  0  0  0  0  0  0  0  0  0
   -0.4888    1.3719    0.0000 C   0  0  0  0  0  0  0  0  0  0  0  0
   -1.9888    1.3622    0.0000 C   0  0  0  0  0  0  0  0  0  0  0  0
   -2.4430   -0.0674    0.0000 C   0  0  0  0  0  0  0  0  0  0  0  0
   -1.2238   -0.9412    0.0000 C   0  0  0  0  0  0  0  0  0  0  0  0
    1.3503    0.5674    0.0000 C   0  0  0  0  0  0  0  0  0  0  0  0
    1.4973    2.0602    0.0000 O   0  0  0  0  0  0  0  0  0  0  0  0
    2.5695   -0.3063    0.0000 O   0  0  0  0  0  0  0  0  0  0  0  0
  1  2  1  0
  1  3  1  0
  3  4  1  0
  4  5  1  0
  5  6  1  0
  6  7  1  0
  3  8  1  0
  8  9  2  0
  8 10  1  0
  7  3  1  0
M  END
>  <rName>  (2235) 
NMe-Ac5c

>  <PQ_SYMBOL>  (2235) 
NMe-Ac5c

>  <FULL_NAME>  (2235) 
methyl 1-amino-1-carboxycyclopentane

>  <IUPAC_CONDENSED>  (2235) 
Me-Ac5c

>  <IUPAC>  (2235) 
1-(methylamino)cyclopentanecarboxylic acid

>  <TYPE>  (2235) 
Backbone

>  <CLASS>  (2235) 
alpha

>  <ANALOG>  (2235) 
X

>  <MOL_WT>  (2235) 
143.186

>  <LOGP>  (2235) 
0.6032

>  <TPSA>  (2235) 
49.33

>  <POPULARITY>  (2235) 
16.2

>  <PROTECTED>  (2235) 
TRUE

>  <SMILES>  (2235) 
N(C)C1(CCCC1)C(=O)O

>  <INCHIKEY>  (2235) 
HENGJKIYGDMCLP-UHFFFAOYSA-N

$$$$
NMe-Ac6c
     RDKit          2D

 11 11  0  0  0  0  0  0  0  0999 V2000
    1.2281   -1.1676    0.0000 N   0  0  0  0  0  0  0  0  0  0  0  0
    0.7853   -2.6007    0.0000 C   0  0  0  0  0  0  0  0  0  0  0  0
    0.2083   -0.0675    0.0000 C   0  0  0  0  0  0  0  0  0  0  0  0
   -0.6979   -1.2628    0.0000 C   0  0  0  0  0  0  0  0  0  0  0  0
   -2.1862   -1.0757    0.0000 C   0  0  0  0  0  0  0  0  0  0  0  0
   -2.7683    0.3068    0.0000 C   0  0  0  0  0  0  0  0  0  0  0  0
   -1.8620    1.5021    0.0000 C   0  0  0  0  0  0  0  0  0  0  0  0
   -0.3737    1.3149    0.0000 C   0  0  0  0  0  0  0  0  0  0  0  0
    1.4687    0.7457    0.0000 C   0  0  0  0  0  0  0  0  0  0  0  0
    1.3946    2.2439    0.0000 O   0  0  0  0  0  0  0  0  0  0  0  0
    2.8032    0.0608    0.0000 O   0  0  0  0  0  0  0  0  0  0  0  0
  1  2  1  0
  1  3  1  0
  3  4  1  0
  4  5  1  0
  5  6  1  0
  6  7  1  0
  7  8  1  0
  3  9  1  0
  9 10  2  0
  9 11  1  0
  8  3  1  0
M  END
>  <rName>  (2236) 
NMe-Ac6c

>  <PQ_SYMBOL>  (2236) 
NMe-Ac6c

>  <FULL_NAME>  (2236) 
1-(methylamino)cyclohexane-1-carboxylic acid

>  <IUPAC_CONDENSED>  (2236) 
Me-Ac6c

>  <IUPAC>  (2236) 
1-(methylamino)cyclohexanecarboxylic acid

>  <TYPE>  (2236) 
Backbone

>  <CLASS>  (2236) 
alpha

>  <ANALOG>  (2236) 
X

>  <MOL_WT>  (2236) 
157.21300000000002

>  <LOGP>  (2236) 
0.9932999999999998

>  <TPSA>  (2236) 
49.33

>  <POPULARITY>  (2236) 
12.8

>  <PROTECTED>  (2236) 
TRUE

>  <SMILES>  (2236) 
N(C)C1(CCCCC1)C(=O)O

>  <INCHIKEY>  (2236) 
HVYIHHARGXZADR-UHFFFAOYSA-N

$$$$
NMe-Aib
     RDKit          2D

  8  7  0  0  0  0  0  0  0  0999 V2000
    1.6552   -0.6779    0.0000 N   0  0  0  0  0  0  0  0  0  0  0  0
    2.7534    0.3439    0.0000 C   0  0  0  0  0  0  0  0  0  0  0  0
    0.2212   -0.2378    0.0000 C   0  0  0  0  0  0  0  0  0  0  0  0
   -0.2189   -1.6717    0.0000 C   0  0  0  0  0  0  0  0  0  0  0  0
    0.6614    1.1962    0.0000 C   0  0  0  0  0  0  0  0  0  0  0  0
   -1.2127    0.2024    0.0000 C   0  0  0  0  0  0  0  0  0  0  0  0
   -2.3109   -0.8194    0.0000 O   0  0  0  0  0  0  0  0  0  0  0  0
   -1.5485    1.6643    0.0000 O   0  0  0  0  0  0  0  0  0  0  0  0
  1  2  1  0
  1  3  1  0
  3  4  1  0
  3  5  1  0
  3  6  1  0
  6  7  2  0
  6  8  1  0
M  END
>  <rName>  (2237) 
NMe-Aib

>  <PQ_SYMBOL>  (2237) 
NMe-Aib

>  <FULL_NAME>  (2237) 
methyl alpha-aminoisobutyric acid (2-aminoalanine)

>  <IUPAC_CONDENSED>  (2237) 
Me-Aib

>  <IUPAC>  (2237) 
2-methyl-2-(methylamino)propanoic acid

>  <TYPE>  (2237) 
Backbone

>  <CLASS>  (2237) 
alpha

>  <ANALOG>  (2237) 
Ala

>  <MOL_WT>  (2237) 
117.14799999999998

>  <LOGP>  (2237) 
0.06899999999999967

>  <TPSA>  (2237) 
49.33

>  <POPULARITY>  (2237) 
18.3

>  <PROTECTED>  (2237) 
TRUE

>  <SMILES>  (2237) 
N(C)C(C)(C)C(=O)O

>  <INCHIKEY>  (2237) 
DLAMVQGYEVKIRE-UHFFFAOYSA-N

$$$$
NMe-Aib-
     RDKit          2D

  8  7  0  0  0  0  0  0  0  0999 V2000
    1.6552   -0.6779    0.0000 N   0  0  0  0  0  0  0  0  0  0  0  0
    2.7534    0.3439    0.0000 C   0  0  0  0  0  0  0  0  0  0  0  0
    0.2212   -0.2378    0.0000 C   0  0  0  0  0  0  0  0  0  0  0  0
   -0.2189   -1.6717    0.0000 C   0  0  0  0  0  0  0  0  0  0  0  0
    0.6614    1.1962    0.0000 C   0  0  0  0  0  0  0  0  0  0  0  0
   -1.2127    0.2024    0.0000 C   0  0  0  0  0  0  0  0  0  0  0  0
   -2.3109   -0.8194    0.0000 O   0  0  0  0  0  0  0  0  0  0  0  0
   -1.5485    1.6643    0.0000 O   0  0  0  0  0  0  0  0  0  0  0  0
  1  2  1  0
  1  3  1  0
  3  4  1  0
  3  5  1  0
  3  6  1  0
  6  7  2  0
  6  8  1  0
M  END
>  <rName>  (2238) 
NMe-Aib-

>  <PQ_SYMBOL>  (2238) 
NMe-Aib-

>  <FULL_NAME>  (2238) 
methyl alpha-aminoisobutyric acid (2-aminoalanine)

>  <IUPAC_CONDENSED>  (2238) 
Me-Aib-

>  <IUPAC>  (2238) 
2-methyl-2-(methylamino)propanoic acid

>  <TYPE>  (2238) 
N-term cap

>  <CLASS>  (2238) 
n_cap

>  <ANALOG>  (2238) 
X

>  <MOL_WT>  (2238) 
117.14799999999998

>  <LOGP>  (2238) 
0.06899999999999967

>  <TPSA>  (2238) 
49.33

>  <POPULARITY>  (2238) 
19.0

>  <PROTECTED>  (2238) 
TRUE

>  <SMILES>  (2238) 
N(C)C(C)(C)C(=O)O

>  <INCHIKEY>  (2238) 
DLAMVQGYEVKIRE-UHFFFAOYSA-N

$$$$
NMe-Ala_CF3
     RDKit          2D

 11 10  0  0  0  0  0  0  0  0999 V2000
   -1.9642    1.4720    0.0000 N   0  0  0  0  0  0  0  0  0  0  0  0
   -3.3434    0.8823    0.0000 C   0  0  0  0  0  0  0  0  0  0  0  0
   -0.7638    0.5725    0.0000 C   0  0  0  0  0  0  0  0  0  0  0  0
    0.6154    1.1622    0.0000 C   0  0  0  0  0  0  0  0  0  0  0  0
    1.8157    0.2626    0.0000 C   0  0  0  0  0  0  0  0  0  0  0  0
    3.0160   -0.6370    0.0000 F   0  0  0  0  0  0  0  0  0  0  0  0
    2.7153    1.4629    0.0000 F   0  0  0  0  0  0  0  0  0  0  0  0
    0.9161   -0.9377    0.0000 F   0  0  0  0  0  0  0  0  0  0  0  0
   -0.9427   -0.9168    0.0000 C   0  0  0  0  0  0  0  0  0  0  0  0
   -2.3220   -1.5065    0.0000 O   0  0  0  0  0  0  0  0  0  0  0  0
    0.2576   -1.8164    0.0000 O   0  0  0  0  0  0  0  0  0  0  0  0
  1  2  1  0
  1  3  1  0
  3  4  1  1
  4  5  1  0
  5  6  1  0
  5  7  1  0
  5  8  1  0
  3  9  1  0
  9 10  2  0
  9 11  1  0
M  END
>  <rName>  (2239) 
NMe-Ala_CF3

>  <PQ_SYMBOL>  (2239) 
NMe-Ala_CF3

>  <FULL_NAME>  (2239) 
(2S)-4,4,4-trifluoro-2-(methylamino)butanoic acid

>  <IUPAC_CONDENSED>  (2239) 
Me-Ala(CF3)

>  <IUPAC>  (2239) 
(2S)-4,4,4-trifluoro-2-(methylamino)butanoic acid

>  <TYPE>  (2239) 
Backbone

>  <CLASS>  (2239) 
alpha

>  <ANALOG>  (2239) 
X

>  <MOL_WT>  (2239) 
171.11800000000002

>  <LOGP>  (2239) 
0.6113999999999999

>  <TPSA>  (2239) 
49.33

>  <POPULARITY>  (2239) 
2.2

>  <PROTECTED>  (2239) 
TRUE

>  <SMILES>  (2239) 
N(C)[C@@H](CC(F)(F)F)C(=O)O

>  <INCHIKEY>  (2239) 
WGCJSAVBYODFBK-VKHMYHEASA-N

$$$$
NMe-Ala_cBu
     RDKit          2D

 11 11  0  0  0  0  0  0  0  0999 V2000
   -0.6234    1.4037    0.0000 N   0  0  0  0  0  0  0  0  0  0  0  0
   -1.8098    2.3215    0.0000 C   0  0  0  0  0  0  0  0  0  0  0  0
   -0.8250   -0.0827    0.0000 C   0  0  0  0  0  0  0  0  0  0  0  0
    0.3614   -1.0005    0.0000 C   0  0  0  0  0  0  0  0  0  0  0  0
    1.7495   -0.4320    0.0000 C   0  0  0  0  0  0  0  0  0  0  0  0
    2.3290    0.9516    0.0000 C   0  0  0  0  0  0  0  0  0  0  0  0
    3.7125    0.3721    0.0000 C   0  0  0  0  0  0  0  0  0  0  0  0
    3.1330   -1.0114    0.0000 C   0  0  0  0  0  0  0  0  0  0  0  0
   -2.2131   -0.6512    0.0000 C   0  0  0  0  0  0  0  0  0  0  0  0
   -2.4147   -2.1376    0.0000 O   0  0  0  0  0  0  0  0  0  0  0  0
   -3.3995    0.2666    0.0000 O   0  0  0  0  0  0  0  0  0  0  0  0
  1  2  1  0
  1  3  1  0
  3  4  1  1
  4  5  1  0
  5  6  1  0
  6  7  1  0
  7  8  1  0
  3  9  1  0
  9 10  2  0
  9 11  1  0
  8  5  1  0
M  END
>  <rName>  (2240) 
NMe-Ala_cBu

>  <PQ_SYMBOL>  (2240) 
NMe-Ala_cBu

>  <FULL_NAME>  (2240) 
(2~{S})-3-cyclobutyl-2-(methylamino)propanoic acid

>  <IUPAC_CONDENSED>  (2240) 
Me-Ala(cBu)

>  <IUPAC>  (2240) 
(2S)-3-cyclobutyl-2-(methylamino)propanoic acid

>  <TYPE>  (2240) 
Backbone

>  <CLASS>  (2240) 
alpha

>  <ANALOG>  (2240) 
Ala

>  <MOL_WT>  (2240) 
157.213

>  <LOGP>  (2240) 
0.8492

>  <TPSA>  (2240) 
49.33

>  <POPULARITY>  (2240) 
10.3

>  <PROTECTED>  (2240) 
TRUE

>  <SMILES>  (2240) 
N(C)[C@@H](CC1(CCC1))C(=O)O

>  <INCHIKEY>  (2240) 
FWFFEJNSBQYNAZ-ZETCQYMHSA-N

$$$$
NMe-Ala_cPent
     RDKit          2D

 12 12  0  0  0  0  0  0  0  0999 V2000
   -0.9097    1.3884    0.0000 N   0  0  0  0  0  0  0  0  0  0  0  0
   -2.0799    2.3268    0.0000 C   0  0  0  0  0  0  0  0  0  0  0  0
   -1.1374   -0.0943    0.0000 C   0  0  0  0  0  0  0  0  0  0  0  0
    0.0327   -1.0328    0.0000 C   0  0  0  0  0  0  0  0  0  0  0  0
    1.4305   -0.4886    0.0000 C   0  0  0  0  0  0  0  0  0  0  0  0
    2.6924   -1.2997    0.0000 C   0  0  0  0  0  0  0  0  0  0  0  0
    3.8536   -0.3502    0.0000 C   0  0  0  0  0  0  0  0  0  0  0  0
    3.3095    1.0476    0.0000 C   0  0  0  0  0  0  0  0  0  0  0  0
    1.8120    0.9621    0.0000 C   0  0  0  0  0  0  0  0  0  0  0  0
   -2.5353   -0.6384    0.0000 C   0  0  0  0  0  0  0  0  0  0  0  0
   -2.7630   -2.1210    0.0000 O   0  0  0  0  0  0  0  0  0  0  0  0
   -3.7054    0.3001    0.0000 O   0  0  0  0  0  0  0  0  0  0  0  0
  1  2  1  0
  1  3  1  0
  3  4  1  1
  4  5  1  0
  5  6  1  0
  6  7  1  0
  7  8  1  0
  8  9  1  0
  3 10  1  0
 10 11  2  0
 10 12  1  0
  9  5  1  0
M  END
>  <rName>  (2241) 
NMe-Ala_cPent

>  <PQ_SYMBOL>  (2241) 
NMe-Ala_cPent

>  <FULL_NAME>  (2241) 
(S)-3-Cyclopentyl-2-(methylamino)propanoic acid

>  <IUPAC_CONDENSED>  (2241) 
Me-Ala(cPent)

>  <IUPAC>  (2241) 
(2S)-3-cyclopentyl-2-(methylamino)propanoic acid

>  <TYPE>  (2241) 
Backbone

>  <CLASS>  (2241) 
alpha

>  <ANALOG>  (2241) 
Ala

>  <MOL_WT>  (2241) 
171.24

>  <LOGP>  (2241) 
1.2392999999999998

>  <TPSA>  (2241) 
49.33

>  <POPULARITY>  (2241) 
2.2

>  <PROTECTED>  (2241) 
TRUE

>  <SMILES>  (2241) 
N(C)[C@@H](CC1(CCCC1))C(=O)O

>  <INCHIKEY>  (2241) 
BACSMCYROVTXLL-QMMMGPOBSA-N

$$$$
NMe-Ala_cPr
     RDKit          2D

 10 10  0  0  0  0  0  0  0  0999 V2000
   -0.3199    1.4177    0.0000 N   0  0  0  0  0  0  0  0  0  0  0  0
   -1.5214    2.3156    0.0000 C   0  0  0  0  0  0  0  0  0  0  0  0
   -0.4967   -0.0718    0.0000 C   0  0  0  0  0  0  0  0  0  0  0  0
    0.7048   -0.9698    0.0000 C   0  0  0  0  0  0  0  0  0  0  0  0
    2.0832   -0.3782    0.0000 C   0  0  0  0  0  0  0  0  0  0  0  0
    3.5727   -0.5550    0.0000 C   0  0  0  0  0  0  0  0  0  0  0  0
    2.9811    0.8234    0.0000 C   0  0  0  0  0  0  0  0  0  0  0  0
   -1.8751   -0.6634    0.0000 C   0  0  0  0  0  0  0  0  0  0  0  0
   -2.0520   -2.1530    0.0000 O   0  0  0  0  0  0  0  0  0  0  0  0
   -3.0767    0.2345    0.0000 O   0  0  0  0  0  0  0  0  0  0  0  0
  1  2  1  0
  1  3  1  0
  3  4  1  1
  4  5  1  0
  5  6  1  0
  6  7  1  0
  3  8  1  0
  8  9  2  0
  8 10  1  0
  7  5  1  0
M  END
>  <rName>  (2242) 
NMe-Ala_cPr

>  <PQ_SYMBOL>  (2242) 
NMe-Ala_cPr

>  <FULL_NAME>  (2242) 
(2S)-3-cyclopropyl-2-(methylamino)propanoic acid

>  <IUPAC_CONDENSED>  (2242) 
Me-Ala(cPr)

>  <IUPAC>  (2242) 
(2S)-3-cyclopropyl-2-(methylamino)propanoic acid

>  <TYPE>  (2242) 
Backbone

>  <CLASS>  (2242) 
alpha

>  <ANALOG>  (2242) 
Ala

>  <MOL_WT>  (2242) 
143.186

>  <LOGP>  (2242) 
0.4591

>  <TPSA>  (2242) 
49.33

>  <POPULARITY>  (2242) 
11.9

>  <PROTECTED>  (2242) 
TRUE

>  <SMILES>  (2242) 
N(C)[C@@H](CC1(CC1))C(=O)O

>  <INCHIKEY>  (2242) 
OPVQHJQIRGWRGV-LURJTMIESA-N

$$$$
NMe-Ala_tBu
     RDKit          2D

 11 10  0  0  0  0  0  0  0  0999 V2000
   -1.9642    1.4720    0.0000 N   0  0  0  0  0  0  0  0  0  0  0  0
   -3.3434    0.8823    0.0000 C   0  0  0  0  0  0  0  0  0  0  0  0
   -0.7638    0.5725    0.0000 C   0  0  0  0  0  0  0  0  0  0  0  0
    0.6154    1.1622    0.0000 C   0  0  0  0  0  0  0  0  0  0  0  0
    1.8157    0.2626    0.0000 C   0  0  0  0  0  0  0  0  0  0  0  0
    2.7153    1.4629    0.0000 C   0  0  0  0  0  0  0  0  0  0  0  0
    0.9161   -0.9377    0.0000 C   0  0  0  0  0  0  0  0  0  0  0  0
    3.0160   -0.6370    0.0000 C   0  0  0  0  0  0  0  0  0  0  0  0
   -0.9427   -0.9168    0.0000 C   0  0  0  0  0  0  0  0  0  0  0  0
   -2.3220   -1.5065    0.0000 O   0  0  0  0  0  0  0  0  0  0  0  0
    0.2576   -1.8164    0.0000 O   0  0  0  0  0  0  0  0  0  0  0  0
  1  2  1  0
  1  3  1  0
  3  4  1  1
  4  5  1  0
  5  6  1  0
  5  7  1  0
  5  8  1  0
  3  9  1  0
  9 10  2  0
  9 11  1  0
M  END
>  <rName>  (2243) 
NMe-Ala_tBu

>  <PQ_SYMBOL>  (2243) 
NMe-Ala_tBu

>  <FULL_NAME>  (2243) 
(S)-4,4-dimethyl-2-(methylamino)pentanoic acid

>  <IUPAC_CONDENSED>  (2243) 
Me-Ala(tBu)

>  <IUPAC>  (2243) 
(2S)-4,4-dimethyl-2-(methylamino)pentanoic acid

>  <TYPE>  (2243) 
Backbone

>  <CLASS>  (2243) 
alpha

>  <ANALOG>  (2243) 
Leu

>  <MOL_WT>  (2243) 
159.22899999999998

>  <LOGP>  (2243) 
1.0952

>  <TPSA>  (2243) 
49.33

>  <POPULARITY>  (2243) 
12.6

>  <PROTECTED>  (2243) 
TRUE

>  <SMILES>  (2243) 
N(C)[C@@H](CC(C)(C)C)C(=O)O

>  <INCHIKEY>  (2243) 
XKQSRLFMHOHZQR-LURJTMIESA-N

$$$$
NMe-Asp_OMe
     RDKit          2D

 11 10  0  0  0  0  0  0  0  0999 V2000
   -2.2193    1.4694    0.0000 N   0  0  0  0  0  0  0  0  0  0  0  0
   -3.5902    0.8606    0.0000 C   0  0  0  0  0  0  0  0  0  0  0  0
   -1.0066    0.5867    0.0000 C   0  0  0  0  0  0  0  0  0  0  0  0
    0.3643    1.1955    0.0000 C   0  0  0  0  0  0  0  0  0  0  0  0
    1.5770    0.3128    0.0000 C   0  0  0  0  0  0  0  0  0  0  0  0
    1.4188   -1.1789    0.0000 O   0  0  0  0  0  0  0  0  0  0  0  0
    2.9479    0.9216    0.0000 O   0  0  0  0  0  0  0  0  0  0  0  0
    4.1606    0.0389    0.0000 C   0  0  0  0  0  0  0  0  0  0  0  0
   -1.1647   -0.9050    0.0000 C   0  0  0  0  0  0  0  0  0  0  0  0
   -2.5356   -1.5138    0.0000 O   0  0  0  0  0  0  0  0  0  0  0  0
    0.0480   -1.7877    0.0000 O   0  0  0  0  0  0  0  0  0  0  0  0
  1  2  1  0
  1  3  1  0
  3  4  1  1
  4  5  1  0
  5  6  2  0
  5  7  1  0
  7  8  1  0
  3  9  1  0
  9 10  2  0
  9 11  1  0
M  END
>  <rName>  (2244) 
NMe-Asp_OMe

>  <PQ_SYMBOL>  (2244) 
NMe-Asp_OMe

>  <FULL_NAME>  (2244) 
(S)-4-methoxy-2-(methylamino)-4-oxobutanoic acid

>  <IUPAC_CONDENSED>  (2244) 
Me-Asp(OMe)

>  <IUPAC>  (2244) 
(2S)-3-(methoxycarbonyl)-2-(methylamino)propanoic acid

>  <TYPE>  (2244) 
Backbone

>  <CLASS>  (2244) 
alpha

>  <ANALOG>  (2244) 
Asp

>  <MOL_WT>  (2244) 
161.15699999999998

>  <LOGP>  (2244) 
-0.7778999999999998

>  <TPSA>  (2244) 
75.63

>  <POPULARITY>  (2244) 
8.7

>  <PROTECTED>  (2244) 
TRUE

>  <SMILES>  (2244) 
N(C)[C@@H](CC(=O)OC)C(=O)O

>  <INCHIKEY>  (2244) 
BNXGGDPUVJSMJV-BYPYZUCNSA-N

$$$$
NMe-C
     RDKit          2D

  8  7  0  0  0  0  0  0  0  0999 V2000
   -1.6238    0.7500    0.0000 N   0  0  0  0  0  0  0  0  0  0  0  0
   -2.9228    0.0000    0.0000 C   0  0  0  0  0  0  0  0  0  0  0  0
   -0.3248   -0.0000    0.0000 C   0  0  0  0  0  0  0  0  0  0  0  0
   -0.3248   -1.5000    0.0000 C   0  0  0  0  0  0  0  0  0  0  0  0
    0.9743   -2.2500    0.0000 S   0  0  0  0  0  0  0  0  0  0  0  0
    0.9743    0.7500    0.0000 C   0  0  0  0  0  0  0  0  0  0  0  0
    0.9743    2.2500    0.0000 O   0  0  0  0  0  0  0  0  0  0  0  0
    2.2733   -0.0000    0.0000 O   0  0  0  0  0  0  0  0  0  0  0  0
  1  2  1  0
  1  3  1  0
  3  4  1  6
  4  5  1  0
  3  6  1  0
  6  7  2  0
  6  8  1  0
M  END
>  <rName>  (2245) 
NMe-C

>  <PQ_SYMBOL>  (2245) 
NMe-C

>  <FULL_NAME>  (2245) 
N-Methyl-L-Cysteine

>  <IUPAC_CONDENSED>  (2245) 
Me-Cys

>  <IUPAC>  (2245) 
(2R)-2-(methylamino)-3-sulfanylpropanoic acid

>  <TYPE>  (2245) 
Backbone

>  <CLASS>  (2245) 
alpha

>  <ANALOG>  (2245) 
Cys

>  <MOL_WT>  (2245) 
135.188

>  <LOGP>  (2245) 
-0.41120000000000007

>  <TPSA>  (2245) 
49.33

>  <POPULARITY>  (2245) 
40.8

>  <PROTECTED>  (2245) 
TRUE

>  <SMILES>  (2245) 
N(C)[C@@H](CS)C(=O)O

>  <INCHIKEY>  (2245) 
DVOOXRTYGGLORL-VKHMYHEASA-N

$$$$
NMe-Cha
     RDKit          2D

 13 13  0  0  0  0  0  0  0  0999 V2000
   -1.1846    1.3730    0.0000 N   0  0  0  0  0  0  0  0  0  0  0  0
   -2.3388    2.3311    0.0000 C   0  0  0  0  0  0  0  0  0  0  0  0
   -1.4373   -0.1056    0.0000 C   0  0  0  0  0  0  0  0  0  0  0  0
   -0.2831   -1.0637    0.0000 C   0  0  0  0  0  0  0  0  0  0  0  0
    1.1237   -0.5432    0.0000 C   0  0  0  0  0  0  0  0  0  0  0  0
    1.3763    0.9354    0.0000 C   0  0  0  0  0  0  0  0  0  0  0  0
    2.7831    1.4559    0.0000 C   0  0  0  0  0  0  0  0  0  0  0  0
    3.9373    0.4978    0.0000 C   0  0  0  0  0  0  0  0  0  0  0  0
    3.6846   -0.9808    0.0000 C   0  0  0  0  0  0  0  0  0  0  0  0
    2.2778   -1.5013    0.0000 C   0  0  0  0  0  0  0  0  0  0  0  0
   -2.8441   -0.6260    0.0000 C   0  0  0  0  0  0  0  0  0  0  0  0
   -3.0967   -2.1046    0.0000 O   0  0  0  0  0  0  0  0  0  0  0  0
   -3.9982    0.3321    0.0000 O   0  0  0  0  0  0  0  0  0  0  0  0
  1  2  1  0
  1  3  1  0
  3  4  1  1
  4  5  1  0
  5  6  1  0
  6  7  1  0
  7  8  1  0
  8  9  1  0
  9 10  1  0
  3 11  1  0
 11 12  2  0
 11 13  1  0
 10  5  1  0
M  END
>  <rName>  (2246) 
NMe-Cha

>  <PQ_SYMBOL>  (2246) 
NMe-Cha

>  <FULL_NAME>  (2246) 
(S)-3-Cyclohexyl-2-(methylamino)propanoic acid

>  <IUPAC_CONDENSED>  (2246) 
Me-Cha

>  <IUPAC>  (2246) 
(2S)-3-cyclohexyl-2-(methylamino)propanoic acid

>  <TYPE>  (2246) 
Backbone

>  <CLASS>  (2246) 
alpha

>  <ANALOG>  (2246) 
Ala

>  <MOL_WT>  (2246) 
185.267

>  <LOGP>  (2246) 
1.6294

>  <TPSA>  (2246) 
49.33

>  <POPULARITY>  (2246) 
25.8

>  <PROTECTED>  (2246) 
TRUE

>  <SMILES>  (2246) 
N(C)[C@@H](CC1(CCCCC1))C(=O)O

>  <INCHIKEY>  (2246) 
GBMDYACPQYNUGA-VIFPVBQESA-N

$$$$
NMe-Chg
     RDKit          2D

 12 12  0  0  0  0  0  0  0  0999 V2000
   -1.6493   -1.6245    0.0000 N   0  0  0  0  0  0  0  0  0  0  0  0
   -3.1463   -1.7206    0.0000 C   0  0  0  0  0  0  0  0  0  0  0  0
   -0.9841   -0.2801    0.0000 C   0  0  0  0  0  0  0  0  0  0  0  0
    0.5128   -0.1840    0.0000 C   0  0  0  0  0  0  0  0  0  0  0  0
    1.1781    1.1604    0.0000 C   0  0  0  0  0  0  0  0  0  0  0  0
    2.6750    1.2564    0.0000 C   0  0  0  0  0  0  0  0  0  0  0  0
    3.5067    0.0081    0.0000 C   0  0  0  0  0  0  0  0  0  0  0  0
    2.8414   -1.3363    0.0000 C   0  0  0  0  0  0  0  0  0  0  0  0
    1.3445   -1.4324    0.0000 C   0  0  0  0  0  0  0  0  0  0  0  0
   -1.8157    0.9682    0.0000 C   0  0  0  0  0  0  0  0  0  0  0  0
   -1.1505    2.3126    0.0000 O   0  0  0  0  0  0  0  0  0  0  0  0
   -3.3127    0.8721    0.0000 O   0  0  0  0  0  0  0  0  0  0  0  0
  1  2  1  0
  3  1  1  6
  3  4  1  0
  4  5  1  0
  5  6  1  0
  6  7  1  0
  7  8  1  0
  8  9  1  0
  3 10  1  0
 10 11  2  0
 10 12  1  0
  9  4  1  0
M  END
>  <rName>  (2247) 
NMe-Chg

>  <PQ_SYMBOL>  (2247) 
NMe-Chg

>  <FULL_NAME>  (2247) 
N-methyl-L-cyclohexylglycine

>  <IUPAC_CONDENSED>  (2247) 
Me-Chg

>  <IUPAC>  (2247) 
(2S)-2-cyclohexyl-2-(methylamino)acetic acid

>  <TYPE>  (2247) 
Backbone

>  <CLASS>  (2247) 
alpha

>  <ANALOG>  (2247) 
X

>  <MOL_WT>  (2247) 
171.24

>  <LOGP>  (2247) 
1.2392999999999998

>  <TPSA>  (2247) 
49.33

>  <POPULARITY>  (2247) 
13.2

>  <PROTECTED>  (2247) 
TRUE

>  <SMILES>  (2247) 
N(C)[C@@H](C1(CCCCC1))C(=O)O

>  <INCHIKEY>  (2247) 
VBSXCVMRXXJTLX-QMMMGPOBSA-N

$$$$
NMe-Cys_Me
     RDKit          2D

  9  8  0  0  0  0  0  0  0  0999 V2000
    1.7749    1.1003    0.0000 N   0  0  0  0  0  0  0  0  0  0  0  0
    1.6244    2.5927    0.0000 C   0  0  0  0  0  0  0  0  0  0  0  0
    0.5577    0.2238    0.0000 C   0  0  0  0  0  0  0  0  0  0  0  0
   -0.8100    0.8396    0.0000 C   0  0  0  0  0  0  0  0  0  0  0  0
   -2.0273   -0.0369    0.0000 S   0  0  0  0  0  0  0  0  0  0  0  0
   -3.3950    0.5789    0.0000 C   0  0  0  0  0  0  0  0  0  0  0  0
    0.7082   -1.2687    0.0000 C   0  0  0  0  0  0  0  0  0  0  0  0
    2.0760   -1.8845    0.0000 O   0  0  0  0  0  0  0  0  0  0  0  0
   -0.5090   -2.1452    0.0000 O   0  0  0  0  0  0  0  0  0  0  0  0
  1  2  1  0
  1  3  1  0
  3  4  1  6
  4  5  1  0
  5  6  1  0
  3  7  1  0
  7  8  2  0
  7  9  1  0
M  END
>  <rName>  (2248) 
NMe-Cys_Me

>  <PQ_SYMBOL>  (2248) 
NMe-Cys_Me

>  <FULL_NAME>  (2248) 
N,S-DIMETHYLCYSTEINE

>  <IUPAC_CONDENSED>  (2248) 
Me-Cys(Me)

>  <IUPAC>  (2248) 
(2R)-2-(methylamino)-3-(methylsulfanyl)propanoic acid

>  <TYPE>  (2248) 
Backbone

>  <CLASS>  (2248) 
alpha

>  <ANALOG>  (2248) 
Cys

>  <MOL_WT>  (2248) 
149.215

>  <LOGP>  (2248) 
0.021999999999999964

>  <TPSA>  (2248) 
49.33

>  <POPULARITY>  (2248) 
28.7

>  <PROTECTED>  (2248) 
TRUE

>  <SMILES>  (2248) 
N(C)[C@@H](CSC)C(=O)O

>  <INCHIKEY>  (2248) 
WQSNCKZPJSHACB-BYPYZUCNSA-N

$$$$
NMe-Cys_NHAc
     RDKit          2D

 12 11  0  0  0  0  0  0  0  0999 V2000
    3.1211    0.9967    0.0000 N   0  0  0  0  0  0  0  0  0  0  0  0
    3.0927    2.4964    0.0000 C   0  0  0  0  0  0  0  0  0  0  0  0
    1.8364    0.2222    0.0000 C   0  0  0  0  0  0  0  0  0  0  0  0
    0.5235    0.9476    0.0000 C   0  0  0  0  0  0  0  0  0  0  0  0
   -0.7612    0.1731    0.0000 S   0  0  0  0  0  0  0  0  0  0  0  0
   -2.0742    0.8985    0.0000 N   0  0  0  0  0  0  0  0  0  0  0  0
   -3.3588    0.1240    0.0000 C   0  0  0  0  0  0  0  0  0  0  0  0
   -3.3304   -1.3757    0.0000 O   0  0  0  0  0  0  0  0  0  0  0  0
   -4.6718    0.8494    0.0000 C   0  0  0  0  0  0  0  0  0  0  0  0
    1.8648   -1.2775    0.0000 C   0  0  0  0  0  0  0  0  0  0  0  0
    3.1778   -2.0028    0.0000 O   0  0  0  0  0  0  0  0  0  0  0  0
    0.5801   -2.0519    0.0000 O   0  0  0  0  0  0  0  0  0  0  0  0
  1  2  1  0
  1  3  1  0
  3  4  1  6
  4  5  1  0
  5  6  1  0
  6  7  1  0
  7  8  2  0
  7  9  1  0
  3 10  1  0
 10 11  2  0
 10 12  1  0
M  END
>  <rName>  (2249) 
NMe-Cys_NHAc

>  <PQ_SYMBOL>  (2249) 
NMe-Cys_NHAc

>  <FULL_NAME>  (2249) 
S-acetamido-methyl-l-cysteine

>  <IUPAC_CONDENSED>  (2249) 
Me-Cys(NHAc)

>  <IUPAC>  (2249) 
(2R)-3-acetamidosulfanyl-2-(methylamino)propanoic acid

>  <TYPE>  (2249) 
Backbone

>  <CLASS>  (2249) 
alpha

>  <ANALOG>  (2249) 
Cys

>  <MOL_WT>  (2249) 
192.23999999999998

>  <LOGP>  (2249) 
-0.5567000000000002

>  <TPSA>  (2249) 
78.42999999999999

>  <POPULARITY>  (2249) 
2.2

>  <PROTECTED>  (2249) 
TRUE

>  <SMILES>  (2249) 
N(C)[C@@H](CSNC(=O)C)C(=O)O

>  <INCHIKEY>  (2249) 
KIVOINVRZXAXBX-YFKPBYRVSA-N

$$$$
NMe-D
     RDKit          2D

 10  9  0  0  0  0  0  0  0  0999 V2000
   -1.8138    1.4604    0.0000 N   0  0  0  0  0  0  0  0  0  0  0  0
   -3.1802    0.8418    0.0000 C   0  0  0  0  0  0  0  0  0  0  0  0
   -0.5948    0.5863    0.0000 C   0  0  0  0  0  0  0  0  0  0  0  0
    0.7717    1.2050    0.0000 C   0  0  0  0  0  0  0  0  0  0  0  0
    1.9907    0.3309    0.0000 C   0  0  0  0  0  0  0  0  0  0  0  0
    1.8433   -1.1619    0.0000 O   0  0  0  0  0  0  0  0  0  0  0  0
    3.3572    0.9495    0.0000 O   0  0  0  0  0  0  0  0  0  0  0  0
   -0.7422   -0.9064    0.0000 C   0  0  0  0  0  0  0  0  0  0  0  0
   -2.1087   -1.5251    0.0000 O   0  0  0  0  0  0  0  0  0  0  0  0
    0.4768   -1.7805    0.0000 O   0  0  0  0  0  0  0  0  0  0  0  0
  1  2  1  0
  1  3  1  0
  3  4  1  1
  4  5  1  0
  5  6  2  0
  5  7  1  0
  3  8  1  0
  8  9  2  0
  8 10  1  0
M  END
>  <rName>  (2250) 
NMe-D

>  <PQ_SYMBOL>  (2250) 
NMe-D

>  <FULL_NAME>  (2250) 
N-Methyl-L-Aspartic acid

>  <IUPAC_CONDENSED>  (2250) 
Me-Asp

>  <IUPAC>  (2250) 
(2S)-2-(methylamino)succinic acid

>  <TYPE>  (2250) 
Backbone

>  <CLASS>  (2250) 
alpha

>  <ANALOG>  (2250) 
Asp

>  <MOL_WT>  (2250) 
147.13

>  <LOGP>  (2250) 
-0.8663000000000001

>  <TPSA>  (2250) 
86.63000000000001

>  <POPULARITY>  (2250) 
24.3

>  <PROTECTED>  (2250) 
TRUE

>  <SMILES>  (2250) 
N(C)[C@@H](CC(=O)O)C(=O)O

>  <INCHIKEY>  (2250) 
HOKKHZGPKSLGJE-VKHMYHEASA-N

$$$$
NMe-D-1Nal
     RDKit          2D

 17 18  0  0  0  0  0  0  0  0999 V2000
   -2.6226   -1.3014    0.0000 N   0  0  0  0  0  0  0  0  0  0  0  0
   -4.0285   -1.8243    0.0000 C   0  0  0  0  0  0  0  0  0  0  0  0
   -2.3724    0.1776    0.0000 C   0  0  0  0  0  0  0  0  0  0  0  0
   -0.9665    0.7004    0.0000 C   0  0  0  0  0  0  0  0  0  0  0  0
    0.1892   -0.2557    0.0000 C   0  0  0  0  0  0  0  0  0  0  0  0
   -0.0609   -1.7347    0.0000 C   0  0  0  0  0  0  0  0  0  0  0  0
    1.0949   -2.6909    0.0000 C   0  0  0  0  0  0  0  0  0  0  0  0
    2.5008   -2.1680    0.0000 C   0  0  0  0  0  0  0  0  0  0  0  0
    2.7509   -0.6890    0.0000 C   0  0  0  0  0  0  0  0  0  0  0  0
    4.1569   -0.1662    0.0000 C   0  0  0  0  0  0  0  0  0  0  0  0
    4.4070    1.3128    0.0000 C   0  0  0  0  0  0  0  0  0  0  0  0
    3.2512    2.2690    0.0000 C   0  0  0  0  0  0  0  0  0  0  0  0
    1.8453    1.7461    0.0000 C   0  0  0  0  0  0  0  0  0  0  0  0
    1.5952    0.2671    0.0000 C   0  0  0  0  0  0  0  0  0  0  0  0
   -3.5282    1.1337    0.0000 C   0  0  0  0  0  0  0  0  0  0  0  0
   -3.2781    2.6127    0.0000 O   0  0  0  0  0  0  0  0  0  0  0  0
   -4.9341    0.6108    0.0000 O   0  0  0  0  0  0  0  0  0  0  0  0
  1  2  1  0
  1  3  1  0
  3  4  1  1
  4  5  1  0
  5  6  2  0
  6  7  1  0
  7  8  2  0
  8  9  1  0
  9 10  2  0
 10 11  1  0
 11 12  2  0
 12 13  1  0
 13 14  2  0
  3 15  1  0
 15 16  2  0
 15 17  1  0
 14  5  1  0
 14  9  1  0
M  END
>  <rName>  (2251) 
NMe-D-1Nal

>  <PQ_SYMBOL>  (2251) 
NMe-D-1Nal

>  <FULL_NAME>  (2251) 
(2R)-2-(methylamino)-3-(naphthalen-1-yl)propanoic acid

>  <IUPAC_CONDENSED>  (2251) 
Me-D-1Nal

>  <IUPAC>  (2251) 
(2R)-2-(methylamino)-3-naphthalen-1-ylpropanoic acid

>  <TYPE>  (2251) 
Backbone

>  <CLASS>  (2251) 
alpha

>  <ANALOG>  (2251) 
Phe

>  <MOL_WT>  (2251) 
229.279

>  <LOGP>  (2251) 
2.0548999999999995

>  <TPSA>  (2251) 
49.33

>  <POPULARITY>  (2251) 
2.2

>  <PROTECTED>  (2251) 
TRUE

>  <SMILES>  (2251) 
N(C)[C@H](Cc1(cccc2(ccccc12)))C(=O)O

>  <INCHIKEY>  (2251) 
BNIHASXPOKDHFH-CYBMUJFWSA-N

$$$$
NMe-D-2Nal
     RDKit          2D

 17 18  0  0  0  0  0  0  0  0999 V2000
   -1.9873    1.3489    0.0000 N   0  0  0  0  0  0  0  0  0  0  0  0
   -2.8552    2.5724    0.0000 C   0  0  0  0  0  0  0  0  0  0  0  0
   -2.6130   -0.0144    0.0000 C   0  0  0  0  0  0  0  0  0  0  0  0
   -1.7451   -1.2379    0.0000 C   0  0  0  0  0  0  0  0  0  0  0  0
   -0.2517   -1.0980    0.0000 C   0  0  0  0  0  0  0  0  0  0  0  0
    0.6162   -2.3215    0.0000 C   0  0  0  0  0  0  0  0  0  0  0  0
    2.1096   -2.1817    0.0000 C   0  0  0  0  0  0  0  0  0  0  0  0
    2.7353   -0.8184    0.0000 C   0  0  0  0  0  0  0  0  0  0  0  0
    4.2287   -0.6785    0.0000 C   0  0  0  0  0  0  0  0  0  0  0  0
    4.8544    0.6848    0.0000 C   0  0  0  0  0  0  0  0  0  0  0  0
    3.9865    1.9082    0.0000 C   0  0  0  0  0  0  0  0  0  0  0  0
    2.4931    1.7684    0.0000 C   0  0  0  0  0  0  0  0  0  0  0  0
    1.8674    0.4051    0.0000 C   0  0  0  0  0  0  0  0  0  0  0  0
    0.3740    0.2653    0.0000 C   0  0  0  0  0  0  0  0  0  0  0  0
   -4.1064   -0.1542    0.0000 C   0  0  0  0  0  0  0  0  0  0  0  0
   -4.7321   -1.5175    0.0000 O   0  0  0  0  0  0  0  0  0  0  0  0
   -4.9743    1.0692    0.0000 O   0  0  0  0  0  0  0  0  0  0  0  0
  1  2  1  0
  1  3  1  0
  3  4  1  6
  4  5  1  0
  5  6  1  0
  6  7  2  0
  7  8  1  0
  8  9  2  0
  9 10  1  0
 10 11  2  0
 11 12  1  0
 12 13  2  0
 13 14  1  0
  3 15  1  0
 15 16  2  0
 15 17  1  0
 13  8  1  0
 14  5  2  0
M  END
>  <rName>  (2252) 
NMe-D-2Nal

>  <PQ_SYMBOL>  (2252) 
NMe-D-2Nal

>  <FULL_NAME>  (2252) 
N-methyl-3-(2-naphthyl)-D-alanine

>  <IUPAC_CONDENSED>  (2252) 
Me-D-2Nal

>  <IUPAC>  (2252) 
(2R)-2-(methylamino)-3-(naphthalen-2-yl)propanoic acid

>  <TYPE>  (2252) 
Backbone

>  <CLASS>  (2252) 
alpha

>  <ANALOG>  (2252) 
Phe

>  <MOL_WT>  (2252) 
229.279

>  <LOGP>  (2252) 
2.0548999999999995

>  <TPSA>  (2252) 
49.33

>  <POPULARITY>  (2252) 
15.4

>  <PROTECTED>  (2252) 
TRUE

>  <SMILES>  (2252) 
N(C)[C@H](Cc2(ccc1(ccccc1c2)))C(=O)O

>  <INCHIKEY>  (2252) 
XRBFRWVSTGFFCB-CYBMUJFWSA-N

$$$$
NMe-D-4Pal
     RDKit          2D

 13 13  0  0  0  0  0  0  0  0999 V2000
   -1.1846    1.3730    0.0000 N   0  0  0  0  0  0  0  0  0  0  0  0
   -2.3388    2.3311    0.0000 C   0  0  0  0  0  0  0  0  0  0  0  0
   -1.4373   -0.1056    0.0000 C   0  0  0  0  0  0  0  0  0  0  0  0
   -0.2831   -1.0637    0.0000 C   0  0  0  0  0  0  0  0  0  0  0  0
    1.1237   -0.5432    0.0000 C   0  0  0  0  0  0  0  0  0  0  0  0
    1.3763    0.9354    0.0000 C   0  0  0  0  0  0  0  0  0  0  0  0
    2.7831    1.4559    0.0000 C   0  0  0  0  0  0  0  0  0  0  0  0
    3.9373    0.4978    0.0000 N   0  0  0  0  0  0  0  0  0  0  0  0
    3.6846   -0.9808    0.0000 C   0  0  0  0  0  0  0  0  0  0  0  0
    2.2778   -1.5013    0.0000 C   0  0  0  0  0  0  0  0  0  0  0  0
   -2.8441   -0.6260    0.0000 C   0  0  0  0  0  0  0  0  0  0  0  0
   -3.0967   -2.1046    0.0000 O   0  0  0  0  0  0  0  0  0  0  0  0
   -3.9982    0.3321    0.0000 O   0  0  0  0  0  0  0  0  0  0  0  0
  1  2  1  0
  1  3  1  0
  3  4  1  6
  4  5  1  0
  5  6  1  0
  6  7  2  0
  7  8  1  0
  8  9  2  0
  9 10  1  0
  3 11  1  0
 11 12  2  0
 11 13  1  0
 10  5  2  0
M  END
>  <rName>  (2253) 
NMe-D-4Pal

>  <PQ_SYMBOL>  (2253) 
NMe-D-4Pal

>  <FULL_NAME>  (2253) 
(2R)-2-(methylamino)-3-pyridin-4-ylpropanoic acid

>  <IUPAC_CONDENSED>  (2253) 
Me-D-4Pal

>  <IUPAC>  (2253) 
(2R)-2-(methylamino)-3-pyridin-4-ylpropanoic acid

>  <TYPE>  (2253) 
Backbone

>  <CLASS>  (2253) 
alpha

>  <ANALOG>  (2253) 
Phe

>  <MOL_WT>  (2253) 
180.207

>  <LOGP>  (2253) 
0.29669999999999946

>  <TPSA>  (2253) 
62.22

>  <POPULARITY>  (2253) 
2.2

>  <PROTECTED>  (2253) 
TRUE

>  <SMILES>  (2253) 
N(C)[C@H](Cc1(ccncc1))C(=O)O

>  <INCHIKEY>  (2253) 
HVGBCUMYUJNQQY-MRVPVSSYSA-N

$$$$
NMe-D-Abu
     RDKit          2D

  8  7  0  0  0  0  0  0  0  0999 V2000
   -1.2990    1.3125    0.0000 N   0  0  0  0  0  0  0  0  0  0  0  0
   -2.5981    0.5625    0.0000 C   0  0  0  0  0  0  0  0  0  0  0  0
    0.0000    0.5625    0.0000 C   0  0  0  0  0  0  0  0  0  0  0  0
    1.2990    1.3125    0.0000 C   0  0  0  0  0  0  0  0  0  0  0  0
    2.5981    0.5625    0.0000 C   0  0  0  0  0  0  0  0  0  0  0  0
    0.0000   -0.9375    0.0000 C   0  0  0  0  0  0  0  0  0  0  0  0
   -1.2990   -1.6875    0.0000 O   0  0  0  0  0  0  0  0  0  0  0  0
    1.2990   -1.6875    0.0000 O   0  0  0  0  0  0  0  0  0  0  0  0
  1  2  1  0
  1  3  1  0
  3  4  1  6
  4  5  1  0
  3  6  1  0
  6  7  2  0
  6  8  1  0
M  END
>  <rName>  (2254) 
NMe-D-Abu

>  <PQ_SYMBOL>  (2254) 
NMe-D-Abu

>  <FULL_NAME>  (2254) 
(2R)-2-(Methylamino)butanoic acid

>  <IUPAC_CONDENSED>  (2254) 
Me-D-Abu

>  <IUPAC>  (2254) 
(2R)-2-(methylamino)butanoic acid

>  <TYPE>  (2254) 
Backbone

>  <CLASS>  (2254) 
alpha

>  <ANALOG>  (2254) 
Ala

>  <MOL_WT>  (2254) 
117.14799999999998

>  <LOGP>  (2254) 
0.06899999999999967

>  <TPSA>  (2254) 
49.33

>  <POPULARITY>  (2254) 
19.2

>  <PROTECTED>  (2254) 
TRUE

>  <SMILES>  (2254) 
N(C)[C@H](CC)C(=O)O

>  <INCHIKEY>  (2254) 
CQJAWZCYNRBZDL-SCSAIBSYSA-N

$$$$
NMe-D-Ala_cPr
     RDKit          2D

 10 10  0  0  0  0  0  0  0  0999 V2000
   -0.3199    1.4177    0.0000 N   0  0  0  0  0  0  0  0  0  0  0  0
   -1.5214    2.3156    0.0000 C   0  0  0  0  0  0  0  0  0  0  0  0
   -0.4967   -0.0718    0.0000 C   0  0  0  0  0  0  0  0  0  0  0  0
    0.7048   -0.9698    0.0000 C   0  0  0  0  0  0  0  0  0  0  0  0
    2.0832   -0.3782    0.0000 C   0  0  0  0  0  0  0  0  0  0  0  0
    3.5727   -0.5550    0.0000 C   0  0  0  0  0  0  0  0  0  0  0  0
    2.9811    0.8234    0.0000 C   0  0  0  0  0  0  0  0  0  0  0  0
   -1.8751   -0.6634    0.0000 C   0  0  0  0  0  0  0  0  0  0  0  0
   -2.0520   -2.1530    0.0000 O   0  0  0  0  0  0  0  0  0  0  0  0
   -3.0767    0.2345    0.0000 O   0  0  0  0  0  0  0  0  0  0  0  0
  1  2  1  0
  1  3  1  0
  3  4  1  6
  4  5  1  0
  5  6  1  0
  6  7  1  0
  3  8  1  0
  8  9  2  0
  8 10  1  0
  7  5  1  0
M  END
>  <rName>  (2255) 
NMe-D-Ala_cPr

>  <PQ_SYMBOL>  (2255) 
NMe-D-Ala_cPr

>  <FULL_NAME>  (2255) 
(2R)-3-cyclopropyl-2-(methylamino)propanoic acid

>  <IUPAC_CONDENSED>  (2255) 
Me-D-Ala(cPr)

>  <IUPAC>  (2255) 
(2R)-3-cyclopropyl-2-(methylamino)propanoic acid

>  <TYPE>  (2255) 
Backbone

>  <CLASS>  (2255) 
alpha

>  <ANALOG>  (2255) 
Ala

>  <MOL_WT>  (2255) 
143.186

>  <LOGP>  (2255) 
0.4591

>  <TPSA>  (2255) 
49.33

>  <POPULARITY>  (2255) 
2.2

>  <PROTECTED>  (2255) 
TRUE

>  <SMILES>  (2255) 
N(C)[C@H](CC1(CC1))C(=O)O

>  <INCHIKEY>  (2255) 
OPVQHJQIRGWRGV-ZCFIWIBFSA-N

$$$$
NMe-D-Cha
     RDKit          2D

 13 13  0  0  0  0  0  0  0  0999 V2000
   -1.1846    1.3730    0.0000 N   0  0  0  0  0  0  0  0  0  0  0  0
   -2.3388    2.3311    0.0000 C   0  0  0  0  0  0  0  0  0  0  0  0
   -1.4373   -0.1056    0.0000 C   0  0  0  0  0  0  0  0  0  0  0  0
   -0.2831   -1.0637    0.0000 C   0  0  0  0  0  0  0  0  0  0  0  0
    1.1237   -0.5432    0.0000 C   0  0  0  0  0  0  0  0  0  0  0  0
    1.3763    0.9354    0.0000 C   0  0  0  0  0  0  0  0  0  0  0  0
    2.7831    1.4559    0.0000 C   0  0  0  0  0  0  0  0  0  0  0  0
    3.9373    0.4978    0.0000 C   0  0  0  0  0  0  0  0  0  0  0  0
    3.6846   -0.9808    0.0000 C   0  0  0  0  0  0  0  0  0  0  0  0
    2.2778   -1.5013    0.0000 C   0  0  0  0  0  0  0  0  0  0  0  0
   -2.8441   -0.6260    0.0000 C   0  0  0  0  0  0  0  0  0  0  0  0
   -3.0967   -2.1046    0.0000 O   0  0  0  0  0  0  0  0  0  0  0  0
   -3.9982    0.3321    0.0000 O   0  0  0  0  0  0  0  0  0  0  0  0
  1  2  1  0
  1  3  1  0
  3  4  1  6
  4  5  1  0
  5  6  1  0
  6  7  1  0
  7  8  1  0
  8  9  1  0
  9 10  1  0
  3 11  1  0
 11 12  2  0
 11 13  1  0
 10  5  1  0
M  END
>  <rName>  (2256) 
NMe-D-Cha

>  <PQ_SYMBOL>  (2256) 
NMe-D-Cha

>  <FULL_NAME>  (2256) 
(R)-3-cyclohexyl-2-(methylamino)propanoic acid

>  <IUPAC_CONDENSED>  (2256) 
Me-D-Cha

>  <IUPAC>  (2256) 
(2R)-3-cyclohexyl-2-(methylamino)propanoic acid

>  <TYPE>  (2256) 
Backbone

>  <CLASS>  (2256) 
alpha

>  <ANALOG>  (2256) 
Ala

>  <MOL_WT>  (2256) 
185.267

>  <LOGP>  (2256) 
1.6294

>  <TPSA>  (2256) 
49.33

>  <POPULARITY>  (2256) 
11.3

>  <PROTECTED>  (2256) 
TRUE

>  <SMILES>  (2256) 
N(C)[C@H](CC1(CCCCC1))C(=O)O

>  <INCHIKEY>  (2256) 
GBMDYACPQYNUGA-SECBINFHSA-N

$$$$
NMe-D-Cha-
     RDKit          2D

 13 13  0  0  0  0  0  0  0  0999 V2000
   -1.1846    1.3730    0.0000 N   0  0  0  0  0  0  0  0  0  0  0  0
   -2.3388    2.3311    0.0000 C   0  0  0  0  0  0  0  0  0  0  0  0
   -1.4373   -0.1056    0.0000 C   0  0  0  0  0  0  0  0  0  0  0  0
   -0.2831   -1.0637    0.0000 C   0  0  0  0  0  0  0  0  0  0  0  0
    1.1237   -0.5432    0.0000 C   0  0  0  0  0  0  0  0  0  0  0  0
    1.3763    0.9354    0.0000 C   0  0  0  0  0  0  0  0  0  0  0  0
    2.7831    1.4559    0.0000 C   0  0  0  0  0  0  0  0  0  0  0  0
    3.9373    0.4978    0.0000 C   0  0  0  0  0  0  0  0  0  0  0  0
    3.6846   -0.9808    0.0000 C   0  0  0  0  0  0  0  0  0  0  0  0
    2.2778   -1.5013    0.0000 C   0  0  0  0  0  0  0  0  0  0  0  0
   -2.8441   -0.6260    0.0000 C   0  0  0  0  0  0  0  0  0  0  0  0
   -3.0967   -2.1046    0.0000 O   0  0  0  0  0  0  0  0  0  0  0  0
   -3.9982    0.3321    0.0000 O   0  0  0  0  0  0  0  0  0  0  0  0
  1  2  1  0
  1  3  1  0
  3  4  1  6
  4  5  1  0
  5  6  1  0
  6  7  1  0
  7  8  1  0
  8  9  1  0
  9 10  1  0
  3 11  1  0
 11 12  2  0
 11 13  1  0
 10  5  1  0
M  END
>  <rName>  (2257) 
NMe-D-Cha-

>  <PQ_SYMBOL>  (2257) 
NMe-D-Cha-

>  <FULL_NAME>  (2257) 
methyl D-2-Amino-3-cyclohexyl-propionic acid

>  <IUPAC_CONDENSED>  (2257) 
Me-D-Cha-

>  <IUPAC>  (2257) 
(2R)-3-cyclohexyl-2-(methylamino)propanoic acid

>  <TYPE>  (2257) 
N-term cap

>  <CLASS>  (2257) 
n_cap

>  <ANALOG>  (2257) 
X

>  <MOL_WT>  (2257) 
185.267

>  <LOGP>  (2257) 
1.6294

>  <TPSA>  (2257) 
49.33

>  <POPULARITY>  (2257) 
11.9

>  <PROTECTED>  (2257) 
TRUE

>  <SMILES>  (2257) 
N(C)[C@H](CC1(CCCCC1))C(=O)O

>  <INCHIKEY>  (2257) 
GBMDYACPQYNUGA-SECBINFHSA-N

$$$$
NMe-D-Dap
     RDKit          2D

  8  7  0  0  0  0  0  0  0  0999 V2000
   -1.2990    1.3125    0.0000 N   0  0  0  0  0  0  0  0  0  0  0  0
   -2.5981    0.5625    0.0000 C   0  0  0  0  0  0  0  0  0  0  0  0
    0.0000    0.5625    0.0000 C   0  0  0  0  0  0  0  0  0  0  0  0
    1.2990    1.3125    0.0000 C   0  0  0  0  0  0  0  0  0  0  0  0
    2.5981    0.5625    0.0000 N   0  0  0  0  0  0  0  0  0  0  0  0
    0.0000   -0.9375    0.0000 C   0  0  0  0  0  0  0  0  0  0  0  0
   -1.2990   -1.6875    0.0000 O   0  0  0  0  0  0  0  0  0  0  0  0
    1.2990   -1.6875    0.0000 O   0  0  0  0  0  0  0  0  0  0  0  0
  1  2  1  0
  1  3  1  0
  3  4  1  6
  4  5  1  0
  3  6  1  0
  6  7  2  0
  6  8  1  0
M  END
>  <rName>  (2258) 
NMe-D-Dap

>  <PQ_SYMBOL>  (2258) 
NMe-D-Dap

>  <FULL_NAME>  (2258) 
(R)-3-amino-2-(methylamino)propanoic acid

>  <IUPAC_CONDENSED>  (2258) 
Me-D-Dap

>  <IUPAC>  (2258) 
(2R)-3-amino-2-(methylamino)propanoic acid

>  <TYPE>  (2258) 
Backbone

>  <CLASS>  (2258) 
alpha

>  <ANALOG>  (2258) 
X

>  <MOL_WT>  (2258) 
118.13599999999998

>  <LOGP>  (2258) 
-1.382299999999999

>  <TPSA>  (2258) 
75.35

>  <POPULARITY>  (2258) 
10.7

>  <PROTECTED>  (2258) 
TRUE

>  <SMILES>  (2258) 
N(C)[C@H](CN)C(=O)O

>  <INCHIKEY>  (2258) 
LYESEIVAYITDEH-GSVOUGTGSA-N

$$$$
NMe-D-Gly_tBu
     RDKit          2D

 10  9  0  0  0  0  0  0  0  0999 V2000
   -0.8351    1.5945    0.0000 N   0  0  0  0  0  0  0  0  0  0  0  0
   -2.3338    1.6562    0.0000 C   0  0  0  0  0  0  0  0  0  0  0  0
   -0.1392    0.2658    0.0000 C   0  0  0  0  0  0  0  0  0  0  0  0
    1.3595    0.2041    0.0000 C   0  0  0  0  0  0  0  0  0  0  0  0
    1.2978   -1.2947    0.0000 C   0  0  0  0  0  0  0  0  0  0  0  0
    1.4212    1.7028    0.0000 C   0  0  0  0  0  0  0  0  0  0  0  0
    2.8583    0.1424    0.0000 C   0  0  0  0  0  0  0  0  0  0  0  0
   -0.9420   -1.0013    0.0000 C   0  0  0  0  0  0  0  0  0  0  0  0
   -2.4407   -0.9396    0.0000 O   0  0  0  0  0  0  0  0  0  0  0  0
   -0.2461   -2.3301    0.0000 O   0  0  0  0  0  0  0  0  0  0  0  0
  1  2  1  0
  3  1  1  6
  3  4  1  0
  4  5  1  0
  4  6  1  0
  4  7  1  0
  3  8  1  0
  8  9  2  0
  8 10  1  0
M  END
>  <rName>  (2259) 
NMe-D-Gly_tBu

>  <PQ_SYMBOL>  (2259) 
NMe-D-Gly_tBu

>  <FULL_NAME>  (2259) 
(r)-3,3-Dimethyl-2-(methylamino)butanoic acid

>  <IUPAC_CONDENSED>  (2259) 
Me-D-Gly(tBu)

>  <IUPAC>  (2259) 
(2R)-3,3-dimethyl-2-(methylamino)butanoic acid

>  <TYPE>  (2259) 
Backbone

>  <CLASS>  (2259) 
alpha

>  <ANALOG>  (2259) 
Val

>  <MOL_WT>  (2259) 
145.202

>  <LOGP>  (2259) 
0.7051000000000001

>  <TPSA>  (2259) 
49.33

>  <POPULARITY>  (2259) 
7.8

>  <PROTECTED>  (2259) 
TRUE

>  <SMILES>  (2259) 
N(C)[C@H](C(C)(C)C)C(=O)O

>  <INCHIKEY>  (2259) 
KWWFNGCKGYUCLC-YFKPBYRVSA-N

$$$$
NMe-D-Hcy
     RDKit          2D

  9  8  0  0  0  0  0  0  0  0999 V2000
   -1.4625    1.4907    0.0000 N   0  0  0  0  0  0  0  0  0  0  0  0
   -2.8857    1.0168    0.0000 C   0  0  0  0  0  0  0  0  0  0  0  0
   -0.3405    0.4951    0.0000 C   0  0  0  0  0  0  0  0  0  0  0  0
    1.0826    0.9690    0.0000 C   0  0  0  0  0  0  0  0  0  0  0  0
    2.2046   -0.0266    0.0000 C   0  0  0  0  0  0  0  0  0  0  0  0
    3.6278    0.4473    0.0000 S   0  0  0  0  0  0  0  0  0  0  0  0
   -0.6417   -0.9743    0.0000 C   0  0  0  0  0  0  0  0  0  0  0  0
   -2.0649   -1.4482    0.0000 O   0  0  0  0  0  0  0  0  0  0  0  0
    0.4803   -1.9699    0.0000 O   0  0  0  0  0  0  0  0  0  0  0  0
  1  2  1  0
  1  3  1  0
  3  4  1  6
  4  5  1  0
  5  6  1  0
  3  7  1  0
  7  8  2  0
  7  9  1  0
M  END
>  <rName>  (2260) 
NMe-D-Hcy

>  <PQ_SYMBOL>  (2260) 
NMe-D-Hcy

>  <FULL_NAME>  (2260) 
methyl D-homocysteine

>  <IUPAC_CONDENSED>  (2260) 
Me-D-Hcy

>  <IUPAC>  (2260) 
(2R)-2-(methylamino)-4-sulfanylbutanoic acid

>  <TYPE>  (2260) 
Backbone

>  <CLASS>  (2260) 
alpha

>  <ANALOG>  (2260) 
Cys

>  <MOL_WT>  (2260) 
149.215

>  <LOGP>  (2260) 
-0.02110000000000012

>  <TPSA>  (2260) 
49.33

>  <POPULARITY>  (2260) 
11.4

>  <PROTECTED>  (2260) 
TRUE

>  <SMILES>  (2260) 
N(C)[C@H](CCS)C(=O)O

>  <INCHIKEY>  (2260) 
PHMDDWYPVDXMNL-SCSAIBSYSA-N

$$$$
NMe-D-Hse
     RDKit          2D

  9  8  0  0  0  0  0  0  0  0999 V2000
   -1.4625    1.4907    0.0000 N   0  0  0  0  0  0  0  0  0  0  0  0
   -2.8857    1.0168    0.0000 C   0  0  0  0  0  0  0  0  0  0  0  0
   -0.3405    0.4951    0.0000 C   0  0  0  0  0  0  0  0  0  0  0  0
    1.0826    0.9690    0.0000 C   0  0  0  0  0  0  0  0  0  0  0  0
    2.2046   -0.0266    0.0000 C   0  0  0  0  0  0  0  0  0  0  0  0
    3.6278    0.4473    0.0000 O   0  0  0  0  0  0  0  0  0  0  0  0
   -0.6417   -0.9743    0.0000 C   0  0  0  0  0  0  0  0  0  0  0  0
   -2.0649   -1.4482    0.0000 O   0  0  0  0  0  0  0  0  0  0  0  0
    0.4803   -1.9699    0.0000 O   0  0  0  0  0  0  0  0  0  0  0  0
  1  2  1  0
  1  3  1  0
  3  4  1  6
  4  5  1  0
  5  6  1  0
  3  7  1  0
  7  8  2  0
  7  9  1  0
M  END
>  <rName>  (2261) 
NMe-D-Hse

>  <PQ_SYMBOL>  (2261) 
NMe-D-Hse

>  <FULL_NAME>  (2261) 
(2R)-4-hydroxy-2-(methylamino)butanoic acid

>  <IUPAC_CONDENSED>  (2261) 
Me-D-Hse

>  <IUPAC>  (2261) 
(2R)-4-hydroxy-2-(methylamino)butanoic acid

>  <TYPE>  (2261) 
Backbone

>  <CLASS>  (2261) 
alpha

>  <ANALOG>  (2261) 
Ser

>  <MOL_WT>  (2261) 
133.147

>  <LOGP>  (2261) 
-0.9586000000000001

>  <TPSA>  (2261) 
69.56

>  <POPULARITY>  (2261) 
11.4

>  <PROTECTED>  (2261) 
TRUE

>  <SMILES>  (2261) 
N(C)[C@H](CCO)C(=O)O

>  <INCHIKEY>  (2261) 
QKAIIJHXZDNKMY-SCSAIBSYSA-N

$$$$
NMe-D-Iva
     RDKit          2D

  9  8  0  0  0  0  0  0  0  0999 V2000
    1.7809   -0.7567    0.0000 N   0  0  0  0  0  0  0  0  0  0  0  0
    2.7701    0.3709    0.0000 C   0  0  0  0  0  0  0  0  0  0  0  0
    0.3097   -0.4638    0.0000 C   0  0  0  0  0  0  0  0  0  0  0  0
    0.0168   -1.9349    0.0000 C   0  0  0  0  0  0  0  0  0  0  0  0
    0.6027    1.0074    0.0000 C   0  0  0  0  0  0  0  0  0  0  0  0
   -0.5249    1.9966    0.0000 C   0  0  0  0  0  0  0  0  0  0  0  0
   -1.1614   -0.1708    0.0000 C   0  0  0  0  0  0  0  0  0  0  0  0
   -2.1506   -1.2984    0.0000 O   0  0  0  0  0  0  0  0  0  0  0  0
   -1.6433    1.2497    0.0000 O   0  0  0  0  0  0  0  0  0  0  0  0
  1  2  1  0
  1  3  1  0
  3  4  1  6
  3  5  1  0
  5  6  1  0
  3  7  1  0
  7  8  2  0
  7  9  1  0
M  END
>  <rName>  (2262) 
NMe-D-Iva

>  <PQ_SYMBOL>  (2262) 
NMe-D-Iva

>  <FULL_NAME>  (2262) 
(R)-2-methyl-2-(methylamino)butanoic acid

>  <IUPAC_CONDENSED>  (2262) 
Me-D-Iva

>  <IUPAC>  (2262) 
(2R)-2-methyl-2-(methylamino)butanoic acid

>  <TYPE>  (2262) 
Backbone

>  <CLASS>  (2262) 
alpha

>  <ANALOG>  (2262) 
Val

>  <MOL_WT>  (2262) 
131.175

>  <LOGP>  (2262) 
0.4591

>  <TPSA>  (2262) 
49.33

>  <POPULARITY>  (2262) 
13.6

>  <PROTECTED>  (2262) 
TRUE

>  <SMILES>  (2262) 
N(C)[C@](C)(CC)C(=O)O

>  <INCHIKEY>  (2262) 
RLSXYPXVDGQGTN-ZCFIWIBFSA-N

$$$$
NMe-D-Lys_Ac
     RDKit          2D

 14 13  0  0  0  0  0  0  0  0999 V2000
   -4.0848    1.3362    0.0000 N   0  0  0  0  0  0  0  0  0  0  0  0
   -5.4377    0.6884    0.0000 C   0  0  0  0  0  0  0  0  0  0  0  0
   -2.8473    0.4884    0.0000 C   0  0  0  0  0  0  0  0  0  0  0  0
   -1.4944    1.1362    0.0000 C   0  0  0  0  0  0  0  0  0  0  0  0
   -0.2569    0.2885    0.0000 C   0  0  0  0  0  0  0  0  0  0  0  0
    1.0960    0.9363    0.0000 C   0  0  0  0  0  0  0  0  0  0  0  0
    2.3334    0.0885    0.0000 C   0  0  0  0  0  0  0  0  0  0  0  0
    3.6864    0.7363    0.0000 N   0  0  0  0  0  0  0  0  0  0  0  0
    4.9238   -0.1114    0.0000 C   0  0  0  0  0  0  0  0  0  0  0  0
    4.8084   -1.6070    0.0000 O   0  0  0  0  0  0  0  0  0  0  0  0
    6.2767    0.5364    0.0000 C   0  0  0  0  0  0  0  0  0  0  0  0
   -2.9627   -1.0071    0.0000 C   0  0  0  0  0  0  0  0  0  0  0  0
   -4.3156   -1.6549    0.0000 O   0  0  0  0  0  0  0  0  0  0  0  0
   -1.7253   -1.8549    0.0000 O   0  0  0  0  0  0  0  0  0  0  0  0
  1  2  1  0
  1  3  1  0
  3  4  1  6
  4  5  1  0
  5  6  1  0
  6  7  1  0
  7  8  1  0
  8  9  1  0
  9 10  2  0
  9 11  1  0
  3 12  1  0
 12 13  2  0
 12 14  1  0
M  END
>  <rName>  (2263) 
NMe-D-Lys_Ac

>  <PQ_SYMBOL>  (2263) 
NMe-D-Lys_Ac

>  <FULL_NAME>  (2263) 
Me-D-Lys(Ac)

>  <IUPAC_CONDENSED>  (2263) 
Me-D-Lys(Ac)

>  <IUPAC>  (2263) 
(2R)-2-(methylamino)-6-methylcarbonylaminohexanoic acid

>  <TYPE>  (2263) 
Backbone

>  <CLASS>  (2263) 
alpha

>  <ANALOG>  (2263) 
Lys

>  <MOL_WT>  (2263) 
202.254

>  <LOGP>  (2263) 
-0.03460000000000024

>  <TPSA>  (2263) 
78.42999999999999

>  <POPULARITY>  (2263) 
2.2

>  <PROTECTED>  (2263) 
TRUE

>  <SMILES>  (2263) 
N(C)[C@H](CCCCNC(=O)C)C(=O)O

>  <INCHIKEY>  (2263) 
LEYXVOAROOULOW-MRVPVSSYSA-N

$$$$
NMe-D-Nle
     RDKit          2D

 10  9  0  0  0  0  0  0  0  0999 V2000
   -2.0182    1.4385    0.0000 N   0  0  0  0  0  0  0  0  0  0  0  0
   -3.4137    0.8883    0.0000 C   0  0  0  0  0  0  0  0  0  0  0  0
   -0.8441    0.5050    0.0000 C   0  0  0  0  0  0  0  0  0  0  0  0
    0.5514    1.0552    0.0000 C   0  0  0  0  0  0  0  0  0  0  0  0
    1.7256    0.1218    0.0000 C   0  0  0  0  0  0  0  0  0  0  0  0
    3.1211    0.6719    0.0000 C   0  0  0  0  0  0  0  0  0  0  0  0
    4.2952   -0.2615    0.0000 C   0  0  0  0  0  0  0  0  0  0  0  0
   -1.0653   -0.9785    0.0000 C   0  0  0  0  0  0  0  0  0  0  0  0
   -2.4608   -1.5287    0.0000 O   0  0  0  0  0  0  0  0  0  0  0  0
    0.1088   -1.9120    0.0000 O   0  0  0  0  0  0  0  0  0  0  0  0
  1  2  1  0
  1  3  1  0
  3  4  1  6
  4  5  1  0
  5  6  1  0
  6  7  1  0
  3  8  1  0
  8  9  2  0
  8 10  1  0
M  END
>  <rName>  (2264) 
NMe-D-Nle

>  <PQ_SYMBOL>  (2264) 
NMe-D-Nle

>  <FULL_NAME>  (2264) 
N-Methyl-D-Norleucine

>  <IUPAC_CONDENSED>  (2264) 
Me-D-Nle

>  <IUPAC>  (2264) 
(2R)-2-(methylamino)hexanoic acid

>  <TYPE>  (2264) 
Backbone

>  <CLASS>  (2264) 
alpha

>  <ANALOG>  (2264) 
Leu

>  <MOL_WT>  (2264) 
145.202

>  <LOGP>  (2264) 
0.8492

>  <TPSA>  (2264) 
49.33

>  <POPULARITY>  (2264) 
21.9

>  <PROTECTED>  (2264) 
TRUE

>  <SMILES>  (2264) 
N(C)[C@H](CCCC)C(=O)O

>  <INCHIKEY>  (2264) 
FPDYKABXINADKS-ZCFIWIBFSA-N

$$$$
NMe-D-Nle_Et
     RDKit          2D

 12 11  0  0  0  0  0  0  0  0999 V2000
   -3.0962    1.4002    0.0000 N   0  0  0  0  0  0  0  0  0  0  0  0
   -4.4792    0.8195    0.0000 C   0  0  0  0  0  0  0  0  0  0  0  0
   -1.9017    0.4929    0.0000 C   0  0  0  0  0  0  0  0  0  0  0  0
   -0.5187    1.0737    0.0000 C   0  0  0  0  0  0  0  0  0  0  0  0
    0.6758    0.1664    0.0000 C   0  0  0  0  0  0  0  0  0  0  0  0
    2.0588    0.7472    0.0000 C   0  0  0  0  0  0  0  0  0  0  0  0
    3.2533   -0.1602    0.0000 C   0  0  0  0  0  0  0  0  0  0  0  0
    4.6363    0.4206    0.0000 C   0  0  0  0  0  0  0  0  0  0  0  0
    5.8307   -0.4867    0.0000 C   0  0  0  0  0  0  0  0  0  0  0  0
   -2.0902   -0.9952    0.0000 C   0  0  0  0  0  0  0  0  0  0  0  0
   -3.4732   -1.5760    0.0000 O   0  0  0  0  0  0  0  0  0  0  0  0
   -0.8957   -1.9025    0.0000 O   0  0  0  0  0  0  0  0  0  0  0  0
  1  2  1  0
  1  3  1  0
  3  4  1  6
  4  5  1  0
  5  6  1  0
  6  7  1  0
  7  8  1  0
  8  9  1  0
  3 10  1  0
 10 11  2  0
 10 12  1  0
M  END
>  <rName>  (2265) 
NMe-D-Nle_Et

>  <PQ_SYMBOL>  (2265) 
NMe-D-Nle_Et

>  <FULL_NAME>  (2265) 
(2R)-2-(methylamino)octanoic acid

>  <IUPAC_CONDENSED>  (2265) 
Me-D-Nle(Et)

>  <IUPAC>  (2265) 
(2R)-2-(methylamino)octanoic acid

>  <TYPE>  (2265) 
Backbone

>  <CLASS>  (2265) 
alpha

>  <ANALOG>  (2265) 
Leu

>  <MOL_WT>  (2265) 
173.256

>  <LOGP>  (2265) 
1.6294

>  <TPSA>  (2265) 
49.33

>  <POPULARITY>  (2265) 
14.4

>  <PROTECTED>  (2265) 
TRUE

>  <SMILES>  (2265) 
N(C)[C@H](CCCCCC)C(=O)O

>  <INCHIKEY>  (2265) 
JXOCWFZISGFFJB-MRVPVSSYSA-N

$$$$
NMe-D-Nle_Me
     RDKit          2D

 11 10  0  0  0  0  0  0  0  0999 V2000
   -2.5061    1.4639    0.0000 N   0  0  0  0  0  0  0  0  0  0  0  0
   -3.9125    0.9425    0.0000 C   0  0  0  0  0  0  0  0  0  0  0  0
   -1.3513    0.5066    0.0000 C   0  0  0  0  0  0  0  0  0  0  0  0
    0.0552    1.0280    0.0000 C   0  0  0  0  0  0  0  0  0  0  0  0
    1.2100    0.0707    0.0000 C   0  0  0  0  0  0  0  0  0  0  0  0
    2.6164    0.5921    0.0000 C   0  0  0  0  0  0  0  0  0  0  0  0
    3.7712   -0.3652    0.0000 C   0  0  0  0  0  0  0  0  0  0  0  0
    5.1777    0.1562    0.0000 C   0  0  0  0  0  0  0  0  0  0  0  0
   -1.6030   -0.9721    0.0000 C   0  0  0  0  0  0  0  0  0  0  0  0
   -3.0094   -1.4935    0.0000 O   0  0  0  0  0  0  0  0  0  0  0  0
   -0.4482   -1.9294    0.0000 O   0  0  0  0  0  0  0  0  0  0  0  0
  1  2  1  0
  1  3  1  0
  3  4  1  6
  4  5  1  0
  5  6  1  0
  6  7  1  0
  7  8  1  0
  3  9  1  0
  9 10  2  0
  9 11  1  0
M  END
>  <rName>  (2266) 
NMe-D-Nle_Me

>  <PQ_SYMBOL>  (2266) 
NMe-D-Nle_Me

>  <FULL_NAME>  (2266) 
(2R)-2-(methylamino)heptanoic acid

>  <IUPAC_CONDENSED>  (2266) 
Me-D-Nle(Me)

>  <IUPAC>  (2266) 
(2R)-2-(methylamino)heptanoic acid

>  <TYPE>  (2266) 
Backbone

>  <CLASS>  (2266) 
alpha

>  <ANALOG>  (2266) 
Leu

>  <MOL_WT>  (2266) 
159.229

>  <LOGP>  (2266) 
1.2392999999999998

>  <TPSA>  (2266) 
49.33

>  <POPULARITY>  (2266) 
2.2

>  <PROTECTED>  (2266) 
TRUE

>  <SMILES>  (2266) 
N(C)[C@H](CCCCC)C(=O)O

>  <INCHIKEY>  (2266) 
LMWHGZRNQQQRNX-SSDOTTSWSA-N

$$$$
NMe-D-Nle_N3
     RDKit          2D

 13 12  0  0  0  0  0  0  0  0999 V2000
   -3.7188    1.2913    0.0000 N   0  0  0  0  0  0  0  0  0  0  0  0
   -5.0653    0.6303    0.0000 C   0  0  0  0  0  0  0  0  0  0  0  0
   -2.4731    0.4557    0.0000 C   0  0  0  0  0  0  0  0  0  0  0  0
   -1.1266    1.1167    0.0000 C   0  0  0  0  0  0  0  0  0  0  0  0
    0.1191    0.2811    0.0000 C   0  0  0  0  0  0  0  0  0  0  0  0
    1.4656    0.9421    0.0000 C   0  0  0  0  0  0  0  0  0  0  0  0
    2.7113    0.1065    0.0000 C   0  0  0  0  0  0  0  0  0  0  0  0
    4.0578    0.7675    0.0000 N   0  0  0  0  0  0  0  0  0  0  0  0
    5.3035   -0.0682    0.0000 N   0  0  0  0  0  0  0  0  0  0  0  0
    6.5492   -0.9038    0.0000 N   0  0  0  0  0  0  0  0  0  0  0  0
   -2.5739   -1.0409    0.0000 C   0  0  0  0  0  0  0  0  0  0  0  0
   -3.9204   -1.7019    0.0000 O   0  0  0  0  0  0  0  0  0  0  0  0
   -1.3282   -1.8765    0.0000 O   0  0  0  0  0  0  0  0  0  0  0  0
  1  2  1  0
  1  3  1  0
  3  4  1  6
  4  5  1  0
  5  6  1  0
  6  7  1  0
  7  8  1  0
  8  9  2  0
  9 10  2  0
  3 11  1  0
 11 12  2  0
 11 13  1  0
M  CHG  2   9   1  10  -1
M  END
>  <rName>  (2267) 
NMe-D-Nle_N3

>  <PQ_SYMBOL>  (2267) 
NMe-D-Nle_N3

>  <FULL_NAME>  (2267) 
(2R)-6-azido-2-(methylamino)hexanoic acid

>  <IUPAC_CONDENSED>  (2267) 
Me-D-Nle(N3)

>  <IUPAC>  (2267) 
(2R)-6-azido-2-(methylamino)hexanoic acid

>  <TYPE>  (2267) 
Backbone

>  <CLASS>  (2267) 
alpha

>  <ANALOG>  (2267) 
Lys

>  <MOL_WT>  (2267) 
186.215

>  <LOGP>  (2267) 
1.1396

>  <TPSA>  (2267) 
98.09000000000002

>  <POPULARITY>  (2267) 
2.2

>  <PROTECTED>  (2267) 
TRUE

>  <SMILES>  (2267) 
N(C)[C@H](CCCCN=[N+]=[N-])C(=O)O

>  <INCHIKEY>  (2267) 
LECMRPRFSQXZTE-ZCFIWIBFSA-N

$$$$
NMe-D-Nle_hexyl
     RDKit          2D

 16 15  0  0  0  0  0  0  0  0999 V2000
   -5.4337    1.2912    0.0000 N   0  0  0  0  0  0  0  0  0  0  0  0
   -6.7896    0.6497    0.0000 C   0  0  0  0  0  0  0  0  0  0  0  0
   -4.2002    0.4378    0.0000 C   0  0  0  0  0  0  0  0  0  0  0  0
   -2.8443    1.0793    0.0000 C   0  0  0  0  0  0  0  0  0  0  0  0
   -1.6107    0.2259    0.0000 C   0  0  0  0  0  0  0  0  0  0  0  0
   -0.2549    0.8674    0.0000 C   0  0  0  0  0  0  0  0  0  0  0  0
    0.9787    0.0140    0.0000 C   0  0  0  0  0  0  0  0  0  0  0  0
    2.3346    0.6555    0.0000 C   0  0  0  0  0  0  0  0  0  0  0  0
    3.5681   -0.1979    0.0000 C   0  0  0  0  0  0  0  0  0  0  0  0
    4.9240    0.4436    0.0000 C   0  0  0  0  0  0  0  0  0  0  0  0
    6.1575   -0.4098    0.0000 C   0  0  0  0  0  0  0  0  0  0  0  0
    7.5134    0.2317    0.0000 C   0  0  0  0  0  0  0  0  0  0  0  0
    8.7469   -0.6217    0.0000 C   0  0  0  0  0  0  0  0  0  0  0  0
   -4.3225   -1.0572    0.0000 C   0  0  0  0  0  0  0  0  0  0  0  0
   -5.6784   -1.6988    0.0000 O   0  0  0  0  0  0  0  0  0  0  0  0
   -3.0890   -1.9107    0.0000 O   0  0  0  0  0  0  0  0  0  0  0  0
  1  2  1  0
  1  3  1  0
  3  4  1  6
  4  5  1  0
  5  6  1  0
  6  7  1  0
  7  8  1  0
  8  9  1  0
  9 10  1  0
 10 11  1  0
 11 12  1  0
 12 13  1  0
  3 14  1  0
 14 15  2  0
 14 16  1  0
M  END
>  <rName>  (2268) 
NMe-D-Nle_hexyl

>  <PQ_SYMBOL>  (2268) 
NMe-D-Nle_hexyl

>  <FULL_NAME>  (2268) 
Me-D-Nle(hexyl)

>  <IUPAC_CONDENSED>  (2268) 
Me-D-Nle(hexyl)

>  <IUPAC>  (2268) 
(2R)-2-(methylamino)dodecanoic acid

>  <TYPE>  (2268) 
Backbone

>  <CLASS>  (2268) 
alpha

>  <ANALOG>  (2268) 
X

>  <MOL_WT>  (2268) 
229.36399999999998

>  <LOGP>  (2268) 
3.1898000000000017

>  <TPSA>  (2268) 
49.33

>  <POPULARITY>  (2268) 
3.5

>  <PROTECTED>  (2268) 
TRUE

>  <SMILES>  (2268) 
N(C)[C@H](CCCCCCCCCC)C(=O)O

>  <INCHIKEY>  (2268) 
CBFMHULESRECBI-GFCCVEGCSA-N

$$$$
NMe-D-Nle_pentyl
     RDKit          2D

 15 14  0  0  0  0  0  0  0  0999 V2000
   -4.8241    1.3484    0.0000 N   0  0  0  0  0  0  0  0  0  0  0  0
   -6.1928    0.7346    0.0000 C   0  0  0  0  0  0  0  0  0  0  0  0
   -3.6082    0.4700    0.0000 C   0  0  0  0  0  0  0  0  0  0  0  0
   -2.2395    1.0838    0.0000 C   0  0  0  0  0  0  0  0  0  0  0  0
   -1.0236    0.2053    0.0000 C   0  0  0  0  0  0  0  0  0  0  0  0
    0.3450    0.8191    0.0000 C   0  0  0  0  0  0  0  0  0  0  0  0
    1.5609   -0.0593    0.0000 C   0  0  0  0  0  0  0  0  0  0  0  0
    2.9296    0.5545    0.0000 C   0  0  0  0  0  0  0  0  0  0  0  0
    4.1455   -0.3239    0.0000 C   0  0  0  0  0  0  0  0  0  0  0  0
    5.5142    0.2898    0.0000 C   0  0  0  0  0  0  0  0  0  0  0  0
    6.7301   -0.5886    0.0000 C   0  0  0  0  0  0  0  0  0  0  0  0
    8.0987    0.0252    0.0000 C   0  0  0  0  0  0  0  0  0  0  0  0
   -3.7610   -1.0222    0.0000 C   0  0  0  0  0  0  0  0  0  0  0  0
   -5.1297   -1.6360    0.0000 O   0  0  0  0  0  0  0  0  0  0  0  0
   -2.5451   -1.9006    0.0000 O   0  0  0  0  0  0  0  0  0  0  0  0
  1  2  1  0
  1  3  1  0
  3  4  1  6
  4  5  1  0
  5  6  1  0
  6  7  1  0
  7  8  1  0
  8  9  1  0
  9 10  1  0
 10 11  1  0
 11 12  1  0
  3 13  1  0
 13 14  2  0
 13 15  1  0
M  END
>  <rName>  (2269) 
NMe-D-Nle_pentyl

>  <PQ_SYMBOL>  (2269) 
NMe-D-Nle_pentyl

>  <FULL_NAME>  (2269) 
Me-D-Nle(pentyl)

>  <IUPAC_CONDENSED>  (2269) 
Me-D-Nle(pentyl)

>  <IUPAC>  (2269) 
(2R)-2-(methylamino)undecanoic acid

>  <TYPE>  (2269) 
Backbone

>  <CLASS>  (2269) 
alpha

>  <ANALOG>  (2269) 
X

>  <MOL_WT>  (2269) 
215.337

>  <LOGP>  (2269) 
2.7997000000000005

>  <TPSA>  (2269) 
49.33

>  <POPULARITY>  (2269) 
3.5

>  <PROTECTED>  (2269) 
TRUE

>  <SMILES>  (2269) 
N(C)[C@H](CCCCCCCCC)C(=O)O

>  <INCHIKEY>  (2269) 
VNFJLZBUXVWSKW-LLVKDONJSA-N

$$$$
NMe-D-Nva
     RDKit          2D

  9  8  0  0  0  0  0  0  0  0999 V2000
   -1.4625    1.4907    0.0000 N   0  0  0  0  0  0  0  0  0  0  0  0
   -2.8857    1.0168    0.0000 C   0  0  0  0  0  0  0  0  0  0  0  0
   -0.3405    0.4951    0.0000 C   0  0  0  0  0  0  0  0  0  0  0  0
    1.0826    0.9690    0.0000 C   0  0  0  0  0  0  0  0  0  0  0  0
    2.2046   -0.0266    0.0000 C   0  0  0  0  0  0  0  0  0  0  0  0
    3.6278    0.4473    0.0000 C   0  0  0  0  0  0  0  0  0  0  0  0
   -0.6417   -0.9743    0.0000 C   0  0  0  0  0  0  0  0  0  0  0  0
   -2.0649   -1.4482    0.0000 O   0  0  0  0  0  0  0  0  0  0  0  0
    0.4803   -1.9699    0.0000 O   0  0  0  0  0  0  0  0  0  0  0  0
  1  2  1  0
  1  3  1  0
  3  4  1  6
  4  5  1  0
  5  6  1  0
  3  7  1  0
  7  8  2  0
  7  9  1  0
M  END
>  <rName>  (2270) 
NMe-D-Nva

>  <PQ_SYMBOL>  (2270) 
NMe-D-Nva

>  <FULL_NAME>  (2270) 
N-Methyl-D-Norvaline

>  <IUPAC_CONDENSED>  (2270) 
Me-D-Nva

>  <IUPAC>  (2270) 
(2R)-2-(methylamino)pentanoic acid

>  <TYPE>  (2270) 
Backbone

>  <CLASS>  (2270) 
alpha

>  <ANALOG>  (2270) 
Val

>  <MOL_WT>  (2270) 
131.175

>  <LOGP>  (2270) 
0.4591

>  <TPSA>  (2270) 
49.33

>  <POPULARITY>  (2270) 
16.6

>  <PROTECTED>  (2270) 
TRUE

>  <SMILES>  (2270) 
N(C)[C@H](CCC)C(=O)O

>  <INCHIKEY>  (2270) 
HCPKYUNZBPVCHC-RXMQYKEDSA-N

$$$$
NMe-D-Nva_Ph
     RDKit          2D

 15 15  0  0  0  0  0  0  0  0999 V2000
   -2.5498    1.5061    0.0000 N   0  0  0  0  0  0  0  0  0  0  0  0
   -3.7694    2.3793    0.0000 C   0  0  0  0  0  0  0  0  0  0  0  0
   -2.6963    0.0133    0.0000 C   0  0  0  0  0  0  0  0  0  0  0  0
   -1.4766   -0.8600    0.0000 C   0  0  0  0  0  0  0  0  0  0  0  0
   -0.1106   -0.2404    0.0000 C   0  0  0  0  0  0  0  0  0  0  0  0
    1.1090   -1.1136    0.0000 C   0  0  0  0  0  0  0  0  0  0  0  0
    2.4751   -0.4940    0.0000 C   0  0  0  0  0  0  0  0  0  0  0  0
    2.6215    0.9989    0.0000 C   0  0  0  0  0  0  0  0  0  0  0  0
    3.9876    1.6185    0.0000 C   0  0  0  0  0  0  0  0  0  0  0  0
    5.2072    0.7452    0.0000 C   0  0  0  0  0  0  0  0  0  0  0  0
    5.0607   -0.7476    0.0000 C   0  0  0  0  0  0  0  0  0  0  0  0
    3.6947   -1.3672    0.0000 C   0  0  0  0  0  0  0  0  0  0  0  0
   -4.0623   -0.6063    0.0000 C   0  0  0  0  0  0  0  0  0  0  0  0
   -4.2087   -2.0992    0.0000 O   0  0  0  0  0  0  0  0  0  0  0  0
   -5.2819    0.2669    0.0000 O   0  0  0  0  0  0  0  0  0  0  0  0
  1  2  1  0
  1  3  1  0
  3  4  1  6
  4  5  1  0
  5  6  1  0
  6  7  1  0
  7  8  2  0
  8  9  1  0
  9 10  2  0
 10 11  1  0
 11 12  2  0
  3 13  1  0
 13 14  2  0
 13 15  1  0
 12  7  1  0
M  END
>  <rName>  (2271) 
NMe-D-Nva_Ph

>  <PQ_SYMBOL>  (2271) 
NMe-D-Nva_Ph

>  <FULL_NAME>  (2271) 
Me-D-Nva(Ph)

>  <IUPAC_CONDENSED>  (2271) 
Me-D-Nva(Ph)

>  <IUPAC>  (2271) 
(2R)-2-(methylamino)-5-phenylpentanoic acid

>  <TYPE>  (2271) 
Backbone

>  <CLASS>  (2271) 
alpha

>  <ANALOG>  (2271) 
X

>  <MOL_WT>  (2271) 
207.273

>  <LOGP>  (2271) 
1.6819

>  <TPSA>  (2271) 
49.33

>  <POPULARITY>  (2271) 
2.2

>  <PROTECTED>  (2271) 
TRUE

>  <SMILES>  (2271) 
N(C)[C@H](CCCc1(ccccc1))C(=O)O

>  <INCHIKEY>  (2271) 
IZLYWPVUSBKHRR-LLVKDONJSA-N

$$$$
NMe-D-Orn
     RDKit          2D

 10  9  0  0  0  0  0  0  0  0999 V2000
   -2.0182    1.4385    0.0000 N   0  0  0  0  0  0  0  0  0  0  0  0
   -3.4137    0.8883    0.0000 C   0  0  0  0  0  0  0  0  0  0  0  0
   -0.8441    0.5050    0.0000 C   0  0  0  0  0  0  0  0  0  0  0  0
    0.5514    1.0552    0.0000 C   0  0  0  0  0  0  0  0  0  0  0  0
    1.7256    0.1218    0.0000 C   0  0  0  0  0  0  0  0  0  0  0  0
    3.1211    0.6719    0.0000 C   0  0  0  0  0  0  0  0  0  0  0  0
    4.2952   -0.2615    0.0000 N   0  0  0  0  0  0  0  0  0  0  0  0
   -1.0653   -0.9785    0.0000 C   0  0  0  0  0  0  0  0  0  0  0  0
   -2.4608   -1.5287    0.0000 O   0  0  0  0  0  0  0  0  0  0  0  0
    0.1088   -1.9120    0.0000 O   0  0  0  0  0  0  0  0  0  0  0  0
  1  2  1  0
  1  3  1  0
  3  4  1  6
  4  5  1  0
  5  6  1  0
  6  7  1  0
  3  8  1  0
  8  9  2  0
  8 10  1  0
M  END
>  <rName>  (2272) 
NMe-D-Orn

>  <PQ_SYMBOL>  (2272) 
NMe-D-Orn

>  <FULL_NAME>  (2272) 
methyl D-ornithine

>  <IUPAC_CONDENSED>  (2272) 
Me-D-Orn

>  <IUPAC>  (2272) 
(2R)-5-amino-2-(methylamino)pentanoic acid

>  <TYPE>  (2272) 
Backbone

>  <CLASS>  (2272) 
alpha

>  <ANALOG>  (2272) 
Lys

>  <MOL_WT>  (2272) 
146.19000000000003

>  <LOGP>  (2272) 
-0.6020999999999996

>  <TPSA>  (2272) 
75.35

>  <POPULARITY>  (2272) 
16.1

>  <PROTECTED>  (2272) 
TRUE

>  <SMILES>  (2272) 
N(C)[C@H](CCCN)C(=O)O

>  <INCHIKEY>  (2272) 
OZRWQPFBXDVLAH-RXMQYKEDSA-N

$$$$
NMe-D-Phe_2F
     RDKit          2D

 14 14  0  0  0  0  0  0  0  0999 V2000
   -1.4630    1.4634    0.0000 N   0  0  0  0  0  0  0  0  0  0  0  0
   -2.6966    2.3168    0.0000 C   0  0  0  0  0  0  0  0  0  0  0  0
   -1.5853   -0.0316    0.0000 C   0  0  0  0  0  0  0  0  0  0  0  0
   -0.3517   -0.8850    0.0000 C   0  0  0  0  0  0  0  0  0  0  0  0
    1.0042   -0.2434    0.0000 C   0  0  0  0  0  0  0  0  0  0  0  0
    1.1264    1.2516    0.0000 C   0  0  0  0  0  0  0  0  0  0  0  0
    2.4823    1.8933    0.0000 C   0  0  0  0  0  0  0  0  0  0  0  0
    3.7159    1.0399    0.0000 C   0  0  0  0  0  0  0  0  0  0  0  0
    3.5936   -0.4551    0.0000 C   0  0  0  0  0  0  0  0  0  0  0  0
    2.2378   -1.0967    0.0000 C   0  0  0  0  0  0  0  0  0  0  0  0
    2.1155   -2.5917    0.0000 F   0  0  0  0  0  0  0  0  0  0  0  0
   -2.9411   -0.6733    0.0000 C   0  0  0  0  0  0  0  0  0  0  0  0
   -3.0633   -2.1683    0.0000 O   0  0  0  0  0  0  0  0  0  0  0  0
   -4.1747    0.1801    0.0000 O   0  0  0  0  0  0  0  0  0  0  0  0
  1  2  1  0
  1  3  1  0
  3  4  1  6
  4  5  1  0
  5  6  2  0
  6  7  1  0
  7  8  2  0
  8  9  1  0
  9 10  2  0
 10 11  1  0
  3 12  1  0
 12 13  2  0
 12 14  1  0
 10  5  1  0
M  END
>  <rName>  (2273) 
NMe-D-Phe_2F

>  <PQ_SYMBOL>  (2273) 
NMe-D-Phe_2F

>  <FULL_NAME>  (2273) 
(R)-3-(2-fluorophenyl)-2-(methylamino)propanoic acid

>  <IUPAC_CONDENSED>  (2273) 
Me-D-Phe(2-F)

>  <IUPAC>  (2273) 
(2R)-3-(2-fluorophenyl)-2-(methylamino)propanoic acid

>  <TYPE>  (2273) 
Backbone

>  <CLASS>  (2273) 
alpha

>  <ANALOG>  (2273) 
Phe

>  <MOL_WT>  (2273) 
197.20899999999995

>  <LOGP>  (2273) 
1.0407999999999997

>  <TPSA>  (2273) 
49.33

>  <POPULARITY>  (2273) 
11.5

>  <PROTECTED>  (2273) 
TRUE

>  <SMILES>  (2273) 
N(C)[C@H](Cc1(ccccc1F))C(=O)O

>  <INCHIKEY>  (2273) 
CCDCDPCWLAPDAQ-SECBINFHSA-N

$$$$
NMe-D-Phe_3NH2
     RDKit          2D

 14 14  0  0  0  0  0  0  0  0999 V2000
   -1.6735    1.3512    0.0000 N   0  0  0  0  0  0  0  0  0  0  0  0
   -2.9175    2.1893    0.0000 C   0  0  0  0  0  0  0  0  0  0  0  0
   -1.7773   -0.1452    0.0000 C   0  0  0  0  0  0  0  0  0  0  0  0
   -0.5333   -0.9833    0.0000 C   0  0  0  0  0  0  0  0  0  0  0  0
    0.8146   -0.3250    0.0000 C   0  0  0  0  0  0  0  0  0  0  0  0
    0.9184    1.1714    0.0000 C   0  0  0  0  0  0  0  0  0  0  0  0
    2.2662    1.8297    0.0000 C   0  0  0  0  0  0  0  0  0  0  0  0
    3.5102    0.9916    0.0000 C   0  0  0  0  0  0  0  0  0  0  0  0
    3.4064   -0.5048    0.0000 C   0  0  0  0  0  0  0  0  0  0  0  0
    4.6504   -1.3429    0.0000 N   0  0  0  0  0  0  0  0  0  0  0  0
    2.0586   -1.1631    0.0000 C   0  0  0  0  0  0  0  0  0  0  0  0
   -3.1251   -0.8035    0.0000 C   0  0  0  0  0  0  0  0  0  0  0  0
   -3.2289   -2.2999    0.0000 O   0  0  0  0  0  0  0  0  0  0  0  0
   -4.3691    0.0346    0.0000 O   0  0  0  0  0  0  0  0  0  0  0  0
  1  2  1  0
  1  3  1  0
  3  4  1  6
  4  5  1  0
  5  6  2  0
  6  7  1  0
  7  8  2  0
  8  9  1  0
  9 10  1  0
  9 11  2  0
  3 12  1  0
 12 13  2  0
 12 14  1  0
 11  5  1  0
M  END
>  <rName>  (2274) 
NMe-D-Phe_3NH2

>  <PQ_SYMBOL>  (2274) 
NMe-D-Phe_3NH2

>  <FULL_NAME>  (2274) 
(R)-3-(3-aminophenyl)-2-(methylamino)propanoic acid

>  <IUPAC_CONDENSED>  (2274) 
Me-D-Phe(3-NH2)

>  <IUPAC>  (2274) 
(2R)-3-(3-aminophenyl)-2-(methylamino)propanoic acid

>  <TYPE>  (2274) 
Backbone

>  <CLASS>  (2274) 
alpha

>  <ANALOG>  (2274) 
Phe

>  <MOL_WT>  (2274) 
194.23399999999995

>  <LOGP>  (2274) 
0.48389999999999983

>  <TPSA>  (2274) 
75.35

>  <POPULARITY>  (2274) 
6.2

>  <PROTECTED>  (2274) 
TRUE

>  <SMILES>  (2274) 
N(C)[C@H](Cc1(cccc(N)c1))C(=O)O

>  <INCHIKEY>  (2274) 
MUOSUOQGASLARH-SECBINFHSA-N

$$$$
NMe-D-Phe_4Cl
     RDKit          2D

 14 14  0  0  0  0  0  0  0  0999 V2000
   -1.4939    1.3829    0.0000 N   0  0  0  0  0  0  0  0  0  0  0  0
   -2.5947    2.4018    0.0000 C   0  0  0  0  0  0  0  0  0  0  0  0
   -1.8260   -0.0799    0.0000 C   0  0  0  0  0  0  0  0  0  0  0  0
   -0.7252   -1.0989    0.0000 C   0  0  0  0  0  0  0  0  0  0  0  0
    0.7076   -0.6550    0.0000 C   0  0  0  0  0  0  0  0  0  0  0  0
    1.0397    0.8077    0.0000 C   0  0  0  0  0  0  0  0  0  0  0  0
    2.4725    1.2516    0.0000 C   0  0  0  0  0  0  0  0  0  0  0  0
    3.5733    0.2326    0.0000 C   0  0  0  0  0  0  0  0  0  0  0  0
    5.0062    0.6765    0.0000 Cl  0  0  0  0  0  0  0  0  0  0  0  0
    3.2413   -1.2302    0.0000 C   0  0  0  0  0  0  0  0  0  0  0  0
    1.8084   -1.6740    0.0000 C   0  0  0  0  0  0  0  0  0  0  0  0
   -3.2588   -0.5237    0.0000 C   0  0  0  0  0  0  0  0  0  0  0  0
   -3.5909   -1.9865    0.0000 O   0  0  0  0  0  0  0  0  0  0  0  0
   -4.3596    0.4952    0.0000 O   0  0  0  0  0  0  0  0  0  0  0  0
  1  2  1  0
  1  3  1  0
  3  4  1  6
  4  5  1  0
  5  6  1  0
  6  7  2  0
  7  8  1  0
  8  9  1  0
  8 10  2  0
 10 11  1  0
  3 12  1  0
 12 13  2  0
 12 14  1  0
 11  5  2  0
M  END
>  <rName>  (2275) 
NMe-D-Phe_4Cl

>  <PQ_SYMBOL>  (2275) 
NMe-D-Phe_4Cl

>  <FULL_NAME>  (2275) 
(R)-3-(4-chlorophenyl)-2-(methylamino)propanoic acid

>  <IUPAC_CONDENSED>  (2275) 
Me-D-Phe(4-Cl)

>  <IUPAC>  (2275) 
(2R)-3-(4-chlorophenyl)-2-(methylamino)propanoic acid

>  <TYPE>  (2275) 
Backbone

>  <CLASS>  (2275) 
alpha

>  <ANALOG>  (2275) 
Phe

>  <MOL_WT>  (2275) 
213.664

>  <LOGP>  (2275) 
1.5551

>  <TPSA>  (2275) 
49.33

>  <POPULARITY>  (2275) 
8.9

>  <PROTECTED>  (2275) 
TRUE

>  <SMILES>  (2275) 
N(C)[C@H](Cc1(ccc(Cl)cc1))C(=O)O

>  <INCHIKEY>  (2275) 
PVXYVWVFWHBBMH-SECBINFHSA-N

$$$$
NMe-D-Phe_4F
     RDKit          2D

 14 14  0  0  0  0  0  0  0  0999 V2000
   -1.4939    1.3829    0.0000 N   0  0  0  0  0  0  0  0  0  0  0  0
   -2.5947    2.4018    0.0000 C   0  0  0  0  0  0  0  0  0  0  0  0
   -1.8260   -0.0799    0.0000 C   0  0  0  0  0  0  0  0  0  0  0  0
   -0.7252   -1.0989    0.0000 C   0  0  0  0  0  0  0  0  0  0  0  0
    0.7076   -0.6550    0.0000 C   0  0  0  0  0  0  0  0  0  0  0  0
    1.0397    0.8077    0.0000 C   0  0  0  0  0  0  0  0  0  0  0  0
    2.4725    1.2516    0.0000 C   0  0  0  0  0  0  0  0  0  0  0  0
    3.5733    0.2326    0.0000 C   0  0  0  0  0  0  0  0  0  0  0  0
    5.0062    0.6765    0.0000 F   0  0  0  0  0  0  0  0  0  0  0  0
    3.2413   -1.2302    0.0000 C   0  0  0  0  0  0  0  0  0  0  0  0
    1.8084   -1.6740    0.0000 C   0  0  0  0  0  0  0  0  0  0  0  0
   -3.2588   -0.5237    0.0000 C   0  0  0  0  0  0  0  0  0  0  0  0
   -3.5909   -1.9865    0.0000 O   0  0  0  0  0  0  0  0  0  0  0  0
   -4.3596    0.4952    0.0000 O   0  0  0  0  0  0  0  0  0  0  0  0
  1  2  1  0
  1  3  1  0
  3  4  1  6
  4  5  1  0
  5  6  1  0
  6  7  2  0
  7  8  1  0
  8  9  1  0
  8 10  2  0
 10 11  1  0
  3 12  1  0
 12 13  2  0
 12 14  1  0
 11  5  2  0
M  END
>  <rName>  (2276) 
NMe-D-Phe_4F

>  <PQ_SYMBOL>  (2276) 
NMe-D-Phe_4F

>  <FULL_NAME>  (2276) 
(R)-3-(4-fluorophenyl)-2-(methylamino)propanoic acid

>  <IUPAC_CONDENSED>  (2276) 
Me-D-Phe(4-F)

>  <IUPAC>  (2276) 
(2R)-3-(4-fluorophenyl)-2-(methylamino)propanoic acid

>  <TYPE>  (2276) 
Backbone

>  <CLASS>  (2276) 
alpha

>  <ANALOG>  (2276) 
Phe

>  <MOL_WT>  (2276) 
197.209

>  <LOGP>  (2276) 
1.0407999999999997

>  <TPSA>  (2276) 
49.33

>  <POPULARITY>  (2276) 
9.6

>  <PROTECTED>  (2276) 
TRUE

>  <SMILES>  (2276) 
N(C)[C@H](Cc1(ccc(F)cc1))C(=O)O

>  <INCHIKEY>  (2276) 
RQAMVTQIJKZDAC-SECBINFHSA-N

$$$$
NMe-D-Phe_4Ph
     RDKit          2D

 19 20  0  0  0  0  0  0  0  0999 V2000
   -3.1223    1.4274    0.0000 N   0  0  0  0  0  0  0  0  0  0  0  0
   -4.1006    2.5645    0.0000 C   0  0  0  0  0  0  0  0  0  0  0  0
   -3.6178    0.0116    0.0000 C   0  0  0  0  0  0  0  0  0  0  0  0
   -2.6395   -1.1254    0.0000 C   0  0  0  0  0  0  0  0  0  0  0  0
   -1.1656   -0.8467    0.0000 C   0  0  0  0  0  0  0  0  0  0  0  0
   -0.6701    0.5691    0.0000 C   0  0  0  0  0  0  0  0  0  0  0  0
    0.8038    0.8478    0.0000 C   0  0  0  0  0  0  0  0  0  0  0  0
    1.7821   -0.2892    0.0000 C   0  0  0  0  0  0  0  0  0  0  0  0
    1.2866   -1.7050    0.0000 C   0  0  0  0  0  0  0  0  0  0  0  0
   -0.1873   -1.9837    0.0000 C   0  0  0  0  0  0  0  0  0  0  0  0
    3.2560   -0.0105    0.0000 C   0  0  0  0  0  0  0  0  0  0  0  0
    4.2344   -1.1475    0.0000 C   0  0  0  0  0  0  0  0  0  0  0  0
    5.7082   -0.8688    0.0000 C   0  0  0  0  0  0  0  0  0  0  0  0
    6.2038    0.5470    0.0000 C   0  0  0  0  0  0  0  0  0  0  0  0
    5.2254    1.6840    0.0000 C   0  0  0  0  0  0  0  0  0  0  0  0
    3.7516    1.4053    0.0000 C   0  0  0  0  0  0  0  0  0  0  0  0
   -5.0917   -0.2671    0.0000 C   0  0  0  0  0  0  0  0  0  0  0  0
   -5.5872   -1.6829    0.0000 O   0  0  0  0  0  0  0  0  0  0  0  0
   -6.0700    0.8700    0.0000 O   0  0  0  0  0  0  0  0  0  0  0  0
  1  2  1  0
  1  3  1  0
  3  4  1  6
  4  5  1  0
  5  6  1  0
  6  7  2  0
  7  8  1  0
  8  9  2  0
  9 10  1  0
  8 11  1  0
 11 12  2  0
 12 13  1  0
 13 14  2  0
 14 15  1  0
 15 16  2  0
  3 17  1  0
 17 18  2  0
 17 19  1  0
 10  5  2  0
 16 11  1  0
M  END
>  <rName>  (2277) 
NMe-D-Phe_4Ph

>  <PQ_SYMBOL>  (2277) 
NMe-D-Phe_4Ph

>  <FULL_NAME>  (2277) 
(R)-3-([1,1'-biphenyl]-4-yl)-2-(methylamino)propanoic acid

>  <IUPAC_CONDENSED>  (2277) 
Me-D-Phe(4-Ph)

>  <IUPAC>  (2277) 
(2R)-2-(methylamino)-3-(4-phenylphenyl)propanoic acid

>  <TYPE>  (2277) 
Backbone

>  <CLASS>  (2277) 
alpha

>  <ANALOG>  (2277) 
Phe

>  <MOL_WT>  (2277) 
255.317

>  <LOGP>  (2277) 
2.5686999999999998

>  <TPSA>  (2277) 
49.33

>  <POPULARITY>  (2277) 
6.6

>  <PROTECTED>  (2277) 
TRUE

>  <SMILES>  (2277) 
N(C)[C@H](Cc1(ccc(cc1)c2(ccccc2)))C(=O)O

>  <INCHIKEY>  (2277) 
ZRCUZTGKMSPCBH-OAHLLOKOSA-N

$$$$
NMe-D-Phg
     RDKit          2D

 12 12  0  0  0  0  0  0  0  0999 V2000
   -1.6493   -1.6245    0.0000 N   0  0  0  0  0  0  0  0  0  0  0  0
   -3.1463   -1.7206    0.0000 C   0  0  0  0  0  0  0  0  0  0  0  0
   -0.9841   -0.2801    0.0000 C   0  0  0  0  0  0  0  0  0  0  0  0
    0.5128   -0.1840    0.0000 C   0  0  0  0  0  0  0  0  0  0  0  0
    1.1781    1.1604    0.0000 C   0  0  0  0  0  0  0  0  0  0  0  0
    2.6750    1.2564    0.0000 C   0  0  0  0  0  0  0  0  0  0  0  0
    3.5067    0.0081    0.0000 C   0  0  0  0  0  0  0  0  0  0  0  0
    2.8414   -1.3363    0.0000 C   0  0  0  0  0  0  0  0  0  0  0  0
    1.3445   -1.4324    0.0000 C   0  0  0  0  0  0  0  0  0  0  0  0
   -1.8157    0.9682    0.0000 C   0  0  0  0  0  0  0  0  0  0  0  0
   -1.1505    2.3126    0.0000 O   0  0  0  0  0  0  0  0  0  0  0  0
   -3.3127    0.8721    0.0000 O   0  0  0  0  0  0  0  0  0  0  0  0
  1  2  1  0
  3  1  1  1
  3  4  1  0
  4  5  2  0
  5  6  1  0
  6  7  2  0
  7  8  1  0
  8  9  2  0
  3 10  1  0
 10 11  2  0
 10 12  1  0
  9  4  1  0
M  END
>  <rName>  (2278) 
NMe-D-Phg

>  <PQ_SYMBOL>  (2278) 
NMe-D-Phg

>  <FULL_NAME>  (2278) 
(R)-2-(Methylamino)-2-phenylacetic acid

>  <IUPAC_CONDENSED>  (2278) 
Me-D-Phg

>  <IUPAC>  (2278) 
(2R)-2-(methylamino)-2-phenylacetic acid

>  <TYPE>  (2278) 
Backbone

>  <CLASS>  (2278) 
alpha

>  <ANALOG>  (2278) 
X

>  <MOL_WT>  (2278) 
165.19199999999995

>  <LOGP>  (2278) 
1.0317

>  <TPSA>  (2278) 
49.33

>  <POPULARITY>  (2278) 
19.4

>  <PROTECTED>  (2278) 
TRUE

>  <SMILES>  (2278) 
N(C)[C@H](c1(ccccc1))C(=O)O

>  <INCHIKEY>  (2278) 
HGIPIEYZJPULIQ-MRVPVSSYSA-N

$$$$
NMe-D-Ser_Me
     RDKit          2D

  9  8  0  0  0  0  0  0  0  0999 V2000
   -1.4625    1.4907    0.0000 N   0  0  0  0  0  0  0  0  0  0  0  0
   -2.8857    1.0168    0.0000 C   0  0  0  0  0  0  0  0  0  0  0  0
   -0.3405    0.4951    0.0000 C   0  0  0  0  0  0  0  0  0  0  0  0
    1.0826    0.9690    0.0000 C   0  0  0  0  0  0  0  0  0  0  0  0
    2.2046   -0.0266    0.0000 O   0  0  0  0  0  0  0  0  0  0  0  0
    3.6278    0.4473    0.0000 C   0  0  0  0  0  0  0  0  0  0  0  0
   -0.6417   -0.9743    0.0000 C   0  0  0  0  0  0  0  0  0  0  0  0
   -2.0649   -1.4482    0.0000 O   0  0  0  0  0  0  0  0  0  0  0  0
    0.4803   -1.9699    0.0000 O   0  0  0  0  0  0  0  0  0  0  0  0
  1  2  1  0
  1  3  1  0
  3  4  1  6
  4  5  1  0
  5  6  1  0
  3  7  1  0
  7  8  2  0
  7  9  1  0
M  END
>  <rName>  (2279) 
NMe-D-Ser_Me

>  <PQ_SYMBOL>  (2279) 
NMe-D-Ser_Me

>  <FULL_NAME>  (2279) 
N,O-dimethyl-D-serine

>  <IUPAC_CONDENSED>  (2279) 
Me-D-Ser(Me)

>  <IUPAC>  (2279) 
(2R)-3-methoxy-2-(methylamino)propanoic acid

>  <TYPE>  (2279) 
Backbone

>  <CLASS>  (2279) 
alpha

>  <ANALOG>  (2279) 
Ser

>  <MOL_WT>  (2279) 
133.147

>  <LOGP>  (2279) 
-0.6946000000000001

>  <TPSA>  (2279) 
58.56

>  <POPULARITY>  (2279) 
12.2

>  <PROTECTED>  (2279) 
TRUE

>  <SMILES>  (2279) 
N(C)[C@H](COC)C(=O)O

>  <INCHIKEY>  (2279) 
AKTYKKADZQIESO-SCSAIBSYSA-N

$$$$
NMe-D-Tyr_Me
     RDKit          2D

 15 15  0  0  0  0  0  0  0  0999 V2000
   -1.9222    1.3767    0.0000 N   0  0  0  0  0  0  0  0  0  0  0  0
   -3.0383    2.3788    0.0000 C   0  0  0  0  0  0  0  0  0  0  0  0
   -2.2320   -0.0910    0.0000 C   0  0  0  0  0  0  0  0  0  0  0  0
   -1.1158   -1.0931    0.0000 C   0  0  0  0  0  0  0  0  0  0  0  0
    0.3101   -0.6276    0.0000 C   0  0  0  0  0  0  0  0  0  0  0  0
    0.6199    0.8401    0.0000 C   0  0  0  0  0  0  0  0  0  0  0  0
    2.0458    1.3056    0.0000 C   0  0  0  0  0  0  0  0  0  0  0  0
    3.1619    0.3035    0.0000 C   0  0  0  0  0  0  0  0  0  0  0  0
    4.5879    0.7690    0.0000 O   0  0  0  0  0  0  0  0  0  0  0  0
    5.7040   -0.2331    0.0000 C   0  0  0  0  0  0  0  0  0  0  0  0
    2.8521   -1.1642    0.0000 C   0  0  0  0  0  0  0  0  0  0  0  0
    1.4262   -1.6297    0.0000 C   0  0  0  0  0  0  0  0  0  0  0  0
   -3.6579   -0.5565    0.0000 C   0  0  0  0  0  0  0  0  0  0  0  0
   -3.9677   -2.0242    0.0000 O   0  0  0  0  0  0  0  0  0  0  0  0
   -4.7740    0.4456    0.0000 O   0  0  0  0  0  0  0  0  0  0  0  0
  1  2  1  0
  1  3  1  0
  3  4  1  6
  4  5  1  0
  5  6  1  0
  6  7  2  0
  7  8  1  0
  8  9  1  0
  9 10  1  0
  8 11  2  0
 11 12  1  0
  3 13  1  0
 13 14  2  0
 13 15  1  0
 12  5  2  0
M  END
>  <rName>  (2280) 
NMe-D-Tyr_Me

>  <PQ_SYMBOL>  (2280) 
NMe-D-Tyr_Me

>  <FULL_NAME>  (2280) 
(R)-3-(4-methoxyphenyl)-2-(methylamino)propanoic acid

>  <IUPAC_CONDENSED>  (2280) 
Me-D-Tyr(Me)

>  <IUPAC>  (2280) 
(2R)-3-(4-methoxyphenyl)-2-(methylamino)propanoic acid

>  <TYPE>  (2280) 
Backbone

>  <CLASS>  (2280) 
alpha

>  <ANALOG>  (2280) 
Tyr

>  <MOL_WT>  (2280) 
209.24499999999998

>  <LOGP>  (2280) 
0.9102999999999997

>  <TPSA>  (2280) 
58.56

>  <POPULARITY>  (2280) 
10.5

>  <PROTECTED>  (2280) 
TRUE

>  <SMILES>  (2280) 
N(C)[C@H](Cc1(ccc(OC)cc1))C(=O)O

>  <INCHIKEY>  (2280) 
QESMMBKGCOSBNL-SNVBAGLBSA-N

$$$$
NMe-D-aIle
     RDKit          2D

 10  9  0  0  0  0  0  0  0  0999 V2000
   -0.7033    1.6772    0.0000 N   0  0  0  0  0  0  0  0  0  0  0  0
   -2.1490    2.0771    0.0000 C   0  0  0  0  0  0  0  0  0  0  0  0
   -0.3268    0.2252    0.0000 C   0  0  0  0  0  0  0  0  0  0  0  0
    1.1189   -0.1748    0.0000 C   0  0  0  0  0  0  0  0  0  0  0  0
    1.4954   -1.6267    0.0000 C   0  0  0  0  0  0  0  0  0  0  0  0
    2.1881    0.8773    0.0000 C   0  0  0  0  0  0  0  0  0  0  0  0
    3.6338    0.4773    0.0000 C   0  0  0  0  0  0  0  0  0  0  0  0
   -1.3960   -0.8269    0.0000 C   0  0  0  0  0  0  0  0  0  0  0  0
   -2.8417   -0.4269    0.0000 O   0  0  0  0  0  0  0  0  0  0  0  0
   -1.0195   -2.2788    0.0000 O   0  0  0  0  0  0  0  0  0  0  0  0
  1  2  1  0
  3  1  1  6
  3  4  1  0
  4  5  1  6
  4  6  1  0
  6  7  1  0
  3  8  1  0
  8  9  2  0
  8 10  1  0
M  END
>  <rName>  (2281) 
NMe-D-aIle

>  <PQ_SYMBOL>  (2281) 
NMe-D-aIle

>  <FULL_NAME>  (2281) 
(2R,3S)-3-methyl-2-(methylamino)pentanoic acid

>  <IUPAC_CONDENSED>  (2281) 
Me-D-aIle

>  <IUPAC>  (2281) 
(2R,3S)-3-methyl-2-(methylamino)pentanoic acid

>  <TYPE>  (2281) 
Backbone

>  <CLASS>  (2281) 
alpha

>  <ANALOG>  (2281) 
Ile

>  <MOL_WT>  (2281) 
145.202

>  <LOGP>  (2281) 
0.7051000000000001

>  <TPSA>  (2281) 
49.33

>  <POPULARITY>  (2281) 
2.2

>  <PROTECTED>  (2281) 
TRUE

>  <SMILES>  (2281) 
N(C)[C@H]([C@@H](C)CC)C(=O)O

>  <INCHIKEY>  (2281) 
KSPIYJQBLVDRRI-NTSWFWBYSA-N

$$$$
NMe-D-aMePro
     RDKit          2D

 10 10  0  0  0  0  0  0  0  0999 V2000
   -1.9342   -1.0347    0.0000 C   0  0  0  0  0  0  0  0  0  0  0  0
   -0.4407   -0.8959    0.0000 N   0  0  0  0  0  0  0  0  0  0  0  0
    0.5495   -2.0226    0.0000 C   0  0  0  0  0  0  0  0  0  0  0  0
   -0.1112    0.5674    0.0000 C   0  0  0  0  0  0  0  0  0  0  0  0
    0.5154    1.9303    0.0000 C   0  0  0  0  0  0  0  0  0  0  0  0
   -1.4011    1.3330    0.0000 C   0  0  0  0  0  0  0  0  0  0  0  0
   -2.5278    0.3428    0.0000 C   0  0  0  0  0  0  0  0  0  0  0  0
    1.3097    0.0868    0.0000 C   0  0  0  0  0  0  0  0  0  0  0  0
    2.4364    1.0770    0.0000 O   0  0  0  0  0  0  0  0  0  0  0  0
    1.6039   -1.3841    0.0000 O   0  0  0  0  0  0  0  0  0  0  0  0
  1  2  1  0
  2  3  1  0
  2  4  1  0
  4  5  1  1
  4  6  1  0
  6  7  1  0
  4  8  1  0
  8  9  2  0
  8 10  1  0
  7  1  1  0
M  END
>  <rName>  (2282) 
NMe-D-aMePro

>  <PQ_SYMBOL>  (2282) 
NMe-D-aMePro

>  <FULL_NAME>  (2282) 
(2~{R})-1,2-dimethylpyrrolidine-2-carboxylic acid

>  <IUPAC_CONDENSED>  (2282) 
Me-D-aMePro

>  <IUPAC>  (2282) 
(2R)-1,2-dimethylpyrrolidine-2-carboxylic acid

>  <TYPE>  (2282) 
N-term cap

>  <CLASS>  (2282) 
n_cap

>  <ANALOG>  (2282) 
X

>  <MOL_WT>  (2282) 
143.186

>  <LOGP>  (2282) 
0.5552999999999999

>  <TPSA>  (2282) 
40.540000000000006

>  <POPULARITY>  (2282) 
8.1

>  <PROTECTED>  (2282) 
FALSE

>  <SMILES>  (2282) 
C1N(C)[C@](C)(CC1)C(=O)O

>  <INCHIKEY>  (2282) 
BWNGEDLBTNTBMD-SSDOTTSWSA-N

$$$$
NMe-D-aThr
     RDKit          2D

  9  8  0  0  0  0  0  0  0  0999 V2000
   -0.7500    1.5877    0.0000 N   0  0  0  0  0  0  0  0  0  0  0  0
   -2.2500    1.5877    0.0000 C   0  0  0  0  0  0  0  0  0  0  0  0
    0.0000    0.2887    0.0000 C   0  0  0  0  0  0  0  0  0  0  0  0
    1.5000    0.2887    0.0000 C   0  0  0  0  0  0  0  0  0  0  0  0
    2.2500    1.5877    0.0000 O   0  0  0  0  0  0  0  0  0  0  0  0
    2.2500   -1.0104    0.0000 C   0  0  0  0  0  0  0  0  0  0  0  0
   -0.7500   -1.0104    0.0000 C   0  0  0  0  0  0  0  0  0  0  0  0
   -2.2500   -1.0104    0.0000 O   0  0  0  0  0  0  0  0  0  0  0  0
   -0.0000   -2.3094    0.0000 O   0  0  0  0  0  0  0  0  0  0  0  0
  1  2  1  0
  3  1  1  6
  3  4  1  0
  4  5  1  0
  4  6  1  6
  3  7  1  0
  7  8  2  0
  7  9  1  0
M  END
>  <rName>  (2283) 
NMe-D-aThr

>  <PQ_SYMBOL>  (2283) 
NMe-D-aThr

>  <FULL_NAME>  (2283) 
N-methyl-D-allo-Threonine

>  <IUPAC_CONDENSED>  (2283) 
Me-D-aThr

>  <IUPAC>  (2283) 
(2R,3R)-3-hydroxy-2-(methylamino)butanoic acid

>  <TYPE>  (2283) 
Backbone

>  <CLASS>  (2283) 
alpha

>  <ANALOG>  (2283) 
Thr

>  <MOL_WT>  (2283) 
133.147

>  <LOGP>  (2283) 
-0.9602000000000004

>  <TPSA>  (2283) 
69.56

>  <POPULARITY>  (2283) 
14.0

>  <PROTECTED>  (2283) 
TRUE

>  <SMILES>  (2283) 
N(C)[C@H]([C@H](O)C)C(=O)O

>  <INCHIKEY>  (2283) 
CCAIIPMIAFGKSI-QWWZWVQMSA-N

$$$$
NMe-D-hArg
     RDKit          2D

 14 13  0  0  0  0  0  0  0  0999 V2000
   -4.0848    1.3362    0.0000 N   0  0  0  0  0  0  0  0  0  0  0  0
   -5.4377    0.6884    0.0000 C   0  0  0  0  0  0  0  0  0  0  0  0
   -2.8473    0.4884    0.0000 C   0  0  0  0  0  0  0  0  0  0  0  0
   -1.4944    1.1362    0.0000 C   0  0  0  0  0  0  0  0  0  0  0  0
   -0.2569    0.2885    0.0000 C   0  0  0  0  0  0  0  0  0  0  0  0
    1.0960    0.9363    0.0000 C   0  0  0  0  0  0  0  0  0  0  0  0
    2.3334    0.0885    0.0000 C   0  0  0  0  0  0  0  0  0  0  0  0
    3.6864    0.7363    0.0000 N   0  0  0  0  0  0  0  0  0  0  0  0
    4.9238   -0.1114    0.0000 C   0  0  0  0  0  0  0  0  0  0  0  0
    4.8084   -1.6070    0.0000 N   0  0  0  0  0  0  0  0  0  0  0  0
    6.2767    0.5364    0.0000 N   0  0  0  0  0  0  0  0  0  0  0  0
   -2.9627   -1.0071    0.0000 C   0  0  0  0  0  0  0  0  0  0  0  0
   -4.3156   -1.6549    0.0000 O   0  0  0  0  0  0  0  0  0  0  0  0
   -1.7253   -1.8549    0.0000 O   0  0  0  0  0  0  0  0  0  0  0  0
  1  2  1  0
  1  3  1  0
  3  4  1  6
  4  5  1  0
  5  6  1  0
  6  7  1  0
  7  8  1  0
  8  9  1  0
  9 10  2  0
  9 11  1  0
  3 12  1  0
 12 13  2  0
 12 14  1  0
M  END
>  <rName>  (2284) 
NMe-D-hArg

>  <PQ_SYMBOL>  (2284) 
NMe-D-hArg

>  <FULL_NAME>  (2284) 
N6-carbamimidoyl-N2-methyl-D-lysine

>  <IUPAC_CONDENSED>  (2284) 
Me-D-hArg

>  <IUPAC>  (2284) 
(2R)-6-(((amino)(imino)methyl)amino)-2-(methylamino)hexanoic acid

>  <TYPE>  (2284) 
Backbone

>  <CLASS>  (2284) 
alpha

>  <ANALOG>  (2284) 
Arg

>  <MOL_WT>  (2284) 
202.258

>  <LOGP>  (2284) 
-0.6876299999999982

>  <TPSA>  (2284) 
111.23

>  <POPULARITY>  (2284) 
5.4

>  <PROTECTED>  (2284) 
TRUE

>  <SMILES>  (2284) 
N(C)[C@H](CCCCNC(=N)N)C(=O)O

>  <INCHIKEY>  (2284) 
QPSLHZWJZSBVBL-ZCFIWIBFSA-N

$$$$
NMe-Dab
     RDKit          2D

  9  8  0  0  0  0  0  0  0  0999 V2000
   -1.4625    1.4907    0.0000 N   0  0  0  0  0  0  0  0  0  0  0  0
   -2.8857    1.0168    0.0000 C   0  0  0  0  0  0  0  0  0  0  0  0
   -0.3405    0.4951    0.0000 C   0  0  0  0  0  0  0  0  0  0  0  0
    1.0826    0.9690    0.0000 C   0  0  0  0  0  0  0  0  0  0  0  0
    2.2046   -0.0266    0.0000 C   0  0  0  0  0  0  0  0  0  0  0  0
    3.6278    0.4473    0.0000 N   0  0  0  0  0  0  0  0  0  0  0  0
   -0.6417   -0.9743    0.0000 C   0  0  0  0  0  0  0  0  0  0  0  0
   -2.0649   -1.4482    0.0000 O   0  0  0  0  0  0  0  0  0  0  0  0
    0.4803   -1.9699    0.0000 O   0  0  0  0  0  0  0  0  0  0  0  0
  1  2  1  0
  1  3  1  0
  3  4  1  1
  4  5  1  0
  5  6  1  0
  3  7  1  0
  7  8  2  0
  7  9  1  0
M  END
>  <rName>  (2285) 
NMe-Dab

>  <PQ_SYMBOL>  (2285) 
NMe-Dab

>  <FULL_NAME>  (2285) 
(S)-4-amino-2-(methylamino)butanoic acid

>  <IUPAC_CONDENSED>  (2285) 
Me-Dab

>  <IUPAC>  (2285) 
(2S)-4-amino-2-(methylamino)butanoic acid

>  <TYPE>  (2285) 
Backbone

>  <CLASS>  (2285) 
alpha

>  <ANALOG>  (2285) 
X

>  <MOL_WT>  (2285) 
132.163

>  <LOGP>  (2285) 
-0.9921999999999993

>  <TPSA>  (2285) 
75.35

>  <POPULARITY>  (2285) 
15.3

>  <PROTECTED>  (2285) 
TRUE

>  <SMILES>  (2285) 
N(C)[C@@H](CCN)C(=O)O

>  <INCHIKEY>  (2285) 
AOUYBPUIMHMSSS-BYPYZUCNSA-N

$$$$
NMe-Dap
     RDKit          2D

  8  7  0  0  0  0  0  0  0  0999 V2000
   -1.2990    1.3125    0.0000 N   0  0  0  0  0  0  0  0  0  0  0  0
   -2.5981    0.5625    0.0000 C   0  0  0  0  0  0  0  0  0  0  0  0
    0.0000    0.5625    0.0000 C   0  0  0  0  0  0  0  0  0  0  0  0
    1.2990    1.3125    0.0000 C   0  0  0  0  0  0  0  0  0  0  0  0
    2.5981    0.5625    0.0000 N   0  0  0  0  0  0  0  0  0  0  0  0
    0.0000   -0.9375    0.0000 C   0  0  0  0  0  0  0  0  0  0  0  0
   -1.2990   -1.6875    0.0000 O   0  0  0  0  0  0  0  0  0  0  0  0
    1.2990   -1.6875    0.0000 O   0  0  0  0  0  0  0  0  0  0  0  0
  1  2  1  0
  1  3  1  0
  3  4  1  1
  4  5  1  0
  3  6  1  0
  6  7  2  0
  6  8  1  0
M  END
>  <rName>  (2286) 
NMe-Dap

>  <PQ_SYMBOL>  (2286) 
NMe-Dap

>  <FULL_NAME>  (2286) 
methyl 2,3-diaminopropanoic acid

>  <IUPAC_CONDENSED>  (2286) 
Me-Dap

>  <IUPAC>  (2286) 
(2S)-3-amino-2-(methylamino)propanoic acid

>  <TYPE>  (2286) 
Backbone

>  <CLASS>  (2286) 
alpha

>  <ANALOG>  (2286) 
X

>  <MOL_WT>  (2286) 
118.13599999999998

>  <LOGP>  (2286) 
-1.382299999999999

>  <TPSA>  (2286) 
75.35

>  <POPULARITY>  (2286) 
20.7

>  <PROTECTED>  (2286) 
TRUE

>  <SMILES>  (2286) 
N(C)[C@@H](CN)C(=O)O

>  <INCHIKEY>  (2286) 
LYESEIVAYITDEH-VKHMYHEASA-N

$$$$
NMe-Dap_N3
     RDKit          2D

 10  9  0  0  0  0  0  0  0  0999 V2000
   -1.8318    1.5723    0.0000 N   0  0  0  0  0  0  0  0  0  0  0  0
   -3.2922    1.2303    0.0000 C   0  0  0  0  0  0  0  0  0  0  0  0
   -0.8053    0.4785    0.0000 C   0  0  0  0  0  0  0  0  0  0  0  0
    0.6552    0.8205    0.0000 C   0  0  0  0  0  0  0  0  0  0  0  0
    1.6816   -0.2733    0.0000 N   0  0  0  0  0  0  0  0  0  0  0  0
    3.1421    0.0687    0.0000 N   0  0  0  0  0  0  0  0  0  0  0  0
    4.6026    0.4108    0.0000 N   0  0  0  0  0  0  0  0  0  0  0  0
   -1.2394   -0.9573    0.0000 C   0  0  0  0  0  0  0  0  0  0  0  0
   -2.6998   -1.2994    0.0000 O   0  0  0  0  0  0  0  0  0  0  0  0
   -0.2129   -2.0511    0.0000 O   0  0  0  0  0  0  0  0  0  0  0  0
  1  2  1  0
  1  3  1  0
  3  4  1  1
  4  5  1  0
  5  6  2  0
  6  7  2  0
  3  8  1  0
  8  9  2  0
  8 10  1  0
M  CHG  2   6   1   7  -1
M  END
>  <rName>  (2287) 
NMe-Dap_N3

>  <PQ_SYMBOL>  (2287) 
NMe-Dap_N3

>  <FULL_NAME>  (2287) 
(2S)-3-azido-2-(methylamino)propanoic acid

>  <IUPAC_CONDENSED>  (2287) 
Me-Dap(N3)

>  <IUPAC>  (2287) 
(2S)-3-azido-2-(methylamino)propanoic acid

>  <TYPE>  (2287) 
Backbone

>  <CLASS>  (2287) 
alpha

>  <ANALOG>  (2287) 
X

>  <MOL_WT>  (2287) 
144.13400000000001

>  <LOGP>  (2287) 
-0.03070000000000045

>  <TPSA>  (2287) 
98.09000000000002

>  <POPULARITY>  (2287) 
2.2

>  <PROTECTED>  (2287) 
TRUE

>  <SMILES>  (2287) 
N(C)[C@@H](CN=[N+]=[N-])C(=O)O

>  <INCHIKEY>  (2287) 
RBUXIGNXKKEABA-VKHMYHEASA-N

$$$$
NMe-E
     RDKit          2D

 11 10  0  0  0  0  0  0  0  0999 V2000
   -2.1418    1.5326    0.0000 N   0  0  0  0  0  0  0  0  0  0  0  0
   -3.5967    1.1676    0.0000 C   0  0  0  0  0  0  0  0  0  0  0  0
   -1.0983    0.4550    0.0000 C   0  0  0  0  0  0  0  0  0  0  0  0
    0.3567    0.8200    0.0000 C   0  0  0  0  0  0  0  0  0  0  0  0
    1.4002   -0.2575    0.0000 C   0  0  0  0  0  0  0  0  0  0  0  0
    2.8551    0.1074    0.0000 C   0  0  0  0  0  0  0  0  0  0  0  0
    3.2665    1.5499    0.0000 O   0  0  0  0  0  0  0  0  0  0  0  0
    3.8986   -0.9701    0.0000 O   0  0  0  0  0  0  0  0  0  0  0  0
   -1.5097   -0.9874    0.0000 C   0  0  0  0  0  0  0  0  0  0  0  0
   -2.9646   -1.3524    0.0000 O   0  0  0  0  0  0  0  0  0  0  0  0
   -0.4661   -2.0650    0.0000 O   0  0  0  0  0  0  0  0  0  0  0  0
  1  2  1  0
  1  3  1  0
  3  4  1  1
  4  5  1  0
  5  6  1  0
  6  7  2  0
  6  8  1  0
  3  9  1  0
  9 10  2  0
  9 11  1  0
M  END
>  <rName>  (2288) 
NMe-E

>  <PQ_SYMBOL>  (2288) 
NMe-E

>  <FULL_NAME>  (2288) 
N-Methyl-L-Glutamic acid

>  <IUPAC_CONDENSED>  (2288) 
Me-Glu

>  <IUPAC>  (2288) 
(2S)-2-(methylamino)glutaric acid

>  <TYPE>  (2288) 
Backbone

>  <CLASS>  (2288) 
alpha

>  <ANALOG>  (2288) 
Glu

>  <MOL_WT>  (2288) 
161.15699999999998

>  <LOGP>  (2288) 
-0.47620000000000046

>  <TPSA>  (2288) 
86.63000000000001

>  <POPULARITY>  (2288) 
29.7

>  <PROTECTED>  (2288) 
TRUE

>  <SMILES>  (2288) 
N(C)[C@@H](CCC(=O)O)C(=O)O

>  <INCHIKEY>  (2288) 
XLBVNMSMFQMKEY-BYPYZUCNSA-N

$$$$
NMe-F
     RDKit          2D

 13 13  0  0  0  0  0  0  0  0999 V2000
   -1.1846    1.3730    0.0000 N   0  0  0  0  0  0  0  0  0  0  0  0
   -2.3388    2.3311    0.0000 C   0  0  0  0  0  0  0  0  0  0  0  0
   -1.4373   -0.1056    0.0000 C   0  0  0  0  0  0  0  0  0  0  0  0
   -0.2831   -1.0637    0.0000 C   0  0  0  0  0  0  0  0  0  0  0  0
    1.1237   -0.5432    0.0000 C   0  0  0  0  0  0  0  0  0  0  0  0
    1.3763    0.9354    0.0000 C   0  0  0  0  0  0  0  0  0  0  0  0
    2.7831    1.4559    0.0000 C   0  0  0  0  0  0  0  0  0  0  0  0
    3.9373    0.4978    0.0000 C   0  0  0  0  0  0  0  0  0  0  0  0
    3.6846   -0.9808    0.0000 C   0  0  0  0  0  0  0  0  0  0  0  0
    2.2778   -1.5013    0.0000 C   0  0  0  0  0  0  0  0  0  0  0  0
   -2.8441   -0.6260    0.0000 C   0  0  0  0  0  0  0  0  0  0  0  0
   -3.0967   -2.1046    0.0000 O   0  0  0  0  0  0  0  0  0  0  0  0
   -3.9982    0.3321    0.0000 O   0  0  0  0  0  0  0  0  0  0  0  0
  1  2  1  0
  1  3  1  0
  3  4  1  1
  4  5  1  0
  5  6  2  0
  6  7  1  0
  7  8  2  0
  8  9  1  0
  9 10  2  0
  3 11  1  0
 11 12  2  0
 11 13  1  0
 10  5  1  0
M  END
>  <rName>  (2289) 
NMe-F

>  <PQ_SYMBOL>  (2289) 
NMe-F

>  <FULL_NAME>  (2289) 
N-methyl-L-Phenylalanine

>  <IUPAC_CONDENSED>  (2289) 
Me-Phe

>  <IUPAC>  (2289) 
(2S)-2-(methylamino)-3-phenylpropanoic acid

>  <TYPE>  (2289) 
Backbone

>  <CLASS>  (2289) 
alpha

>  <ANALOG>  (2289) 
Phe

>  <MOL_WT>  (2289) 
179.21899999999997

>  <LOGP>  (2289) 
0.9017

>  <TPSA>  (2289) 
49.33

>  <POPULARITY>  (2289) 
51.8

>  <PROTECTED>  (2289) 
TRUE

>  <SMILES>  (2289) 
N(C)[C@@H](Cc1(ccccc1))C(=O)O

>  <INCHIKEY>  (2289) 
SCIFESDRCALIIM-VIFPVBQESA-N

$$$$
NMe-Gaba
     RDKit          2D

  8  7  0  0  0  0  0  0  0  0999 V2000
   -2.8948    0.4455    0.0000 N   0  0  0  0  0  0  0  0  0  0  0  0
   -4.2551   -0.1865    0.0000 C   0  0  0  0  0  0  0  0  0  0  0  0
   -1.6672   -0.4165    0.0000 C   0  0  0  0  0  0  0  0  0  0  0  0
   -0.3069    0.2155    0.0000 C   0  0  0  0  0  0  0  0  0  0  0  0
    0.9207   -0.6465    0.0000 C   0  0  0  0  0  0  0  0  0  0  0  0
    2.2810   -0.0145    0.0000 C   0  0  0  0  0  0  0  0  0  0  0  0
    2.4138    1.4796    0.0000 O   0  0  0  0  0  0  0  0  0  0  0  0
    3.5085   -0.8766    0.0000 O   0  0  0  0  0  0  0  0  0  0  0  0
  1  2  1  0
  1  3  1  0
  3  4  1  0
  4  5  1  0
  5  6  1  0
  6  7  2  0
  6  8  1  0
M  END
>  <rName>  (2290) 
NMe-Gaba

>  <PQ_SYMBOL>  (2290) 
NMe-Gaba

>  <FULL_NAME>  (2290) 
4-(methylamino)butanoic acid

>  <IUPAC_CONDENSED>  (2290) 
Me-Gaba

>  <IUPAC>  (2290) 
4-(methylamino)butanoic acid

>  <TYPE>  (2290) 
Backbone

>  <CLASS>  (2290) 
gamma

>  <ANALOG>  (2290) 
Gly

>  <MOL_WT>  (2290) 
117.14799999999998

>  <LOGP>  (2290) 
0.07059999999999994

>  <TPSA>  (2290) 
49.33

>  <POPULARITY>  (2290) 
18.9

>  <PROTECTED>  (2290) 
TRUE

>  <SMILES>  (2290) 
N(C)CCCC(=O)O

>  <INCHIKEY>  (2290) 
AOKCDAVWJLOAHG-UHFFFAOYSA-N

$$$$
NMe-Gln_Me
     RDKit          2D

 12 11  0  0  0  0  0  0  0  0999 V2000
   -2.6469    1.4822    0.0000 N   0  0  0  0  0  0  0  0  0  0  0  0
   -4.0867    1.0615    0.0000 C   0  0  0  0  0  0  0  0  0  0  0  0
   -1.5627    0.4456    0.0000 C   0  0  0  0  0  0  0  0  0  0  0  0
   -0.1229    0.8663    0.0000 C   0  0  0  0  0  0  0  0  0  0  0  0
    0.9613   -0.1702    0.0000 C   0  0  0  0  0  0  0  0  0  0  0  0
    2.4011    0.2505    0.0000 C   0  0  0  0  0  0  0  0  0  0  0  0
    2.7567    1.7077    0.0000 O   0  0  0  0  0  0  0  0  0  0  0  0
    3.4853   -0.7861    0.0000 N   0  0  0  0  0  0  0  0  0  0  0  0
    4.9251   -0.3654    0.0000 C   0  0  0  0  0  0  0  0  0  0  0  0
   -1.9183   -1.0116    0.0000 C   0  0  0  0  0  0  0  0  0  0  0  0
   -3.3581   -1.4323    0.0000 O   0  0  0  0  0  0  0  0  0  0  0  0
   -0.8341   -2.0482    0.0000 O   0  0  0  0  0  0  0  0  0  0  0  0
  1  2  1  0
  1  3  1  0
  3  4  1  1
  4  5  1  0
  5  6  1  0
  6  7  2  0
  6  8  1  0
  8  9  1  0
  3 10  1  0
 10 11  2  0
 10 12  1  0
M  END
>  <rName>  (2291) 
NMe-Gln_Me

>  <PQ_SYMBOL>  (2291) 
NMe-Gln_Me

>  <FULL_NAME>  (2291) 
(2S)-2,5-bis(methylamino)-5-oxopentanoic acid

>  <IUPAC_CONDENSED>  (2291) 
Me-Gln(Me)

>  <IUPAC>  (2291) 
(2S)-2,5-bis(methylamino)-5-oxopentanoic acid

>  <TYPE>  (2291) 
Backbone

>  <CLASS>  (2291) 
alpha

>  <ANALOG>  (2291) 
Gln

>  <MOL_WT>  (2291) 
174.2

>  <LOGP>  (2291) 
-0.8147999999999995

>  <TPSA>  (2291) 
78.43

>  <POPULARITY>  (2291) 
2.2

>  <PROTECTED>  (2291) 
TRUE

>  <SMILES>  (2291) 
N(C)[C@@H](CCC(=O)NC)C(=O)O

>  <INCHIKEY>  (2291) 
URABEDUXKLRREW-YFKPBYRVSA-N

$$$$
NMe-Gly_allyl
     RDKit          2D

  9  8  0  0  0  0  0  0  0  0999 V2000
   -1.4625    1.4907    0.0000 N   0  0  0  0  0  0  0  0  0  0  0  0
   -2.8857    1.0168    0.0000 C   0  0  0  0  0  0  0  0  0  0  0  0
   -0.3405    0.4951    0.0000 C   0  0  0  0  0  0  0  0  0  0  0  0
    1.0826    0.9690    0.0000 C   0  0  0  0  0  0  0  0  0  0  0  0
    2.2046   -0.0266    0.0000 C   0  0  0  0  0  0  0  0  0  0  0  0
    3.6278    0.4473    0.0000 C   0  0  0  0  0  0  0  0  0  0  0  0
   -0.6417   -0.9743    0.0000 C   0  0  0  0  0  0  0  0  0  0  0  0
   -2.0649   -1.4482    0.0000 O   0  0  0  0  0  0  0  0  0  0  0  0
    0.4803   -1.9699    0.0000 O   0  0  0  0  0  0  0  0  0  0  0  0
  1  2  1  0
  1  3  1  0
  3  4  1  1
  4  5  1  0
  5  6  2  0
  3  7  1  0
  7  8  2  0
  7  9  1  0
M  END
>  <rName>  (2292) 
NMe-Gly_allyl

>  <PQ_SYMBOL>  (2292) 
NMe-Gly_allyl

>  <FULL_NAME>  (2292) 
(2S)-2-(methylamino)pent-4-enoic acid

>  <IUPAC_CONDENSED>  (2292) 
Me-Gly(allyl)

>  <IUPAC>  (2292) 
(2S)-2-(methylamino)pent-4-enoic acid

>  <TYPE>  (2292) 
Backbone

>  <CLASS>  (2292) 
alpha

>  <ANALOG>  (2292) 
Val

>  <MOL_WT>  (2292) 
129.159

>  <LOGP>  (2292) 
0.2350999999999998

>  <TPSA>  (2292) 
49.33

>  <POPULARITY>  (2292) 
2.2

>  <PROTECTED>  (2292) 
TRUE

>  <SMILES>  (2292) 
N(C)[C@@H](CC=C)C(=O)O

>  <INCHIKEY>  (2292) 
JVZGXNOECLGJAU-YFKPBYRVSA-N

$$$$
NMe-Gly_cBu
     RDKit          2D

 10 10  0  0  0  0  0  0  0  0999 V2000
   -1.0980   -1.6135    0.0000 N   0  0  0  0  0  0  0  0  0  0  0  0
   -2.5962   -1.6856    0.0000 C   0  0  0  0  0  0  0  0  0  0  0  0
   -0.4113   -0.2799    0.0000 C   0  0  0  0  0  0  0  0  0  0  0  0
    1.0870   -0.2078    0.0000 C   0  0  0  0  0  0  0  0  0  0  0  0
    2.0954    0.9026    0.0000 C   0  0  0  0  0  0  0  0  0  0  0  0
    3.2058   -0.1058    0.0000 C   0  0  0  0  0  0  0  0  0  0  0  0
    2.1974   -1.2163    0.0000 C   0  0  0  0  0  0  0  0  0  0  0  0
   -1.2229    0.9816    0.0000 C   0  0  0  0  0  0  0  0  0  0  0  0
   -0.5362    2.3152    0.0000 O   0  0  0  0  0  0  0  0  0  0  0  0
   -2.7211    0.9095    0.0000 O   0  0  0  0  0  0  0  0  0  0  0  0
  1  2  1  0
  3  1  1  6
  3  4  1  0
  4  5  1  0
  5  6  1  0
  6  7  1  0
  3  8  1  0
  8  9  2  0
  8 10  1  0
  7  4  1  0
M  END
>  <rName>  (2293) 
NMe-Gly_cBu

>  <PQ_SYMBOL>  (2293) 
NMe-Gly_cBu

>  <FULL_NAME>  (2293) 
N-methyl-2-cyclobutyl-L-glycine

>  <IUPAC_CONDENSED>  (2293) 
Me-Gly(cBu)

>  <IUPAC>  (2293) 
(2S)-2-cyclobutyl-2-(methylamino)acetic acid

>  <TYPE>  (2293) 
Backbone

>  <CLASS>  (2293) 
alpha

>  <ANALOG>  (2293) 
X

>  <MOL_WT>  (2293) 
143.186

>  <LOGP>  (2293) 
0.4591

>  <TPSA>  (2293) 
49.33

>  <POPULARITY>  (2293) 
6.6

>  <PROTECTED>  (2293) 
TRUE

>  <SMILES>  (2293) 
N(C)[C@@H](C1(CCC1))C(=O)O

>  <INCHIKEY>  (2293) 
YNZZWZPCUWSNKF-LURJTMIESA-N

$$$$
NMe-Gly_cPent
     RDKit          2D

 11 11  0  0  0  0  0  0  0  0999 V2000
   -1.3728   -1.6194    0.0000 N   0  0  0  0  0  0  0  0  0  0  0  0
   -2.8702   -1.7083    0.0000 C   0  0  0  0  0  0  0  0  0  0  0  0
   -0.7011   -0.2782    0.0000 C   0  0  0  0  0  0  0  0  0  0  0  0
    0.7963   -0.1893    0.0000 C   0  0  0  0  0  0  0  0  0  0  0  0
    1.7483   -1.3485    0.0000 C   0  0  0  0  0  0  0  0  0  0  0  0
    3.1449   -0.8013    0.0000 C   0  0  0  0  0  0  0  0  0  0  0  0
    3.0560    0.6961    0.0000 C   0  0  0  0  0  0  0  0  0  0  0  0
    1.6045    1.0743    0.0000 C   0  0  0  0  0  0  0  0  0  0  0  0
   -1.5267    0.9741    0.0000 C   0  0  0  0  0  0  0  0  0  0  0  0
   -0.8550    2.3153    0.0000 O   0  0  0  0  0  0  0  0  0  0  0  0
   -3.0241    0.8852    0.0000 O   0  0  0  0  0  0  0  0  0  0  0  0
  1  2  1  0
  3  1  1  6
  3  4  1  0
  4  5  1  0
  5  6  1  0
  6  7  1  0
  7  8  1  0
  3  9  1  0
  9 10  2  0
  9 11  1  0
  8  4  1  0
M  END
>  <rName>  (2294) 
NMe-Gly_cPent

>  <PQ_SYMBOL>  (2294) 
NMe-Gly_cPent

>  <FULL_NAME>  (2294) 
N-methyl-2-cyclopentyl-L-glycine

>  <IUPAC_CONDENSED>  (2294) 
Me-Gly(cPent)

>  <IUPAC>  (2294) 
(2S)-2-cyclopentyl-2-(methylamino)acetic acid

>  <TYPE>  (2294) 
Backbone

>  <CLASS>  (2294) 
alpha

>  <ANALOG>  (2294) 
X

>  <MOL_WT>  (2294) 
157.21300000000002

>  <LOGP>  (2294) 
0.8492

>  <TPSA>  (2294) 
49.33

>  <POPULARITY>  (2294) 
12.7

>  <PROTECTED>  (2294) 
TRUE

>  <SMILES>  (2294) 
N(C)[C@@H](C1(CCCC1))C(=O)O

>  <INCHIKEY>  (2294) 
WPRPSYRCLINFTF-ZETCQYMHSA-N

$$$$
NMe-Gly_cPr
     RDKit          2D

  9  9  0  0  0  0  0  0  0  0999 V2000
   -0.8386   -1.6056    0.0000 N   0  0  0  0  0  0  0  0  0  0  0  0
   -2.3383   -1.6369    0.0000 C   0  0  0  0  0  0  0  0  0  0  0  0
   -0.1159   -0.2912    0.0000 C   0  0  0  0  0  0  0  0  0  0  0  0
    1.3837   -0.2598    0.0000 C   0  0  0  0  0  0  0  0  0  0  0  0
    2.6981   -0.9825    0.0000 C   0  0  0  0  0  0  0  0  0  0  0  0
    2.6668    0.5172    0.0000 C   0  0  0  0  0  0  0  0  0  0  0  0
   -0.8929    0.9919    0.0000 C   0  0  0  0  0  0  0  0  0  0  0  0
   -0.1702    2.3063    0.0000 O   0  0  0  0  0  0  0  0  0  0  0  0
   -2.3926    0.9606    0.0000 O   0  0  0  0  0  0  0  0  0  0  0  0
  1  2  1  0
  3  1  1  6
  3  4  1  0
  4  5  1  0
  5  6  1  0
  3  7  1  0
  7  8  2  0
  7  9  1  0
  6  4  1  0
M  END
>  <rName>  (2295) 
NMe-Gly_cPr

>  <PQ_SYMBOL>  (2295) 
NMe-Gly_cPr

>  <FULL_NAME>  (2295) 
N-methyl-L-cyclopropylglycine

>  <IUPAC_CONDENSED>  (2295) 
Me-Gly(cPr)

>  <IUPAC>  (2295) 
(2S)-2-cyclopropyl-2-(methylamino)acetic acid

>  <TYPE>  (2295) 
Backbone

>  <CLASS>  (2295) 
alpha

>  <ANALOG>  (2295) 
X

>  <MOL_WT>  (2295) 
129.15900000000002

>  <LOGP>  (2295) 
0.06899999999999967

>  <TPSA>  (2295) 
49.33

>  <POPULARITY>  (2295) 
12.2

>  <PROTECTED>  (2295) 
TRUE

>  <SMILES>  (2295) 
N(C)[C@@H](C1(CC1))C(=O)O

>  <INCHIKEY>  (2295) 
CTCKWKKJOYXVPL-YFKPBYRVSA-N

$$$$
NMe-H
     RDKit          2D

 12 12  0  0  0  0  0  0  0  0999 V2000
   -0.9097    1.3884    0.0000 N   0  0  0  0  0  0  0  0  0  0  0  0
   -2.0799    2.3268    0.0000 C   0  0  0  0  0  0  0  0  0  0  0  0
   -1.1374   -0.0943    0.0000 C   0  0  0  0  0  0  0  0  0  0  0  0
    0.0327   -1.0328    0.0000 C   0  0  0  0  0  0  0  0  0  0  0  0
    1.4305   -0.4886    0.0000 C   0  0  0  0  0  0  0  0  0  0  0  0
    2.6924   -1.2997    0.0000 C   0  0  0  0  0  0  0  0  0  0  0  0
    3.8536   -0.3502    0.0000 N   0  0  0  0  0  0  0  0  0  0  0  0
    3.3095    1.0476    0.0000 C   0  0  0  0  0  0  0  0  0  0  0  0
    1.8120    0.9621    0.0000 N   0  0  0  0  0  0  0  0  0  0  0  0
   -2.5353   -0.6384    0.0000 C   0  0  0  0  0  0  0  0  0  0  0  0
   -2.7630   -2.1210    0.0000 O   0  0  0  0  0  0  0  0  0  0  0  0
   -3.7054    0.3001    0.0000 O   0  0  0  0  0  0  0  0  0  0  0  0
  1  2  1  0
  1  3  1  0
  3  4  1  1
  4  5  1  0
  5  6  2  0
  6  7  1  0
  7  8  2  0
  8  9  1  0
  3 10  1  0
 10 11  2  0
 10 12  1  0
  9  5  1  0
M  END
>  <rName>  (2296) 
NMe-H

>  <PQ_SYMBOL>  (2296) 
NMe-H

>  <FULL_NAME>  (2296) 
N-Methyl-L-Histidine

>  <IUPAC_CONDENSED>  (2296) 
Me-His

>  <IUPAC>  (2296) 
(2S)-3-(1H-imidazol-5-yl)-2-(methylamino)propanoic acid

>  <TYPE>  (2296) 
Backbone

>  <CLASS>  (2296) 
alpha

>  <ANALOG>  (2296) 
His

>  <MOL_WT>  (2296) 
169.184

>  <LOGP>  (2296) 
-0.3752000000000005

>  <TPSA>  (2296) 
78.01

>  <POPULARITY>  (2296) 
25.3

>  <PROTECTED>  (2296) 
TRUE

>  <SMILES>  (2296) 
N(C)[C@@H](Cc1(cnc[nH]1))C(=O)O

>  <INCHIKEY>  (2296) 
CYZKJBZEIFWZSR-LURJTMIESA-N

$$$$
NMe-Hcy
     RDKit          2D

  9  8  0  0  0  0  0  0  0  0999 V2000
   -1.4625    1.4907    0.0000 N   0  0  0  0  0  0  0  0  0  0  0  0
   -2.8857    1.0168    0.0000 C   0  0  0  0  0  0  0  0  0  0  0  0
   -0.3405    0.4951    0.0000 C   0  0  0  0  0  0  0  0  0  0  0  0
    1.0826    0.9690    0.0000 C   0  0  0  0  0  0  0  0  0  0  0  0
    2.2046   -0.0266    0.0000 C   0  0  0  0  0  0  0  0  0  0  0  0
    3.6278    0.4473    0.0000 S   0  0  0  0  0  0  0  0  0  0  0  0
   -0.6417   -0.9743    0.0000 C   0  0  0  0  0  0  0  0  0  0  0  0
   -2.0649   -1.4482    0.0000 O   0  0  0  0  0  0  0  0  0  0  0  0
    0.4803   -1.9699    0.0000 O   0  0  0  0  0  0  0  0  0  0  0  0
  1  2  1  0
  1  3  1  0
  3  4  1  1
  4  5  1  0
  5  6  1  0
  3  7  1  0
  7  8  2  0
  7  9  1  0
M  END
>  <rName>  (2297) 
NMe-Hcy

>  <PQ_SYMBOL>  (2297) 
NMe-Hcy

>  <FULL_NAME>  (2297) 
methyl-L-homocysteine

>  <IUPAC_CONDENSED>  (2297) 
Me-Hcy

>  <IUPAC>  (2297) 
(2S)-2-(methylamino)-4-sulfanylbutanoic acid

>  <TYPE>  (2297) 
Backbone

>  <CLASS>  (2297) 
alpha

>  <ANALOG>  (2297) 
Cys

>  <MOL_WT>  (2297) 
149.215

>  <LOGP>  (2297) 
-0.02110000000000012

>  <TPSA>  (2297) 
49.33

>  <POPULARITY>  (2297) 
15.0

>  <PROTECTED>  (2297) 
TRUE

>  <SMILES>  (2297) 
N(C)[C@@H](CCS)C(=O)O

>  <INCHIKEY>  (2297) 
PHMDDWYPVDXMNL-BYPYZUCNSA-N

$$$$
NMe-Hse_Et
     RDKit          2D

 11 10  0  0  0  0  0  0  0  0999 V2000
   -2.5061    1.4639    0.0000 N   0  0  0  0  0  0  0  0  0  0  0  0
   -3.9125    0.9425    0.0000 C   0  0  0  0  0  0  0  0  0  0  0  0
   -1.3513    0.5066    0.0000 C   0  0  0  0  0  0  0  0  0  0  0  0
    0.0552    1.0280    0.0000 C   0  0  0  0  0  0  0  0  0  0  0  0
    1.2100    0.0707    0.0000 C   0  0  0  0  0  0  0  0  0  0  0  0
    2.6164    0.5921    0.0000 O   0  0  0  0  0  0  0  0  0  0  0  0
    3.7712   -0.3652    0.0000 C   0  0  0  0  0  0  0  0  0  0  0  0
    5.1777    0.1562    0.0000 C   0  0  0  0  0  0  0  0  0  0  0  0
   -1.6030   -0.9721    0.0000 C   0  0  0  0  0  0  0  0  0  0  0  0
   -3.0094   -1.4935    0.0000 O   0  0  0  0  0  0  0  0  0  0  0  0
   -0.4482   -1.9294    0.0000 O   0  0  0  0  0  0  0  0  0  0  0  0
  1  2  1  0
  1  3  1  0
  3  4  1  1
  4  5  1  0
  5  6  1  0
  6  7  1  0
  7  8  1  0
  3  9  1  0
  9 10  2  0
  9 11  1  0
M  END
>  <rName>  (2298) 
NMe-Hse_Et

>  <PQ_SYMBOL>  (2298) 
NMe-Hse_Et

>  <FULL_NAME>  (2298) 
O-Ethyl-N-methyl-L-homoserine

>  <IUPAC_CONDENSED>  (2298) 
Me-Hse(Et)

>  <IUPAC>  (2298) 
(2S)-4-ethoxy-2-(methylamino)butanoic acid

>  <TYPE>  (2298) 
Backbone

>  <CLASS>  (2298) 
alpha

>  <ANALOG>  (2298) 
Ser

>  <MOL_WT>  (2298) 
161.201

>  <LOGP>  (2298) 
0.08559999999999962

>  <TPSA>  (2298) 
58.56

>  <POPULARITY>  (2298) 
2.2

>  <PROTECTED>  (2298) 
TRUE

>  <SMILES>  (2298) 
N(C)[C@@H](CCOCC)C(=O)O

>  <INCHIKEY>  (2298) 
SZUNKNBEJTXWHW-LURJTMIESA-N

$$$$
NMe-Hse_Me
     RDKit          2D

 10  9  0  0  0  0  0  0  0  0999 V2000
   -2.0182    1.4385    0.0000 N   0  0  0  0  0  0  0  0  0  0  0  0
   -3.4137    0.8883    0.0000 C   0  0  0  0  0  0  0  0  0  0  0  0
   -0.8441    0.5050    0.0000 C   0  0  0  0  0  0  0  0  0  0  0  0
    0.5514    1.0552    0.0000 C   0  0  0  0  0  0  0  0  0  0  0  0
    1.7256    0.1218    0.0000 C   0  0  0  0  0  0  0  0  0  0  0  0
    3.1211    0.6719    0.0000 O   0  0  0  0  0  0  0  0  0  0  0  0
    4.2952   -0.2615    0.0000 C   0  0  0  0  0  0  0  0  0  0  0  0
   -1.0653   -0.9785    0.0000 C   0  0  0  0  0  0  0  0  0  0  0  0
   -2.4608   -1.5287    0.0000 O   0  0  0  0  0  0  0  0  0  0  0  0
    0.1088   -1.9120    0.0000 O   0  0  0  0  0  0  0  0  0  0  0  0
  1  2  1  0
  1  3  1  0
  3  4  1  1
  4  5  1  0
  5  6  1  0
  6  7  1  0
  3  8  1  0
  8  9  2  0
  8 10  1  0
M  END
>  <rName>  (2299) 
NMe-Hse_Me

>  <PQ_SYMBOL>  (2299) 
NMe-Hse_Me

>  <FULL_NAME>  (2299) 
N,O-dimethyl-L-homoserine

>  <IUPAC_CONDENSED>  (2299) 
Me-Hse(Me)

>  <IUPAC>  (2299) 
(2S)-4-methoxy-2-(methylamino)butanoic acid

>  <TYPE>  (2299) 
Backbone

>  <CLASS>  (2299) 
alpha

>  <ANALOG>  (2299) 
Ser

>  <MOL_WT>  (2299) 
147.174

>  <LOGP>  (2299) 
-0.30450000000000027

>  <TPSA>  (2299) 
58.56

>  <POPULARITY>  (2299) 
13.7

>  <PROTECTED>  (2299) 
TRUE

>  <SMILES>  (2299) 
N(C)[C@@H](CCOC)C(=O)O

>  <INCHIKEY>  (2299) 
ZUWJAIZCMGDJBQ-YFKPBYRVSA-N

$$$$
NMe-I
     RDKit          2D

 10  9  0  0  0  0  0  0  0  0999 V2000
   -0.7033    1.6772    0.0000 N   0  0  0  0  0  0  0  0  0  0  0  0
   -2.1490    2.0771    0.0000 C   0  0  0  0  0  0  0  0  0  0  0  0
   -0.3268    0.2252    0.0000 C   0  0  0  0  0  0  0  0  0  0  0  0
    1.1189   -0.1748    0.0000 C   0  0  0  0  0  0  0  0  0  0  0  0
    1.4954   -1.6267    0.0000 C   0  0  0  0  0  0  0  0  0  0  0  0
    2.1881    0.8773    0.0000 C   0  0  0  0  0  0  0  0  0  0  0  0
    3.6338    0.4773    0.0000 C   0  0  0  0  0  0  0  0  0  0  0  0
   -1.3960   -0.8269    0.0000 C   0  0  0  0  0  0  0  0  0  0  0  0
   -2.8417   -0.4269    0.0000 O   0  0  0  0  0  0  0  0  0  0  0  0
   -1.0195   -2.2788    0.0000 O   0  0  0  0  0  0  0  0  0  0  0  0
  1  2  1  0
  3  1  1  1
  3  4  1  0
  4  5  1  6
  4  6  1  0
  6  7  1  0
  3  8  1  0
  8  9  2  0
  8 10  1  0
M  END
>  <rName>  (2300) 
NMe-I

>  <PQ_SYMBOL>  (2300) 
NMe-I

>  <FULL_NAME>  (2300) 
N-Methyl-L-Isoleucine

>  <IUPAC_CONDENSED>  (2300) 
Me-Ile

>  <IUPAC>  (2300) 
(2S,3S)-3-methyl-2-(methylamino)pentanoic acid

>  <TYPE>  (2300) 
Backbone

>  <CLASS>  (2300) 
alpha

>  <ANALOG>  (2300) 
Ile

>  <MOL_WT>  (2300) 
145.202

>  <LOGP>  (2300) 
0.7051000000000001

>  <TPSA>  (2300) 
49.33

>  <POPULARITY>  (2300) 
41.7

>  <PROTECTED>  (2300) 
TRUE

>  <SMILES>  (2300) 
N(C)[C@@H]([C@@H](C)CC)C(=O)O

>  <INCHIKEY>  (2300) 
KSPIYJQBLVDRRI-WDSKDSINSA-N

$$$$
NMe-K
     RDKit          2D

 11 10  0  0  0  0  0  0  0  0999 V2000
   -2.5061    1.4639    0.0000 N   0  0  0  0  0  0  0  0  0  0  0  0
   -3.9125    0.9425    0.0000 C   0  0  0  0  0  0  0  0  0  0  0  0
   -1.3513    0.5066    0.0000 C   0  0  0  0  0  0  0  0  0  0  0  0
    0.0552    1.0280    0.0000 C   0  0  0  0  0  0  0  0  0  0  0  0
    1.2100    0.0707    0.0000 C   0  0  0  0  0  0  0  0  0  0  0  0
    2.6164    0.5921    0.0000 C   0  0  0  0  0  0  0  0  0  0  0  0
    3.7712   -0.3652    0.0000 C   0  0  0  0  0  0  0  0  0  0  0  0
    5.1777    0.1562    0.0000 N   0  0  0  0  0  0  0  0  0  0  0  0
   -1.6030   -0.9721    0.0000 C   0  0  0  0  0  0  0  0  0  0  0  0
   -3.0094   -1.4935    0.0000 O   0  0  0  0  0  0  0  0  0  0  0  0
   -0.4482   -1.9294    0.0000 O   0  0  0  0  0  0  0  0  0  0  0  0
  1  2  1  0
  1  3  1  0
  3  4  1  1
  4  5  1  0
  5  6  1  0
  6  7  1  0
  7  8  1  0
  3  9  1  0
  9 10  2  0
  9 11  1  0
M  END
>  <rName>  (2301) 
NMe-K

>  <PQ_SYMBOL>  (2301) 
NMe-K

>  <FULL_NAME>  (2301) 
N(2)-methyl-L-Lysine

>  <IUPAC_CONDENSED>  (2301) 
Me-Lys

>  <IUPAC>  (2301) 
(2S)-6-amino-2-(methylamino)hexanoic acid

>  <TYPE>  (2301) 
Backbone

>  <CLASS>  (2301) 
alpha

>  <ANALOG>  (2301) 
Lys

>  <MOL_WT>  (2301) 
160.217

>  <LOGP>  (2301) 
-0.21200000000000002

>  <TPSA>  (2301) 
75.35

>  <POPULARITY>  (2301) 
26.1

>  <PROTECTED>  (2301) 
TRUE

>  <SMILES>  (2301) 
N(C)[C@@H](CCCCN)C(=O)O

>  <INCHIKEY>  (2301) 
OLYPWXRMOFUVGH-LURJTMIESA-N

$$$$
NMe-L
     RDKit          2D

 10  9  0  0  0  0  0  0  0  0999 V2000
   -1.8138    1.4604    0.0000 N   0  0  0  0  0  0  0  0  0  0  0  0
   -3.1802    0.8418    0.0000 C   0  0  0  0  0  0  0  0  0  0  0  0
   -0.5948    0.5863    0.0000 C   0  0  0  0  0  0  0  0  0  0  0  0
    0.7717    1.2050    0.0000 C   0  0  0  0  0  0  0  0  0  0  0  0
    1.9907    0.3309    0.0000 C   0  0  0  0  0  0  0  0  0  0  0  0
    3.3572    0.9495    0.0000 C   0  0  0  0  0  0  0  0  0  0  0  0
    1.8433   -1.1619    0.0000 C   0  0  0  0  0  0  0  0  0  0  0  0
   -0.7422   -0.9064    0.0000 C   0  0  0  0  0  0  0  0  0  0  0  0
   -2.1087   -1.5251    0.0000 O   0  0  0  0  0  0  0  0  0  0  0  0
    0.4768   -1.7805    0.0000 O   0  0  0  0  0  0  0  0  0  0  0  0
  1  2  1  0
  1  3  1  0
  3  4  1  1
  4  5  1  0
  5  6  1  0
  5  7  1  0
  3  8  1  0
  8  9  2  0
  8 10  1  0
M  END
>  <rName>  (2302) 
NMe-L

>  <PQ_SYMBOL>  (2302) 
NMe-L

>  <FULL_NAME>  (2302) 
N-Methyl-L-Leucine

>  <IUPAC_CONDENSED>  (2302) 
Me-Leu

>  <IUPAC>  (2302) 
(2S)-4-methyl-2-(methylamino)pentanoic acid

>  <TYPE>  (2302) 
Backbone

>  <CLASS>  (2302) 
alpha

>  <ANALOG>  (2302) 
Leu

>  <MOL_WT>  (2302) 
145.202

>  <LOGP>  (2302) 
0.7051000000000001

>  <TPSA>  (2302) 
49.33

>  <POPULARITY>  (2302) 
55.6

>  <PROTECTED>  (2302) 
TRUE

>  <SMILES>  (2302) 
N(C)[C@@H](CC(C)C)C(=O)O

>  <INCHIKEY>  (2302) 
XJODGRWDFZVTKW-LURJTMIESA-N

$$$$
NMe-Leu_45dehydro
     RDKit          2D

 10  9  0  0  0  0  0  0  0  0999 V2000
   -1.8138    1.4604    0.0000 N   0  0  0  0  0  0  0  0  0  0  0  0
   -3.1802    0.8418    0.0000 C   0  0  0  0  0  0  0  0  0  0  0  0
   -0.5948    0.5863    0.0000 C   0  0  0  0  0  0  0  0  0  0  0  0
    0.7717    1.2050    0.0000 C   0  0  0  0  0  0  0  0  0  0  0  0
    1.9907    0.3309    0.0000 C   0  0  0  0  0  0  0  0  0  0  0  0
    1.8433   -1.1619    0.0000 C   0  0  0  0  0  0  0  0  0  0  0  0
    3.3572    0.9495    0.0000 C   0  0  0  0  0  0  0  0  0  0  0  0
   -0.7422   -0.9064    0.0000 C   0  0  0  0  0  0  0  0  0  0  0  0
   -2.1087   -1.5251    0.0000 O   0  0  0  0  0  0  0  0  0  0  0  0
    0.4768   -1.7805    0.0000 O   0  0  0  0  0  0  0  0  0  0  0  0
  1  2  1  0
  1  3  1  0
  3  4  1  1
  4  5  1  0
  5  6  2  0
  5  7  1  0
  3  8  1  0
  8  9  2  0
  8 10  1  0
M  END
>  <rName>  (2303) 
NMe-Leu_45dehydro

>  <PQ_SYMBOL>  (2303) 
NMe-Leu_45dehydro

>  <FULL_NAME>  (2303) 
(2S)-4-methyl-2-(methylamino)pent-4-enoic acid

>  <IUPAC_CONDENSED>  (2303) 
Me-Leu(4,5-dehydro)

>  <IUPAC>  (2303) 
(2S)-4-methyl-2-(methylamino)pent-4-enoic acid

>  <TYPE>  (2303) 
Backbone

>  <CLASS>  (2303) 
alpha

>  <ANALOG>  (2303) 
Leu

>  <MOL_WT>  (2303) 
143.186

>  <LOGP>  (2303) 
0.6251999999999998

>  <TPSA>  (2303) 
49.33

>  <POPULARITY>  (2303) 
12.6

>  <PROTECTED>  (2303) 
TRUE

>  <SMILES>  (2303) 
N(C)[C@@H](CC(=C)C)C(=O)O

>  <INCHIKEY>  (2303) 
UDWJKFFVEHTELV-LURJTMIESA-N

$$$$
NMe-Leu_4OAc
     RDKit          2D

 15 14  0  0  0  0  0  0  0  0999 V2000
    3.2914   -1.2397    0.0000 N   0  0  0  0  0  0  0  0  0  0  0  0
    4.5392   -0.4073    0.0000 C   0  0  0  0  0  0  0  0  0  0  0  0
    1.9465   -0.5753    0.0000 C   0  0  0  0  0  0  0  0  0  0  0  0
    1.8495    0.9215    0.0000 C   0  0  0  0  0  0  0  0  0  0  0  0
    0.5047    1.5860    0.0000 C   0  0  0  0  0  0  0  0  0  0  0  0
    3.0974    1.7540    0.0000 C   0  0  0  0  0  0  0  0  0  0  0  0
    0.6987   -1.4078    0.0000 C   0  0  0  0  0  0  0  0  0  0  0  0
   -0.6461   -0.7433    0.0000 C   0  0  0  0  0  0  0  0  0  0  0  0
   -0.7431    0.7535    0.0000 O   0  0  0  0  0  0  0  0  0  0  0  0
   -2.0879    1.4179    0.0000 C   0  0  0  0  0  0  0  0  0  0  0  0
   -3.3357    0.5855    0.0000 O   0  0  0  0  0  0  0  0  0  0  0  0
   -2.1849    2.9148    0.0000 C   0  0  0  0  0  0  0  0  0  0  0  0
   -1.8939   -1.5758    0.0000 C   0  0  0  0  0  0  0  0  0  0  0  0
   -1.7969   -3.0726    0.0000 O   0  0  0  0  0  0  0  0  0  0  0  0
   -3.2387   -0.9114    0.0000 O   0  0  0  0  0  0  0  0  0  0  0  0
  1  2  1  0
  1  3  1  0
  3  4  1  0
  4  5  1  0
  4  6  1  0
  3  7  1  6
  8  7  1  6
  8  9  1  0
  9 10  1  0
 10 11  2  0
 10 12  1  0
  8 13  1  0
 13 14  2  0
 13 15  1  0
M  END
>  <rName>  (2304) 
NMe-Leu_4OAc

>  <PQ_SYMBOL>  (2304) 
NMe-Leu_4OAc

>  <FULL_NAME>  (2304) 
(2R,4R)-2-(acetyloxy)-5-methyl-4-(methylamino)hexanoic acid

>  <IUPAC_CONDENSED>  (2304) 
NMe-Leu(4-OAc)

>  <IUPAC>  (2304) 
(2R,4R)-5-methyl-4-(methylamino)-2-(acetoxy)hexanoic acid

>  <TYPE>  (2304) 
N-term cap

>  <CLASS>  (2304) 
n_cap

>  <ANALOG>  (2304) 
X

>  <MOL_WT>  (2304) 
217.265

>  <LOGP>  (2304) 
0.6367999999999998

>  <TPSA>  (2304) 
75.63

>  <POPULARITY>  (2304) 
1.1

>  <PROTECTED>  (2304) 
FALSE

>  <SMILES>  (2304) 
N(C)[C@@H](C(C)C)C[C@@H](OC(=O)C)C(=O)O

>  <INCHIKEY>  (2304) 
YRGKJOMDOOLXCN-RKDXNWHRSA-N

$$$$
NMe-Lys_Ac
     RDKit          2D

 14 13  0  0  0  0  0  0  0  0999 V2000
   -4.0848    1.3362    0.0000 N   0  0  0  0  0  0  0  0  0  0  0  0
   -5.4377    0.6884    0.0000 C   0  0  0  0  0  0  0  0  0  0  0  0
   -2.8473    0.4884    0.0000 C   0  0  0  0  0  0  0  0  0  0  0  0
   -1.4944    1.1362    0.0000 C   0  0  0  0  0  0  0  0  0  0  0  0
   -0.2569    0.2885    0.0000 C   0  0  0  0  0  0  0  0  0  0  0  0
    1.0960    0.9363    0.0000 C   0  0  0  0  0  0  0  0  0  0  0  0
    2.3334    0.0885    0.0000 C   0  0  0  0  0  0  0  0  0  0  0  0
    3.6864    0.7363    0.0000 N   0  0  0  0  0  0  0  0  0  0  0  0
    4.9238   -0.1114    0.0000 C   0  0  0  0  0  0  0  0  0  0  0  0
    4.8084   -1.6070    0.0000 O   0  0  0  0  0  0  0  0  0  0  0  0
    6.2767    0.5364    0.0000 C   0  0  0  0  0  0  0  0  0  0  0  0
   -2.9627   -1.0071    0.0000 C   0  0  0  0  0  0  0  0  0  0  0  0
   -4.3156   -1.6549    0.0000 O   0  0  0  0  0  0  0  0  0  0  0  0
   -1.7253   -1.8549    0.0000 O   0  0  0  0  0  0  0  0  0  0  0  0
  1  2  1  0
  1  3  1  0
  3  4  1  1
  4  5  1  0
  5  6  1  0
  6  7  1  0
  7  8  1  0
  8  9  1  0
  9 10  2  0
  9 11  1  0
  3 12  1  0
 12 13  2  0
 12 14  1  0
M  END
>  <rName>  (2305) 
NMe-Lys_Ac

>  <PQ_SYMBOL>  (2305) 
NMe-Lys_Ac

>  <FULL_NAME>  (2305) 
(2S)-6-acetamido-2-(methylamino)hexanoic acid

>  <IUPAC_CONDENSED>  (2305) 
Me-Lys(Ac)

>  <IUPAC>  (2305) 
(2S)-6-acetamido-2-(methylamino)hexanoic acid

>  <TYPE>  (2305) 
Backbone

>  <CLASS>  (2305) 
alpha

>  <ANALOG>  (2305) 
Lys

>  <MOL_WT>  (2305) 
202.254

>  <LOGP>  (2305) 
-0.03460000000000024

>  <TPSA>  (2305) 
78.42999999999999

>  <POPULARITY>  (2305) 
2.2

>  <PROTECTED>  (2305) 
TRUE

>  <SMILES>  (2305) 
N(C)[C@@H](CCCCNC(=O)C)C(=O)O

>  <INCHIKEY>  (2305) 
LEYXVOAROOULOW-QMMMGPOBSA-N

$$$$
NMe-Lys_ivDde
     RDKit          2D

 26 26  0  0  0  0  0  0  0  0999 V2000
   -6.0677   -1.0123    0.0000 N   0  0  0  0  0  0  0  0  0  0  0  0
   -7.4571   -1.5776    0.0000 C   0  0  0  0  0  0  0  0  0  0  0  0
   -5.8626    0.4736    0.0000 C   0  0  0  0  0  0  0  0  0  0  0  0
   -4.4732    1.0389    0.0000 C   0  0  0  0  0  0  0  0  0  0  0  0
   -3.2889    0.1183    0.0000 C   0  0  0  0  0  0  0  0  0  0  0  0
   -1.8995    0.6836    0.0000 C   0  0  0  0  0  0  0  0  0  0  0  0
   -0.7152   -0.2371    0.0000 C   0  0  0  0  0  0  0  0  0  0  0  0
    0.6742    0.3282    0.0000 N   0  0  0  0  0  0  0  0  0  0  0  0
    1.8584   -0.5924    0.0000 C   0  0  0  0  0  0  0  0  0  0  0  0
    1.6533   -2.0783    0.0000 C   0  0  0  0  0  0  0  0  0  0  0  0
    0.2639   -2.6436    0.0000 C   0  0  0  0  0  0  0  0  0  0  0  0
    0.0587   -4.1295    0.0000 C   0  0  0  0  0  0  0  0  0  0  0  0
   -0.9204   -1.7230    0.0000 C   0  0  0  0  0  0  0  0  0  0  0  0
    3.2478   -0.0271    0.0000 C   0  0  0  0  0  0  0  0  0  0  0  0
    3.4530    1.4588    0.0000 C   0  0  0  0  0  0  0  0  0  0  0  0
    2.2687    2.3794    0.0000 O   0  0  0  0  0  0  0  0  0  0  0  0
    4.8424    2.0241    0.0000 C   0  0  0  0  0  0  0  0  0  0  0  0
    6.0266    1.1035    0.0000 C   0  0  0  0  0  0  0  0  0  0  0  0
    6.7276    2.4296    0.0000 C   0  0  0  0  0  0  0  0  0  0  0  0
    7.4543    0.6434    0.0000 C   0  0  0  0  0  0  0  0  0  0  0  0
    5.8215   -0.3824    0.0000 C   0  0  0  0  0  0  0  0  0  0  0  0
    4.4321   -0.9477    0.0000 C   0  0  0  0  0  0  0  0  0  0  0  0
    4.2269   -2.4336    0.0000 O   0  0  0  0  0  0  0  0  0  0  0  0
   -7.0468    1.3942    0.0000 C   0  0  0  0  0  0  0  0  0  0  0  0
   -6.8417    2.8801    0.0000 O   0  0  0  0  0  0  0  0  0  0  0  0
   -8.4362    0.8289    0.0000 O   0  0  0  0  0  0  0  0  0  0  0  0
  1  2  1  0
  1  3  1  0
  3  4  1  6
  4  5  1  0
  5  6  1  0
  6  7  1  0
  7  8  1  0
  8  9  2  0
  9 10  1  0
 10 11  1  0
 11 12  1  0
 11 13  1  0
  9 14  1  0
 14 15  2  0
 15 16  1  0
 15 17  1  0
 17 18  1  0
 18 19  1  0
 18 20  1  0
 18 21  1  0
 21 22  1  0
 22 23  2  0
  3 24  1  0
 24 25  2  0
 24 26  1  0
 22 14  1  0
M  END
>  <rName>  (2306) 
NMe-Lys_ivDde

>  <PQ_SYMBOL>  (2306) 
NMe-Lys_ivDde

>  <FULL_NAME>  (2306) 
(E)-N6-(1-(2-hydroxy-4,4-dimethyl-6-oxocyclohex-1-en-1-yl)-3-methylbutylidene)-N2-methyl-L-lysine

>  <IUPAC_CONDENSED>  (2306) 
Me-Lys(ivDde)

>  <IUPAC>  (2306) 
(2S)-6-(((1E)-1-(2-hydroxy-4,4-dimethyl-6-oxocyclohex-1-en-1-yl)-3-methylbutylidene)amino)-2-(methylamino)hexanoic acid

>  <TYPE>  (2306) 
Backbone

>  <CLASS>  (2306) 
alpha

>  <ANALOG>  (2306) 
X

>  <MOL_WT>  (2306) 
366.5020000000002

>  <LOGP>  (2306) 
3.5176000000000016

>  <TPSA>  (2306) 
98.99000000000001

>  <POPULARITY>  (2306) 
2.9

>  <PROTECTED>  (2306) 
TRUE

>  <SMILES>  (2306) 
N(C)[C@@H](CCCC/N=C(\CC(C)C)C1=C(O)CC(C)(C)CC1=O)C(=O)O

>  <INCHIKEY>  (2306) 
BZUOWDLXRSHVEH-UGHXVNEISA-N

$$$$
NMe-M
     RDKit          2D

 10  9  0  0  0  0  0  0  0  0999 V2000
   -2.0182    1.4385    0.0000 N   0  0  0  0  0  0  0  0  0  0  0  0
   -3.4137    0.8883    0.0000 C   0  0  0  0  0  0  0  0  0  0  0  0
   -0.8441    0.5050    0.0000 C   0  0  0  0  0  0  0  0  0  0  0  0
    0.5514    1.0552    0.0000 C   0  0  0  0  0  0  0  0  0  0  0  0
    1.7256    0.1218    0.0000 C   0  0  0  0  0  0  0  0  0  0  0  0
    3.1211    0.6719    0.0000 S   0  0  0  0  0  0  0  0  0  0  0  0
    4.2952   -0.2615    0.0000 C   0  0  0  0  0  0  0  0  0  0  0  0
   -1.0653   -0.9785    0.0000 C   0  0  0  0  0  0  0  0  0  0  0  0
   -2.4608   -1.5287    0.0000 O   0  0  0  0  0  0  0  0  0  0  0  0
    0.1088   -1.9120    0.0000 O   0  0  0  0  0  0  0  0  0  0  0  0
  1  2  1  0
  1  3  1  0
  3  4  1  1
  4  5  1  0
  5  6  1  0
  6  7  1  0
  3  8  1  0
  8  9  2  0
  8 10  1  0
M  END
>  <rName>  (2307) 
NMe-M

>  <PQ_SYMBOL>  (2307) 
NMe-M

>  <FULL_NAME>  (2307) 
N-Methyl-L-Methionine

>  <IUPAC_CONDENSED>  (2307) 
Me-Met

>  <IUPAC>  (2307) 
(2S)-2-(methylamino)-4-(methylsulfanyl)butanoic acid

>  <TYPE>  (2307) 
Backbone

>  <CLASS>  (2307) 
alpha

>  <ANALOG>  (2307) 
Met

>  <MOL_WT>  (2307) 
163.242

>  <LOGP>  (2307) 
0.41209999999999986

>  <TPSA>  (2307) 
49.33

>  <POPULARITY>  (2307) 
31.3

>  <PROTECTED>  (2307) 
TRUE

>  <SMILES>  (2307) 
N(C)[C@@H](CCSC)C(=O)O

>  <INCHIKEY>  (2307) 
YAXAFCHJCYILRU-YFKPBYRVSA-N

$$$$
NMe-N
     RDKit          2D

 10  9  0  0  0  0  0  0  0  0999 V2000
   -1.8138    1.4604    0.0000 N   0  0  0  0  0  0  0  0  0  0  0  0
   -3.1802    0.8418    0.0000 C   0  0  0  0  0  0  0  0  0  0  0  0
   -0.5948    0.5863    0.0000 C   0  0  0  0  0  0  0  0  0  0  0  0
    0.7717    1.2050    0.0000 C   0  0  0  0  0  0  0  0  0  0  0  0
    1.9907    0.3309    0.0000 C   0  0  0  0  0  0  0  0  0  0  0  0
    1.8433   -1.1619    0.0000 O   0  0  0  0  0  0  0  0  0  0  0  0
    3.3572    0.9495    0.0000 N   0  0  0  0  0  0  0  0  0  0  0  0
   -0.7422   -0.9064    0.0000 C   0  0  0  0  0  0  0  0  0  0  0  0
   -2.1087   -1.5251    0.0000 O   0  0  0  0  0  0  0  0  0  0  0  0
    0.4768   -1.7805    0.0000 O   0  0  0  0  0  0  0  0  0  0  0  0
  1  2  1  0
  1  3  1  0
  3  4  1  1
  4  5  1  0
  5  6  2  0
  5  7  1  0
  3  8  1  0
  8  9  2  0
  8 10  1  0
M  END
>  <rName>  (2308) 
NMe-N

>  <PQ_SYMBOL>  (2308) 
NMe-N

>  <FULL_NAME>  (2308) 
N-Methyl-L-Asparagine

>  <IUPAC_CONDENSED>  (2308) 
Me-Asn

>  <IUPAC>  (2308) 
(2S)-3-carbamoyl-2-(methylamino)propanoic acid

>  <TYPE>  (2308) 
Backbone

>  <CLASS>  (2308) 
alpha

>  <ANALOG>  (2308) 
Asn

>  <MOL_WT>  (2308) 
146.14600000000002

>  <LOGP>  (2308) 
-1.4655999999999993

>  <TPSA>  (2308) 
92.42

>  <POPULARITY>  (2308) 
15.4

>  <PROTECTED>  (2308) 
TRUE

>  <SMILES>  (2308) 
N(C)[C@@H](CC(=O)N)C(=O)O

>  <INCHIKEY>  (2308) 
LNSMPSPTFDIWRQ-VKHMYHEASA-N

$$$$
NMe-Nle
     RDKit          2D

 10  9  0  0  0  0  0  0  0  0999 V2000
   -2.0182    1.4385    0.0000 N   0  0  0  0  0  0  0  0  0  0  0  0
   -3.4137    0.8883    0.0000 C   0  0  0  0  0  0  0  0  0  0  0  0
   -0.8441    0.5050    0.0000 C   0  0  0  0  0  0  0  0  0  0  0  0
    0.5514    1.0552    0.0000 C   0  0  0  0  0  0  0  0  0  0  0  0
    1.7256    0.1218    0.0000 C   0  0  0  0  0  0  0  0  0  0  0  0
    3.1211    0.6719    0.0000 C   0  0  0  0  0  0  0  0  0  0  0  0
    4.2952   -0.2615    0.0000 C   0  0  0  0  0  0  0  0  0  0  0  0
   -1.0653   -0.9785    0.0000 C   0  0  0  0  0  0  0  0  0  0  0  0
   -2.4608   -1.5287    0.0000 O   0  0  0  0  0  0  0  0  0  0  0  0
    0.1088   -1.9120    0.0000 O   0  0  0  0  0  0  0  0  0  0  0  0
  1  2  1  0
  1  3  1  0
  3  4  1  1
  4  5  1  0
  5  6  1  0
  6  7  1  0
  3  8  1  0
  8  9  2  0
  8 10  1  0
M  END
>  <rName>  (2309) 
NMe-Nle

>  <PQ_SYMBOL>  (2309) 
NMe-Nle

>  <FULL_NAME>  (2309) 
N-Methyl-L-Norleucine

>  <IUPAC_CONDENSED>  (2309) 
Me-Nle

>  <IUPAC>  (2309) 
(2S)-2-(methylamino)hexanoic acid

>  <TYPE>  (2309) 
Backbone

>  <CLASS>  (2309) 
alpha

>  <ANALOG>  (2309) 
Leu

>  <MOL_WT>  (2309) 
145.202

>  <LOGP>  (2309) 
0.8492

>  <TPSA>  (2309) 
49.33

>  <POPULARITY>  (2309) 
38.0

>  <PROTECTED>  (2309) 
TRUE

>  <SMILES>  (2309) 
N(C)[C@@H](CCCC)C(=O)O

>  <INCHIKEY>  (2309) 
FPDYKABXINADKS-LURJTMIESA-N

$$$$
NMe-Nle_Bu
     RDKit          2D

 14 13  0  0  0  0  0  0  0  0999 V2000
   -4.2470    1.3459    0.0000 N   0  0  0  0  0  0  0  0  0  0  0  0
   -5.6150    0.7307    0.0000 C   0  0  0  0  0  0  0  0  0  0  0  0
   -3.0302    0.4687    0.0000 C   0  0  0  0  0  0  0  0  0  0  0  0
   -1.6622    1.0839    0.0000 C   0  0  0  0  0  0  0  0  0  0  0  0
   -0.4454    0.2067    0.0000 C   0  0  0  0  0  0  0  0  0  0  0  0
    0.9227    0.8219    0.0000 C   0  0  0  0  0  0  0  0  0  0  0  0
    2.1395   -0.0553    0.0000 C   0  0  0  0  0  0  0  0  0  0  0  0
    3.5075    0.5599    0.0000 C   0  0  0  0  0  0  0  0  0  0  0  0
    4.7243   -0.3173    0.0000 C   0  0  0  0  0  0  0  0  0  0  0  0
    6.0923    0.2979    0.0000 C   0  0  0  0  0  0  0  0  0  0  0  0
    7.3091   -0.5793    0.0000 C   0  0  0  0  0  0  0  0  0  0  0  0
   -3.1815   -1.0237    0.0000 C   0  0  0  0  0  0  0  0  0  0  0  0
   -4.5495   -1.6389    0.0000 O   0  0  0  0  0  0  0  0  0  0  0  0
   -1.9647   -1.9009    0.0000 O   0  0  0  0  0  0  0  0  0  0  0  0
  1  2  1  0
  1  3  1  0
  3  4  1  1
  4  5  1  0
  5  6  1  0
  6  7  1  0
  7  8  1  0
  8  9  1  0
  9 10  1  0
 10 11  1  0
  3 12  1  0
 12 13  2  0
 12 14  1  0
M  END
>  <rName>  (2310) 
NMe-Nle_Bu

>  <PQ_SYMBOL>  (2310) 
NMe-Nle_Bu

>  <FULL_NAME>  (2310) 
Me-Nle(Bu)

>  <IUPAC_CONDENSED>  (2310) 
Me-Nle(Bu)

>  <IUPAC>  (2310) 
(2S)-2-(methylamino)decanoic acid

>  <TYPE>  (2310) 
Backbone

>  <CLASS>  (2310) 
alpha

>  <ANALOG>  (2310) 
X

>  <MOL_WT>  (2310) 
201.31

>  <LOGP>  (2310) 
2.4096

>  <TPSA>  (2310) 
49.33

>  <POPULARITY>  (2310) 
3.5

>  <PROTECTED>  (2310) 
TRUE

>  <SMILES>  (2310) 
N(C)[C@@H](CCCCCCCC)C(=O)O

>  <INCHIKEY>  (2310) 
PDGCZDYIEIZXDX-JTQLQIEISA-N

$$$$
NMe-Nle_Et
     RDKit          2D

 12 11  0  0  0  0  0  0  0  0999 V2000
   -3.0962    1.4002    0.0000 N   0  0  0  0  0  0  0  0  0  0  0  0
   -4.4792    0.8195    0.0000 C   0  0  0  0  0  0  0  0  0  0  0  0
   -1.9017    0.4929    0.0000 C   0  0  0  0  0  0  0  0  0  0  0  0
   -0.5187    1.0737    0.0000 C   0  0  0  0  0  0  0  0  0  0  0  0
    0.6758    0.1664    0.0000 C   0  0  0  0  0  0  0  0  0  0  0  0
    2.0588    0.7472    0.0000 C   0  0  0  0  0  0  0  0  0  0  0  0
    3.2533   -0.1602    0.0000 C   0  0  0  0  0  0  0  0  0  0  0  0
    4.6363    0.4206    0.0000 C   0  0  0  0  0  0  0  0  0  0  0  0
    5.8307   -0.4867    0.0000 C   0  0  0  0  0  0  0  0  0  0  0  0
   -2.0902   -0.9952    0.0000 C   0  0  0  0  0  0  0  0  0  0  0  0
   -3.4732   -1.5760    0.0000 O   0  0  0  0  0  0  0  0  0  0  0  0
   -0.8957   -1.9025    0.0000 O   0  0  0  0  0  0  0  0  0  0  0  0
  1  2  1  0
  1  3  1  0
  3  4  1  1
  4  5  1  0
  5  6  1  0
  6  7  1  0
  7  8  1  0
  8  9  1  0
  3 10  1  0
 10 11  2  0
 10 12  1  0
M  END
>  <rName>  (2311) 
NMe-Nle_Et

>  <PQ_SYMBOL>  (2311) 
NMe-Nle_Et

>  <FULL_NAME>  (2311) 
(2S)-2-(methylamino)octanoic acid

>  <IUPAC_CONDENSED>  (2311) 
Me-Nle(Et)

>  <IUPAC>  (2311) 
(2S)-2-(methylamino)octanoic acid

>  <TYPE>  (2311) 
Backbone

>  <CLASS>  (2311) 
alpha

>  <ANALOG>  (2311) 
Leu

>  <MOL_WT>  (2311) 
173.256

>  <LOGP>  (2311) 
1.6294

>  <TPSA>  (2311) 
49.33

>  <POPULARITY>  (2311) 
19.5

>  <PROTECTED>  (2311) 
TRUE

>  <SMILES>  (2311) 
N(C)[C@@H](CCCCCC)C(=O)O

>  <INCHIKEY>  (2311) 
JXOCWFZISGFFJB-QMMMGPOBSA-N

$$$$
NMe-Nle_Me
     RDKit          2D

 11 10  0  0  0  0  0  0  0  0999 V2000
   -2.5061    1.4639    0.0000 N   0  0  0  0  0  0  0  0  0  0  0  0
   -3.9125    0.9425    0.0000 C   0  0  0  0  0  0  0  0  0  0  0  0
   -1.3513    0.5066    0.0000 C   0  0  0  0  0  0  0  0  0  0  0  0
    0.0552    1.0280    0.0000 C   0  0  0  0  0  0  0  0  0  0  0  0
    1.2100    0.0707    0.0000 C   0  0  0  0  0  0  0  0  0  0  0  0
    2.6164    0.5921    0.0000 C   0  0  0  0  0  0  0  0  0  0  0  0
    3.7712   -0.3652    0.0000 C   0  0  0  0  0  0  0  0  0  0  0  0
    5.1777    0.1562    0.0000 C   0  0  0  0  0  0  0  0  0  0  0  0
   -1.6030   -0.9721    0.0000 C   0  0  0  0  0  0  0  0  0  0  0  0
   -3.0094   -1.4935    0.0000 O   0  0  0  0  0  0  0  0  0  0  0  0
   -0.4482   -1.9294    0.0000 O   0  0  0  0  0  0  0  0  0  0  0  0
  1  2  1  0
  1  3  1  0
  3  4  1  1
  4  5  1  0
  5  6  1  0
  6  7  1  0
  7  8  1  0
  3  9  1  0
  9 10  2  0
  9 11  1  0
M  END
>  <rName>  (2312) 
NMe-Nle_Me

>  <PQ_SYMBOL>  (2312) 
NMe-Nle_Me

>  <FULL_NAME>  (2312) 
N-Methyl-Homo-L-Norleucine

>  <IUPAC_CONDENSED>  (2312) 
Me-Nle(Me)

>  <IUPAC>  (2312) 
(2S)-2-(methylamino)heptanoic acid

>  <TYPE>  (2312) 
Backbone

>  <CLASS>  (2312) 
alpha

>  <ANALOG>  (2312) 
Leu

>  <MOL_WT>  (2312) 
159.229

>  <LOGP>  (2312) 
1.2392999999999998

>  <TPSA>  (2312) 
49.33

>  <POPULARITY>  (2312) 
15.7

>  <PROTECTED>  (2312) 
TRUE

>  <SMILES>  (2312) 
N(C)[C@@H](CCCCC)C(=O)O

>  <INCHIKEY>  (2312) 
LMWHGZRNQQQRNX-ZETCQYMHSA-N

$$$$
NMe-Nle_N3
     RDKit          2D

 13 12  0  0  0  0  0  0  0  0999 V2000
   -3.7188    1.2913    0.0000 N   0  0  0  0  0  0  0  0  0  0  0  0
   -5.0653    0.6303    0.0000 C   0  0  0  0  0  0  0  0  0  0  0  0
   -2.4731    0.4557    0.0000 C   0  0  0  0  0  0  0  0  0  0  0  0
   -1.1266    1.1167    0.0000 C   0  0  0  0  0  0  0  0  0  0  0  0
    0.1191    0.2811    0.0000 C   0  0  0  0  0  0  0  0  0  0  0  0
    1.4656    0.9421    0.0000 C   0  0  0  0  0  0  0  0  0  0  0  0
    2.7113    0.1065    0.0000 C   0  0  0  0  0  0  0  0  0  0  0  0
    4.0578    0.7675    0.0000 N   0  0  0  0  0  0  0  0  0  0  0  0
    5.3035   -0.0682    0.0000 N   0  0  0  0  0  0  0  0  0  0  0  0
    6.5492   -0.9038    0.0000 N   0  0  0  0  0  0  0  0  0  0  0  0
   -2.5739   -1.0409    0.0000 C   0  0  0  0  0  0  0  0  0  0  0  0
   -3.9204   -1.7019    0.0000 O   0  0  0  0  0  0  0  0  0  0  0  0
   -1.3282   -1.8765    0.0000 O   0  0  0  0  0  0  0  0  0  0  0  0
  1  2  1  0
  1  3  1  0
  3  4  1  1
  4  5  1  0
  5  6  1  0
  6  7  1  0
  7  8  1  0
  8  9  2  0
  9 10  2  0
  3 11  1  0
 11 12  2  0
 11 13  1  0
M  CHG  2   9   1  10  -1
M  END
>  <rName>  (2313) 
NMe-Nle_N3

>  <PQ_SYMBOL>  (2313) 
NMe-Nle_N3

>  <FULL_NAME>  (2313) 
(2S)-6-azido-2-(methylamino)hexanoic acid

>  <IUPAC_CONDENSED>  (2313) 
Me-Nle(N3)

>  <IUPAC>  (2313) 
(2S)-6-azido-2-(methylamino)hexanoic acid

>  <TYPE>  (2313) 
Backbone

>  <CLASS>  (2313) 
alpha

>  <ANALOG>  (2313) 
Lys

>  <MOL_WT>  (2313) 
186.215

>  <LOGP>  (2313) 
1.1396

>  <TPSA>  (2313) 
98.09000000000002

>  <POPULARITY>  (2313) 
3.5

>  <PROTECTED>  (2313) 
TRUE

>  <SMILES>  (2313) 
N(C)[C@@H](CCCCN=[N+]=[N-])C(=O)O

>  <INCHIKEY>  (2313) 
LECMRPRFSQXZTE-LURJTMIESA-N

$$$$
NMe-Nle_Pr
     RDKit          2D

 13 12  0  0  0  0  0  0  0  0999 V2000
   -3.6455    1.4075    0.0000 N   0  0  0  0  0  0  0  0  0  0  0  0
   -5.0308    0.8322    0.0000 C   0  0  0  0  0  0  0  0  0  0  0  0
   -2.4546    0.4955    0.0000 C   0  0  0  0  0  0  0  0  0  0  0  0
   -1.0693    1.0707    0.0000 C   0  0  0  0  0  0  0  0  0  0  0  0
    0.1215    0.1587    0.0000 C   0  0  0  0  0  0  0  0  0  0  0  0
    1.5068    0.7339    0.0000 C   0  0  0  0  0  0  0  0  0  0  0  0
    2.6977   -0.1781    0.0000 C   0  0  0  0  0  0  0  0  0  0  0  0
    4.0830    0.3971    0.0000 C   0  0  0  0  0  0  0  0  0  0  0  0
    5.2738   -0.5149    0.0000 C   0  0  0  0  0  0  0  0  0  0  0  0
    6.6591    0.0604    0.0000 C   0  0  0  0  0  0  0  0  0  0  0  0
   -2.6491   -0.9919    0.0000 C   0  0  0  0  0  0  0  0  0  0  0  0
   -4.0344   -1.5672    0.0000 O   0  0  0  0  0  0  0  0  0  0  0  0
   -1.4582   -1.9040    0.0000 O   0  0  0  0  0  0  0  0  0  0  0  0
  1  2  1  0
  1  3  1  0
  3  4  1  1
  4  5  1  0
  5  6  1  0
  6  7  1  0
  7  8  1  0
  8  9  1  0
  9 10  1  0
  3 11  1  0
 11 12  2  0
 11 13  1  0
M  END
>  <rName>  (2314) 
NMe-Nle_Pr

>  <PQ_SYMBOL>  (2314) 
NMe-Nle_Pr

>  <FULL_NAME>  (2314) 
Me-Nle(Pr)

>  <IUPAC_CONDENSED>  (2314) 
Me-Nle(Pr)

>  <IUPAC>  (2314) 
(2S)-2-(methylamino)nonanoic acid

>  <TYPE>  (2314) 
Backbone

>  <CLASS>  (2314) 
alpha

>  <ANALOG>  (2314) 
X

>  <MOL_WT>  (2314) 
187.28300000000002

>  <LOGP>  (2314) 
2.0195

>  <TPSA>  (2314) 
49.33

>  <POPULARITY>  (2314) 
3.5

>  <PROTECTED>  (2314) 
TRUE

>  <SMILES>  (2314) 
N(C)[C@@H](CCCCCCC)C(=O)O

>  <INCHIKEY>  (2314) 
FNAIMQKRIJZWEW-VIFPVBQESA-N

$$$$
NMe-Nle_allyl
     RDKit          2D

 13 12  0  0  0  0  0  0  0  0999 V2000
   -3.6455    1.4075    0.0000 N   0  0  0  0  0  0  0  0  0  0  0  0
   -5.0308    0.8322    0.0000 C   0  0  0  0  0  0  0  0  0  0  0  0
   -2.4546    0.4955    0.0000 C   0  0  0  0  0  0  0  0  0  0  0  0
   -1.0693    1.0707    0.0000 C   0  0  0  0  0  0  0  0  0  0  0  0
    0.1215    0.1587    0.0000 C   0  0  0  0  0  0  0  0  0  0  0  0
    1.5068    0.7339    0.0000 C   0  0  0  0  0  0  0  0  0  0  0  0
    2.6977   -0.1781    0.0000 C   0  0  0  0  0  0  0  0  0  0  0  0
    4.0830    0.3971    0.0000 C   0  0  0  0  0  0  0  0  0  0  0  0
    5.2738   -0.5149    0.0000 C   0  0  0  0  0  0  0  0  0  0  0  0
    6.6591    0.0604    0.0000 C   0  0  0  0  0  0  0  0  0  0  0  0
   -2.6491   -0.9919    0.0000 C   0  0  0  0  0  0  0  0  0  0  0  0
   -4.0344   -1.5672    0.0000 O   0  0  0  0  0  0  0  0  0  0  0  0
   -1.4582   -1.9040    0.0000 O   0  0  0  0  0  0  0  0  0  0  0  0
  1  2  1  0
  1  3  1  0
  3  4  1  1
  4  5  1  0
  5  6  1  0
  6  7  1  0
  7  8  1  0
  8  9  1  0
  9 10  2  0
  3 11  1  0
 11 12  2  0
 11 13  1  0
M  END
>  <rName>  (2315) 
NMe-Nle_allyl

>  <PQ_SYMBOL>  (2315) 
NMe-Nle_allyl

>  <FULL_NAME>  (2315) 
(2S)-2-(methylamino)non-8-enoic acid

>  <IUPAC_CONDENSED>  (2315) 
Me-Nle(allyl)

>  <IUPAC>  (2315) 
(2S)-2-(methylamino)non-8-enoic acid

>  <TYPE>  (2315) 
Backbone

>  <CLASS>  (2315) 
alpha

>  <ANALOG>  (2315) 
X

>  <MOL_WT>  (2315) 
185.267

>  <LOGP>  (2315) 
1.7954999999999999

>  <TPSA>  (2315) 
49.33

>  <POPULARITY>  (2315) 
2.2

>  <PROTECTED>  (2315) 
TRUE

>  <SMILES>  (2315) 
N(C)[C@@H](CCCCCC=C)C(=O)O

>  <INCHIKEY>  (2315) 
NVVIDQDWELLBEZ-VIFPVBQESA-N

$$$$
NMe-Nle_but3enyl
     RDKit          2D

 14 13  0  0  0  0  0  0  0  0999 V2000
   -4.2470    1.3459    0.0000 N   0  0  0  0  0  0  0  0  0  0  0  0
   -5.6150    0.7307    0.0000 C   0  0  0  0  0  0  0  0  0  0  0  0
   -3.0302    0.4687    0.0000 C   0  0  0  0  0  0  0  0  0  0  0  0
   -1.6622    1.0839    0.0000 C   0  0  0  0  0  0  0  0  0  0  0  0
   -0.4454    0.2067    0.0000 C   0  0  0  0  0  0  0  0  0  0  0  0
    0.9227    0.8219    0.0000 C   0  0  0  0  0  0  0  0  0  0  0  0
    2.1395   -0.0553    0.0000 C   0  0  0  0  0  0  0  0  0  0  0  0
    3.5075    0.5599    0.0000 C   0  0  0  0  0  0  0  0  0  0  0  0
    4.7243   -0.3173    0.0000 C   0  0  0  0  0  0  0  0  0  0  0  0
    6.0923    0.2979    0.0000 C   0  0  0  0  0  0  0  0  0  0  0  0
    7.3091   -0.5793    0.0000 C   0  0  0  0  0  0  0  0  0  0  0  0
   -3.1815   -1.0237    0.0000 C   0  0  0  0  0  0  0  0  0  0  0  0
   -4.5495   -1.6389    0.0000 O   0  0  0  0  0  0  0  0  0  0  0  0
   -1.9647   -1.9009    0.0000 O   0  0  0  0  0  0  0  0  0  0  0  0
  1  2  1  0
  1  3  1  0
  3  4  1  1
  4  5  1  0
  5  6  1  0
  6  7  1  0
  7  8  1  0
  8  9  1  0
  9 10  1  0
 10 11  2  0
  3 12  1  0
 12 13  2  0
 12 14  1  0
M  END
>  <rName>  (2316) 
NMe-Nle_but3enyl

>  <PQ_SYMBOL>  (2316) 
NMe-Nle_but3enyl

>  <FULL_NAME>  (2316) 
(2S)-2-(methylamino)dec-9-enoic acid

>  <IUPAC_CONDENSED>  (2316) 
Me-Nle(but-3-enyl)

>  <IUPAC>  (2316) 
(2S)-2-(methylamino)dec-9-enoic acid

>  <TYPE>  (2316) 
Backbone

>  <CLASS>  (2316) 
alpha

>  <ANALOG>  (2316) 
X

>  <MOL_WT>  (2316) 
199.294

>  <LOGP>  (2316) 
2.1856

>  <TPSA>  (2316) 
49.33

>  <POPULARITY>  (2316) 
7.1

>  <PROTECTED>  (2316) 
TRUE

>  <SMILES>  (2316) 
N(C)[C@@H](CCCCCCC=C)C(=O)O

>  <INCHIKEY>  (2316) 
FKFFHGSQSDCSLG-JTQLQIEISA-N

$$$$
NMe-Nle_vinyl
     RDKit          2D

 12 11  0  0  0  0  0  0  0  0999 V2000
   -3.0962    1.4002    0.0000 N   0  0  0  0  0  0  0  0  0  0  0  0
   -4.4792    0.8195    0.0000 C   0  0  0  0  0  0  0  0  0  0  0  0
   -1.9017    0.4929    0.0000 C   0  0  0  0  0  0  0  0  0  0  0  0
   -0.5187    1.0737    0.0000 C   0  0  0  0  0  0  0  0  0  0  0  0
    0.6758    0.1664    0.0000 C   0  0  0  0  0  0  0  0  0  0  0  0
    2.0588    0.7472    0.0000 C   0  0  0  0  0  0  0  0  0  0  0  0
    3.2533   -0.1602    0.0000 C   0  0  0  0  0  0  0  0  0  0  0  0
    4.6363    0.4206    0.0000 C   0  0  0  0  0  0  0  0  0  0  0  0
    5.8307   -0.4867    0.0000 C   0  0  0  0  0  0  0  0  0  0  0  0
   -2.0902   -0.9952    0.0000 C   0  0  0  0  0  0  0  0  0  0  0  0
   -3.4732   -1.5760    0.0000 O   0  0  0  0  0  0  0  0  0  0  0  0
   -0.8957   -1.9025    0.0000 O   0  0  0  0  0  0  0  0  0  0  0  0
  1  2  1  0
  1  3  1  0
  3  4  1  1
  4  5  1  0
  5  6  1  0
  6  7  1  0
  7  8  1  0
  8  9  2  0
  3 10  1  0
 10 11  2  0
 10 12  1  0
M  END
>  <rName>  (2317) 
NMe-Nle_vinyl

>  <PQ_SYMBOL>  (2317) 
NMe-Nle_vinyl

>  <FULL_NAME>  (2317) 
(S)-2-(methylamino)oct-7-enoic acid

>  <IUPAC_CONDENSED>  (2317) 
Me-Nle(vinyl)

>  <IUPAC>  (2317) 
(2S)-2-(methylamino)oct-7-enoic acid

>  <TYPE>  (2317) 
Backbone

>  <CLASS>  (2317) 
alpha

>  <ANALOG>  (2317) 
Leu

>  <MOL_WT>  (2317) 
171.24

>  <LOGP>  (2317) 
1.4054

>  <TPSA>  (2317) 
49.33

>  <POPULARITY>  (2317) 
9.6

>  <PROTECTED>  (2317) 
TRUE

>  <SMILES>  (2317) 
N(C)[C@@H](CCCCC=C)C(=O)O

>  <INCHIKEY>  (2317) 
GKWXPYKDCRDLFL-QMMMGPOBSA-N

$$$$
NMe-Nva
     RDKit          2D

  9  8  0  0  0  0  0  0  0  0999 V2000
   -1.4625    1.4907    0.0000 N   0  0  0  0  0  0  0  0  0  0  0  0
   -2.8857    1.0168    0.0000 C   0  0  0  0  0  0  0  0  0  0  0  0
   -0.3405    0.4951    0.0000 C   0  0  0  0  0  0  0  0  0  0  0  0
    1.0826    0.9690    0.0000 C   0  0  0  0  0  0  0  0  0  0  0  0
    2.2046   -0.0266    0.0000 C   0  0  0  0  0  0  0  0  0  0  0  0
    3.6278    0.4473    0.0000 C   0  0  0  0  0  0  0  0  0  0  0  0
   -0.6417   -0.9743    0.0000 C   0  0  0  0  0  0  0  0  0  0  0  0
   -2.0649   -1.4482    0.0000 O   0  0  0  0  0  0  0  0  0  0  0  0
    0.4803   -1.9699    0.0000 O   0  0  0  0  0  0  0  0  0  0  0  0
  1  2  1  0
  1  3  1  0
  3  4  1  1
  4  5  1  0
  5  6  1  0
  3  7  1  0
  7  8  2  0
  7  9  1  0
M  END
>  <rName>  (2318) 
NMe-Nva

>  <PQ_SYMBOL>  (2318) 
NMe-Nva

>  <FULL_NAME>  (2318) 
N-Methyl-L-Norvaline

>  <IUPAC_CONDENSED>  (2318) 
Me-Nva

>  <IUPAC>  (2318) 
(2S)-2-(methylamino)pentanoic acid

>  <TYPE>  (2318) 
Backbone

>  <CLASS>  (2318) 
alpha

>  <ANALOG>  (2318) 
Val

>  <MOL_WT>  (2318) 
131.175

>  <LOGP>  (2318) 
0.4591

>  <TPSA>  (2318) 
49.33

>  <POPULARITY>  (2318) 
25.0

>  <PROTECTED>  (2318) 
TRUE

>  <SMILES>  (2318) 
N(C)[C@@H](CCC)C(=O)O

>  <INCHIKEY>  (2318) 
HCPKYUNZBPVCHC-YFKPBYRVSA-N

$$$$
NMe-Nva_53F
     RDKit          2D

 12 11  0  0  0  0  0  0  0  0999 V2000
   -2.3724    1.5350    0.0000 N   0  0  0  0  0  0  0  0  0  0  0  0
   -3.8290    1.1771    0.0000 C   0  0  0  0  0  0  0  0  0  0  0  0
   -1.3340    0.4525    0.0000 C   0  0  0  0  0  0  0  0  0  0  0  0
    0.1226    0.8105    0.0000 C   0  0  0  0  0  0  0  0  0  0  0  0
    1.1610   -0.2721    0.0000 C   0  0  0  0  0  0  0  0  0  0  0  0
    2.6176    0.0859    0.0000 C   0  0  0  0  0  0  0  0  0  0  0  0
    4.0743    0.4438    0.0000 F   0  0  0  0  0  0  0  0  0  0  0  0
    2.9756   -1.3708    0.0000 F   0  0  0  0  0  0  0  0  0  0  0  0
    2.2597    1.5425    0.0000 F   0  0  0  0  0  0  0  0  0  0  0  0
   -1.7524   -0.9880    0.0000 C   0  0  0  0  0  0  0  0  0  0  0  0
   -3.2090   -1.3459    0.0000 O   0  0  0  0  0  0  0  0  0  0  0  0
   -0.7140   -2.0705    0.0000 O   0  0  0  0  0  0  0  0  0  0  0  0
  1  2  1  0
  1  3  1  0
  3  4  1  1
  4  5  1  0
  5  6  1  0
  6  7  1  0
  6  8  1  0
  6  9  1  0
  3 10  1  0
 10 11  2  0
 10 12  1  0
M  END
>  <rName>  (2319) 
NMe-Nva_53F

>  <PQ_SYMBOL>  (2319) 
NMe-Nva_53F

>  <FULL_NAME>  (2319) 
(S)-5,5,5-trifluoro-2-(methylamino)pentanoic acid

>  <IUPAC_CONDENSED>  (2319) 
Me-Nva(5-3F)

>  <IUPAC>  (2319) 
(2S)-5,5,5-trifluoro-2-(methylamino)pentanoic acid

>  <TYPE>  (2319) 
Backbone

>  <CLASS>  (2319) 
alpha

>  <ANALOG>  (2319) 
X

>  <MOL_WT>  (2319) 
185.145

>  <LOGP>  (2319) 
1.0014999999999998

>  <TPSA>  (2319) 
49.33

>  <POPULARITY>  (2319) 
8.1

>  <PROTECTED>  (2319) 
TRUE

>  <SMILES>  (2319) 
N(C)[C@@H](CCC(F)(F)F)C(=O)O

>  <INCHIKEY>  (2319) 
AJGZUPHBUSKPNJ-BYPYZUCNSA-N

$$$$
NMe-Nva_N3
     RDKit          2D

 12 11  0  0  0  0  0  0  0  0999 V2000
   -3.0015    1.5177    0.0000 N   0  0  0  0  0  0  0  0  0  0  0  0
   -4.4260    1.0478    0.0000 C   0  0  0  0  0  0  0  0  0  0  0  0
   -1.8823    0.5190    0.0000 C   0  0  0  0  0  0  0  0  0  0  0  0
   -0.4578    0.9889    0.0000 C   0  0  0  0  0  0  0  0  0  0  0  0
    0.6614   -0.0098    0.0000 C   0  0  0  0  0  0  0  0  0  0  0  0
    2.0859    0.4601    0.0000 C   0  0  0  0  0  0  0  0  0  0  0  0
    3.2050   -0.5387    0.0000 N   0  0  0  0  0  0  0  0  0  0  0  0
    4.6296   -0.0688    0.0000 N   0  0  0  0  0  0  0  0  0  0  0  0
    6.0541    0.4011    0.0000 N   0  0  0  0  0  0  0  0  0  0  0  0
   -2.1876   -0.9496    0.0000 C   0  0  0  0  0  0  0  0  0  0  0  0
   -3.6121   -1.4195    0.0000 O   0  0  0  0  0  0  0  0  0  0  0  0
   -1.0685   -1.9483    0.0000 O   0  0  0  0  0  0  0  0  0  0  0  0
  1  2  1  0
  1  3  1  0
  3  4  1  1
  4  5  1  0
  5  6  1  0
  6  7  1  0
  7  8  2  0
  8  9  2  0
  3 10  1  0
 10 11  2  0
 10 12  1  0
M  CHG  2   8   1   9  -1
M  END
>  <rName>  (2320) 
NMe-Nva_N3

>  <PQ_SYMBOL>  (2320) 
NMe-Nva_N3

>  <FULL_NAME>  (2320) 
Me-Nva(N3)

>  <IUPAC_CONDENSED>  (2320) 
Me-Nva(N3)

>  <IUPAC>  (2320) 
(2S)-5-azido-2-(methylamino)pentanoic acid

>  <TYPE>  (2320) 
Backbone

>  <CLASS>  (2320) 
alpha

>  <ANALOG>  (2320) 
Lys

>  <MOL_WT>  (2320) 
172.18800000000002

>  <LOGP>  (2320) 
0.7494999999999998

>  <TPSA>  (2320) 
98.09000000000002

>  <POPULARITY>  (2320) 
3.5

>  <PROTECTED>  (2320) 
TRUE

>  <SMILES>  (2320) 
N(C)[C@@H](CCCN=[N+]=[N-])C(=O)O

>  <INCHIKEY>  (2320) 
CXFGGFZLYGVHNT-YFKPBYRVSA-N

$$$$
NMe-Nva_Ph
     RDKit          2D

 15 15  0  0  0  0  0  0  0  0999 V2000
   -2.5498    1.5061    0.0000 N   0  0  0  0  0  0  0  0  0  0  0  0
   -3.7694    2.3793    0.0000 C   0  0  0  0  0  0  0  0  0  0  0  0
   -2.6963    0.0133    0.0000 C   0  0  0  0  0  0  0  0  0  0  0  0
   -1.4766   -0.8600    0.0000 C   0  0  0  0  0  0  0  0  0  0  0  0
   -0.1106   -0.2404    0.0000 C   0  0  0  0  0  0  0  0  0  0  0  0
    1.1090   -1.1136    0.0000 C   0  0  0  0  0  0  0  0  0  0  0  0
    2.4751   -0.4940    0.0000 C   0  0  0  0  0  0  0  0  0  0  0  0
    2.6215    0.9989    0.0000 C   0  0  0  0  0  0  0  0  0  0  0  0
    3.9876    1.6185    0.0000 C   0  0  0  0  0  0  0  0  0  0  0  0
    5.2072    0.7452    0.0000 C   0  0  0  0  0  0  0  0  0  0  0  0
    5.0607   -0.7476    0.0000 C   0  0  0  0  0  0  0  0  0  0  0  0
    3.6947   -1.3672    0.0000 C   0  0  0  0  0  0  0  0  0  0  0  0
   -4.0623   -0.6063    0.0000 C   0  0  0  0  0  0  0  0  0  0  0  0
   -4.2087   -2.0992    0.0000 O   0  0  0  0  0  0  0  0  0  0  0  0
   -5.2819    0.2669    0.0000 O   0  0  0  0  0  0  0  0  0  0  0  0
  1  2  1  0
  1  3  1  0
  3  4  1  1
  4  5  1  0
  5  6  1  0
  6  7  1  0
  7  8  2  0
  8  9  1  0
  9 10  2  0
 10 11  1  0
 11 12  2  0
  3 13  1  0
 13 14  2  0
 13 15  1  0
 12  7  1  0
M  END
>  <rName>  (2321) 
NMe-Nva_Ph

>  <PQ_SYMBOL>  (2321) 
NMe-Nva_Ph

>  <FULL_NAME>  (2321) 
(2S)-2-(methylamino)-5-phenylpentanoic acid

>  <IUPAC_CONDENSED>  (2321) 
Me-Nva(Ph)

>  <IUPAC>  (2321) 
(2S)-2-(methylamino)-5-phenylpentanoic acid

>  <TYPE>  (2321) 
Backbone

>  <CLASS>  (2321) 
alpha

>  <ANALOG>  (2321) 
X

>  <MOL_WT>  (2321) 
207.273

>  <LOGP>  (2321) 
1.6819

>  <TPSA>  (2321) 
49.33

>  <POPULARITY>  (2321) 
2.2

>  <PROTECTED>  (2321) 
TRUE

>  <SMILES>  (2321) 
N(C)[C@@H](CCCc1(ccccc1))C(=O)O

>  <INCHIKEY>  (2321) 
IZLYWPVUSBKHRR-NSHDSACASA-N

$$$$
NMe-Nva_vinyl
     RDKit          2D

 11 10  0  0  0  0  0  0  0  0999 V2000
   -2.5061    1.4639    0.0000 N   0  0  0  0  0  0  0  0  0  0  0  0
   -3.9125    0.9425    0.0000 C   0  0  0  0  0  0  0  0  0  0  0  0
   -1.3513    0.5066    0.0000 C   0  0  0  0  0  0  0  0  0  0  0  0
    0.0552    1.0280    0.0000 C   0  0  0  0  0  0  0  0  0  0  0  0
    1.2100    0.0707    0.0000 C   0  0  0  0  0  0  0  0  0  0  0  0
    2.6164    0.5921    0.0000 C   0  0  0  0  0  0  0  0  0  0  0  0
    3.7712   -0.3652    0.0000 C   0  0  0  0  0  0  0  0  0  0  0  0
    5.1777    0.1562    0.0000 C   0  0  0  0  0  0  0  0  0  0  0  0
   -1.6030   -0.9721    0.0000 C   0  0  0  0  0  0  0  0  0  0  0  0
   -3.0094   -1.4935    0.0000 O   0  0  0  0  0  0  0  0  0  0  0  0
   -0.4482   -1.9294    0.0000 O   0  0  0  0  0  0  0  0  0  0  0  0
  1  2  1  0
  1  3  1  0
  3  4  1  1
  4  5  1  0
  5  6  1  0
  6  7  1  0
  7  8  2  0
  3  9  1  0
  9 10  2  0
  9 11  1  0
M  END
>  <rName>  (2322) 
NMe-Nva_vinyl

>  <PQ_SYMBOL>  (2322) 
NMe-Nva_vinyl

>  <FULL_NAME>  (2322) 
(2S)-2-(methylamino)hept-6-enoic acid

>  <IUPAC_CONDENSED>  (2322) 
Me-Nva(vinyl)

>  <IUPAC>  (2322) 
(2S)-2-(methylamino)hept-6-enoic acid

>  <TYPE>  (2322) 
Backbone

>  <CLASS>  (2322) 
alpha

>  <ANALOG>  (2322) 
Leu

>  <MOL_WT>  (2322) 
157.213

>  <LOGP>  (2322) 
1.0153

>  <TPSA>  (2322) 
49.33

>  <POPULARITY>  (2322) 
2.2

>  <PROTECTED>  (2322) 
TRUE

>  <SMILES>  (2322) 
N(C)[C@@H](CCCC=C)C(=O)O

>  <INCHIKEY>  (2322) 
XGFKGICSKLWQFP-ZETCQYMHSA-N

$$$$
NMe-Orn
     RDKit          2D

 10  9  0  0  0  0  0  0  0  0999 V2000
   -2.0182    1.4385    0.0000 N   0  0  0  0  0  0  0  0  0  0  0  0
   -3.4137    0.8883    0.0000 C   0  0  0  0  0  0  0  0  0  0  0  0
   -0.8441    0.5050    0.0000 C   0  0  0  0  0  0  0  0  0  0  0  0
    0.5514    1.0552    0.0000 C   0  0  0  0  0  0  0  0  0  0  0  0
    1.7256    0.1218    0.0000 C   0  0  0  0  0  0  0  0  0  0  0  0
    3.1211    0.6719    0.0000 C   0  0  0  0  0  0  0  0  0  0  0  0
    4.2952   -0.2615    0.0000 N   0  0  0  0  0  0  0  0  0  0  0  0
   -1.0653   -0.9785    0.0000 C   0  0  0  0  0  0  0  0  0  0  0  0
   -2.4608   -1.5287    0.0000 O   0  0  0  0  0  0  0  0  0  0  0  0
    0.1088   -1.9120    0.0000 O   0  0  0  0  0  0  0  0  0  0  0  0
  1  2  1  0
  1  3  1  0
  3  4  1  1
  4  5  1  0
  5  6  1  0
  6  7  1  0
  3  8  1  0
  8  9  2  0
  8 10  1  0
M  END
>  <rName>  (2323) 
NMe-Orn

>  <PQ_SYMBOL>  (2323) 
NMe-Orn

>  <FULL_NAME>  (2323) 
(S)-5-amino-2-(methylamino)pentanoic acid

>  <IUPAC_CONDENSED>  (2323) 
Me-Orn

>  <IUPAC>  (2323) 
(2S)-5-amino-2-(methylamino)pentanoic acid

>  <TYPE>  (2323) 
Backbone

>  <CLASS>  (2323) 
alpha

>  <ANALOG>  (2323) 
Lys

>  <MOL_WT>  (2323) 
146.19000000000003

>  <LOGP>  (2323) 
-0.6020999999999996

>  <TPSA>  (2323) 
75.35

>  <POPULARITY>  (2323) 
16.8

>  <PROTECTED>  (2323) 
TRUE

>  <SMILES>  (2323) 
N(C)[C@@H](CCCN)C(=O)O

>  <INCHIKEY>  (2323) 
OZRWQPFBXDVLAH-YFKPBYRVSA-N

$$$$
NMe-P
     RDKit          2D

  9  9  0  0  0  0  0  0  0  0999 V2000
   -2.2485   -0.2821    0.0000 C   0  0  0  0  0  0  0  0  0  0  0  0
   -0.8624   -0.8555    0.0000 N   0  0  0  0  0  0  0  0  0  0  0  0
   -0.5115   -2.3139    0.0000 C   0  0  0  0  0  0  0  0  0  0  0  0
    0.1113    0.2855    0.0000 C   0  0  0  0  0  0  0  0  0  0  0  0
   -0.6730    1.5641    0.0000 C   0  0  0  0  0  0  0  0  0  0  0  0
   -2.1314    1.2133    0.0000 C   0  0  0  0  0  0  0  0  0  0  0  0
    1.6067    0.1685    0.0000 C   0  0  0  0  0  0  0  0  0  0  0  0
    2.4558    1.4051    0.0000 O   0  0  0  0  0  0  0  0  0  0  0  0
    2.2531   -1.1851    0.0000 O   0  0  0  0  0  0  0  0  0  0  0  0
  1  2  1  0
  2  3  1  0
  2  4  1  0
  4  5  1  0
  5  6  1  0
  4  7  1  1
  7  8  2  0
  7  9  1  0
  6  1  1  0
M  END
>  <rName>  (2324) 
NMe-P

>  <PQ_SYMBOL>  (2324) 
NMe-P

>  <FULL_NAME>  (2324) 
methyl Proline

>  <IUPAC_CONDENSED>  (2324) 
Me-Pro

>  <IUPAC>  (2324) 
(2S)-1-methylpyrrolidine-2-carboxylic acid

>  <TYPE>  (2324) 
N-term cap

>  <CLASS>  (2324) 
n_cap

>  <ANALOG>  (2324) 
X

>  <MOL_WT>  (2324) 
129.15900000000002

>  <LOGP>  (2324) 
0.16519999999999996

>  <TPSA>  (2324) 
40.540000000000006

>  <POPULARITY>  (2324) 
24.3

>  <PROTECTED>  (2324) 
TRUE

>  <SMILES>  (2324) 
C1N(C)[C@@H](CC1)C(=O)O

>  <INCHIKEY>  (2324) 
CWLQUGTUXBXTLF-YFKPBYRVSA-N

$$$$
NMe-Phe_2Cl
     RDKit          2D

 14 14  0  0  0  0  0  0  0  0999 V2000
   -1.4630    1.4634    0.0000 N   0  0  0  0  0  0  0  0  0  0  0  0
   -2.6966    2.3168    0.0000 C   0  0  0  0  0  0  0  0  0  0  0  0
   -1.5853   -0.0316    0.0000 C   0  0  0  0  0  0  0  0  0  0  0  0
   -0.3517   -0.8850    0.0000 C   0  0  0  0  0  0  0  0  0  0  0  0
    1.0042   -0.2434    0.0000 C   0  0  0  0  0  0  0  0  0  0  0  0
    1.1264    1.2516    0.0000 C   0  0  0  0  0  0  0  0  0  0  0  0
    2.4823    1.8933    0.0000 C   0  0  0  0  0  0  0  0  0  0  0  0
    3.7159    1.0399    0.0000 C   0  0  0  0  0  0  0  0  0  0  0  0
    3.5936   -0.4551    0.0000 C   0  0  0  0  0  0  0  0  0  0  0  0
    2.2378   -1.0967    0.0000 C   0  0  0  0  0  0  0  0  0  0  0  0
    2.1155   -2.5917    0.0000 Cl  0  0  0  0  0  0  0  0  0  0  0  0
   -2.9411   -0.6733    0.0000 C   0  0  0  0  0  0  0  0  0  0  0  0
   -3.0633   -2.1683    0.0000 O   0  0  0  0  0  0  0  0  0  0  0  0
   -4.1747    0.1801    0.0000 O   0  0  0  0  0  0  0  0  0  0  0  0
  1  2  1  0
  1  3  1  0
  3  4  1  1
  4  5  1  0
  5  6  2  0
  6  7  1  0
  7  8  2  0
  8  9  1  0
  9 10  2  0
 10 11  1  0
  3 12  1  0
 12 13  2  0
 12 14  1  0
 10  5  1  0
M  END
>  <rName>  (2325) 
NMe-Phe_2Cl

>  <PQ_SYMBOL>  (2325) 
NMe-Phe_2Cl

>  <FULL_NAME>  (2325) 
(2S)-3-(2-chlorophenyl)-2-(methylamino)propanoic acid

>  <IUPAC_CONDENSED>  (2325) 
Me-Phe(2-Cl)

>  <IUPAC>  (2325) 
(2S)-3-(2-chlorophenyl)-2-(methylamino)propanoic acid

>  <TYPE>  (2325) 
Backbone

>  <CLASS>  (2325) 
alpha

>  <ANALOG>  (2325) 
Phe

>  <MOL_WT>  (2325) 
213.66399999999996

>  <LOGP>  (2325) 
1.5551

>  <TPSA>  (2325) 
49.33

>  <POPULARITY>  (2325) 
2.2

>  <PROTECTED>  (2325) 
TRUE

>  <SMILES>  (2325) 
N(C)[C@@H](Cc1(ccccc1Cl))C(=O)O

>  <INCHIKEY>  (2325) 
OGBQEHLBBXTRER-VIFPVBQESA-N

$$$$
NMe-Phe_2F
     RDKit          2D

 14 14  0  0  0  0  0  0  0  0999 V2000
   -1.4630    1.4634    0.0000 N   0  0  0  0  0  0  0  0  0  0  0  0
   -2.6966    2.3168    0.0000 C   0  0  0  0  0  0  0  0  0  0  0  0
   -1.5853   -0.0316    0.0000 C   0  0  0  0  0  0  0  0  0  0  0  0
   -0.3517   -0.8850    0.0000 C   0  0  0  0  0  0  0  0  0  0  0  0
    1.0042   -0.2434    0.0000 C   0  0  0  0  0  0  0  0  0  0  0  0
    1.1264    1.2516    0.0000 C   0  0  0  0  0  0  0  0  0  0  0  0
    2.4823    1.8933    0.0000 C   0  0  0  0  0  0  0  0  0  0  0  0
    3.7159    1.0399    0.0000 C   0  0  0  0  0  0  0  0  0  0  0  0
    3.5936   -0.4551    0.0000 C   0  0  0  0  0  0  0  0  0  0  0  0
    2.2378   -1.0967    0.0000 C   0  0  0  0  0  0  0  0  0  0  0  0
    2.1155   -2.5917    0.0000 F   0  0  0  0  0  0  0  0  0  0  0  0
   -2.9411   -0.6733    0.0000 C   0  0  0  0  0  0  0  0  0  0  0  0
   -3.0633   -2.1683    0.0000 O   0  0  0  0  0  0  0  0  0  0  0  0
   -4.1747    0.1801    0.0000 O   0  0  0  0  0  0  0  0  0  0  0  0
  1  2  1  0
  1  3  1  0
  3  4  1  1
  4  5  1  0
  5  6  2  0
  6  7  1  0
  7  8  2  0
  8  9  1  0
  9 10  2  0
 10 11  1  0
  3 12  1  0
 12 13  2  0
 12 14  1  0
 10  5  1  0
M  END
>  <rName>  (2326) 
NMe-Phe_2F

>  <PQ_SYMBOL>  (2326) 
NMe-Phe_2F

>  <FULL_NAME>  (2326) 
(S)-3-(2-fluorophenyl)-2-(methylamino)propanoic acid

>  <IUPAC_CONDENSED>  (2326) 
Me-Phe(2-F)

>  <IUPAC>  (2326) 
(2S)-3-(2-fluorophenyl)-2-(methylamino)propanoic acid

>  <TYPE>  (2326) 
Backbone

>  <CLASS>  (2326) 
alpha

>  <ANALOG>  (2326) 
Phe

>  <MOL_WT>  (2326) 
197.20899999999995

>  <LOGP>  (2326) 
1.0407999999999997

>  <TPSA>  (2326) 
49.33

>  <POPULARITY>  (2326) 
8.0

>  <PROTECTED>  (2326) 
TRUE

>  <SMILES>  (2326) 
N(C)[C@@H](Cc1(ccccc1F))C(=O)O

>  <INCHIKEY>  (2326) 
CCDCDPCWLAPDAQ-VIFPVBQESA-N

$$$$
NMe-Phe_2Me
     RDKit          2D

 14 14  0  0  0  0  0  0  0  0999 V2000
   -1.4630    1.4634    0.0000 N   0  0  0  0  0  0  0  0  0  0  0  0
   -2.6966    2.3168    0.0000 C   0  0  0  0  0  0  0  0  0  0  0  0
   -1.5853   -0.0316    0.0000 C   0  0  0  0  0  0  0  0  0  0  0  0
   -0.3517   -0.8850    0.0000 C   0  0  0  0  0  0  0  0  0  0  0  0
    1.0042   -0.2434    0.0000 C   0  0  0  0  0  0  0  0  0  0  0  0
    1.1264    1.2516    0.0000 C   0  0  0  0  0  0  0  0  0  0  0  0
    2.4823    1.8933    0.0000 C   0  0  0  0  0  0  0  0  0  0  0  0
    3.7159    1.0399    0.0000 C   0  0  0  0  0  0  0  0  0  0  0  0
    3.5936   -0.4551    0.0000 C   0  0  0  0  0  0  0  0  0  0  0  0
    2.2378   -1.0967    0.0000 C   0  0  0  0  0  0  0  0  0  0  0  0
    2.1155   -2.5917    0.0000 C   0  0  0  0  0  0  0  0  0  0  0  0
   -2.9411   -0.6733    0.0000 C   0  0  0  0  0  0  0  0  0  0  0  0
   -3.0633   -2.1683    0.0000 O   0  0  0  0  0  0  0  0  0  0  0  0
   -4.1747    0.1801    0.0000 O   0  0  0  0  0  0  0  0  0  0  0  0
  1  2  1  0
  1  3  1  0
  3  4  1  1
  4  5  1  0
  5  6  2  0
  6  7  1  0
  7  8  2  0
  8  9  1  0
  9 10  2  0
 10 11  1  0
  3 12  1  0
 12 13  2  0
 12 14  1  0
 10  5  1  0
M  END
>  <rName>  (2327) 
NMe-Phe_2Me

>  <PQ_SYMBOL>  (2327) 
NMe-Phe_2Me

>  <FULL_NAME>  (2327) 
(2S)-2-(methylamino)-3-(2-methylphenyl)propanoic acid

>  <IUPAC_CONDENSED>  (2327) 
Me-Phe(2-Me)

>  <IUPAC>  (2327) 
(2S)-2-(methylamino)-3-(2-methylphenyl)propanoic acid

>  <TYPE>  (2327) 
Backbone

>  <CLASS>  (2327) 
alpha

>  <ANALOG>  (2327) 
Phe

>  <MOL_WT>  (2327) 
193.24599999999995

>  <LOGP>  (2327) 
1.2101199999999999

>  <TPSA>  (2327) 
49.33

>  <POPULARITY>  (2327) 
2.2

>  <PROTECTED>  (2327) 
TRUE

>  <SMILES>  (2327) 
N(C)[C@@H](Cc1(ccccc1C))C(=O)O

>  <INCHIKEY>  (2327) 
KIILGSSBMSKBPU-JTQLQIEISA-N

$$$$
NMe-Phe_3CN
     RDKit          2D

 15 15  0  0  0  0  0  0  0  0999 V2000
   -2.2084    1.2778    0.0000 N   0  0  0  0  0  0  0  0  0  0  0  0
   -3.5315    1.9845    0.0000 C   0  0  0  0  0  0  0  0  0  0  0  0
   -2.1589   -0.2214    0.0000 C   0  0  0  0  0  0  0  0  0  0  0  0
   -0.8359   -0.9281    0.0000 C   0  0  0  0  0  0  0  0  0  0  0  0
    0.4377   -0.1356    0.0000 C   0  0  0  0  0  0  0  0  0  0  0  0
    0.3882    1.3636    0.0000 C   0  0  0  0  0  0  0  0  0  0  0  0
    1.6618    2.1560    0.0000 C   0  0  0  0  0  0  0  0  0  0  0  0
    2.9849    1.4493    0.0000 C   0  0  0  0  0  0  0  0  0  0  0  0
    3.0344   -0.0499    0.0000 C   0  0  0  0  0  0  0  0  0  0  0  0
    4.3575   -0.7566    0.0000 C   0  0  0  0  0  0  0  0  0  0  0  0
    5.6805   -1.4633    0.0000 N   0  0  0  0  0  0  0  0  0  0  0  0
    1.7608   -0.8424    0.0000 C   0  0  0  0  0  0  0  0  0  0  0  0
   -3.4325   -1.0138    0.0000 C   0  0  0  0  0  0  0  0  0  0  0  0
   -3.3830   -2.5130    0.0000 O   0  0  0  0  0  0  0  0  0  0  0  0
   -4.7556   -0.3071    0.0000 O   0  0  0  0  0  0  0  0  0  0  0  0
  1  2  1  0
  1  3  1  0
  3  4  1  1
  4  5  1  0
  5  6  2  0
  6  7  1  0
  7  8  2  0
  8  9  1  0
  9 10  1  0
 10 11  3  0
  9 12  2  0
  3 13  1  0
 13 14  2  0
 13 15  1  0
 12  5  1  0
M  END
>  <rName>  (2328) 
NMe-Phe_3CN

>  <PQ_SYMBOL>  (2328) 
NMe-Phe_3CN

>  <FULL_NAME>  (2328) 
(2S)-3-(3-cyanophenyl)-2-(methylamino)propanoic acid

>  <IUPAC_CONDENSED>  (2328) 
Me-Phe(3-CN)

>  <IUPAC>  (2328) 
(2S)-3-(3-cyanophenyl)-2-(methylamino)propanoic acid

>  <TYPE>  (2328) 
Backbone

>  <CLASS>  (2328) 
alpha

>  <ANALOG>  (2328) 
Phe

>  <MOL_WT>  (2328) 
204.22899999999998

>  <LOGP>  (2328) 
0.7733799999999997

>  <TPSA>  (2328) 
73.12

>  <POPULARITY>  (2328) 
2.2

>  <PROTECTED>  (2328) 
TRUE

>  <SMILES>  (2328) 
N(C)[C@@H](Cc1(cccc(C#N)c1))C(=O)O

>  <INCHIKEY>  (2328) 
UNBNIARJPWKOMR-JTQLQIEISA-N

$$$$
NMe-Phe_3Cl
     RDKit          2D

 14 14  0  0  0  0  0  0  0  0999 V2000
   -1.6735    1.3512    0.0000 N   0  0  0  0  0  0  0  0  0  0  0  0
   -2.9175    2.1893    0.0000 C   0  0  0  0  0  0  0  0  0  0  0  0
   -1.7773   -0.1452    0.0000 C   0  0  0  0  0  0  0  0  0  0  0  0
   -0.5333   -0.9833    0.0000 C   0  0  0  0  0  0  0  0  0  0  0  0
    0.8146   -0.3250    0.0000 C   0  0  0  0  0  0  0  0  0  0  0  0
    0.9184    1.1714    0.0000 C   0  0  0  0  0  0  0  0  0  0  0  0
    2.2662    1.8297    0.0000 C   0  0  0  0  0  0  0  0  0  0  0  0
    3.5102    0.9916    0.0000 C   0  0  0  0  0  0  0  0  0  0  0  0
    3.4064   -0.5048    0.0000 C   0  0  0  0  0  0  0  0  0  0  0  0
    4.6504   -1.3429    0.0000 Cl  0  0  0  0  0  0  0  0  0  0  0  0
    2.0586   -1.1631    0.0000 C   0  0  0  0  0  0  0  0  0  0  0  0
   -3.1251   -0.8035    0.0000 C   0  0  0  0  0  0  0  0  0  0  0  0
   -3.2289   -2.2999    0.0000 O   0  0  0  0  0  0  0  0  0  0  0  0
   -4.3691    0.0346    0.0000 O   0  0  0  0  0  0  0  0  0  0  0  0
  1  2  1  0
  1  3  1  0
  3  4  1  1
  4  5  1  0
  5  6  2  0
  6  7  1  0
  7  8  2  0
  8  9  1  0
  9 10  1  0
  9 11  2  0
  3 12  1  0
 12 13  2  0
 12 14  1  0
 11  5  1  0
M  END
>  <rName>  (2329) 
NMe-Phe_3Cl

>  <PQ_SYMBOL>  (2329) 
NMe-Phe_3Cl

>  <FULL_NAME>  (2329) 
N-methyl-3-chloro-L-phenylalanine

>  <IUPAC_CONDENSED>  (2329) 
Me-Phe(3-Cl)

>  <IUPAC>  (2329) 
(2S)-3-(3-chlorophenyl)-2-(methylamino)propanoic acid

>  <TYPE>  (2329) 
Backbone

>  <CLASS>  (2329) 
alpha

>  <ANALOG>  (2329) 
Phe

>  <MOL_WT>  (2329) 
213.664

>  <LOGP>  (2329) 
1.5551

>  <TPSA>  (2329) 
49.33

>  <POPULARITY>  (2329) 
8.6

>  <PROTECTED>  (2329) 
TRUE

>  <SMILES>  (2329) 
N(C)[C@@H](Cc1(cccc(Cl)c1))C(=O)O

>  <INCHIKEY>  (2329) 
VLSSHNVJWTYJAV-VIFPVBQESA-N

$$$$
NMe-Phe_3F
     RDKit          2D

 14 14  0  0  0  0  0  0  0  0999 V2000
   -1.6735    1.3512    0.0000 N   0  0  0  0  0  0  0  0  0  0  0  0
   -2.9175    2.1893    0.0000 C   0  0  0  0  0  0  0  0  0  0  0  0
   -1.7773   -0.1452    0.0000 C   0  0  0  0  0  0  0  0  0  0  0  0
   -0.5333   -0.9833    0.0000 C   0  0  0  0  0  0  0  0  0  0  0  0
    0.8146   -0.3250    0.0000 C   0  0  0  0  0  0  0  0  0  0  0  0
    0.9184    1.1714    0.0000 C   0  0  0  0  0  0  0  0  0  0  0  0
    2.2662    1.8297    0.0000 C   0  0  0  0  0  0  0  0  0  0  0  0
    3.5102    0.9916    0.0000 C   0  0  0  0  0  0  0  0  0  0  0  0
    3.4064   -0.5048    0.0000 C   0  0  0  0  0  0  0  0  0  0  0  0
    4.6504   -1.3429    0.0000 F   0  0  0  0  0  0  0  0  0  0  0  0
    2.0586   -1.1631    0.0000 C   0  0  0  0  0  0  0  0  0  0  0  0
   -3.1251   -0.8035    0.0000 C   0  0  0  0  0  0  0  0  0  0  0  0
   -3.2289   -2.2999    0.0000 O   0  0  0  0  0  0  0  0  0  0  0  0
   -4.3691    0.0346    0.0000 O   0  0  0  0  0  0  0  0  0  0  0  0
  1  2  1  0
  1  3  1  0
  3  4  1  1
  4  5  1  0
  5  6  2  0
  6  7  1  0
  7  8  2  0
  8  9  1  0
  9 10  1  0
  9 11  2  0
  3 12  1  0
 12 13  2  0
 12 14  1  0
 11  5  1  0
M  END
>  <rName>  (2330) 
NMe-Phe_3F

>  <PQ_SYMBOL>  (2330) 
NMe-Phe_3F

>  <FULL_NAME>  (2330) 
(2S)-3-(3-fluorophenyl)-2-(methylamino)propanoic acid

>  <IUPAC_CONDENSED>  (2330) 
Me-Phe(3-F)

>  <IUPAC>  (2330) 
(2S)-3-(3-fluorophenyl)-2-(methylamino)propanoic acid

>  <TYPE>  (2330) 
Backbone

>  <CLASS>  (2330) 
alpha

>  <ANALOG>  (2330) 
Phe

>  <MOL_WT>  (2330) 
197.20899999999997

>  <LOGP>  (2330) 
1.0407999999999997

>  <TPSA>  (2330) 
49.33

>  <POPULARITY>  (2330) 
8.7

>  <PROTECTED>  (2330) 
TRUE

>  <SMILES>  (2330) 
N(C)[C@@H](Cc1(cccc(F)c1))C(=O)O

>  <INCHIKEY>  (2330) 
ZRMVYUADMZBKGO-VIFPVBQESA-N

$$$$
NMe-Phe_3Me
     RDKit          2D

 14 14  0  0  0  0  0  0  0  0999 V2000
   -1.6735    1.3512    0.0000 N   0  0  0  0  0  0  0  0  0  0  0  0
   -2.9175    2.1893    0.0000 C   0  0  0  0  0  0  0  0  0  0  0  0
   -1.7773   -0.1452    0.0000 C   0  0  0  0  0  0  0  0  0  0  0  0
   -0.5333   -0.9833    0.0000 C   0  0  0  0  0  0  0  0  0  0  0  0
    0.8146   -0.3250    0.0000 C   0  0  0  0  0  0  0  0  0  0  0  0
    0.9184    1.1714    0.0000 C   0  0  0  0  0  0  0  0  0  0  0  0
    2.2662    1.8297    0.0000 C   0  0  0  0  0  0  0  0  0  0  0  0
    3.5102    0.9916    0.0000 C   0  0  0  0  0  0  0  0  0  0  0  0
    3.4064   -0.5048    0.0000 C   0  0  0  0  0  0  0  0  0  0  0  0
    4.6504   -1.3429    0.0000 C   0  0  0  0  0  0  0  0  0  0  0  0
    2.0586   -1.1631    0.0000 C   0  0  0  0  0  0  0  0  0  0  0  0
   -3.1251   -0.8035    0.0000 C   0  0  0  0  0  0  0  0  0  0  0  0
   -3.2289   -2.2999    0.0000 O   0  0  0  0  0  0  0  0  0  0  0  0
   -4.3691    0.0346    0.0000 O   0  0  0  0  0  0  0  0  0  0  0  0
  1  2  1  0
  1  3  1  0
  3  4  1  1
  4  5  1  0
  5  6  2  0
  6  7  1  0
  7  8  2  0
  8  9  1  0
  9 10  1  0
  9 11  2  0
  3 12  1  0
 12 13  2  0
 12 14  1  0
 11  5  1  0
M  END
>  <rName>  (2331) 
NMe-Phe_3Me

>  <PQ_SYMBOL>  (2331) 
NMe-Phe_3Me

>  <FULL_NAME>  (2331) 
(2S)-2-(methylamino)-3-(3-methylphenyl)propanoic acid

>  <IUPAC_CONDENSED>  (2331) 
Me-Phe(3-Me)

>  <IUPAC>  (2331) 
(2S)-2-(methylamino)-3-(3-methylphenyl)propanoic acid

>  <TYPE>  (2331) 
Backbone

>  <CLASS>  (2331) 
alpha

>  <ANALOG>  (2331) 
Phe

>  <MOL_WT>  (2331) 
193.24599999999998

>  <LOGP>  (2331) 
1.2101199999999999

>  <TPSA>  (2331) 
49.33

>  <POPULARITY>  (2331) 
2.2

>  <PROTECTED>  (2331) 
TRUE

>  <SMILES>  (2331) 
N(C)[C@@H](Cc1(cccc(C)c1))C(=O)O

>  <INCHIKEY>  (2331) 
ZINOHKQRAMKHLD-JTQLQIEISA-N

$$$$
NMe-Phe_3OMe
     RDKit          2D

 15 15  0  0  0  0  0  0  0  0999 V2000
   -2.1453    1.2953    0.0000 N   0  0  0  0  0  0  0  0  0  0  0  0
   -3.4799    1.9800    0.0000 C   0  0  0  0  0  0  0  0  0  0  0  0
   -2.0710   -0.2029    0.0000 C   0  0  0  0  0  0  0  0  0  0  0  0
   -0.7363   -0.8876    0.0000 C   0  0  0  0  0  0  0  0  0  0  0  0
    0.5239   -0.0741    0.0000 C   0  0  0  0  0  0  0  0  0  0  0  0
    0.4496    1.4240    0.0000 C   0  0  0  0  0  0  0  0  0  0  0  0
    1.7099    2.2375    0.0000 C   0  0  0  0  0  0  0  0  0  0  0  0
    3.0445    1.5528    0.0000 C   0  0  0  0  0  0  0  0  0  0  0  0
    3.1188    0.0546    0.0000 C   0  0  0  0  0  0  0  0  0  0  0  0
    4.4534   -0.6301    0.0000 O   0  0  0  0  0  0  0  0  0  0  0  0
    4.5278   -2.1282    0.0000 C   0  0  0  0  0  0  0  0  0  0  0  0
    1.8585   -0.7588    0.0000 C   0  0  0  0  0  0  0  0  0  0  0  0
   -3.3312   -1.0163    0.0000 C   0  0  0  0  0  0  0  0  0  0  0  0
   -3.2569   -2.5145    0.0000 O   0  0  0  0  0  0  0  0  0  0  0  0
   -4.6658   -0.3316    0.0000 O   0  0  0  0  0  0  0  0  0  0  0  0
  1  2  1  0
  1  3  1  0
  3  4  1  1
  4  5  1  0
  5  6  1  0
  6  7  2  0
  7  8  1  0
  8  9  2  0
  9 10  1  0
 10 11  1  0
  9 12  1  0
  3 13  1  0
 13 14  2  0
 13 15  1  0
 12  5  2  0
M  END
>  <rName>  (2332) 
NMe-Phe_3OMe

>  <PQ_SYMBOL>  (2332) 
NMe-Phe_3OMe

>  <FULL_NAME>  (2332) 
(S)-3-(3-methoxyphenyl)-2-(methylamino)propanoic acid

>  <IUPAC_CONDENSED>  (2332) 
Me-Phe(3-OMe)

>  <IUPAC>  (2332) 
(2S)-3-(3-methoxyphenyl)-2-(methylamino)propanoic acid

>  <TYPE>  (2332) 
Backbone

>  <CLASS>  (2332) 
alpha

>  <ANALOG>  (2332) 
Tyr

>  <MOL_WT>  (2332) 
209.24499999999998

>  <LOGP>  (2332) 
0.9102999999999997

>  <TPSA>  (2332) 
58.56

>  <POPULARITY>  (2332) 
10.8

>  <PROTECTED>  (2332) 
TRUE

>  <SMILES>  (2332) 
N(C)[C@@H](Cc1(cccc(OC)c1))C(=O)O

>  <INCHIKEY>  (2332) 
RNUIQGOLKGPNOE-JTQLQIEISA-N

$$$$
NMe-Phe_4CF3
     RDKit          2D

 17 17  0  0  0  0  0  0  0  0999 V2000
   -2.3794    1.3890    0.0000 N   0  0  0  0  0  0  0  0  0  0  0  0
   -3.4142    2.4749    0.0000 C   0  0  0  0  0  0  0  0  0  0  0  0
   -2.8023   -0.0501    0.0000 C   0  0  0  0  0  0  0  0  0  0  0  0
   -1.7675   -1.1360    0.0000 C   0  0  0  0  0  0  0  0  0  0  0  0
   -0.3097   -0.7827    0.0000 C   0  0  0  0  0  0  0  0  0  0  0  0
    0.1133    0.6565    0.0000 C   0  0  0  0  0  0  0  0  0  0  0  0
    1.5711    1.0098    0.0000 C   0  0  0  0  0  0  0  0  0  0  0  0
    2.6059   -0.0761    0.0000 C   0  0  0  0  0  0  0  0  0  0  0  0
    2.1830   -1.5152    0.0000 C   0  0  0  0  0  0  0  0  0  0  0  0
    0.7252   -1.8685    0.0000 C   0  0  0  0  0  0  0  0  0  0  0  0
    4.0637    0.2772    0.0000 C   0  0  0  0  0  0  0  0  0  0  0  0
    5.5215    0.6305    0.0000 F   0  0  0  0  0  0  0  0  0  0  0  0
    4.4170   -1.1806    0.0000 F   0  0  0  0  0  0  0  0  0  0  0  0
    3.7104    1.7350    0.0000 F   0  0  0  0  0  0  0  0  0  0  0  0
   -4.2601   -0.4034    0.0000 C   0  0  0  0  0  0  0  0  0  0  0  0
   -4.6831   -1.8426    0.0000 O   0  0  0  0  0  0  0  0  0  0  0  0
   -5.2950    0.6824    0.0000 O   0  0  0  0  0  0  0  0  0  0  0  0
  1  2  1  0
  1  3  1  0
  3  4  1  1
  4  5  1  0
  5  6  1  0
  6  7  2  0
  7  8  1  0
  8  9  2  0
  9 10  1  0
  8 11  1  0
 11 12  1  0
 11 13  1  0
 11 14  1  0
  3 15  1  0
 15 16  2  0
 15 17  1  0
 10  5  2  0
M  END
>  <rName>  (2333) 
NMe-Phe_4CF3

>  <PQ_SYMBOL>  (2333) 
NMe-Phe_4CF3

>  <FULL_NAME>  (2333) 
(2S)-2-(methylamino)-3-[4-(trifluoromethyl)phenyl]propanoic acid

>  <IUPAC_CONDENSED>  (2333) 
Me-Phe(4-CF3)

>  <IUPAC>  (2333) 
(2S)-2-(methylamino)-3-[4-(trifluoromethyl)phenyl]propanoic acid

>  <TYPE>  (2333) 
Backbone

>  <CLASS>  (2333) 
alpha

>  <ANALOG>  (2333) 
Phe

>  <MOL_WT>  (2333) 
247.21599999999995

>  <LOGP>  (2333) 
1.9204999999999999

>  <TPSA>  (2333) 
49.33

>  <POPULARITY>  (2333) 
2.2

>  <PROTECTED>  (2333) 
TRUE

>  <SMILES>  (2333) 
N(C)[C@@H](Cc1(ccc(cc1)C(F)(F)F))C(=O)O

>  <INCHIKEY>  (2333) 
DJJBPTFIATXPMH-VIFPVBQESA-N

$$$$
NMe-Phe_4CH2N3
     RDKit          2D

 17 17  0  0  0  0  0  0  0  0999 V2000
   -2.8061    1.4024    0.0000 N   0  0  0  0  0  0  0  0  0  0  0  0
   -3.8933    2.4358    0.0000 C   0  0  0  0  0  0  0  0  0  0  0  0
   -3.1575   -0.0559    0.0000 C   0  0  0  0  0  0  0  0  0  0  0  0
   -2.0704   -1.0894    0.0000 C   0  0  0  0  0  0  0  0  0  0  0  0
   -0.6318   -0.6646    0.0000 C   0  0  0  0  0  0  0  0  0  0  0  0
   -0.2803    0.7937    0.0000 C   0  0  0  0  0  0  0  0  0  0  0  0
    1.1583    1.2184    0.0000 C   0  0  0  0  0  0  0  0  0  0  0  0
    2.2454    0.1849    0.0000 C   0  0  0  0  0  0  0  0  0  0  0  0
    1.8940   -1.2733    0.0000 C   0  0  0  0  0  0  0  0  0  0  0  0
    0.4554   -1.6981    0.0000 C   0  0  0  0  0  0  0  0  0  0  0  0
    3.6840    0.6097    0.0000 C   0  0  0  0  0  0  0  0  0  0  0  0
    4.7712   -0.4238    0.0000 N   0  0  0  0  0  0  0  0  0  0  0  0
    6.2098    0.0010    0.0000 N   0  0  0  0  0  0  0  0  0  0  0  0
    7.6484    0.4258    0.0000 N   0  0  0  0  0  0  0  0  0  0  0  0
   -4.5961   -0.4807    0.0000 C   0  0  0  0  0  0  0  0  0  0  0  0
   -4.9476   -1.9389    0.0000 O   0  0  0  0  0  0  0  0  0  0  0  0
   -5.6833    0.5528    0.0000 O   0  0  0  0  0  0  0  0  0  0  0  0
  1  2  1  0
  1  3  1  0
  3  4  1  1
  4  5  1  0
  5  6  1  0
  6  7  2  0
  7  8  1  0
  8  9  2  0
  9 10  1  0
  8 11  1  0
 11 12  1  0
 12 13  2  0
 13 14  2  0
  3 15  1  0
 15 16  2  0
 15 17  1  0
 10  5  2  0
M  CHG  2  13   1  14  -1
M  END
>  <rName>  (2334) 
NMe-Phe_4CH2N3

>  <PQ_SYMBOL>  (2334) 
NMe-Phe_4CH2N3

>  <FULL_NAME>  (2334) 
Me-Phe(4-CH2N3)

>  <IUPAC_CONDENSED>  (2334) 
Me-Phe(4-CH2N3)

>  <IUPAC>  (2334) 
(2S)-3-(4-(azidomethyl)phenyl)-2-(methylamino)propanoic acid

>  <TYPE>  (2334) 
Backbone

>  <CLASS>  (2334) 
alpha

>  <ANALOG>  (2334) 
Phe

>  <MOL_WT>  (2334) 
234.259

>  <LOGP>  (2334) 
1.712

>  <TPSA>  (2334) 
98.09000000000002

>  <POPULARITY>  (2334) 
2.2

>  <PROTECTED>  (2334) 
TRUE

>  <SMILES>  (2334) 
N(C)[C@@H](Cc1(ccc(cc1)CN=[N+]=[N-]))C(=O)O

>  <INCHIKEY>  (2334) 
IUPHJSHNSAWXQR-JTQLQIEISA-N

$$$$
NMe-Phe_4F
     RDKit          2D

 14 14  0  0  0  0  0  0  0  0999 V2000
   -1.4939    1.3829    0.0000 N   0  0  0  0  0  0  0  0  0  0  0  0
   -2.5947    2.4018    0.0000 C   0  0  0  0  0  0  0  0  0  0  0  0
   -1.8260   -0.0799    0.0000 C   0  0  0  0  0  0  0  0  0  0  0  0
   -0.7252   -1.0989    0.0000 C   0  0  0  0  0  0  0  0  0  0  0  0
    0.7076   -0.6550    0.0000 C   0  0  0  0  0  0  0  0  0  0  0  0
    1.0397    0.8077    0.0000 C   0  0  0  0  0  0  0  0  0  0  0  0
    2.4725    1.2516    0.0000 C   0  0  0  0  0  0  0  0  0  0  0  0
    3.5733    0.2326    0.0000 C   0  0  0  0  0  0  0  0  0  0  0  0
    5.0062    0.6765    0.0000 F   0  0  0  0  0  0  0  0  0  0  0  0
    3.2413   -1.2302    0.0000 C   0  0  0  0  0  0  0  0  0  0  0  0
    1.8084   -1.6740    0.0000 C   0  0  0  0  0  0  0  0  0  0  0  0
   -3.2588   -0.5237    0.0000 C   0  0  0  0  0  0  0  0  0  0  0  0
   -3.5909   -1.9865    0.0000 O   0  0  0  0  0  0  0  0  0  0  0  0
   -4.3596    0.4952    0.0000 O   0  0  0  0  0  0  0  0  0  0  0  0
  1  2  1  0
  1  3  1  0
  3  4  1  1
  4  5  1  0
  5  6  1  0
  6  7  2  0
  7  8  1  0
  8  9  1  0
  8 10  2  0
 10 11  1  0
  3 12  1  0
 12 13  2  0
 12 14  1  0
 11  5  2  0
M  END
>  <rName>  (2335) 
NMe-Phe_4F

>  <PQ_SYMBOL>  (2335) 
NMe-Phe_4F

>  <FULL_NAME>  (2335) 
(2S)-3-(4-fluorophenyl)-2-(methylamino)propanoic acid

>  <IUPAC_CONDENSED>  (2335) 
Me-Phe(4-F)

>  <IUPAC>  (2335) 
(2S)-3-(4-fluorophenyl)-2-(methylamino)propanoic acid

>  <TYPE>  (2335) 
Backbone

>  <CLASS>  (2335) 
alpha

>  <ANALOG>  (2335) 
Phe

>  <MOL_WT>  (2335) 
197.209

>  <LOGP>  (2335) 
1.0407999999999997

>  <TPSA>  (2335) 
49.33

>  <POPULARITY>  (2335) 
2.2

>  <PROTECTED>  (2335) 
TRUE

>  <SMILES>  (2335) 
N(C)[C@@H](Cc1(ccc(F)cc1))C(=O)O

>  <INCHIKEY>  (2335) 
RQAMVTQIJKZDAC-VIFPVBQESA-N

$$$$
NMe-Phe_4Me
     RDKit          2D

 14 14  0  0  0  0  0  0  0  0999 V2000
   -1.4939    1.3829    0.0000 N   0  0  0  0  0  0  0  0  0  0  0  0
   -2.5947    2.4018    0.0000 C   0  0  0  0  0  0  0  0  0  0  0  0
   -1.8260   -0.0799    0.0000 C   0  0  0  0  0  0  0  0  0  0  0  0
   -0.7252   -1.0989    0.0000 C   0  0  0  0  0  0  0  0  0  0  0  0
    0.7076   -0.6550    0.0000 C   0  0  0  0  0  0  0  0  0  0  0  0
    1.0397    0.8077    0.0000 C   0  0  0  0  0  0  0  0  0  0  0  0
    2.4725    1.2516    0.0000 C   0  0  0  0  0  0  0  0  0  0  0  0
    3.5733    0.2326    0.0000 C   0  0  0  0  0  0  0  0  0  0  0  0
    5.0062    0.6765    0.0000 C   0  0  0  0  0  0  0  0  0  0  0  0
    3.2413   -1.2302    0.0000 C   0  0  0  0  0  0  0  0  0  0  0  0
    1.8084   -1.6740    0.0000 C   0  0  0  0  0  0  0  0  0  0  0  0
   -3.2588   -0.5237    0.0000 C   0  0  0  0  0  0  0  0  0  0  0  0
   -3.5909   -1.9865    0.0000 O   0  0  0  0  0  0  0  0  0  0  0  0
   -4.3596    0.4952    0.0000 O   0  0  0  0  0  0  0  0  0  0  0  0
  1  2  1  0
  1  3  1  0
  3  4  1  1
  4  5  1  0
  5  6  1  0
  6  7  2  0
  7  8  1  0
  8  9  1  0
  8 10  2  0
 10 11  1  0
  3 12  1  0
 12 13  2  0
 12 14  1  0
 11  5  2  0
M  END
>  <rName>  (2336) 
NMe-Phe_4Me

>  <PQ_SYMBOL>  (2336) 
NMe-Phe_4Me

>  <FULL_NAME>  (2336) 
N-methyl-4-methyl-L-phenylalanine

>  <IUPAC_CONDENSED>  (2336) 
Me-Phe(4-Me)

>  <IUPAC>  (2336) 
(2S)-2-(methylamino)-3-(4-methylphenyl)propanoic acid

>  <TYPE>  (2336) 
Backbone

>  <CLASS>  (2336) 
alpha

>  <ANALOG>  (2336) 
Phe

>  <MOL_WT>  (2336) 
193.24599999999998

>  <LOGP>  (2336) 
1.2101199999999999

>  <TPSA>  (2336) 
49.33

>  <POPULARITY>  (2336) 
9.6

>  <PROTECTED>  (2336) 
TRUE

>  <SMILES>  (2336) 
N(C)[C@@H](Cc1(ccc(C)cc1))C(=O)O

>  <INCHIKEY>  (2336) 
ZKHYPFNFJGOGLY-JTQLQIEISA-N

$$$$
NMe-Phe_4Ph
     RDKit          2D

 19 20  0  0  0  0  0  0  0  0999 V2000
   -3.1223    1.4274    0.0000 N   0  0  0  0  0  0  0  0  0  0  0  0
   -4.1006    2.5645    0.0000 C   0  0  0  0  0  0  0  0  0  0  0  0
   -3.6178    0.0116    0.0000 C   0  0  0  0  0  0  0  0  0  0  0  0
   -2.6395   -1.1254    0.0000 C   0  0  0  0  0  0  0  0  0  0  0  0
   -1.1656   -0.8467    0.0000 C   0  0  0  0  0  0  0  0  0  0  0  0
   -0.6701    0.5691    0.0000 C   0  0  0  0  0  0  0  0  0  0  0  0
    0.8038    0.8478    0.0000 C   0  0  0  0  0  0  0  0  0  0  0  0
    1.7821   -0.2892    0.0000 C   0  0  0  0  0  0  0  0  0  0  0  0
    1.2866   -1.7050    0.0000 C   0  0  0  0  0  0  0  0  0  0  0  0
   -0.1873   -1.9837    0.0000 C   0  0  0  0  0  0  0  0  0  0  0  0
    3.2560   -0.0105    0.0000 C   0  0  0  0  0  0  0  0  0  0  0  0
    4.2344   -1.1475    0.0000 C   0  0  0  0  0  0  0  0  0  0  0  0
    5.7082   -0.8688    0.0000 C   0  0  0  0  0  0  0  0  0  0  0  0
    6.2038    0.5470    0.0000 C   0  0  0  0  0  0  0  0  0  0  0  0
    5.2254    1.6840    0.0000 C   0  0  0  0  0  0  0  0  0  0  0  0
    3.7516    1.4053    0.0000 C   0  0  0  0  0  0  0  0  0  0  0  0
   -5.0917   -0.2671    0.0000 C   0  0  0  0  0  0  0  0  0  0  0  0
   -5.5872   -1.6829    0.0000 O   0  0  0  0  0  0  0  0  0  0  0  0
   -6.0700    0.8700    0.0000 O   0  0  0  0  0  0  0  0  0  0  0  0
  1  2  1  0
  1  3  1  0
  3  4  1  1
  4  5  1  0
  5  6  1  0
  6  7  2  0
  7  8  1  0
  8  9  2  0
  9 10  1  0
  8 11  1  0
 11 12  2  0
 12 13  1  0
 13 14  2  0
 14 15  1  0
 15 16  2  0
  3 17  1  0
 17 18  2  0
 17 19  1  0
 10  5  2  0
 16 11  1  0
M  END
>  <rName>  (2337) 
NMe-Phe_4Ph

>  <PQ_SYMBOL>  (2337) 
NMe-Phe_4Ph

>  <FULL_NAME>  (2337) 
(S)-3-([1,1'-biphenyl]-4-yl)-2-(methylamino)propanoic acid

>  <IUPAC_CONDENSED>  (2337) 
Me-Phe(4-Ph)

>  <IUPAC>  (2337) 
(2S)-2-(methylamino)-3-(4-phenylphenyl)propanoic acid

>  <TYPE>  (2337) 
Backbone

>  <CLASS>  (2337) 
alpha

>  <ANALOG>  (2337) 
Phe

>  <MOL_WT>  (2337) 
255.317

>  <LOGP>  (2337) 
2.5686999999999998

>  <TPSA>  (2337) 
49.33

>  <POPULARITY>  (2337) 
10.6

>  <PROTECTED>  (2337) 
TRUE

>  <SMILES>  (2337) 
N(C)[C@@H](Cc1(ccc(cc1)c2(ccccc2)))C(=O)O

>  <INCHIKEY>  (2337) 
ZRCUZTGKMSPCBH-HNNXBMFYSA-N

$$$$
NMe-Phe_bRMe
     RDKit          2D

 14 14  0  0  0  0  0  0  0  0999 V2000
    1.1144    1.5776    0.0000 N   0  0  0  0  0  0  0  0  0  0  0  0
    2.2488    2.5591    0.0000 C   0  0  0  0  0  0  0  0  0  0  0  0
    1.3972    0.1045    0.0000 C   0  0  0  0  0  0  0  0  0  0  0  0
    0.2628   -0.8769    0.0000 C   0  0  0  0  0  0  0  0  0  0  0  0
    0.5456   -2.3500    0.0000 C   0  0  0  0  0  0  0  0  0  0  0  0
   -1.1543   -0.3852    0.0000 C   0  0  0  0  0  0  0  0  0  0  0  0
   -2.2887   -1.3667    0.0000 C   0  0  0  0  0  0  0  0  0  0  0  0
   -3.7058   -0.8750    0.0000 C   0  0  0  0  0  0  0  0  0  0  0  0
   -3.9886    0.5981    0.0000 C   0  0  0  0  0  0  0  0  0  0  0  0
   -2.8542    1.5796    0.0000 C   0  0  0  0  0  0  0  0  0  0  0  0
   -1.4371    1.0879    0.0000 C   0  0  0  0  0  0  0  0  0  0  0  0
    2.8143   -0.3871    0.0000 C   0  0  0  0  0  0  0  0  0  0  0  0
    3.0971   -1.8602    0.0000 O   0  0  0  0  0  0  0  0  0  0  0  0
    3.9487    0.5943    0.0000 O   0  0  0  0  0  0  0  0  0  0  0  0
  1  2  1  0
  3  1  1  6
  3  4  1  0
  4  5  1  6
  4  6  1  0
  6  7  2  0
  7  8  1  0
  8  9  2  0
  9 10  1  0
 10 11  2  0
  3 12  1  0
 12 13  2  0
 12 14  1  0
 11  6  1  0
M  END
>  <rName>  (2338) 
NMe-Phe_bRMe

>  <PQ_SYMBOL>  (2338) 
NMe-Phe_bRMe

>  <FULL_NAME>  (2338) 
(2S,3R)-2-(methylamino)-3-phenylbutanoic acid

>  <IUPAC_CONDENSED>  (2338) 
Me-Phe(bR-Me)

>  <IUPAC>  (2338) 
(2S,3R)-2-(methylamino)-3-phenylbutanoic acid

>  <TYPE>  (2338) 
Backbone

>  <CLASS>  (2338) 
alpha

>  <ANALOG>  (2338) 
Phe

>  <MOL_WT>  (2338) 
193.24599999999998

>  <LOGP>  (2338) 
1.4627

>  <TPSA>  (2338) 
49.33

>  <POPULARITY>  (2338) 
2.2

>  <PROTECTED>  (2338) 
TRUE

>  <SMILES>  (2338) 
N(C)[C@@H]([C@H](C)c1(ccccc1))C(=O)O

>  <INCHIKEY>  (2338) 
LKHVLAJOHKCAFY-SCZZXKLOSA-N

$$$$
NMe-Phg
     RDKit          2D

 12 12  0  0  0  0  0  0  0  0999 V2000
   -1.6493   -1.6245    0.0000 N   0  0  0  0  0  0  0  0  0  0  0  0
   -3.1463   -1.7206    0.0000 C   0  0  0  0  0  0  0  0  0  0  0  0
   -0.9841   -0.2801    0.0000 C   0  0  0  0  0  0  0  0  0  0  0  0
    0.5128   -0.1840    0.0000 C   0  0  0  0  0  0  0  0  0  0  0  0
    1.1781    1.1604    0.0000 C   0  0  0  0  0  0  0  0  0  0  0  0
    2.6750    1.2564    0.0000 C   0  0  0  0  0  0  0  0  0  0  0  0
    3.5067    0.0081    0.0000 C   0  0  0  0  0  0  0  0  0  0  0  0
    2.8414   -1.3363    0.0000 C   0  0  0  0  0  0  0  0  0  0  0  0
    1.3445   -1.4324    0.0000 C   0  0  0  0  0  0  0  0  0  0  0  0
   -1.8157    0.9682    0.0000 C   0  0  0  0  0  0  0  0  0  0  0  0
   -1.1505    2.3126    0.0000 O   0  0  0  0  0  0  0  0  0  0  0  0
   -3.3127    0.8721    0.0000 O   0  0  0  0  0  0  0  0  0  0  0  0
  1  2  1  0
  3  1  1  6
  3  4  1  0
  4  5  2  0
  5  6  1  0
  6  7  2  0
  7  8  1  0
  8  9  2  0
  3 10  1  0
 10 11  2  0
 10 12  1  0
  9  4  1  0
M  END
>  <rName>  (2339) 
NMe-Phg

>  <PQ_SYMBOL>  (2339) 
NMe-Phg

>  <FULL_NAME>  (2339) 
(S)-2-(Methylamino)-2-phenylacetic acid

>  <IUPAC_CONDENSED>  (2339) 
Me-Phg

>  <IUPAC>  (2339) 
(2S)-2-(methylamino)-2-phenylacetic acid

>  <TYPE>  (2339) 
Backbone

>  <CLASS>  (2339) 
alpha

>  <ANALOG>  (2339) 
X

>  <MOL_WT>  (2339) 
165.19199999999995

>  <LOGP>  (2339) 
1.0317

>  <TPSA>  (2339) 
49.33

>  <POPULARITY>  (2339) 
21.5

>  <PROTECTED>  (2339) 
TRUE

>  <SMILES>  (2339) 
N(C)[C@@H](c1(ccccc1))C(=O)O

>  <INCHIKEY>  (2339) 
HGIPIEYZJPULIQ-QMMMGPOBSA-N

$$$$
NMe-Q
     RDKit          2D

 11 10  0  0  0  0  0  0  0  0999 V2000
   -2.1418    1.5326    0.0000 N   0  0  0  0  0  0  0  0  0  0  0  0
   -3.5967    1.1676    0.0000 C   0  0  0  0  0  0  0  0  0  0  0  0
   -1.0983    0.4550    0.0000 C   0  0  0  0  0  0  0  0  0  0  0  0
    0.3567    0.8200    0.0000 C   0  0  0  0  0  0  0  0  0  0  0  0
    1.4002   -0.2575    0.0000 C   0  0  0  0  0  0  0  0  0  0  0  0
    2.8551    0.1074    0.0000 C   0  0  0  0  0  0  0  0  0  0  0  0
    3.2665    1.5499    0.0000 O   0  0  0  0  0  0  0  0  0  0  0  0
    3.8986   -0.9701    0.0000 N   0  0  0  0  0  0  0  0  0  0  0  0
   -1.5097   -0.9874    0.0000 C   0  0  0  0  0  0  0  0  0  0  0  0
   -2.9646   -1.3524    0.0000 O   0  0  0  0  0  0  0  0  0  0  0  0
   -0.4661   -2.0650    0.0000 O   0  0  0  0  0  0  0  0  0  0  0  0
  1  2  1  0
  1  3  1  0
  3  4  1  1
  4  5  1  0
  5  6  1  0
  6  7  2  0
  6  8  1  0
  3  9  1  0
  9 10  2  0
  9 11  1  0
M  END
>  <rName>  (2340) 
NMe-Q

>  <PQ_SYMBOL>  (2340) 
NMe-Q

>  <FULL_NAME>  (2340) 
N2-Methyl-L-Glutamine

>  <IUPAC_CONDENSED>  (2340) 
Me-Gln

>  <IUPAC>  (2340) 
(2S)-4-carbamoyl-2-(methylamino)butanoic acid

>  <TYPE>  (2340) 
Backbone

>  <CLASS>  (2340) 
alpha

>  <ANALOG>  (2340) 
Gln

>  <MOL_WT>  (2340) 
160.173

>  <LOGP>  (2340) 
-1.0754999999999995

>  <TPSA>  (2340) 
92.42

>  <POPULARITY>  (2340) 
23.1

>  <PROTECTED>  (2340) 
TRUE

>  <SMILES>  (2340) 
N(C)[C@@H](CCC(=O)N)C(=O)O

>  <INCHIKEY>  (2340) 
KSZFSNZOGAXEGH-BYPYZUCNSA-N

$$$$
NMe-R
     RDKit          2D

 13 12  0  0  0  0  0  0  0  0999 V2000
   -3.3767    1.4803    0.0000 N   0  0  0  0  0  0  0  0  0  0  0  0
   -4.7951    0.9924    0.0000 C   0  0  0  0  0  0  0  0  0  0  0  0
   -2.2449    0.4958    0.0000 C   0  0  0  0  0  0  0  0  0  0  0  0
   -0.8265    0.9838    0.0000 C   0  0  0  0  0  0  0  0  0  0  0  0
    0.3053   -0.0007    0.0000 C   0  0  0  0  0  0  0  0  0  0  0  0
    1.7237    0.4873    0.0000 C   0  0  0  0  0  0  0  0  0  0  0  0
    2.8555   -0.4972    0.0000 N   0  0  0  0  0  0  0  0  0  0  0  0
    4.2739   -0.0092    0.0000 C   0  0  0  0  0  0  0  0  0  0  0  0
    4.5606    1.4631    0.0000 N   0  0  0  0  0  0  0  0  0  0  0  0
    5.4057   -0.9937    0.0000 N   0  0  0  0  0  0  0  0  0  0  0  0
   -2.5316   -0.9765    0.0000 C   0  0  0  0  0  0  0  0  0  0  0  0
   -3.9500   -1.4644    0.0000 O   0  0  0  0  0  0  0  0  0  0  0  0
   -1.3998   -1.9609    0.0000 O   0  0  0  0  0  0  0  0  0  0  0  0
  1  2  1  0
  1  3  1  0
  3  4  1  1
  4  5  1  0
  5  6  1  0
  6  7  1  0
  7  8  1  0
  8  9  2  0
  8 10  1  0
  3 11  1  0
 11 12  2  0
 11 13  1  0
M  END
>  <rName>  (2341) 
NMe-R

>  <PQ_SYMBOL>  (2341) 
NMe-R

>  <FULL_NAME>  (2341) 
N2-Methyl-L-Arginine

>  <IUPAC_CONDENSED>  (2341) 
Me-Arg

>  <IUPAC>  (2341) 
(2S)-5-(((amino)(imino)methyl)amino)-2-(methylamino)pentanoic acid

>  <TYPE>  (2341) 
Backbone

>  <CLASS>  (2341) 
alpha

>  <ANALOG>  (2341) 
Arg

>  <MOL_WT>  (2341) 
188.231

>  <LOGP>  (2341) 
-1.077729999999998

>  <TPSA>  (2341) 
111.23

>  <POPULARITY>  (2341) 
36.0

>  <PROTECTED>  (2341) 
TRUE

>  <SMILES>  (2341) 
N(C)[C@@H](CCCNC(=N)N)C(=O)O

>  <INCHIKEY>  (2341) 
NTWVQPHTOUKMDI-YFKPBYRVSA-N

$$$$
NMe-S
     RDKit          2D

  8  7  0  0  0  0  0  0  0  0999 V2000
   -1.2990    1.3125    0.0000 N   0  0  0  0  0  0  0  0  0  0  0  0
   -2.5981    0.5625    0.0000 C   0  0  0  0  0  0  0  0  0  0  0  0
    0.0000    0.5625    0.0000 C   0  0  0  0  0  0  0  0  0  0  0  0
    1.2990    1.3125    0.0000 C   0  0  0  0  0  0  0  0  0  0  0  0
    2.5981    0.5625    0.0000 O   0  0  0  0  0  0  0  0  0  0  0  0
    0.0000   -0.9375    0.0000 C   0  0  0  0  0  0  0  0  0  0  0  0
   -1.2990   -1.6875    0.0000 O   0  0  0  0  0  0  0  0  0  0  0  0
    1.2990   -1.6875    0.0000 O   0  0  0  0  0  0  0  0  0  0  0  0
  1  2  1  0
  1  3  1  0
  3  4  1  1
  4  5  1  0
  3  6  1  0
  6  7  2  0
  6  8  1  0
M  END
>  <rName>  (2342) 
NMe-S

>  <PQ_SYMBOL>  (2342) 
NMe-S

>  <FULL_NAME>  (2342) 
N-Methyl-L-Serine

>  <IUPAC_CONDENSED>  (2342) 
Me-Ser

>  <IUPAC>  (2342) 
(2S)-3-hydroxy-2-(methylamino)propanoic acid

>  <TYPE>  (2342) 
Backbone

>  <CLASS>  (2342) 
alpha

>  <ANALOG>  (2342) 
Ser

>  <MOL_WT>  (2342) 
119.11999999999998

>  <LOGP>  (2342) 
-1.3487

>  <TPSA>  (2342) 
69.56

>  <POPULARITY>  (2342) 
26.1

>  <PROTECTED>  (2342) 
TRUE

>  <SMILES>  (2342) 
N(C)[C@@H](CO)C(=O)O

>  <INCHIKEY>  (2342) 
PSFABYLDRXJYID-VKHMYHEASA-N

$$$$
NMe-Sar
     RDKit          2D

  7  6  0  0  0  0  0  0  0  0999 V2000
   -2.5981    0.8571    0.0000 C   0  0  0  0  0  0  0  0  0  0  0  0
   -1.2990    0.1071    0.0000 N   0  0  0  0  0  0  0  0  0  0  0  0
   -1.2990   -1.3929    0.0000 C   0  0  0  0  0  0  0  0  0  0  0  0
    0.0000    0.8571    0.0000 C   0  0  0  0  0  0  0  0  0  0  0  0
    1.2990    0.1071    0.0000 C   0  0  0  0  0  0  0  0  0  0  0  0
    1.2990   -1.3929    0.0000 O   0  0  0  0  0  0  0  0  0  0  0  0
    2.5981    0.8571    0.0000 O   0  0  0  0  0  0  0  0  0  0  0  0
  1  2  1  0
  2  3  1  0
  2  4  1  0
  4  5  1  0
  5  6  2  0
  5  7  1  0
M  END
>  <rName>  (2343) 
NMe-Sar

>  <PQ_SYMBOL>  (2343) 
NMe-Sar

>  <FULL_NAME>  (2343) 
N,N-dimethylglycine, methyl sarcosine

>  <IUPAC_CONDENSED>  (2343) 
Me-Sar

>  <IUPAC>  (2343) 
2-(dimethylamino)acetic acid

>  <TYPE>  (2343) 
N-term cap

>  <CLASS>  (2343) 
n_cap

>  <ANALOG>  (2343) 
X

>  <MOL_WT>  (2343) 
103.12099999999998

>  <LOGP>  (2343) 
-0.3674

>  <TPSA>  (2343) 
40.540000000000006

>  <POPULARITY>  (2343) 
21.3

>  <PROTECTED>  (2343) 
TRUE

>  <SMILES>  (2343) 
CN(C)CC(=O)O

>  <INCHIKEY>  (2343) 
FFDGPVCHZBVARC-UHFFFAOYSA-N

$$$$
NMe-Ser_Et
     RDKit          2D

 10  9  0  0  0  0  0  0  0  0999 V2000
   -2.0182    1.4385    0.0000 N   0  0  0  0  0  0  0  0  0  0  0  0
   -3.4137    0.8883    0.0000 C   0  0  0  0  0  0  0  0  0  0  0  0
   -0.8441    0.5050    0.0000 C   0  0  0  0  0  0  0  0  0  0  0  0
    0.5514    1.0552    0.0000 C   0  0  0  0  0  0  0  0  0  0  0  0
    1.7256    0.1218    0.0000 O   0  0  0  0  0  0  0  0  0  0  0  0
    3.1211    0.6719    0.0000 C   0  0  0  0  0  0  0  0  0  0  0  0
    4.2952   -0.2615    0.0000 C   0  0  0  0  0  0  0  0  0  0  0  0
   -1.0653   -0.9785    0.0000 C   0  0  0  0  0  0  0  0  0  0  0  0
   -2.4608   -1.5287    0.0000 O   0  0  0  0  0  0  0  0  0  0  0  0
    0.1088   -1.9120    0.0000 O   0  0  0  0  0  0  0  0  0  0  0  0
  1  2  1  0
  1  3  1  0
  3  4  1  1
  4  5  1  0
  5  6  1  0
  6  7  1  0
  3  8  1  0
  8  9  2  0
  8 10  1  0
M  END
>  <rName>  (2344) 
NMe-Ser_Et

>  <PQ_SYMBOL>  (2344) 
NMe-Ser_Et

>  <FULL_NAME>  (2344) 
(2S)-3-ethoxy-2-(methylamino)propanoic acid

>  <IUPAC_CONDENSED>  (2344) 
Me-Ser(Et)

>  <IUPAC>  (2344) 
(2S)-3-ethoxy-2-(methylamino)propanoic acid

>  <TYPE>  (2344) 
Backbone

>  <CLASS>  (2344) 
alpha

>  <ANALOG>  (2344) 
Ser

>  <MOL_WT>  (2344) 
147.174

>  <LOGP>  (2344) 
-0.30450000000000027

>  <TPSA>  (2344) 
58.56

>  <POPULARITY>  (2344) 
2.2

>  <PROTECTED>  (2344) 
TRUE

>  <SMILES>  (2344) 
N(C)[C@@H](COCC)C(=O)O

>  <INCHIKEY>  (2344) 
GAAJYKQQPYXQIJ-YFKPBYRVSA-N

$$$$
NMe-Ser_Me
     RDKit          2D

  9  8  0  0  0  0  0  0  0  0999 V2000
   -1.4625    1.4907    0.0000 N   0  0  0  0  0  0  0  0  0  0  0  0
   -2.8857    1.0168    0.0000 C   0  0  0  0  0  0  0  0  0  0  0  0
   -0.3405    0.4951    0.0000 C   0  0  0  0  0  0  0  0  0  0  0  0
    1.0826    0.9690    0.0000 C   0  0  0  0  0  0  0  0  0  0  0  0
    2.2046   -0.0266    0.0000 O   0  0  0  0  0  0  0  0  0  0  0  0
    3.6278    0.4473    0.0000 C   0  0  0  0  0  0  0  0  0  0  0  0
   -0.6417   -0.9743    0.0000 C   0  0  0  0  0  0  0  0  0  0  0  0
   -2.0649   -1.4482    0.0000 O   0  0  0  0  0  0  0  0  0  0  0  0
    0.4803   -1.9699    0.0000 O   0  0  0  0  0  0  0  0  0  0  0  0
  1  2  1  0
  1  3  1  0
  3  4  1  1
  4  5  1  0
  5  6  1  0
  3  7  1  0
  7  8  2  0
  7  9  1  0
M  END
>  <rName>  (2345) 
NMe-Ser_Me

>  <PQ_SYMBOL>  (2345) 
NMe-Ser_Me

>  <FULL_NAME>  (2345) 
N,O-dimethyl-L-serine

>  <IUPAC_CONDENSED>  (2345) 
Me-Ser(Me)

>  <IUPAC>  (2345) 
(2S)-3-methoxy-2-(methylamino)propanoic acid

>  <TYPE>  (2345) 
Backbone

>  <CLASS>  (2345) 
alpha

>  <ANALOG>  (2345) 
Ser

>  <MOL_WT>  (2345) 
133.147

>  <LOGP>  (2345) 
-0.6946000000000001

>  <TPSA>  (2345) 
58.56

>  <POPULARITY>  (2345) 
12.0

>  <PROTECTED>  (2345) 
TRUE

>  <SMILES>  (2345) 
N(C)[C@@H](COC)C(=O)O

>  <INCHIKEY>  (2345) 
AKTYKKADZQIESO-BYPYZUCNSA-N

$$$$
NMe-Ser_Ph_2Cl
     RDKit          2D

 15 15  0  0  0  0  0  0  0  0999 V2000
   -2.5959   -1.5269    0.0000 N   0  0  0  0  0  0  0  0  0  0  0  0
   -4.0154   -2.0115    0.0000 C   0  0  0  0  0  0  0  0  0  0  0  0
   -2.3059   -0.0552    0.0000 C   0  0  0  0  0  0  0  0  0  0  0  0
   -0.8863    0.4295    0.0000 C   0  0  0  0  0  0  0  0  0  0  0  0
    0.2432   -0.5575    0.0000 O   0  0  0  0  0  0  0  0  0  0  0  0
    1.6627   -0.0729    0.0000 C   0  0  0  0  0  0  0  0  0  0  0  0
    1.9528    1.3988    0.0000 C   0  0  0  0  0  0  0  0  0  0  0  0
    3.3723    1.8835    0.0000 C   0  0  0  0  0  0  0  0  0  0  0  0
    4.5018    0.8964    0.0000 C   0  0  0  0  0  0  0  0  0  0  0  0
    4.2118   -0.5753    0.0000 C   0  0  0  0  0  0  0  0  0  0  0  0
    2.7922   -1.0599    0.0000 C   0  0  0  0  0  0  0  0  0  0  0  0
    2.5022   -2.5316    0.0000 Cl  0  0  0  0  0  0  0  0  0  0  0  0
   -3.4354    0.9319    0.0000 C   0  0  0  0  0  0  0  0  0  0  0  0
   -3.1453    2.4036    0.0000 O   0  0  0  0  0  0  0  0  0  0  0  0
   -4.8549    0.4472    0.0000 O   0  0  0  0  0  0  0  0  0  0  0  0
  1  2  1  0
  1  3  1  0
  3  4  1  6
  4  5  1  0
  5  6  1  0
  6  7  2  0
  7  8  1  0
  8  9  2  0
  9 10  1  0
 10 11  2  0
 11 12  1  0
  3 13  1  0
 13 14  2  0
 13 15  1  0
 11  6  1  0
M  END
>  <rName>  (2346) 
NMe-Ser_Ph_2Cl

>  <PQ_SYMBOL>  (2346) 
NMe-Ser_Ph_2Cl

>  <FULL_NAME>  (2346) 
O-(2-Chlorophenyl)-N-methyl-L-serine

>  <IUPAC_CONDENSED>  (2346) 
Me-Ser(Ph(2-Cl))

>  <IUPAC>  (2346) 
(2S)-3-(2-chlorophenoxy)-2-(methylamino)propanoic acid

>  <TYPE>  (2346) 
Backbone

>  <CLASS>  (2346) 
alpha

>  <ANALOG>  (2346) 
Ser

>  <MOL_WT>  (2346) 
229.66299999999998

>  <LOGP>  (2346) 
1.3913999999999997

>  <TPSA>  (2346) 
58.56

>  <POPULARITY>  (2346) 
2.2

>  <PROTECTED>  (2346) 
TRUE

>  <SMILES>  (2346) 
N(C)[C@@H](COc1(ccccc1Cl))C(=O)O

>  <INCHIKEY>  (2346) 
UVSQUOXVHHNDLI-QMMMGPOBSA-N

$$$$
NMe-Ser_Pr
     RDKit          2D

 11 10  0  0  0  0  0  0  0  0999 V2000
   -2.5061    1.4639    0.0000 N   0  0  0  0  0  0  0  0  0  0  0  0
   -3.9125    0.9425    0.0000 C   0  0  0  0  0  0  0  0  0  0  0  0
   -1.3513    0.5066    0.0000 C   0  0  0  0  0  0  0  0  0  0  0  0
    0.0552    1.0280    0.0000 C   0  0  0  0  0  0  0  0  0  0  0  0
    1.2100    0.0707    0.0000 O   0  0  0  0  0  0  0  0  0  0  0  0
    2.6164    0.5921    0.0000 C   0  0  0  0  0  0  0  0  0  0  0  0
    3.7712   -0.3652    0.0000 C   0  0  0  0  0  0  0  0  0  0  0  0
    5.1777    0.1562    0.0000 C   0  0  0  0  0  0  0  0  0  0  0  0
   -1.6030   -0.9721    0.0000 C   0  0  0  0  0  0  0  0  0  0  0  0
   -3.0094   -1.4935    0.0000 O   0  0  0  0  0  0  0  0  0  0  0  0
   -0.4482   -1.9294    0.0000 O   0  0  0  0  0  0  0  0  0  0  0  0
  1  2  1  0
  1  3  1  0
  3  4  1  1
  4  5  1  0
  5  6  1  0
  6  7  1  0
  7  8  1  0
  3  9  1  0
  9 10  2  0
  9 11  1  0
M  END
>  <rName>  (2347) 
NMe-Ser_Pr

>  <PQ_SYMBOL>  (2347) 
NMe-Ser_Pr

>  <FULL_NAME>  (2347) 
N-methyl-O-propyl-L-serine

>  <IUPAC_CONDENSED>  (2347) 
Me-Ser(Pr)

>  <IUPAC>  (2347) 
(2S)-2-(methylamino)-3-propoxypropanoic acid

>  <TYPE>  (2347) 
Backbone

>  <CLASS>  (2347) 
alpha

>  <ANALOG>  (2347) 
Ser

>  <MOL_WT>  (2347) 
161.201

>  <LOGP>  (2347) 
0.08559999999999962

>  <TPSA>  (2347) 
58.56

>  <POPULARITY>  (2347) 
10.3

>  <PROTECTED>  (2347) 
TRUE

>  <SMILES>  (2347) 
N(C)[C@@H](COCCC)C(=O)O

>  <INCHIKEY>  (2347) 
BJISTZUORAPKHZ-LURJTMIESA-N

$$$$
NMe-Ser_cBu
     RDKit          2D

 12 12  0  0  0  0  0  0  0  0999 V2000
   -1.7864   -1.5652    0.0000 N   0  0  0  0  0  0  0  0  0  0  0  0
   -3.2208   -2.0038    0.0000 C   0  0  0  0  0  0  0  0  0  0  0  0
   -1.4491   -0.1036    0.0000 C   0  0  0  0  0  0  0  0  0  0  0  0
   -0.0147    0.3351    0.0000 C   0  0  0  0  0  0  0  0  0  0  0  0
    1.0824   -0.6878    0.0000 O   0  0  0  0  0  0  0  0  0  0  0  0
    2.5168   -0.2491    0.0000 C   0  0  0  0  0  0  0  0  0  0  0  0
    3.2209    1.0754    0.0000 C   0  0  0  0  0  0  0  0  0  0  0  0
    4.5454    0.3713    0.0000 C   0  0  0  0  0  0  0  0  0  0  0  0
    3.8413   -0.9532    0.0000 C   0  0  0  0  0  0  0  0  0  0  0  0
   -2.5462    0.9193    0.0000 C   0  0  0  0  0  0  0  0  0  0  0  0
   -2.2089    2.3809    0.0000 O   0  0  0  0  0  0  0  0  0  0  0  0
   -3.9807    0.4807    0.0000 O   0  0  0  0  0  0  0  0  0  0  0  0
  1  2  1  0
  1  3  1  0
  3  4  1  6
  4  5  1  0
  5  6  1  0
  6  7  1  0
  7  8  1  0
  8  9  1  0
  3 10  1  0
 10 11  2  0
 10 12  1  0
  9  6  1  0
M  END
>  <rName>  (2348) 
NMe-Ser_cBu

>  <PQ_SYMBOL>  (2348) 
NMe-Ser_cBu

>  <FULL_NAME>  (2348) 
O-cyclobutyl-N-methyl-L-serine

>  <IUPAC_CONDENSED>  (2348) 
Me-Ser(cBu)

>  <IUPAC>  (2348) 
(2S)-3-(cyclobutoxy)-2-(methylamino)propanoic acid

>  <TYPE>  (2348) 
Backbone

>  <CLASS>  (2348) 
alpha

>  <ANALOG>  (2348) 
Ser

>  <MOL_WT>  (2348) 
173.212

>  <LOGP>  (2348) 
0.22809999999999925

>  <TPSA>  (2348) 
58.56

>  <POPULARITY>  (2348) 
4.2

>  <PROTECTED>  (2348) 
TRUE

>  <SMILES>  (2348) 
N(C)[C@@H](COC1(CCC1))C(=O)O

>  <INCHIKEY>  (2348) 
BFRITKJPGLNNES-ZETCQYMHSA-N

$$$$
NMe-Ser_isoamyl
     RDKit          2D

 13 12  0  0  0  0  0  0  0  0999 V2000
   -3.3767    1.4803    0.0000 N   0  0  0  0  0  0  0  0  0  0  0  0
   -4.7951    0.9924    0.0000 C   0  0  0  0  0  0  0  0  0  0  0  0
   -2.2449    0.4958    0.0000 C   0  0  0  0  0  0  0  0  0  0  0  0
   -0.8265    0.9838    0.0000 C   0  0  0  0  0  0  0  0  0  0  0  0
    0.3053   -0.0007    0.0000 O   0  0  0  0  0  0  0  0  0  0  0  0
    1.7237    0.4873    0.0000 C   0  0  0  0  0  0  0  0  0  0  0  0
    2.8555   -0.4972    0.0000 C   0  0  0  0  0  0  0  0  0  0  0  0
    4.2739   -0.0092    0.0000 C   0  0  0  0  0  0  0  0  0  0  0  0
    5.4057   -0.9937    0.0000 C   0  0  0  0  0  0  0  0  0  0  0  0
    4.5606    1.4631    0.0000 C   0  0  0  0  0  0  0  0  0  0  0  0
   -2.5316   -0.9765    0.0000 C   0  0  0  0  0  0  0  0  0  0  0  0
   -3.9500   -1.4644    0.0000 O   0  0  0  0  0  0  0  0  0  0  0  0
   -1.3998   -1.9609    0.0000 O   0  0  0  0  0  0  0  0  0  0  0  0
  1  2  1  0
  1  3  1  0
  3  4  1  1
  4  5  1  0
  5  6  1  0
  6  7  1  0
  7  8  1  0
  8  9  1  0
  8 10  1  0
  3 11  1  0
 11 12  2  0
 11 13  1  0
M  END
>  <rName>  (2349) 
NMe-Ser_isoamyl

>  <PQ_SYMBOL>  (2349) 
NMe-Ser_isoamyl

>  <FULL_NAME>  (2349) 
N-methyl-O-(3-methylbutyl)-L-serine

>  <IUPAC_CONDENSED>  (2349) 
Me-Ser(isoamyl)

>  <IUPAC>  (2349) 
(2S)-2-(methylamino)-3-((3-methylbutyl)oxy)propanoic acid

>  <TYPE>  (2349) 
Backbone

>  <CLASS>  (2349) 
alpha

>  <ANALOG>  (2349) 
Ser

>  <MOL_WT>  (2349) 
189.25499999999997

>  <LOGP>  (2349) 
0.7216999999999996

>  <TPSA>  (2349) 
58.56

>  <POPULARITY>  (2349) 
8.0

>  <PROTECTED>  (2349) 
TRUE

>  <SMILES>  (2349) 
N(C)[C@@H](COCCC(C)C)C(=O)O

>  <INCHIKEY>  (2349) 
JMOZUFARTJZBHT-QMMMGPOBSA-N

$$$$
NMe-T
     RDKit          2D

  9  8  0  0  0  0  0  0  0  0999 V2000
   -0.7500    1.5877    0.0000 N   0  0  0  0  0  0  0  0  0  0  0  0
   -2.2500    1.5877    0.0000 C   0  0  0  0  0  0  0  0  0  0  0  0
    0.0000    0.2887    0.0000 C   0  0  0  0  0  0  0  0  0  0  0  0
    1.5000    0.2887    0.0000 C   0  0  0  0  0  0  0  0  0  0  0  0
    2.2500    1.5877    0.0000 O   0  0  0  0  0  0  0  0  0  0  0  0
    2.2500   -1.0104    0.0000 C   0  0  0  0  0  0  0  0  0  0  0  0
   -0.7500   -1.0104    0.0000 C   0  0  0  0  0  0  0  0  0  0  0  0
   -2.2500   -1.0104    0.0000 O   0  0  0  0  0  0  0  0  0  0  0  0
   -0.0000   -2.3094    0.0000 O   0  0  0  0  0  0  0  0  0  0  0  0
  1  2  1  0
  3  1  1  1
  3  4  1  0
  4  5  1  0
  4  6  1  6
  3  7  1  0
  7  8  2  0
  7  9  1  0
M  END
>  <rName>  (2350) 
NMe-T

>  <PQ_SYMBOL>  (2350) 
NMe-T

>  <FULL_NAME>  (2350) 
N-Methyl-L-Threonine

>  <IUPAC_CONDENSED>  (2350) 
Me-Thr

>  <IUPAC>  (2350) 
(2S,3R)-3-hydroxy-2-(methylamino)butanoic acid

>  <TYPE>  (2350) 
Backbone

>  <CLASS>  (2350) 
alpha

>  <ANALOG>  (2350) 
Thr

>  <MOL_WT>  (2350) 
133.147

>  <LOGP>  (2350) 
-0.9602000000000004

>  <TPSA>  (2350) 
69.56

>  <POPULARITY>  (2350) 
37.8

>  <PROTECTED>  (2350) 
TRUE

>  <SMILES>  (2350) 
N(C)[C@@H]([C@H](O)C)C(=O)O

>  <INCHIKEY>  (2350) 
CCAIIPMIAFGKSI-DMTCNVIQSA-N

$$$$
NMe-Thr_Me
     RDKit          2D

 10  9  0  0  0  0  0  0  0  0999 V2000
   -0.7033    1.6772    0.0000 N   0  0  0  0  0  0  0  0  0  0  0  0
   -2.1490    2.0771    0.0000 C   0  0  0  0  0  0  0  0  0  0  0  0
   -0.3268    0.2252    0.0000 C   0  0  0  0  0  0  0  0  0  0  0  0
    1.1189   -0.1748    0.0000 C   0  0  0  0  0  0  0  0  0  0  0  0
    2.1881    0.8773    0.0000 O   0  0  0  0  0  0  0  0  0  0  0  0
    3.6338    0.4773    0.0000 C   0  0  0  0  0  0  0  0  0  0  0  0
    1.4954   -1.6267    0.0000 C   0  0  0  0  0  0  0  0  0  0  0  0
   -1.3960   -0.8269    0.0000 C   0  0  0  0  0  0  0  0  0  0  0  0
   -2.8417   -0.4269    0.0000 O   0  0  0  0  0  0  0  0  0  0  0  0
   -1.0195   -2.2788    0.0000 O   0  0  0  0  0  0  0  0  0  0  0  0
  1  2  1  0
  3  1  1  1
  3  4  1  0
  4  5  1  0
  5  6  1  0
  4  7  1  6
  3  8  1  0
  8  9  2  0
  8 10  1  0
M  END
>  <rName>  (2351) 
NMe-Thr_Me

>  <PQ_SYMBOL>  (2351) 
NMe-Thr_Me

>  <FULL_NAME>  (2351) 
N,O-dimethyl-L-threonine

>  <IUPAC_CONDENSED>  (2351) 
Me-Thr(Me)

>  <IUPAC>  (2351) 
(2S,3R)-3-methoxy-2-(methylamino)butanoic acid

>  <TYPE>  (2351) 
Backbone

>  <CLASS>  (2351) 
alpha

>  <ANALOG>  (2351) 
Thr

>  <MOL_WT>  (2351) 
147.174

>  <LOGP>  (2351) 
-0.30610000000000054

>  <TPSA>  (2351) 
58.56

>  <POPULARITY>  (2351) 
16.7

>  <PROTECTED>  (2351) 
TRUE

>  <SMILES>  (2351) 
N(C)[C@@H]([C@H](OC)C)C(=O)O

>  <INCHIKEY>  (2351) 
ZLRWZUVKLXZLRT-UHNVWZDZSA-N

$$$$
NMe-Tic
     RDKit          2D

 14 15  0  0  0  0  0  0  0  0999 V2000
    3.9235   -0.3387    0.0000 C   0  0  0  0  0  0  0  0  0  0  0  0
    2.7752   -1.3038    0.0000 C   0  0  0  0  0  0  0  0  0  0  0  0
    1.3653   -0.7919    0.0000 C   0  0  0  0  0  0  0  0  0  0  0  0
    0.2170   -1.7569    0.0000 C   0  0  0  0  0  0  0  0  0  0  0  0
   -1.1930   -1.2450    0.0000 N   0  0  0  0  0  0  0  0  0  0  0  0
   -2.3413   -2.2101    0.0000 C   0  0  0  0  0  0  0  0  0  0  0  0
   -1.4546    0.2320    0.0000 C   0  0  0  0  0  0  0  0  0  0  0  0
   -0.3063    1.1971    0.0000 C   0  0  0  0  0  0  0  0  0  0  0  0
    1.1037    0.6851    0.0000 C   0  0  0  0  0  0  0  0  0  0  0  0
    2.2520    1.6502    0.0000 C   0  0  0  0  0  0  0  0  0  0  0  0
    3.6619    1.1383    0.0000 C   0  0  0  0  0  0  0  0  0  0  0  0
   -2.8645    0.7439    0.0000 C   0  0  0  0  0  0  0  0  0  0  0  0
   -4.0128   -0.2211    0.0000 O   0  0  0  0  0  0  0  0  0  0  0  0
   -3.1261    2.2209    0.0000 O   0  0  0  0  0  0  0  0  0  0  0  0
  1  2  1  0
  2  3  2  0
  3  4  1  0
  4  5  1  0
  5  6  1  0
  5  7  1  0
  7  8  1  0
  8  9  1  0
  9 10  2  0
 10 11  1  0
  7 12  1  6
 12 13  2  0
 12 14  1  0
  9  3  1  0
 11  1  2  0
M  END
>  <rName>  (2352) 
NMe-Tic

>  <PQ_SYMBOL>  (2352) 
NMe-Tic

>  <FULL_NAME>  (2352) 
methyl 1,2,3,4-tetrahydro-3-isoquinolinecarboxylic acid

>  <IUPAC_CONDENSED>  (2352) 
Me-Tic

>  <IUPAC>  (2352) 
(4S)-3-methyl-3-azabicyclo[4.4.0]deca-1(6),7,9-triene-4-carboxylic acid

>  <TYPE>  (2352) 
N-term cap

>  <CLASS>  (2352) 
n_cap

>  <ANALOG>  (2352) 
X

>  <MOL_WT>  (2352) 
191.23

>  <LOGP>  (2352) 
1.1277

>  <TPSA>  (2352) 
40.540000000000006

>  <POPULARITY>  (2352) 
13.6

>  <PROTECTED>  (2352) 
TRUE

>  <SMILES>  (2352) 
c2cc1CN(C)[C@@H](Cc1cc2)C(=O)O

>  <INCHIKEY>  (2352) 
SKFOSDNQLGCEHM-JTQLQIEISA-N

$$$$
NMe-Trp_2Me
     RDKit          2D

 17 18  0  0  0  0  0  0  0  0999 V2000
   -2.4513   -1.1663    0.0000 N   0  0  0  0  0  0  0  0  0  0  0  0
   -3.8392   -1.7351    0.0000 C   0  0  0  0  0  0  0  0  0  0  0  0
   -2.2499    0.3202    0.0000 C   0  0  0  0  0  0  0  0  0  0  0  0
   -0.8619    0.8890    0.0000 C   0  0  0  0  0  0  0  0  0  0  0  0
    0.3247   -0.0286    0.0000 C   0  0  0  0  0  0  0  0  0  0  0  0
    0.2798   -1.5279    0.0000 C   0  0  0  0  0  0  0  0  0  0  0  0
   -0.9596   -2.3729    0.0000 C   0  0  0  0  0  0  0  0  0  0  0  0
    1.6919   -2.0339    0.0000 N   0  0  0  0  0  0  0  0  0  0  0  0
    2.6094   -0.8473    0.0000 C   0  0  0  0  0  0  0  0  0  0  0  0
    4.1053   -0.7353    0.0000 C   0  0  0  0  0  0  0  0  0  0  0  0
    4.7561    0.6162    0.0000 C   0  0  0  0  0  0  0  0  0  0  0  0
    3.9111    1.8556    0.0000 C   0  0  0  0  0  0  0  0  0  0  0  0
    2.4153    1.7435    0.0000 C   0  0  0  0  0  0  0  0  0  0  0  0
    1.7645    0.3920    0.0000 C   0  0  0  0  0  0  0  0  0  0  0  0
   -3.4365    1.2378    0.0000 C   0  0  0  0  0  0  0  0  0  0  0  0
   -3.2351    2.7242    0.0000 O   0  0  0  0  0  0  0  0  0  0  0  0
   -4.8245    0.6689    0.0000 O   0  0  0  0  0  0  0  0  0  0  0  0
  1  2  1  0
  1  3  1  0
  3  4  1  6
  4  5  1  0
  5  6  2  0
  6  7  1  0
  6  8  1  0
  8  9  1  0
  9 10  2  0
 10 11  1  0
 11 12  2  0
 12 13  1  0
 13 14  2  0
  3 15  1  0
 15 16  2  0
 15 17  1  0
 14  5  1  0
 14  9  1  0
M  END
>  <rName>  (2353) 
NMe-Trp_2Me

>  <PQ_SYMBOL>  (2353) 
NMe-Trp_2Me

>  <FULL_NAME>  (2353) 
N-methyl-2-methyl-L-tryptophan

>  <IUPAC_CONDENSED>  (2353) 
Me-Trp(2-Me)

>  <IUPAC>  (2353) 
(2S)-3-(2-methyl-1H-indol-3-yl)-2-(methylamino)propanoic acid

>  <TYPE>  (2353) 
Backbone

>  <CLASS>  (2353) 
alpha

>  <ANALOG>  (2353) 
Trp

>  <MOL_WT>  (2353) 
232.28300000000002

>  <LOGP>  (2353) 
1.6914199999999997

>  <TPSA>  (2353) 
65.12

>  <POPULARITY>  (2353) 
8.8

>  <PROTECTED>  (2353) 
TRUE

>  <SMILES>  (2353) 
N(C)[C@@H](Cc1(c(C)[nH]c2(ccccc12)))C(=O)O

>  <INCHIKEY>  (2353) 
GAVRXWDJWMGBOL-LBPRGKRZSA-N

$$$$
NMe-Trp_4Br
     RDKit          2D

 17 18  0  0  0  0  0  0  0  0999 V2000
   -2.6213   -1.4435    0.0000 N   0  0  0  0  0  0  0  0  0  0  0  0
   -4.0173   -1.9922    0.0000 C   0  0  0  0  0  0  0  0  0  0  0  0
   -2.3984    0.0399    0.0000 C   0  0  0  0  0  0  0  0  0  0  0  0
   -1.0023    0.5885    0.0000 C   0  0  0  0  0  0  0  0  0  0  0  0
    0.1708   -0.3462    0.0000 C   0  0  0  0  0  0  0  0  0  0  0  0
    0.1043   -1.8447    0.0000 C   0  0  0  0  0  0  0  0  0  0  0  0
    1.5089   -2.3711    0.0000 N   0  0  0  0  0  0  0  0  0  0  0  0
    2.4435   -1.1979    0.0000 C   0  0  0  0  0  0  0  0  0  0  0  0
    3.9408   -1.1075    0.0000 C   0  0  0  0  0  0  0  0  0  0  0  0
    4.6111    0.2344    0.0000 C   0  0  0  0  0  0  0  0  0  0  0  0
    3.7842    1.4859    0.0000 C   0  0  0  0  0  0  0  0  0  0  0  0
    2.2869    1.3955    0.0000 C   0  0  0  0  0  0  0  0  0  0  0  0
    1.4600    2.6469    0.0000 Br  0  0  0  0  0  0  0  0  0  0  0  0
    1.6166    0.0536    0.0000 C   0  0  0  0  0  0  0  0  0  0  0  0
   -3.5716    0.9745    0.0000 C   0  0  0  0  0  0  0  0  0  0  0  0
   -3.3487    2.4579    0.0000 O   0  0  0  0  0  0  0  0  0  0  0  0
   -4.9676    0.4259    0.0000 O   0  0  0  0  0  0  0  0  0  0  0  0
  1  2  1  0
  1  3  1  0
  3  4  1  6
  4  5  1  0
  5  6  2  0
  6  7  1  0
  7  8  1  0
  8  9  2  0
  9 10  1  0
 10 11  2  0
 11 12  1  0
 12 13  1  0
 12 14  2  0
  3 15  1  0
 15 16  2  0
 15 17  1  0
 14  5  1  0
 14  8  1  0
M  END
>  <rName>  (2354) 
NMe-Trp_4Br

>  <PQ_SYMBOL>  (2354) 
NMe-Trp_4Br

>  <FULL_NAME>  (2354) 
N-methyl-4-bromo-L-tryptophan

>  <IUPAC_CONDENSED>  (2354) 
Me-Trp(4-Br)

>  <IUPAC>  (2354) 
(2S)-3-(4-bromo-1H-indol-3-yl)-2-(methylamino)propanoic acid

>  <TYPE>  (2354) 
Backbone

>  <CLASS>  (2354) 
alpha

>  <ANALOG>  (2354) 
Trp

>  <MOL_WT>  (2354) 
297.15200000000004

>  <LOGP>  (2354) 
2.1454999999999997

>  <TPSA>  (2354) 
65.12

>  <POPULARITY>  (2354) 
3.3

>  <PROTECTED>  (2354) 
TRUE

>  <SMILES>  (2354) 
N(C)[C@@H](Cc1(c[nH]c2(cccc(Br)c12)))C(=O)O

>  <INCHIKEY>  (2354) 
FAIIQYIGYOKJFQ-JTQLQIEISA-N

$$$$
NMe-Trp_4CN
     RDKit          2D

 18 19  0  0  0  0  0  0  0  0999 V2000
   -2.6954   -1.5960    0.0000 N   0  0  0  0  0  0  0  0  0  0  0  0
   -4.1042   -2.1110    0.0000 C   0  0  0  0  0  0  0  0  0  0  0  0
   -2.4371   -0.1184    0.0000 C   0  0  0  0  0  0  0  0  0  0  0  0
   -1.0283    0.3967    0.0000 C   0  0  0  0  0  0  0  0  0  0  0  0
    0.1222   -0.5658    0.0000 C   0  0  0  0  0  0  0  0  0  0  0  0
    0.0197   -2.0623    0.0000 C   0  0  0  0  0  0  0  0  0  0  0  0
    1.4113   -2.6222    0.0000 N   0  0  0  0  0  0  0  0  0  0  0  0
    2.3738   -1.4718    0.0000 C   0  0  0  0  0  0  0  0  0  0  0  0
    3.8728   -1.4172    0.0000 C   0  0  0  0  0  0  0  0  0  0  0  0
    4.5751   -0.0918    0.0000 C   0  0  0  0  0  0  0  0  0  0  0  0
    3.7784    1.1791    0.0000 C   0  0  0  0  0  0  0  0  0  0  0  0
    2.2794    1.1246    0.0000 C   0  0  0  0  0  0  0  0  0  0  0  0
    1.4826    2.3955    0.0000 C   0  0  0  0  0  0  0  0  0  0  0  0
    0.6859    3.6664    0.0000 N   0  0  0  0  0  0  0  0  0  0  0  0
    1.5771   -0.2008    0.0000 C   0  0  0  0  0  0  0  0  0  0  0  0
   -3.5876    0.8441    0.0000 C   0  0  0  0  0  0  0  0  0  0  0  0
   -3.3292    2.3217    0.0000 O   0  0  0  0  0  0  0  0  0  0  0  0
   -4.9964    0.3291    0.0000 O   0  0  0  0  0  0  0  0  0  0  0  0
  1  2  1  0
  1  3  1  0
  3  4  1  6
  4  5  1  0
  5  6  2  0
  6  7  1  0
  7  8  1  0
  8  9  2  0
  9 10  1  0
 10 11  2  0
 11 12  1  0
 12 13  1  0
 13 14  3  0
 12 15  2  0
  3 16  1  0
 16 17  2  0
 16 18  1  0
 15  5  1  0
 15  8  1  0
M  END
>  <rName>  (2355) 
NMe-Trp_4CN

>  <PQ_SYMBOL>  (2355) 
NMe-Trp_4CN

>  <FULL_NAME>  (2355) 
N-methyl-4-cyano-L-tryptophan

>  <IUPAC_CONDENSED>  (2355) 
Me-Trp(4-CN)

>  <IUPAC>  (2355) 
(2S)-2-(methylamino)-3-(4-(nitrilomethyl)-1H-indol-3-yl)propanoic acid

>  <TYPE>  (2355) 
Backbone

>  <CLASS>  (2355) 
alpha

>  <ANALOG>  (2355) 
Trp

>  <MOL_WT>  (2355) 
243.266

>  <LOGP>  (2355) 
1.2546799999999998

>  <TPSA>  (2355) 
88.91000000000001

>  <POPULARITY>  (2355) 
2.6

>  <PROTECTED>  (2355) 
TRUE

>  <SMILES>  (2355) 
N(C)[C@@H](Cc1(c[nH]c2(cccc(C#N)c12)))C(=O)O

>  <INCHIKEY>  (2355) 
GPSRTMYFWSLQSD-NSHDSACASA-N

$$$$
NMe-Trp_4CO2H
     RDKit          2D

 19 20  0  0  0  0  0  0  0  0999 V2000
   -2.8654   -1.5643    0.0000 N   0  0  0  0  0  0  0  0  0  0  0  0
   -4.3008   -1.9997    0.0000 C   0  0  0  0  0  0  0  0  0  0  0  0
   -2.5249   -0.1034    0.0000 C   0  0  0  0  0  0  0  0  0  0  0  0
   -1.0895    0.3321    0.0000 C   0  0  0  0  0  0  0  0  0  0  0  0
    0.0054   -0.6933    0.0000 C   0  0  0  0  0  0  0  0  0  0  0  0
   -0.1806   -2.1817    0.0000 C   0  0  0  0  0  0  0  0  0  0  0  0
    1.1775   -2.8186    0.0000 N   0  0  0  0  0  0  0  0  0  0  0  0
    2.2028   -1.7237    0.0000 C   0  0  0  0  0  0  0  0  0  0  0  0
    3.7025   -1.7531    0.0000 C   0  0  0  0  0  0  0  0  0  0  0  0
    4.4778   -0.4690    0.0000 C   0  0  0  0  0  0  0  0  0  0  0  0
    3.7534    0.8445    0.0000 C   0  0  0  0  0  0  0  0  0  0  0  0
    2.2537    0.8739    0.0000 C   0  0  0  0  0  0  0  0  0  0  0  0
    1.5293    2.1873    0.0000 C   0  0  0  0  0  0  0  0  0  0  0  0
    0.0296    2.2167    0.0000 O   0  0  0  0  0  0  0  0  0  0  0  0
    2.3046    3.4714    0.0000 O   0  0  0  0  0  0  0  0  0  0  0  0
    1.4784   -0.4102    0.0000 C   0  0  0  0  0  0  0  0  0  0  0  0
   -3.6197    0.9219    0.0000 C   0  0  0  0  0  0  0  0  0  0  0  0
   -3.2791    2.3827    0.0000 O   0  0  0  0  0  0  0  0  0  0  0  0
   -5.0551    0.4864    0.0000 O   0  0  0  0  0  0  0  0  0  0  0  0
  1  2  1  0
  1  3  1  0
  3  4  1  6
  4  5  1  0
  5  6  2  0
  6  7  1  0
  7  8  1  0
  8  9  2  0
  9 10  1  0
 10 11  2  0
 11 12  1  0
 12 13  1  0
 13 14  2  0
 13 15  1  0
 12 16  2  0
  3 17  1  0
 17 18  2  0
 17 19  1  0
 16  5  1  0
 16  8  1  0
M  END
>  <rName>  (2356) 
NMe-Trp_4CO2H

>  <PQ_SYMBOL>  (2356) 
NMe-Trp_4CO2H

>  <FULL_NAME>  (2356) 
N-methyl-4-carboxy-L-tryptophan

>  <IUPAC_CONDENSED>  (2356) 
Me-Trp(4-CO2H)

>  <IUPAC>  (2356) 
3-((2S)-3-hydroxy-2-(methylamino)-3-oxopropyl)-1H-indole-4-carboxylic acid

>  <TYPE>  (2356) 
Backbone

>  <CLASS>  (2356) 
alpha

>  <ANALOG>  (2356) 
Trp

>  <MOL_WT>  (2356) 
262.265

>  <LOGP>  (2356) 
1.0812

>  <TPSA>  (2356) 
102.42

>  <POPULARITY>  (2356) 
2.6

>  <PROTECTED>  (2356) 
TRUE

>  <SMILES>  (2356) 
N(C)[C@@H](Cc1(c[nH]c2(cccc(C(=O)O)c12)))C(=O)O

>  <INCHIKEY>  (2356) 
HPPNMRGNOJXODP-JTQLQIEISA-N

$$$$
NMe-Trp_4CONH2
     RDKit          2D

 19 20  0  0  0  0  0  0  0  0999 V2000
   -2.8654   -1.5643    0.0000 N   0  0  0  0  0  0  0  0  0  0  0  0
   -4.3008   -1.9997    0.0000 C   0  0  0  0  0  0  0  0  0  0  0  0
   -2.5249   -0.1034    0.0000 C   0  0  0  0  0  0  0  0  0  0  0  0
   -1.0895    0.3321    0.0000 C   0  0  0  0  0  0  0  0  0  0  0  0
    0.0054   -0.6933    0.0000 C   0  0  0  0  0  0  0  0  0  0  0  0
   -0.1806   -2.1817    0.0000 C   0  0  0  0  0  0  0  0  0  0  0  0
    1.1775   -2.8186    0.0000 N   0  0  0  0  0  0  0  0  0  0  0  0
    2.2028   -1.7237    0.0000 C   0  0  0  0  0  0  0  0  0  0  0  0
    3.7025   -1.7531    0.0000 C   0  0  0  0  0  0  0  0  0  0  0  0
    4.4778   -0.4690    0.0000 C   0  0  0  0  0  0  0  0  0  0  0  0
    3.7534    0.8445    0.0000 C   0  0  0  0  0  0  0  0  0  0  0  0
    2.2537    0.8739    0.0000 C   0  0  0  0  0  0  0  0  0  0  0  0
    1.5293    2.1873    0.0000 C   0  0  0  0  0  0  0  0  0  0  0  0
    0.0296    2.2167    0.0000 O   0  0  0  0  0  0  0  0  0  0  0  0
    2.3046    3.4714    0.0000 N   0  0  0  0  0  0  0  0  0  0  0  0
    1.4784   -0.4102    0.0000 C   0  0  0  0  0  0  0  0  0  0  0  0
   -3.6197    0.9219    0.0000 C   0  0  0  0  0  0  0  0  0  0  0  0
   -3.2791    2.3827    0.0000 O   0  0  0  0  0  0  0  0  0  0  0  0
   -5.0551    0.4864    0.0000 O   0  0  0  0  0  0  0  0  0  0  0  0
  1  2  1  0
  1  3  1  0
  3  4  1  6
  4  5  1  0
  5  6  2  0
  6  7  1  0
  7  8  1  0
  8  9  2  0
  9 10  1  0
 10 11  2  0
 11 12  1  0
 12 13  1  0
 13 14  2  0
 13 15  1  0
 12 16  2  0
  3 17  1  0
 17 18  2  0
 17 19  1  0
 16  5  1  0
 16  8  1  0
M  END
>  <rName>  (2357) 
NMe-Trp_4CONH2

>  <PQ_SYMBOL>  (2357) 
NMe-Trp_4CONH2

>  <FULL_NAME>  (2357) 
N-methyl-4-carbamoyl-L-tryptophan

>  <IUPAC_CONDENSED>  (2357) 
Me-Trp(4-CONH2)

>  <IUPAC>  (2357) 
(2S)-3-(4-carbamoyl-1H-indol-3-yl)-2-(methylamino)propanoic acid

>  <TYPE>  (2357) 
Backbone

>  <CLASS>  (2357) 
alpha

>  <ANALOG>  (2357) 
Trp

>  <MOL_WT>  (2357) 
261.28099999999995

>  <LOGP>  (2357) 
0.4818999999999996

>  <TPSA>  (2357) 
108.21

>  <POPULARITY>  (2357) 
2.6

>  <PROTECTED>  (2357) 
TRUE

>  <SMILES>  (2357) 
N(C)[C@@H](Cc1(c[nH]c2(cccc(C(=O)N)c12)))C(=O)O

>  <INCHIKEY>  (2357) 
JMWWSXHKZOJOFG-JTQLQIEISA-N

$$$$
NMe-Trp_4Cl
     RDKit          2D

 17 18  0  0  0  0  0  0  0  0999 V2000
   -2.6213   -1.4435    0.0000 N   0  0  0  0  0  0  0  0  0  0  0  0
   -4.0173   -1.9922    0.0000 C   0  0  0  0  0  0  0  0  0  0  0  0
   -2.3984    0.0399    0.0000 C   0  0  0  0  0  0  0  0  0  0  0  0
   -1.0023    0.5885    0.0000 C   0  0  0  0  0  0  0  0  0  0  0  0
    0.1708   -0.3462    0.0000 C   0  0  0  0  0  0  0  0  0  0  0  0
    0.1043   -1.8447    0.0000 C   0  0  0  0  0  0  0  0  0  0  0  0
    1.5089   -2.3711    0.0000 N   0  0  0  0  0  0  0  0  0  0  0  0
    2.4435   -1.1979    0.0000 C   0  0  0  0  0  0  0  0  0  0  0  0
    3.9408   -1.1075    0.0000 C   0  0  0  0  0  0  0  0  0  0  0  0
    4.6111    0.2344    0.0000 C   0  0  0  0  0  0  0  0  0  0  0  0
    3.7842    1.4859    0.0000 C   0  0  0  0  0  0  0  0  0  0  0  0
    2.2869    1.3955    0.0000 C   0  0  0  0  0  0  0  0  0  0  0  0
    1.4600    2.6469    0.0000 Cl  0  0  0  0  0  0  0  0  0  0  0  0
    1.6166    0.0536    0.0000 C   0  0  0  0  0  0  0  0  0  0  0  0
   -3.5716    0.9745    0.0000 C   0  0  0  0  0  0  0  0  0  0  0  0
   -3.3487    2.4579    0.0000 O   0  0  0  0  0  0  0  0  0  0  0  0
   -4.9676    0.4259    0.0000 O   0  0  0  0  0  0  0  0  0  0  0  0
  1  2  1  0
  1  3  1  0
  3  4  1  6
  4  5  1  0
  5  6  2  0
  6  7  1  0
  7  8  1  0
  8  9  2  0
  9 10  1  0
 10 11  2  0
 11 12  1  0
 12 13  1  0
 12 14  2  0
  3 15  1  0
 15 16  2  0
 15 17  1  0
 14  5  1  0
 14  8  1  0
M  END
>  <rName>  (2358) 
NMe-Trp_4Cl

>  <PQ_SYMBOL>  (2358) 
NMe-Trp_4Cl

>  <FULL_NAME>  (2358) 
N-methyl-4-chloro-L-tryptophan

>  <IUPAC_CONDENSED>  (2358) 
Me-Trp(4-Cl)

>  <IUPAC>  (2358) 
(2S)-3-(4-chloro-1H-indol-3-yl)-2-(methylamino)propanoic acid

>  <TYPE>  (2358) 
Backbone

>  <CLASS>  (2358) 
alpha

>  <ANALOG>  (2358) 
Trp

>  <MOL_WT>  (2358) 
252.701

>  <LOGP>  (2358) 
2.0363999999999995

>  <TPSA>  (2358) 
65.12

>  <POPULARITY>  (2358) 
3.2

>  <PROTECTED>  (2358) 
TRUE

>  <SMILES>  (2358) 
N(C)[C@@H](Cc1(c[nH]c2(cccc(Cl)c12)))C(=O)O

>  <INCHIKEY>  (2358) 
FDROFDCOBQKUMD-JTQLQIEISA-N

$$$$
NMe-Trp_4F
     RDKit          2D

 17 18  0  0  0  0  0  0  0  0999 V2000
   -2.6213   -1.4435    0.0000 N   0  0  0  0  0  0  0  0  0  0  0  0
   -4.0173   -1.9922    0.0000 C   0  0  0  0  0  0  0  0  0  0  0  0
   -2.3984    0.0399    0.0000 C   0  0  0  0  0  0  0  0  0  0  0  0
   -1.0023    0.5885    0.0000 C   0  0  0  0  0  0  0  0  0  0  0  0
    0.1708   -0.3462    0.0000 C   0  0  0  0  0  0  0  0  0  0  0  0
    0.1043   -1.8447    0.0000 C   0  0  0  0  0  0  0  0  0  0  0  0
    1.5089   -2.3711    0.0000 N   0  0  0  0  0  0  0  0  0  0  0  0
    2.4435   -1.1979    0.0000 C   0  0  0  0  0  0  0  0  0  0  0  0
    3.9408   -1.1075    0.0000 C   0  0  0  0  0  0  0  0  0  0  0  0
    4.6111    0.2344    0.0000 C   0  0  0  0  0  0  0  0  0  0  0  0
    3.7842    1.4859    0.0000 C   0  0  0  0  0  0  0  0  0  0  0  0
    2.2869    1.3955    0.0000 C   0  0  0  0  0  0  0  0  0  0  0  0
    1.4600    2.6469    0.0000 F   0  0  0  0  0  0  0  0  0  0  0  0
    1.6166    0.0536    0.0000 C   0  0  0  0  0  0  0  0  0  0  0  0
   -3.5716    0.9745    0.0000 C   0  0  0  0  0  0  0  0  0  0  0  0
   -3.3487    2.4579    0.0000 O   0  0  0  0  0  0  0  0  0  0  0  0
   -4.9676    0.4259    0.0000 O   0  0  0  0  0  0  0  0  0  0  0  0
  1  2  1  0
  1  3  1  0
  3  4  1  6
  4  5  1  0
  5  6  2  0
  6  7  1  0
  7  8  1  0
  8  9  2  0
  9 10  1  0
 10 11  2  0
 11 12  1  0
 12 13  1  0
 12 14  2  0
  3 15  1  0
 15 16  2  0
 15 17  1  0
 14  5  1  0
 14  8  1  0
M  END
>  <rName>  (2359) 
NMe-Trp_4F

>  <PQ_SYMBOL>  (2359) 
NMe-Trp_4F

>  <FULL_NAME>  (2359) 
N-methyl-4-fluoro-L-tryptophan

>  <IUPAC_CONDENSED>  (2359) 
Me-Trp(4-F)

>  <IUPAC>  (2359) 
(2S)-3-(4-fluoro-1H-indol-3-yl)-2-(methylamino)propanoic acid

>  <TYPE>  (2359) 
Backbone

>  <CLASS>  (2359) 
alpha

>  <ANALOG>  (2359) 
Trp

>  <MOL_WT>  (2359) 
236.24599999999998

>  <LOGP>  (2359) 
1.5220999999999998

>  <TPSA>  (2359) 
65.12

>  <POPULARITY>  (2359) 
4.6

>  <PROTECTED>  (2359) 
TRUE

>  <SMILES>  (2359) 
N(C)[C@@H](Cc1(c[nH]c2(cccc(F)c12)))C(=O)O

>  <INCHIKEY>  (2359) 
XRUUMAIJFWEJHA-JTQLQIEISA-N

$$$$
NMe-Trp_4I
     RDKit          2D

 17 18  0  0  0  0  0  0  0  0999 V2000
   -2.6213   -1.4435    0.0000 N   0  0  0  0  0  0  0  0  0  0  0  0
   -4.0173   -1.9922    0.0000 C   0  0  0  0  0  0  0  0  0  0  0  0
   -2.3984    0.0399    0.0000 C   0  0  0  0  0  0  0  0  0  0  0  0
   -1.0023    0.5885    0.0000 C   0  0  0  0  0  0  0  0  0  0  0  0
    0.1708   -0.3462    0.0000 C   0  0  0  0  0  0  0  0  0  0  0  0
    0.1043   -1.8447    0.0000 C   0  0  0  0  0  0  0  0  0  0  0  0
    1.5089   -2.3711    0.0000 N   0  0  0  0  0  0  0  0  0  0  0  0
    2.4435   -1.1979    0.0000 C   0  0  0  0  0  0  0  0  0  0  0  0
    3.9408   -1.1075    0.0000 C   0  0  0  0  0  0  0  0  0  0  0  0
    4.6111    0.2344    0.0000 C   0  0  0  0  0  0  0  0  0  0  0  0
    3.7842    1.4859    0.0000 C   0  0  0  0  0  0  0  0  0  0  0  0
    2.2869    1.3955    0.0000 C   0  0  0  0  0  0  0  0  0  0  0  0
    1.4600    2.6469    0.0000 I   0  0  0  0  0  0  0  0  0  0  0  0
    1.6166    0.0536    0.0000 C   0  0  0  0  0  0  0  0  0  0  0  0
   -3.5716    0.9745    0.0000 C   0  0  0  0  0  0  0  0  0  0  0  0
   -3.3487    2.4579    0.0000 O   0  0  0  0  0  0  0  0  0  0  0  0
   -4.9676    0.4259    0.0000 O   0  0  0  0  0  0  0  0  0  0  0  0
  1  2  1  0
  1  3  1  0
  3  4  1  6
  4  5  1  0
  5  6  2  0
  6  7  1  0
  7  8  1  0
  8  9  2  0
  9 10  1  0
 10 11  2  0
 11 12  1  0
 12 13  1  0
 12 14  2  0
  3 15  1  0
 15 16  2  0
 15 17  1  0
 14  5  1  0
 14  8  1  0
M  END
>  <rName>  (2360) 
NMe-Trp_4I

>  <PQ_SYMBOL>  (2360) 
NMe-Trp_4I

>  <FULL_NAME>  (2360) 
N-methyl-4-iodo-L-tryptophan

>  <IUPAC_CONDENSED>  (2360) 
Me-Trp(4-I)

>  <IUPAC>  (2360) 
(2S)-3-(4-iodo-1H-indol-3-yl)-2-(methylamino)propanoic acid

>  <TYPE>  (2360) 
Backbone

>  <CLASS>  (2360) 
alpha

>  <ANALOG>  (2360) 
Trp

>  <MOL_WT>  (2360) 
344.1520000000001

>  <LOGP>  (2360) 
1.9875999999999998

>  <TPSA>  (2360) 
65.12

>  <POPULARITY>  (2360) 
2.8

>  <PROTECTED>  (2360) 
TRUE

>  <SMILES>  (2360) 
N(C)[C@@H](Cc1(c[nH]c2(cccc(I)c12)))C(=O)O

>  <INCHIKEY>  (2360) 
XBLDCJVRWZUVAG-JTQLQIEISA-N

$$$$
NMe-Trp_4Me
     RDKit          2D

 17 18  0  0  0  0  0  0  0  0999 V2000
   -2.6213   -1.4435    0.0000 N   0  0  0  0  0  0  0  0  0  0  0  0
   -4.0173   -1.9922    0.0000 C   0  0  0  0  0  0  0  0  0  0  0  0
   -2.3984    0.0399    0.0000 C   0  0  0  0  0  0  0  0  0  0  0  0
   -1.0023    0.5885    0.0000 C   0  0  0  0  0  0  0  0  0  0  0  0
    0.1708   -0.3462    0.0000 C   0  0  0  0  0  0  0  0  0  0  0  0
    0.1043   -1.8447    0.0000 C   0  0  0  0  0  0  0  0  0  0  0  0
    1.5089   -2.3711    0.0000 N   0  0  0  0  0  0  0  0  0  0  0  0
    2.4435   -1.1979    0.0000 C   0  0  0  0  0  0  0  0  0  0  0  0
    3.9408   -1.1075    0.0000 C   0  0  0  0  0  0  0  0  0  0  0  0
    4.6111    0.2344    0.0000 C   0  0  0  0  0  0  0  0  0  0  0  0
    3.7842    1.4859    0.0000 C   0  0  0  0  0  0  0  0  0  0  0  0
    2.2869    1.3955    0.0000 C   0  0  0  0  0  0  0  0  0  0  0  0
    1.4600    2.6469    0.0000 C   0  0  0  0  0  0  0  0  0  0  0  0
    1.6166    0.0536    0.0000 C   0  0  0  0  0  0  0  0  0  0  0  0
   -3.5716    0.9745    0.0000 C   0  0  0  0  0  0  0  0  0  0  0  0
   -3.3487    2.4579    0.0000 O   0  0  0  0  0  0  0  0  0  0  0  0
   -4.9676    0.4259    0.0000 O   0  0  0  0  0  0  0  0  0  0  0  0
  1  2  1  0
  1  3  1  0
  3  4  1  6
  4  5  1  0
  5  6  2  0
  6  7  1  0
  7  8  1  0
  8  9  2  0
  9 10  1  0
 10 11  2  0
 11 12  1  0
 12 13  1  0
 12 14  2  0
  3 15  1  0
 15 16  2  0
 15 17  1  0
 14  5  1  0
 14  8  1  0
M  END
>  <rName>  (2361) 
NMe-Trp_4Me

>  <PQ_SYMBOL>  (2361) 
NMe-Trp_4Me

>  <FULL_NAME>  (2361) 
N-methyl-4-methyl-L-tryptophan

>  <IUPAC_CONDENSED>  (2361) 
Me-Trp(4-Me)

>  <IUPAC>  (2361) 
(2S)-3-(4-methyl-1H-indol-3-yl)-2-(methylamino)propanoic acid

>  <TYPE>  (2361) 
Backbone

>  <CLASS>  (2361) 
alpha

>  <ANALOG>  (2361) 
Trp

>  <MOL_WT>  (2361) 
232.283

>  <LOGP>  (2361) 
1.6914199999999997

>  <TPSA>  (2361) 
65.12

>  <POPULARITY>  (2361) 
4.9

>  <PROTECTED>  (2361) 
TRUE

>  <SMILES>  (2361) 
N(C)[C@@H](Cc1(c[nH]c2(cccc(C)c12)))C(=O)O

>  <INCHIKEY>  (2361) 
SVFIKKKUFAJCFV-NSHDSACASA-N

$$$$
NMe-Trp_4NO2
     RDKit          2D

 19 20  0  0  0  0  0  0  0  0999 V2000
   -2.8654   -1.5643    0.0000 N   0  0  0  0  0  0  0  0  0  0  0  0
   -4.3008   -1.9997    0.0000 C   0  0  0  0  0  0  0  0  0  0  0  0
   -2.5249   -0.1034    0.0000 C   0  0  0  0  0  0  0  0  0  0  0  0
   -1.0895    0.3321    0.0000 C   0  0  0  0  0  0  0  0  0  0  0  0
    0.0054   -0.6933    0.0000 C   0  0  0  0  0  0  0  0  0  0  0  0
   -0.1806   -2.1817    0.0000 C   0  0  0  0  0  0  0  0  0  0  0  0
    1.1775   -2.8186    0.0000 N   0  0  0  0  0  0  0  0  0  0  0  0
    2.2028   -1.7237    0.0000 C   0  0  0  0  0  0  0  0  0  0  0  0
    3.7025   -1.7531    0.0000 C   0  0  0  0  0  0  0  0  0  0  0  0
    4.4778   -0.4690    0.0000 C   0  0  0  0  0  0  0  0  0  0  0  0
    3.7534    0.8445    0.0000 C   0  0  0  0  0  0  0  0  0  0  0  0
    2.2537    0.8739    0.0000 C   0  0  0  0  0  0  0  0  0  0  0  0
    1.4784   -0.4102    0.0000 C   0  0  0  0  0  0  0  0  0  0  0  0
    1.5293    2.1873    0.0000 N   0  0  0  0  0  0  0  0  0  0  0  0
    0.0296    2.2167    0.0000 O   0  0  0  0  0  0  0  0  0  0  0  0
    2.3046    3.4714    0.0000 O   0  0  0  0  0  0  0  0  0  0  0  0
   -3.6197    0.9219    0.0000 C   0  0  0  0  0  0  0  0  0  0  0  0
   -3.2791    2.3827    0.0000 O   0  0  0  0  0  0  0  0  0  0  0  0
   -5.0551    0.4864    0.0000 O   0  0  0  0  0  0  0  0  0  0  0  0
  1  2  1  0
  1  3  1  0
  3  4  1  6
  4  5  1  0
  5  6  2  0
  6  7  1  0
  7  8  1  0
  8  9  2  0
  9 10  1  0
 10 11  2  0
 11 12  1  0
 12 13  2  0
 12 14  1  0
 14 15  2  0
 14 16  1  0
  3 17  1  0
 17 18  2  0
 17 19  1  0
 13  5  1  0
 13  8  1  0
M  CHG  2  14   1  16  -1
M  END
>  <rName>  (2362) 
NMe-Trp_4NO2

>  <PQ_SYMBOL>  (2362) 
NMe-Trp_4NO2

>  <FULL_NAME>  (2362) 
N-methyl-4-nitro-L-tryptophan

>  <IUPAC_CONDENSED>  (2362) 
Me-Trp(4-NO2)

>  <IUPAC>  (2362) 
(2S)-2-(methylamino)-3-(4-nitro-1H-indol-3-yl)propanoic acid

>  <TYPE>  (2362) 
Backbone

>  <CLASS>  (2362) 
alpha

>  <ANALOG>  (2362) 
Trp

>  <MOL_WT>  (2362) 
263.253

>  <LOGP>  (2362) 
1.2911999999999997

>  <TPSA>  (2362) 
108.26

>  <POPULARITY>  (2362) 
2.6

>  <PROTECTED>  (2362) 
TRUE

>  <SMILES>  (2362) 
N(C)[C@@H](Cc1(c[nH]c2(cccc(c12)[N+](=O)[O-])))C(=O)O

>  <INCHIKEY>  (2362) 
QXDTZLBLXHZFKC-VIFPVBQESA-N

$$$$
NMe-Trp_4OH
     RDKit          2D

 17 18  0  0  0  0  0  0  0  0999 V2000
   -2.6213   -1.4435    0.0000 N   0  0  0  0  0  0  0  0  0  0  0  0
   -4.0173   -1.9922    0.0000 C   0  0  0  0  0  0  0  0  0  0  0  0
   -2.3984    0.0399    0.0000 C   0  0  0  0  0  0  0  0  0  0  0  0
   -1.0023    0.5885    0.0000 C   0  0  0  0  0  0  0  0  0  0  0  0
    0.1708   -0.3462    0.0000 C   0  0  0  0  0  0  0  0  0  0  0  0
    0.1043   -1.8447    0.0000 C   0  0  0  0  0  0  0  0  0  0  0  0
    1.5089   -2.3711    0.0000 N   0  0  0  0  0  0  0  0  0  0  0  0
    2.4435   -1.1979    0.0000 C   0  0  0  0  0  0  0  0  0  0  0  0
    3.9408   -1.1075    0.0000 C   0  0  0  0  0  0  0  0  0  0  0  0
    4.6111    0.2344    0.0000 C   0  0  0  0  0  0  0  0  0  0  0  0
    3.7842    1.4859    0.0000 C   0  0  0  0  0  0  0  0  0  0  0  0
    2.2869    1.3955    0.0000 C   0  0  0  0  0  0  0  0  0  0  0  0
    1.4600    2.6469    0.0000 O   0  0  0  0  0  0  0  0  0  0  0  0
    1.6166    0.0536    0.0000 C   0  0  0  0  0  0  0  0  0  0  0  0
   -3.5716    0.9745    0.0000 C   0  0  0  0  0  0  0  0  0  0  0  0
   -3.3487    2.4579    0.0000 O   0  0  0  0  0  0  0  0  0  0  0  0
   -4.9676    0.4259    0.0000 O   0  0  0  0  0  0  0  0  0  0  0  0
  1  2  1  0
  1  3  1  0
  3  4  1  6
  4  5  1  0
  5  6  2  0
  6  7  1  0
  7  8  1  0
  8  9  2  0
  9 10  1  0
 10 11  2  0
 11 12  1  0
 12 13  1  0
 12 14  2  0
  3 15  1  0
 15 16  2  0
 15 17  1  0
 14  5  1  0
 14  8  1  0
M  END
>  <rName>  (2363) 
NMe-Trp_4OH

>  <PQ_SYMBOL>  (2363) 
NMe-Trp_4OH

>  <FULL_NAME>  (2363) 
N-methyl-4-hydroxy-L-tryptophan

>  <IUPAC_CONDENSED>  (2363) 
Me-Trp(4-OH)

>  <IUPAC>  (2363) 
(2S)-3-(4-hydroxy-1H-indol-3-yl)-2-(methylamino)propanoic acid

>  <TYPE>  (2363) 
Backbone

>  <CLASS>  (2363) 
alpha

>  <ANALOG>  (2363) 
Trp

>  <MOL_WT>  (2363) 
234.255

>  <LOGP>  (2363) 
1.0885999999999996

>  <TPSA>  (2363) 
85.35000000000001

>  <POPULARITY>  (2363) 
5.2

>  <PROTECTED>  (2363) 
TRUE

>  <SMILES>  (2363) 
N(C)[C@@H](Cc1(c[nH]c2(cccc(O)c12)))C(=O)O

>  <INCHIKEY>  (2363) 
CLYAICUGKHCRCF-VIFPVBQESA-N

$$$$
NMe-Trp_4OMe
     RDKit          2D

 18 19  0  0  0  0  0  0  0  0999 V2000
   -2.8628   -1.4431    0.0000 N   0  0  0  0  0  0  0  0  0  0  0  0
   -4.2979   -1.8795    0.0000 C   0  0  0  0  0  0  0  0  0  0  0  0
   -2.5232    0.0180    0.0000 C   0  0  0  0  0  0  0  0  0  0  0  0
   -1.0881    0.4545    0.0000 C   0  0  0  0  0  0  0  0  0  0  0  0
    0.0074   -0.5701    0.0000 C   0  0  0  0  0  0  0  0  0  0  0  0
   -0.1776   -2.0587    0.0000 C   0  0  0  0  0  0  0  0  0  0  0  0
    1.1810   -2.6946    0.0000 N   0  0  0  0  0  0  0  0  0  0  0  0
    2.2056   -1.5991    0.0000 C   0  0  0  0  0  0  0  0  0  0  0  0
    3.7053   -1.6274    0.0000 C   0  0  0  0  0  0  0  0  0  0  0  0
    4.4797   -0.3428    0.0000 C   0  0  0  0  0  0  0  0  0  0  0  0
    3.7544    0.9702    0.0000 C   0  0  0  0  0  0  0  0  0  0  0  0
    2.2547    0.9986    0.0000 C   0  0  0  0  0  0  0  0  0  0  0  0
    1.5294    2.3115    0.0000 O   0  0  0  0  0  0  0  0  0  0  0  0
    2.3038    3.5962    0.0000 C   0  0  0  0  0  0  0  0  0  0  0  0
    1.4803   -0.2861    0.0000 C   0  0  0  0  0  0  0  0  0  0  0  0
   -3.6188    1.0426    0.0000 C   0  0  0  0  0  0  0  0  0  0  0  0
   -3.2792    2.5037    0.0000 O   0  0  0  0  0  0  0  0  0  0  0  0
   -5.0539    0.6061    0.0000 O   0  0  0  0  0  0  0  0  0  0  0  0
  1  2  1  0
  1  3  1  0
  3  4  1  6
  4  5  1  0
  5  6  2  0
  6  7  1  0
  7  8  1  0
  8  9  2  0
  9 10  1  0
 10 11  2  0
 11 12  1  0
 12 13  1  0
 13 14  1  0
 12 15  2  0
  3 16  1  0
 16 17  2  0
 16 18  1  0
 15  8  1  0
 15  5  1  0
M  END
>  <rName>  (2364) 
NMe-Trp_4OMe

>  <PQ_SYMBOL>  (2364) 
NMe-Trp_4OMe

>  <FULL_NAME>  (2364) 
4-methoxy-N-methyl-L-tryptophan

>  <IUPAC_CONDENSED>  (2364) 
Me-Trp(4-OMe)

>  <IUPAC>  (2364) 
(2S)-3-(4-methoxy-1H-indol-3-yl)-2-(methylamino)propanoic acid

>  <TYPE>  (2364) 
Backbone

>  <CLASS>  (2364) 
alpha

>  <ANALOG>  (2364) 
Trp

>  <MOL_WT>  (2364) 
248.28199999999998

>  <LOGP>  (2364) 
1.3915999999999997

>  <TPSA>  (2364) 
74.35

>  <POPULARITY>  (2364) 
8.2

>  <PROTECTED>  (2364) 
TRUE

>  <SMILES>  (2364) 
N(C)[C@@H](Cc2(c[nH]c1(cccc(OC)c12)))C(=O)O

>  <INCHIKEY>  (2364) 
JOAGQVMOKFVKHN-JTQLQIEISA-N

$$$$
NMe-Trp_5Ac
     RDKit          2D

 19 20  0  0  0  0  0  0  0  0999 V2000
   -3.6121   -1.0239    0.0000 N   0  0  0  0  0  0  0  0  0  0  0  0
   -5.0965   -1.2395    0.0000 C   0  0  0  0  0  0  0  0  0  0  0  0
   -3.0565    0.3694    0.0000 C   0  0  0  0  0  0  0  0  0  0  0  0
   -1.5721    0.5850    0.0000 C   0  0  0  0  0  0  0  0  0  0  0  0
   -0.6432   -0.5928    0.0000 C   0  0  0  0  0  0  0  0  0  0  0  0
   -1.0500   -2.0366    0.0000 C   0  0  0  0  0  0  0  0  0  0  0  0
    0.1973   -2.8697    0.0000 N   0  0  0  0  0  0  0  0  0  0  0  0
    1.3751   -1.9407    0.0000 C   0  0  0  0  0  0  0  0  0  0  0  0
    2.8535   -2.1944    0.0000 C   0  0  0  0  0  0  0  0  0  0  0  0
    3.8124   -1.0410    0.0000 C   0  0  0  0  0  0  0  0  0  0  0  0
    3.2929    0.3662    0.0000 C   0  0  0  0  0  0  0  0  0  0  0  0
    1.8145    0.6199    0.0000 C   0  0  0  0  0  0  0  0  0  0  0  0
    0.8556   -0.5336    0.0000 C   0  0  0  0  0  0  0  0  0  0  0  0
    4.2518    1.5197    0.0000 C   0  0  0  0  0  0  0  0  0  0  0  0
    3.7323    2.9269    0.0000 O   0  0  0  0  0  0  0  0  0  0  0  0
    5.7302    1.2660    0.0000 C   0  0  0  0  0  0  0  0  0  0  0  0
   -3.9855    1.5472    0.0000 C   0  0  0  0  0  0  0  0  0  0  0  0
   -3.4299    2.9405    0.0000 O   0  0  0  0  0  0  0  0  0  0  0  0
   -5.4699    1.3316    0.0000 O   0  0  0  0  0  0  0  0  0  0  0  0
  1  2  1  0
  1  3  1  0
  3  4  1  6
  4  5  1  0
  5  6  2  0
  6  7  1  0
  7  8  1  0
  8  9  1  0
  9 10  2  0
 10 11  1  0
 11 12  2  0
 12 13  1  0
 11 14  1  0
 14 15  2  0
 14 16  1  0
  3 17  1  0
 17 18  2  0
 17 19  1  0
 13  5  1  0
 13  8  2  0
M  END
>  <rName>  (2365) 
NMe-Trp_5Ac

>  <PQ_SYMBOL>  (2365) 
NMe-Trp_5Ac

>  <FULL_NAME>  (2365) 
N-methyl-5-acetyl-L-tryptophan

>  <IUPAC_CONDENSED>  (2365) 
Me-Trp(5-Ac)

>  <IUPAC>  (2365) 
(2S)-3-(5-(acetyl)-1H-indol-3-yl)-2-(methylamino)propanoic acid

>  <TYPE>  (2365) 
Backbone

>  <CLASS>  (2365) 
alpha

>  <ANALOG>  (2365) 
Trp

>  <MOL_WT>  (2365) 
260.29299999999995

>  <LOGP>  (2365) 
1.5855999999999997

>  <TPSA>  (2365) 
82.19

>  <POPULARITY>  (2365) 
2.6

>  <PROTECTED>  (2365) 
TRUE

>  <SMILES>  (2365) 
N(C)[C@@H](Cc1(c[nH]c2(ccc(cc12)C(=O)C)))C(=O)O

>  <INCHIKEY>  (2365) 
UNNBGOVYZZWOOQ-ZDUSSCGKSA-N

$$$$
NMe-Trp_5Br
     RDKit          2D

 17 18  0  0  0  0  0  0  0  0999 V2000
   -2.8896   -1.2611    0.0000 N   0  0  0  0  0  0  0  0  0  0  0  0
   -4.3196   -1.7138    0.0000 C   0  0  0  0  0  0  0  0  0  0  0  0
   -2.5666    0.2038    0.0000 C   0  0  0  0  0  0  0  0  0  0  0  0
   -1.1366    0.6565    0.0000 C   0  0  0  0  0  0  0  0  0  0  0  0
   -0.0295   -0.3556    0.0000 C   0  0  0  0  0  0  0  0  0  0  0  0
   -0.1976   -1.8462    0.0000 C   0  0  0  0  0  0  0  0  0  0  0  0
    1.1681   -2.4666    0.0000 N   0  0  0  0  0  0  0  0  0  0  0  0
    2.1802   -1.3595    0.0000 C   0  0  0  0  0  0  0  0  0  0  0  0
    3.6802   -1.3709    0.0000 C   0  0  0  0  0  0  0  0  0  0  0  0
    4.4400   -0.0775    0.0000 C   0  0  0  0  0  0  0  0  0  0  0  0
    3.6998    1.2271    0.0000 C   0  0  0  0  0  0  0  0  0  0  0  0
    4.4596    2.5205    0.0000 Br  0  0  0  0  0  0  0  0  0  0  0  0
    2.1999    1.2385    0.0000 C   0  0  0  0  0  0  0  0  0  0  0  0
    1.4400   -0.0549    0.0000 C   0  0  0  0  0  0  0  0  0  0  0  0
   -3.6737    1.2159    0.0000 C   0  0  0  0  0  0  0  0  0  0  0  0
   -3.3508    2.6807    0.0000 O   0  0  0  0  0  0  0  0  0  0  0  0
   -5.1038    0.7632    0.0000 O   0  0  0  0  0  0  0  0  0  0  0  0
  1  2  1  0
  1  3  1  0
  3  4  1  6
  4  5  1  0
  5  6  2  0
  6  7  1  0
  7  8  1  0
  8  9  1  0
  9 10  2  0
 10 11  1  0
 11 12  1  0
 11 13  2  0
 13 14  1  0
  3 15  1  0
 15 16  2  0
 15 17  1  0
 14  5  1  0
 14  8  2  0
M  END
>  <rName>  (2366) 
NMe-Trp_5Br

>  <PQ_SYMBOL>  (2366) 
NMe-Trp_5Br

>  <FULL_NAME>  (2366) 
N-methyl-5-bromo-L-tryptophan

>  <IUPAC_CONDENSED>  (2366) 
Me-Trp(5-Br)

>  <IUPAC>  (2366) 
(2S)-3-(5-bromo-1H-indol-3-yl)-2-(methylamino)propanoic acid

>  <TYPE>  (2366) 
Backbone

>  <CLASS>  (2366) 
alpha

>  <ANALOG>  (2366) 
Trp

>  <MOL_WT>  (2366) 
297.15200000000004

>  <LOGP>  (2366) 
2.1454999999999997

>  <TPSA>  (2366) 
65.12

>  <POPULARITY>  (2366) 
4.9

>  <PROTECTED>  (2366) 
TRUE

>  <SMILES>  (2366) 
N(C)[C@@H](Cc1(c[nH]c2(ccc(Br)cc12)))C(=O)O

>  <INCHIKEY>  (2366) 
JRDUELVJXRQKQH-NSHDSACASA-N

$$$$
NMe-Trp_5CN
     RDKit          2D

 18 19  0  0  0  0  0  0  0  0999 V2000
   -3.3444   -1.0460    0.0000 N   0  0  0  0  0  0  0  0  0  0  0  0
   -4.8212   -1.3085    0.0000 C   0  0  0  0  0  0  0  0  0  0  0  0
   -2.8333    0.3642    0.0000 C   0  0  0  0  0  0  0  0  0  0  0  0
   -1.3564    0.6267    0.0000 C   0  0  0  0  0  0  0  0  0  0  0  0
   -0.3907   -0.5210    0.0000 C   0  0  0  0  0  0  0  0  0  0  0  0
   -0.7516   -1.9770    0.0000 C   0  0  0  0  0  0  0  0  0  0  0  0
    0.5216   -2.7701    0.0000 N   0  0  0  0  0  0  0  0  0  0  0  0
    1.6693   -1.8043    0.0000 C   0  0  0  0  0  0  0  0  0  0  0  0
    3.1550   -2.0111    0.0000 C   0  0  0  0  0  0  0  0  0  0  0  0
    4.0769   -0.8278    0.0000 C   0  0  0  0  0  0  0  0  0  0  0  0
    3.5131    0.5622    0.0000 C   0  0  0  0  0  0  0  0  0  0  0  0
    4.4349    1.7455    0.0000 C   0  0  0  0  0  0  0  0  0  0  0  0
    5.3568    2.9288    0.0000 N   0  0  0  0  0  0  0  0  0  0  0  0
    2.0274    0.7690    0.0000 C   0  0  0  0  0  0  0  0  0  0  0  0
    1.1055   -0.4143    0.0000 C   0  0  0  0  0  0  0  0  0  0  0  0
   -3.7991    1.5120    0.0000 C   0  0  0  0  0  0  0  0  0  0  0  0
   -3.2880    2.9222    0.0000 O   0  0  0  0  0  0  0  0  0  0  0  0
   -5.2759    1.2495    0.0000 O   0  0  0  0  0  0  0  0  0  0  0  0
  1  2  1  0
  1  3  1  0
  3  4  1  6
  4  5  1  0
  5  6  2  0
  6  7  1  0
  7  8  1  0
  8  9  1  0
  9 10  2  0
 10 11  1  0
 11 12  1  0
 12 13  3  0
 11 14  2  0
 14 15  1  0
  3 16  1  0
 16 17  2  0
 16 18  1  0
 15  5  1  0
 15  8  2  0
M  END
>  <rName>  (2367) 
NMe-Trp_5CN

>  <PQ_SYMBOL>  (2367) 
NMe-Trp_5CN

>  <FULL_NAME>  (2367) 
N-methyl-5-cyano-L-tryptophan

>  <IUPAC_CONDENSED>  (2367) 
Me-Trp(5-CN)

>  <IUPAC>  (2367) 
(2S)-2-(methylamino)-3-(5-(nitrilomethyl)-1H-indol-3-yl)propanoic acid

>  <TYPE>  (2367) 
Backbone

>  <CLASS>  (2367) 
alpha

>  <ANALOG>  (2367) 
Trp

>  <MOL_WT>  (2367) 
243.266

>  <LOGP>  (2367) 
1.2546799999999996

>  <TPSA>  (2367) 
88.91000000000001

>  <POPULARITY>  (2367) 
2.6

>  <PROTECTED>  (2367) 
TRUE

>  <SMILES>  (2367) 
N(C)[C@@H](Cc1(c[nH]c2(ccc(C#N)cc12)))C(=O)O

>  <INCHIKEY>  (2367) 
VFBZTICIDIKKOE-LBPRGKRZSA-N

$$$$
NMe-Trp_5CO2H
     RDKit          2D

 19 20  0  0  0  0  0  0  0  0999 V2000
   -3.6121   -1.0239    0.0000 N   0  0  0  0  0  0  0  0  0  0  0  0
   -5.0965   -1.2395    0.0000 C   0  0  0  0  0  0  0  0  0  0  0  0
   -3.0565    0.3694    0.0000 C   0  0  0  0  0  0  0  0  0  0  0  0
   -1.5721    0.5850    0.0000 C   0  0  0  0  0  0  0  0  0  0  0  0
   -0.6432   -0.5928    0.0000 C   0  0  0  0  0  0  0  0  0  0  0  0
   -1.0500   -2.0366    0.0000 C   0  0  0  0  0  0  0  0  0  0  0  0
    0.1973   -2.8697    0.0000 N   0  0  0  0  0  0  0  0  0  0  0  0
    1.3751   -1.9407    0.0000 C   0  0  0  0  0  0  0  0  0  0  0  0
    2.8535   -2.1944    0.0000 C   0  0  0  0  0  0  0  0  0  0  0  0
    3.8124   -1.0410    0.0000 C   0  0  0  0  0  0  0  0  0  0  0  0
    3.2929    0.3662    0.0000 C   0  0  0  0  0  0  0  0  0  0  0  0
    1.8145    0.6199    0.0000 C   0  0  0  0  0  0  0  0  0  0  0  0
    0.8556   -0.5336    0.0000 C   0  0  0  0  0  0  0  0  0  0  0  0
    4.2518    1.5197    0.0000 C   0  0  0  0  0  0  0  0  0  0  0  0
    3.7323    2.9269    0.0000 O   0  0  0  0  0  0  0  0  0  0  0  0
    5.7302    1.2660    0.0000 O   0  0  0  0  0  0  0  0  0  0  0  0
   -3.9855    1.5472    0.0000 C   0  0  0  0  0  0  0  0  0  0  0  0
   -3.4299    2.9405    0.0000 O   0  0  0  0  0  0  0  0  0  0  0  0
   -5.4699    1.3316    0.0000 O   0  0  0  0  0  0  0  0  0  0  0  0
  1  2  1  0
  1  3  1  0
  3  4  1  6
  4  5  1  0
  5  6  2  0
  6  7  1  0
  7  8  1  0
  8  9  1  0
  9 10  2  0
 10 11  1  0
 11 12  2  0
 12 13  1  0
 11 14  1  0
 14 15  2  0
 14 16  1  0
  3 17  1  0
 17 18  2  0
 17 19  1  0
 13  5  1  0
 13  8  2  0
M  END
>  <rName>  (2368) 
NMe-Trp_5CO2H

>  <PQ_SYMBOL>  (2368) 
NMe-Trp_5CO2H

>  <FULL_NAME>  (2368) 
N-methyl-5-carboxy-L-tryptophan

>  <IUPAC_CONDENSED>  (2368) 
Me-Trp(5-CO2H)

>  <IUPAC>  (2368) 
3-((2S)-3-hydroxy-2-(methylamino)-3-oxopropyl)-1H-indole-5-carboxylic acid

>  <TYPE>  (2368) 
Backbone

>  <CLASS>  (2368) 
alpha

>  <ANALOG>  (2368) 
Trp

>  <MOL_WT>  (2368) 
262.265

>  <LOGP>  (2368) 
1.0812

>  <TPSA>  (2368) 
102.42

>  <POPULARITY>  (2368) 
2.6

>  <PROTECTED>  (2368) 
TRUE

>  <SMILES>  (2368) 
N(C)[C@@H](Cc1(c[nH]c2(ccc(cc12)C(=O)O)))C(=O)O

>  <INCHIKEY>  (2368) 
YOZXXXIGORQMDN-NSHDSACASA-N

$$$$
NMe-Trp_5CONH2
     RDKit          2D

 19 20  0  0  0  0  0  0  0  0999 V2000
   -3.6121   -1.0239    0.0000 N   0  0  0  0  0  0  0  0  0  0  0  0
   -5.0965   -1.2395    0.0000 C   0  0  0  0  0  0  0  0  0  0  0  0
   -3.0565    0.3694    0.0000 C   0  0  0  0  0  0  0  0  0  0  0  0
   -1.5721    0.5850    0.0000 C   0  0  0  0  0  0  0  0  0  0  0  0
   -0.6432   -0.5928    0.0000 C   0  0  0  0  0  0  0  0  0  0  0  0
   -1.0500   -2.0366    0.0000 C   0  0  0  0  0  0  0  0  0  0  0  0
    0.1973   -2.8697    0.0000 N   0  0  0  0  0  0  0  0  0  0  0  0
    1.3751   -1.9407    0.0000 C   0  0  0  0  0  0  0  0  0  0  0  0
    2.8535   -2.1944    0.0000 C   0  0  0  0  0  0  0  0  0  0  0  0
    3.8124   -1.0410    0.0000 C   0  0  0  0  0  0  0  0  0  0  0  0
    3.2929    0.3662    0.0000 C   0  0  0  0  0  0  0  0  0  0  0  0
    1.8145    0.6199    0.0000 C   0  0  0  0  0  0  0  0  0  0  0  0
    0.8556   -0.5336    0.0000 C   0  0  0  0  0  0  0  0  0  0  0  0
    4.2518    1.5197    0.0000 C   0  0  0  0  0  0  0  0  0  0  0  0
    3.7323    2.9269    0.0000 O   0  0  0  0  0  0  0  0  0  0  0  0
    5.7302    1.2660    0.0000 N   0  0  0  0  0  0  0  0  0  0  0  0
   -3.9855    1.5472    0.0000 C   0  0  0  0  0  0  0  0  0  0  0  0
   -3.4299    2.9405    0.0000 O   0  0  0  0  0  0  0  0  0  0  0  0
   -5.4699    1.3316    0.0000 O   0  0  0  0  0  0  0  0  0  0  0  0
  1  2  1  0
  1  3  1  0
  3  4  1  6
  4  5  1  0
  5  6  2  0
  6  7  1  0
  7  8  1  0
  8  9  1  0
  9 10  2  0
 10 11  1  0
 11 12  2  0
 12 13  1  0
 11 14  1  0
 14 15  2  0
 14 16  1  0
  3 17  1  0
 17 18  2  0
 17 19  1  0
 13  5  1  0
 13  8  2  0
M  END
>  <rName>  (2369) 
NMe-Trp_5CONH2

>  <PQ_SYMBOL>  (2369) 
NMe-Trp_5CONH2

>  <FULL_NAME>  (2369) 
N-methyl-5-carbamoyl-L-tryptophan

>  <IUPAC_CONDENSED>  (2369) 
Me-Trp(5-CONH2)

>  <IUPAC>  (2369) 
(2S)-3-(5-carbamoyl-1H-indol-3-yl)-2-(methylamino)propanoic acid

>  <TYPE>  (2369) 
Backbone

>  <CLASS>  (2369) 
alpha

>  <ANALOG>  (2369) 
Trp

>  <MOL_WT>  (2369) 
261.28099999999995

>  <LOGP>  (2369) 
0.4818999999999996

>  <TPSA>  (2369) 
108.21

>  <POPULARITY>  (2369) 
2.6

>  <PROTECTED>  (2369) 
TRUE

>  <SMILES>  (2369) 
N(C)[C@@H](Cc1(c[nH]c2(ccc(cc12)C(=O)N)))C(=O)O

>  <INCHIKEY>  (2369) 
JIIIIFKQJPVLGQ-NSHDSACASA-N

$$$$
NMe-Trp_5Cl
     RDKit          2D

 17 18  0  0  0  0  0  0  0  0999 V2000
   -2.8896   -1.2611    0.0000 N   0  0  0  0  0  0  0  0  0  0  0  0
   -4.3196   -1.7138    0.0000 C   0  0  0  0  0  0  0  0  0  0  0  0
   -2.5666    0.2038    0.0000 C   0  0  0  0  0  0  0  0  0  0  0  0
   -1.1366    0.6565    0.0000 C   0  0  0  0  0  0  0  0  0  0  0  0
   -0.0295   -0.3556    0.0000 C   0  0  0  0  0  0  0  0  0  0  0  0
   -0.1976   -1.8462    0.0000 C   0  0  0  0  0  0  0  0  0  0  0  0
    1.1681   -2.4666    0.0000 N   0  0  0  0  0  0  0  0  0  0  0  0
    2.1802   -1.3595    0.0000 C   0  0  0  0  0  0  0  0  0  0  0  0
    3.6802   -1.3709    0.0000 C   0  0  0  0  0  0  0  0  0  0  0  0
    4.4400   -0.0775    0.0000 C   0  0  0  0  0  0  0  0  0  0  0  0
    3.6998    1.2271    0.0000 C   0  0  0  0  0  0  0  0  0  0  0  0
    4.4596    2.5205    0.0000 Cl  0  0  0  0  0  0  0  0  0  0  0  0
    2.1999    1.2385    0.0000 C   0  0  0  0  0  0  0  0  0  0  0  0
    1.4400   -0.0549    0.0000 C   0  0  0  0  0  0  0  0  0  0  0  0
   -3.6737    1.2159    0.0000 C   0  0  0  0  0  0  0  0  0  0  0  0
   -3.3508    2.6807    0.0000 O   0  0  0  0  0  0  0  0  0  0  0  0
   -5.1038    0.7632    0.0000 O   0  0  0  0  0  0  0  0  0  0  0  0
  1  2  1  0
  1  3  1  0
  3  4  1  6
  4  5  1  0
  5  6  2  0
  6  7  1  0
  7  8  1  0
  8  9  1  0
  9 10  2  0
 10 11  1  0
 11 12  1  0
 11 13  2  0
 13 14  1  0
  3 15  1  0
 15 16  2  0
 15 17  1  0
 14  5  1  0
 14  8  2  0
M  END
>  <rName>  (2370) 
NMe-Trp_5Cl

>  <PQ_SYMBOL>  (2370) 
NMe-Trp_5Cl

>  <FULL_NAME>  (2370) 
N-methyl-5-chloro-L-tryptophan

>  <IUPAC_CONDENSED>  (2370) 
Me-Trp(5-Cl)

>  <IUPAC>  (2370) 
(2S)-3-(5-chloro-1H-indol-3-yl)-2-(methylamino)propanoic acid

>  <TYPE>  (2370) 
Backbone

>  <CLASS>  (2370) 
alpha

>  <ANALOG>  (2370) 
Trp

>  <MOL_WT>  (2370) 
252.701

>  <LOGP>  (2370) 
2.0363999999999995

>  <TPSA>  (2370) 
65.12

>  <POPULARITY>  (2370) 
4.6

>  <PROTECTED>  (2370) 
TRUE

>  <SMILES>  (2370) 
N(C)[C@@H](Cc1(c[nH]c2(ccc(Cl)cc12)))C(=O)O

>  <INCHIKEY>  (2370) 
XRWGKFHGQXIFLF-NSHDSACASA-N

$$$$
NMe-Trp_5F
     RDKit          2D

 17 18  0  0  0  0  0  0  0  0999 V2000
   -2.8896   -1.2611    0.0000 N   0  0  0  0  0  0  0  0  0  0  0  0
   -4.3196   -1.7138    0.0000 C   0  0  0  0  0  0  0  0  0  0  0  0
   -2.5666    0.2038    0.0000 C   0  0  0  0  0  0  0  0  0  0  0  0
   -1.1366    0.6565    0.0000 C   0  0  0  0  0  0  0  0  0  0  0  0
   -0.0295   -0.3556    0.0000 C   0  0  0  0  0  0  0  0  0  0  0  0
   -0.1976   -1.8462    0.0000 C   0  0  0  0  0  0  0  0  0  0  0  0
    1.1681   -2.4666    0.0000 N   0  0  0  0  0  0  0  0  0  0  0  0
    2.1802   -1.3595    0.0000 C   0  0  0  0  0  0  0  0  0  0  0  0
    3.6802   -1.3709    0.0000 C   0  0  0  0  0  0  0  0  0  0  0  0
    4.4400   -0.0775    0.0000 C   0  0  0  0  0  0  0  0  0  0  0  0
    3.6998    1.2271    0.0000 C   0  0  0  0  0  0  0  0  0  0  0  0
    4.4596    2.5205    0.0000 F   0  0  0  0  0  0  0  0  0  0  0  0
    2.1999    1.2385    0.0000 C   0  0  0  0  0  0  0  0  0  0  0  0
    1.4400   -0.0549    0.0000 C   0  0  0  0  0  0  0  0  0  0  0  0
   -3.6737    1.2159    0.0000 C   0  0  0  0  0  0  0  0  0  0  0  0
   -3.3508    2.6807    0.0000 O   0  0  0  0  0  0  0  0  0  0  0  0
   -5.1038    0.7632    0.0000 O   0  0  0  0  0  0  0  0  0  0  0  0
  1  2  1  0
  1  3  1  0
  3  4  1  6
  4  5  1  0
  5  6  2  0
  6  7  1  0
  7  8  1  0
  8  9  1  0
  9 10  2  0
 10 11  1  0
 11 12  1  0
 11 13  2  0
 13 14  1  0
  3 15  1  0
 15 16  2  0
 15 17  1  0
 14  5  1  0
 14  8  2  0
M  END
>  <rName>  (2371) 
NMe-Trp_5F

>  <PQ_SYMBOL>  (2371) 
NMe-Trp_5F

>  <FULL_NAME>  (2371) 
N-methyl-5-fluoro-L-tryptophan

>  <IUPAC_CONDENSED>  (2371) 
Me-Trp(5-F)

>  <IUPAC>  (2371) 
(2S)-3-(5-fluoro-1H-indol-3-yl)-2-(methylamino)propanoic acid

>  <TYPE>  (2371) 
Backbone

>  <CLASS>  (2371) 
alpha

>  <ANALOG>  (2371) 
Trp

>  <MOL_WT>  (2371) 
236.24599999999998

>  <LOGP>  (2371) 
1.5220999999999998

>  <TPSA>  (2371) 
65.12

>  <POPULARITY>  (2371) 
6.3

>  <PROTECTED>  (2371) 
TRUE

>  <SMILES>  (2371) 
N(C)[C@@H](Cc1(c[nH]c2(ccc(F)cc12)))C(=O)O

>  <INCHIKEY>  (2371) 
LCPDBVSRQNBPDN-NSHDSACASA-N

$$$$
NMe-Trp_5For
     RDKit          2D

 18 19  0  0  0  0  0  0  0  0999 V2000
   -3.3329   -1.1071    0.0000 N   0  0  0  0  0  0  0  0  0  0  0  0
   -4.7977   -1.4302    0.0000 C   0  0  0  0  0  0  0  0  0  0  0  0
   -2.8804    0.3230    0.0000 C   0  0  0  0  0  0  0  0  0  0  0  0
   -1.4156    0.6462    0.0000 C   0  0  0  0  0  0  0  0  0  0  0  0
   -0.4034   -0.4608    0.0000 C   0  0  0  0  0  0  0  0  0  0  0  0
   -0.7039   -1.9304    0.0000 C   0  0  0  0  0  0  0  0  0  0  0  0
    0.6008   -2.6704    0.0000 N   0  0  0  0  0  0  0  0  0  0  0  0
    1.7078   -1.6581    0.0000 C   0  0  0  0  0  0  0  0  0  0  0  0
    3.2007   -1.8035    0.0000 C   0  0  0  0  0  0  0  0  0  0  0  0
    4.0731   -0.5832    0.0000 C   0  0  0  0  0  0  0  0  0  0  0  0
    3.4524    0.7824    0.0000 C   0  0  0  0  0  0  0  0  0  0  0  0
    4.3248    2.0027    0.0000 C   0  0  0  0  0  0  0  0  0  0  0  0
    5.8177    1.8574    0.0000 O   0  0  0  0  0  0  0  0  0  0  0  0
    1.9595    0.9277    0.0000 C   0  0  0  0  0  0  0  0  0  0  0  0
    1.0872   -0.2926    0.0000 C   0  0  0  0  0  0  0  0  0  0  0  0
   -3.8926    1.4300    0.0000 C   0  0  0  0  0  0  0  0  0  0  0  0
   -3.4401    2.8601    0.0000 O   0  0  0  0  0  0  0  0  0  0  0  0
   -5.3574    1.1068    0.0000 O   0  0  0  0  0  0  0  0  0  0  0  0
  1  2  1  0
  1  3  1  0
  3  4  1  6
  4  5  1  0
  5  6  2  0
  6  7  1  0
  7  8  1  0
  8  9  1  0
  9 10  2  0
 10 11  1  0
 11 12  1  0
 12 13  2  0
 11 14  2  0
 14 15  1  0
  3 16  1  0
 16 17  2  0
 16 18  1  0
 15  5  1  0
 15  8  2  0
M  END
>  <rName>  (2372) 
NMe-Trp_5For

>  <PQ_SYMBOL>  (2372) 
NMe-Trp_5For

>  <FULL_NAME>  (2372) 
N-methyl-5-formyl-L-tryptophan

>  <IUPAC_CONDENSED>  (2372) 
Me-Trp(5-For)

>  <IUPAC>  (2372) 
(2S)-3-(5-(formyl)-1H-indol-3-yl)-2-(methylamino)propanoic acid

>  <TYPE>  (2372) 
Backbone

>  <CLASS>  (2372) 
alpha

>  <ANALOG>  (2372) 
Trp

>  <MOL_WT>  (2372) 
246.266

>  <LOGP>  (2372) 
1.1954999999999998

>  <TPSA>  (2372) 
82.19

>  <POPULARITY>  (2372) 
2.6

>  <PROTECTED>  (2372) 
TRUE

>  <SMILES>  (2372) 
N(C)[C@@H](Cc1(c[nH]c2(ccc(C=O)cc12)))C(=O)O

>  <INCHIKEY>  (2372) 
ACVMOPYWSTXISL-LBPRGKRZSA-N

$$$$
NMe-Trp_5I
     RDKit          2D

 17 18  0  0  0  0  0  0  0  0999 V2000
   -2.8896   -1.2611    0.0000 N   0  0  0  0  0  0  0  0  0  0  0  0
   -4.3196   -1.7138    0.0000 C   0  0  0  0  0  0  0  0  0  0  0  0
   -2.5666    0.2038    0.0000 C   0  0  0  0  0  0  0  0  0  0  0  0
   -1.1366    0.6565    0.0000 C   0  0  0  0  0  0  0  0  0  0  0  0
   -0.0295   -0.3556    0.0000 C   0  0  0  0  0  0  0  0  0  0  0  0
   -0.1976   -1.8462    0.0000 C   0  0  0  0  0  0  0  0  0  0  0  0
    1.1681   -2.4666    0.0000 N   0  0  0  0  0  0  0  0  0  0  0  0
    2.1802   -1.3595    0.0000 C   0  0  0  0  0  0  0  0  0  0  0  0
    3.6802   -1.3709    0.0000 C   0  0  0  0  0  0  0  0  0  0  0  0
    4.4400   -0.0775    0.0000 C   0  0  0  0  0  0  0  0  0  0  0  0
    3.6998    1.2271    0.0000 C   0  0  0  0  0  0  0  0  0  0  0  0
    4.4596    2.5205    0.0000 I   0  0  0  0  0  0  0  0  0  0  0  0
    2.1999    1.2385    0.0000 C   0  0  0  0  0  0  0  0  0  0  0  0
    1.4400   -0.0549    0.0000 C   0  0  0  0  0  0  0  0  0  0  0  0
   -3.6737    1.2159    0.0000 C   0  0  0  0  0  0  0  0  0  0  0  0
   -3.3508    2.6807    0.0000 O   0  0  0  0  0  0  0  0  0  0  0  0
   -5.1038    0.7632    0.0000 O   0  0  0  0  0  0  0  0  0  0  0  0
  1  2  1  0
  1  3  1  0
  3  4  1  6
  4  5  1  0
  5  6  2  0
  6  7  1  0
  7  8  1  0
  8  9  1  0
  9 10  2  0
 10 11  1  0
 11 12  1  0
 11 13  2  0
 13 14  1  0
  3 15  1  0
 15 16  2  0
 15 17  1  0
 14  5  1  0
 14  8  2  0
M  END
>  <rName>  (2373) 
NMe-Trp_5I

>  <PQ_SYMBOL>  (2373) 
NMe-Trp_5I

>  <FULL_NAME>  (2373) 
N-methyl-5-iodo-L-tryptophan

>  <IUPAC_CONDENSED>  (2373) 
Me-Trp(5-I)

>  <IUPAC>  (2373) 
(2S)-3-(5-iodo-1H-indol-3-yl)-2-(methylamino)propanoic acid

>  <TYPE>  (2373) 
Backbone

>  <CLASS>  (2373) 
alpha

>  <ANALOG>  (2373) 
Trp

>  <MOL_WT>  (2373) 
344.1520000000001

>  <LOGP>  (2373) 
1.9875999999999998

>  <TPSA>  (2373) 
65.12

>  <POPULARITY>  (2373) 
3.2

>  <PROTECTED>  (2373) 
TRUE

>  <SMILES>  (2373) 
N(C)[C@@H](Cc1(c[nH]c2(ccc(I)cc12)))C(=O)O

>  <INCHIKEY>  (2373) 
HGYFCHAGVYPIGF-NSHDSACASA-N

$$$$
NMe-Trp_5Me
     RDKit          2D

 17 18  0  0  0  0  0  0  0  0999 V2000
   -2.8896   -1.2611    0.0000 N   0  0  0  0  0  0  0  0  0  0  0  0
   -4.3196   -1.7138    0.0000 C   0  0  0  0  0  0  0  0  0  0  0  0
   -2.5666    0.2038    0.0000 C   0  0  0  0  0  0  0  0  0  0  0  0
   -1.1366    0.6565    0.0000 C   0  0  0  0  0  0  0  0  0  0  0  0
   -0.0295   -0.3556    0.0000 C   0  0  0  0  0  0  0  0  0  0  0  0
   -0.1976   -1.8462    0.0000 C   0  0  0  0  0  0  0  0  0  0  0  0
    1.1681   -2.4666    0.0000 N   0  0  0  0  0  0  0  0  0  0  0  0
    2.1802   -1.3595    0.0000 C   0  0  0  0  0  0  0  0  0  0  0  0
    3.6802   -1.3709    0.0000 C   0  0  0  0  0  0  0  0  0  0  0  0
    4.4400   -0.0775    0.0000 C   0  0  0  0  0  0  0  0  0  0  0  0
    3.6998    1.2271    0.0000 C   0  0  0  0  0  0  0  0  0  0  0  0
    4.4596    2.5205    0.0000 C   0  0  0  0  0  0  0  0  0  0  0  0
    2.1999    1.2385    0.0000 C   0  0  0  0  0  0  0  0  0  0  0  0
    1.4400   -0.0549    0.0000 C   0  0  0  0  0  0  0  0  0  0  0  0
   -3.6737    1.2159    0.0000 C   0  0  0  0  0  0  0  0  0  0  0  0
   -3.3508    2.6807    0.0000 O   0  0  0  0  0  0  0  0  0  0  0  0
   -5.1038    0.7632    0.0000 O   0  0  0  0  0  0  0  0  0  0  0  0
  1  2  1  0
  1  3  1  0
  3  4  1  6
  4  5  1  0
  5  6  2  0
  6  7  1  0
  7  8  1  0
  8  9  1  0
  9 10  2  0
 10 11  1  0
 11 12  1  0
 11 13  2  0
 13 14  1  0
  3 15  1  0
 15 16  2  0
 15 17  1  0
 14  5  1  0
 14  8  2  0
M  END
>  <rName>  (2374) 
NMe-Trp_5Me

>  <PQ_SYMBOL>  (2374) 
NMe-Trp_5Me

>  <FULL_NAME>  (2374) 
N-methyl-5-methyl-L-tryptophan

>  <IUPAC_CONDENSED>  (2374) 
Me-Trp(5-Me)

>  <IUPAC>  (2374) 
(2S)-3-(5-methyl-1H-indol-3-yl)-2-(methylamino)propanoic acid

>  <TYPE>  (2374) 
Backbone

>  <CLASS>  (2374) 
alpha

>  <ANALOG>  (2374) 
Trp

>  <MOL_WT>  (2374) 
232.283

>  <LOGP>  (2374) 
1.6914199999999997

>  <TPSA>  (2374) 
65.12

>  <POPULARITY>  (2374) 
6.3

>  <PROTECTED>  (2374) 
TRUE

>  <SMILES>  (2374) 
N(C)[C@@H](Cc1(c[nH]c2(ccc(C)cc12)))C(=O)O

>  <INCHIKEY>  (2374) 
ZJQLMSCASHMRRK-LBPRGKRZSA-N

$$$$
NMe-Trp_5N3
     RDKit          2D

 19 20  0  0  0  0  0  0  0  0999 V2000
   -3.7800   -0.9829    0.0000 N   0  0  0  0  0  0  0  0  0  0  0  0
   -5.2609   -1.2218    0.0000 C   0  0  0  0  0  0  0  0  0  0  0  0
   -3.2465    0.4190    0.0000 C   0  0  0  0  0  0  0  0  0  0  0  0
   -1.7657    0.6580    0.0000 C   0  0  0  0  0  0  0  0  0  0  0  0
   -0.8183   -0.5050    0.0000 C   0  0  0  0  0  0  0  0  0  0  0  0
   -1.2023   -1.9550    0.0000 C   0  0  0  0  0  0  0  0  0  0  0  0
    0.0580   -2.7683    0.0000 N   0  0  0  0  0  0  0  0  0  0  0  0
    1.2210   -1.8210    0.0000 C   0  0  0  0  0  0  0  0  0  0  0  0
    2.7032   -2.0513    0.0000 C   0  0  0  0  0  0  0  0  0  0  0  0
    3.6438   -0.8829    0.0000 C   0  0  0  0  0  0  0  0  0  0  0  0
    3.1022    0.5159    0.0000 C   0  0  0  0  0  0  0  0  0  0  0  0
    1.6200    0.7463    0.0000 C   0  0  0  0  0  0  0  0  0  0  0  0
    0.6794   -0.4222    0.0000 C   0  0  0  0  0  0  0  0  0  0  0  0
    4.0428    1.6844    0.0000 N   0  0  0  0  0  0  0  0  0  0  0  0
    5.5250    1.4540    0.0000 N   0  0  0  0  0  0  0  0  0  0  0  0
    7.0072    1.2237    0.0000 N   0  0  0  0  0  0  0  0  0  0  0  0
   -4.1939    1.5820    0.0000 C   0  0  0  0  0  0  0  0  0  0  0  0
   -3.6604    2.9839    0.0000 O   0  0  0  0  0  0  0  0  0  0  0  0
   -5.6747    1.3431    0.0000 O   0  0  0  0  0  0  0  0  0  0  0  0
  1  2  1  0
  1  3  1  0
  3  4  1  6
  4  5  1  0
  5  6  2  0
  6  7  1  0
  7  8  1  0
  8  9  1  0
  9 10  2  0
 10 11  1  0
 11 12  2  0
 12 13  1  0
 11 14  1  0
 14 15  2  0
 15 16  2  0
  3 17  1  0
 17 18  2  0
 17 19  1  0
 13  5  1  0
 13  8  2  0
M  CHG  2  15   1  16  -1
M  END
>  <rName>  (2375) 
NMe-Trp_5N3

>  <PQ_SYMBOL>  (2375) 
NMe-Trp_5N3

>  <FULL_NAME>  (2375) 
N-methyl-5-azido-L-tryptophan

>  <IUPAC_CONDENSED>  (2375) 
Me-Trp(5-N3)

>  <IUPAC>  (2375) 
(2S)-3-(5-azido-1H-indol-3-yl)-2-(methylamino)propanoic acid

>  <TYPE>  (2375) 
Backbone

>  <CLASS>  (2375) 
alpha

>  <ANALOG>  (2375) 
Trp

>  <MOL_WT>  (2375) 
259.269

>  <LOGP>  (2375) 
2.3247999999999998

>  <TPSA>  (2375) 
113.88000000000001

>  <POPULARITY>  (2375) 
2.6

>  <PROTECTED>  (2375) 
TRUE

>  <SMILES>  (2375) 
N(C)[C@@H](Cc1(c[nH]c2(ccc(cc12)N=[N+]=[N-])))C(=O)O

>  <INCHIKEY>  (2375) 
GGCJRERUUMHLSS-NSHDSACASA-N

$$$$
NMe-Trp_5NO2
     RDKit          2D

 19 20  0  0  0  0  0  0  0  0999 V2000
   -3.6121   -1.0239    0.0000 N   0  0  0  0  0  0  0  0  0  0  0  0
   -5.0965   -1.2395    0.0000 C   0  0  0  0  0  0  0  0  0  0  0  0
   -3.0565    0.3694    0.0000 C   0  0  0  0  0  0  0  0  0  0  0  0
   -1.5721    0.5850    0.0000 C   0  0  0  0  0  0  0  0  0  0  0  0
   -0.6432   -0.5928    0.0000 C   0  0  0  0  0  0  0  0  0  0  0  0
   -1.0500   -2.0366    0.0000 C   0  0  0  0  0  0  0  0  0  0  0  0
    0.1973   -2.8697    0.0000 N   0  0  0  0  0  0  0  0  0  0  0  0
    1.3751   -1.9407    0.0000 C   0  0  0  0  0  0  0  0  0  0  0  0
    2.8535   -2.1944    0.0000 C   0  0  0  0  0  0  0  0  0  0  0  0
    3.8124   -1.0410    0.0000 C   0  0  0  0  0  0  0  0  0  0  0  0
    3.2929    0.3662    0.0000 C   0  0  0  0  0  0  0  0  0  0  0  0
    1.8145    0.6199    0.0000 C   0  0  0  0  0  0  0  0  0  0  0  0
    0.8556   -0.5336    0.0000 C   0  0  0  0  0  0  0  0  0  0  0  0
    4.2518    1.5197    0.0000 N   0  0  0  0  0  0  0  0  0  0  0  0
    3.7323    2.9269    0.0000 O   0  0  0  0  0  0  0  0  0  0  0  0
    5.7302    1.2660    0.0000 O   0  0  0  0  0  0  0  0  0  0  0  0
   -3.9855    1.5472    0.0000 C   0  0  0  0  0  0  0  0  0  0  0  0
   -3.4299    2.9405    0.0000 O   0  0  0  0  0  0  0  0  0  0  0  0
   -5.4699    1.3316    0.0000 O   0  0  0  0  0  0  0  0  0  0  0  0
  1  2  1  0
  1  3  1  0
  3  4  1  6
  4  5  1  0
  5  6  2  0
  6  7  1  0
  7  8  1  0
  8  9  1  0
  9 10  2  0
 10 11  1  0
 11 12  2  0
 12 13  1  0
 11 14  1  0
 14 15  2  0
 14 16  1  0
  3 17  1  0
 17 18  2  0
 17 19  1  0
 13  5  1  0
 13  8  2  0
M  CHG  2  14   1  16  -1
M  END
>  <rName>  (2376) 
NMe-Trp_5NO2

>  <PQ_SYMBOL>  (2376) 
NMe-Trp_5NO2

>  <FULL_NAME>  (2376) 
N-methyl-5-nitro-L-tryptophan

>  <IUPAC_CONDENSED>  (2376) 
Me-Trp(5-NO2)

>  <IUPAC>  (2376) 
(2S)-2-(methylamino)-3-(5-nitro-1H-indol-3-yl)propanoic acid

>  <TYPE>  (2376) 
Backbone

>  <CLASS>  (2376) 
alpha

>  <ANALOG>  (2376) 
Trp

>  <MOL_WT>  (2376) 
263.253

>  <LOGP>  (2376) 
1.2911999999999997

>  <TPSA>  (2376) 
108.26

>  <POPULARITY>  (2376) 
2.6

>  <PROTECTED>  (2376) 
TRUE

>  <SMILES>  (2376) 
N(C)[C@@H](Cc1(c[nH]c2(ccc(cc12)[N+](=O)[O-])))C(=O)O

>  <INCHIKEY>  (2376) 
XZRIZSDPMPYLBM-NSHDSACASA-N

$$$$
NMe-Trp_5OBn
     RDKit          2D

 24 26  0  0  0  0  0  0  0  0999 V2000
   -5.6573   -0.1991    0.0000 N   0  0  0  0  0  0  0  0  0  0  0  0
   -7.1419    0.0151    0.0000 C   0  0  0  0  0  0  0  0  0  0  0  0
   -4.7294    0.9795    0.0000 C   0  0  0  0  0  0  0  0  0  0  0  0
   -3.2448    0.7652    0.0000 C   0  0  0  0  0  0  0  0  0  0  0  0
   -2.6880   -0.6276    0.0000 C   0  0  0  0  0  0  0  0  0  0  0  0
   -3.4876   -1.8967    0.0000 C   0  0  0  0  0  0  0  0  0  0  0  0
   -2.5276   -3.0493    0.0000 N   0  0  0  0  0  0  0  0  0  0  0  0
   -1.1348   -2.4926    0.0000 C   0  0  0  0  0  0  0  0  0  0  0  0
    0.2110   -3.1551    0.0000 C   0  0  0  0  0  0  0  0  0  0  0  0
    1.4576   -2.3209    0.0000 C   0  0  0  0  0  0  0  0  0  0  0  0
    1.3585   -0.8241    0.0000 C   0  0  0  0  0  0  0  0  0  0  0  0
    2.6051    0.0101    0.0000 O   0  0  0  0  0  0  0  0  0  0  0  0
    3.9509   -0.6525    0.0000 C   0  0  0  0  0  0  0  0  0  0  0  0
    5.1975    0.1817    0.0000 C   0  0  0  0  0  0  0  0  0  0  0  0
    6.5433   -0.4808    0.0000 C   0  0  0  0  0  0  0  0  0  0  0  0
    7.7899    0.3534    0.0000 C   0  0  0  0  0  0  0  0  0  0  0  0
    7.6908    1.8501    0.0000 C   0  0  0  0  0  0  0  0  0  0  0  0
    6.3450    2.5127    0.0000 C   0  0  0  0  0  0  0  0  0  0  0  0
    5.0984    1.6785    0.0000 C   0  0  0  0  0  0  0  0  0  0  0  0
    0.0127   -0.1616    0.0000 C   0  0  0  0  0  0  0  0  0  0  0  0
   -1.2339   -0.9958    0.0000 C   0  0  0  0  0  0  0  0  0  0  0  0
   -5.2862    2.3723    0.0000 C   0  0  0  0  0  0  0  0  0  0  0  0
   -4.3584    3.5509    0.0000 O   0  0  0  0  0  0  0  0  0  0  0  0
   -6.7708    2.5865    0.0000 O   0  0  0  0  0  0  0  0  0  0  0  0
  1  2  1  0
  1  3  1  0
  3  4  1  6
  4  5  1  0
  5  6  2  0
  6  7  1  0
  7  8  1  0
  8  9  1  0
  9 10  2  0
 10 11  1  0
 11 12  1  0
 12 13  1  0
 13 14  1  0
 14 15  2  0
 15 16  1  0
 16 17  2  0
 17 18  1  0
 18 19  2  0
 11 20  2  0
 20 21  1  0
  3 22  1  0
 22 23  2  0
 22 24  1  0
 19 14  1  0
 21  5  1  0
 21  8  2  0
M  END
>  <rName>  (2377) 
NMe-Trp_5OBn

>  <PQ_SYMBOL>  (2377) 
NMe-Trp_5OBn

>  <FULL_NAME>  (2377) 
N-methyl-5-benzyloxy-L-tryptophan

>  <IUPAC_CONDENSED>  (2377) 
Me-Trp(5-OBn)

>  <IUPAC>  (2377) 
(2S)-2-(methylamino)-3-(5-benzyloxy-1H-indol-3-yl)propanoic acid

>  <TYPE>  (2377) 
Backbone

>  <CLASS>  (2377) 
alpha

>  <ANALOG>  (2377) 
Trp

>  <MOL_WT>  (2377) 
324.38000000000005

>  <LOGP>  (2377) 
2.9620000000000006

>  <TPSA>  (2377) 
74.35

>  <POPULARITY>  (2377) 
2.6

>  <PROTECTED>  (2377) 
TRUE

>  <SMILES>  (2377) 
N(C)[C@@H](Cc2(c[nH]c3(ccc(OCc1(ccccc1))cc23)))C(=O)O

>  <INCHIKEY>  (2377) 
ONJNVDTWJRKWAD-SFHVURJKSA-N

$$$$
NMe-Trp_5OH
     RDKit          2D

 17 18  0  0  0  0  0  0  0  0999 V2000
   -2.8896   -1.2611    0.0000 N   0  0  0  0  0  0  0  0  0  0  0  0
   -4.3196   -1.7138    0.0000 C   0  0  0  0  0  0  0  0  0  0  0  0
   -2.5666    0.2038    0.0000 C   0  0  0  0  0  0  0  0  0  0  0  0
   -1.1366    0.6565    0.0000 C   0  0  0  0  0  0  0  0  0  0  0  0
   -0.0295   -0.3556    0.0000 C   0  0  0  0  0  0  0  0  0  0  0  0
   -0.1976   -1.8462    0.0000 C   0  0  0  0  0  0  0  0  0  0  0  0
    1.1681   -2.4666    0.0000 N   0  0  0  0  0  0  0  0  0  0  0  0
    2.1802   -1.3595    0.0000 C   0  0  0  0  0  0  0  0  0  0  0  0
    3.6802   -1.3709    0.0000 C   0  0  0  0  0  0  0  0  0  0  0  0
    4.4400   -0.0775    0.0000 C   0  0  0  0  0  0  0  0  0  0  0  0
    3.6998    1.2271    0.0000 C   0  0  0  0  0  0  0  0  0  0  0  0
    4.4596    2.5205    0.0000 O   0  0  0  0  0  0  0  0  0  0  0  0
    2.1999    1.2385    0.0000 C   0  0  0  0  0  0  0  0  0  0  0  0
    1.4400   -0.0549    0.0000 C   0  0  0  0  0  0  0  0  0  0  0  0
   -3.6737    1.2159    0.0000 C   0  0  0  0  0  0  0  0  0  0  0  0
   -3.3508    2.6807    0.0000 O   0  0  0  0  0  0  0  0  0  0  0  0
   -5.1038    0.7632    0.0000 O   0  0  0  0  0  0  0  0  0  0  0  0
  1  2  1  0
  1  3  1  0
  3  4  1  6
  4  5  1  0
  5  6  2  0
  6  7  1  0
  7  8  1  0
  8  9  1  0
  9 10  2  0
 10 11  1  0
 11 12  1  0
 11 13  2  0
 13 14  1  0
  3 15  1  0
 15 16  2  0
 15 17  1  0
 14  5  1  0
 14  8  2  0
M  END
>  <rName>  (2378) 
NMe-Trp_5OH

>  <PQ_SYMBOL>  (2378) 
NMe-Trp_5OH

>  <FULL_NAME>  (2378) 
N-methyl-5-hydroxy-L-tryptophan

>  <IUPAC_CONDENSED>  (2378) 
Me-Trp(5-OH)

>  <IUPAC>  (2378) 
(2S)-3-(5-hydroxy-1H-indol-3-yl)-2-(methylamino)propanoic acid

>  <TYPE>  (2378) 
Backbone

>  <CLASS>  (2378) 
alpha

>  <ANALOG>  (2378) 
Trp

>  <MOL_WT>  (2378) 
234.255

>  <LOGP>  (2378) 
1.0885999999999998

>  <TPSA>  (2378) 
85.35000000000001

>  <POPULARITY>  (2378) 
6.5

>  <PROTECTED>  (2378) 
TRUE

>  <SMILES>  (2378) 
N(C)[C@@H](Cc1(c[nH]c2(ccc(O)cc12)))C(=O)O

>  <INCHIKEY>  (2378) 
VMVZKUBXYVZHGG-NSHDSACASA-N

$$$$
NMe-Trp_5OMe
     RDKit          2D

 18 19  0  0  0  0  0  0  0  0999 V2000
   -3.3329   -1.1071    0.0000 N   0  0  0  0  0  0  0  0  0  0  0  0
   -4.7977   -1.4302    0.0000 C   0  0  0  0  0  0  0  0  0  0  0  0
   -2.8804    0.3230    0.0000 C   0  0  0  0  0  0  0  0  0  0  0  0
   -1.4156    0.6462    0.0000 C   0  0  0  0  0  0  0  0  0  0  0  0
   -0.4034   -0.4608    0.0000 C   0  0  0  0  0  0  0  0  0  0  0  0
   -0.7039   -1.9304    0.0000 C   0  0  0  0  0  0  0  0  0  0  0  0
    0.6008   -2.6704    0.0000 N   0  0  0  0  0  0  0  0  0  0  0  0
    1.7078   -1.6581    0.0000 C   0  0  0  0  0  0  0  0  0  0  0  0
    3.2007   -1.8035    0.0000 C   0  0  0  0  0  0  0  0  0  0  0  0
    4.0731   -0.5832    0.0000 C   0  0  0  0  0  0  0  0  0  0  0  0
    3.4524    0.7824    0.0000 C   0  0  0  0  0  0  0  0  0  0  0  0
    4.3248    2.0027    0.0000 O   0  0  0  0  0  0  0  0  0  0  0  0
    5.8177    1.8574    0.0000 C   0  0  0  0  0  0  0  0  0  0  0  0
    1.9595    0.9277    0.0000 C   0  0  0  0  0  0  0  0  0  0  0  0
    1.0872   -0.2926    0.0000 C   0  0  0  0  0  0  0  0  0  0  0  0
   -3.8926    1.4300    0.0000 C   0  0  0  0  0  0  0  0  0  0  0  0
   -3.4401    2.8601    0.0000 O   0  0  0  0  0  0  0  0  0  0  0  0
   -5.3574    1.1068    0.0000 O   0  0  0  0  0  0  0  0  0  0  0  0
  1  2  1  0
  1  3  1  0
  3  4  1  6
  4  5  1  0
  5  6  2  0
  6  7  1  0
  7  8  1  0
  8  9  1  0
  9 10  2  0
 10 11  1  0
 11 12  1  0
 12 13  1  0
 11 14  2  0
 14 15  1  0
  3 16  1  0
 16 17  2  0
 16 18  1  0
 15  5  1  0
 15  8  2  0
M  END
>  <rName>  (2379) 
NMe-Trp_5OMe

>  <PQ_SYMBOL>  (2379) 
NMe-Trp_5OMe

>  <FULL_NAME>  (2379) 
N-methyl-5-methoxy-L-tryptophan

>  <IUPAC_CONDENSED>  (2379) 
Me-Trp(5-OMe)

>  <IUPAC>  (2379) 
(2S)-3-(5-methoxy-1H-indol-3-yl)-2-(methylamino)propanoic acid

>  <TYPE>  (2379) 
Backbone

>  <CLASS>  (2379) 
alpha

>  <ANALOG>  (2379) 
Trp

>  <MOL_WT>  (2379) 
248.28199999999998

>  <LOGP>  (2379) 
1.3915999999999997

>  <TPSA>  (2379) 
74.35

>  <POPULARITY>  (2379) 
5.7

>  <PROTECTED>  (2379) 
TRUE

>  <SMILES>  (2379) 
N(C)[C@@H](Cc1(c[nH]c2(ccc(OC)cc12)))C(=O)O

>  <INCHIKEY>  (2379) 
LDUTWQDMVCQWGA-LBPRGKRZSA-N

$$$$
NMe-Trp_6Ac
     RDKit          2D

 19 20  0  0  0  0  0  0  0  0999 V2000
   -3.6142   -1.2883    0.0000 N   0  0  0  0  0  0  0  0  0  0  0  0
   -5.0209   -1.8089    0.0000 C   0  0  0  0  0  0  0  0  0  0  0  0
   -3.3617    0.1903    0.0000 C   0  0  0  0  0  0  0  0  0  0  0  0
   -1.9550    0.7110    0.0000 C   0  0  0  0  0  0  0  0  0  0  0  0
   -0.8007   -0.2469    0.0000 C   0  0  0  0  0  0  0  0  0  0  0  0
   -0.8972   -1.7438    0.0000 C   0  0  0  0  0  0  0  0  0  0  0  0
    0.4966   -2.2982    0.0000 N   0  0  0  0  0  0  0  0  0  0  0  0
    1.4545   -1.1439    0.0000 C   0  0  0  0  0  0  0  0  0  0  0  0
    2.9533   -1.0834    0.0000 C   0  0  0  0  0  0  0  0  0  0  0  0
    3.6503    0.2448    0.0000 C   0  0  0  0  0  0  0  0  0  0  0  0
    2.8486    1.5125    0.0000 C   0  0  0  0  0  0  0  0  0  0  0  0
    1.3498    1.4520    0.0000 C   0  0  0  0  0  0  0  0  0  0  0  0
    0.6528    0.1238    0.0000 C   0  0  0  0  0  0  0  0  0  0  0  0
    5.1491    0.3053    0.0000 C   0  0  0  0  0  0  0  0  0  0  0  0
    5.8461    1.6335    0.0000 O   0  0  0  0  0  0  0  0  0  0  0  0
    5.9509   -0.9625    0.0000 C   0  0  0  0  0  0  0  0  0  0  0  0
   -4.5160    1.1483    0.0000 C   0  0  0  0  0  0  0  0  0  0  0  0
   -4.2635    2.6269    0.0000 O   0  0  0  0  0  0  0  0  0  0  0  0
   -5.9227    0.6276    0.0000 O   0  0  0  0  0  0  0  0  0  0  0  0
  1  2  1  0
  1  3  1  0
  3  4  1  6
  4  5  1  0
  5  6  2  0
  6  7  1  0
  7  8  1  0
  8  9  1  0
  9 10  2  0
 10 11  1  0
 11 12  2  0
 12 13  1  0
 10 14  1  0
 14 15  2  0
 14 16  1  0
  3 17  1  0
 17 18  2  0
 17 19  1  0
 13  5  1  0
 13  8  2  0
M  END
>  <rName>  (2380) 
NMe-Trp_6Ac

>  <PQ_SYMBOL>  (2380) 
NMe-Trp_6Ac

>  <FULL_NAME>  (2380) 
N-methyl-6-acetyl-L-tryptophan

>  <IUPAC_CONDENSED>  (2380) 
Me-Trp(6-Ac)

>  <IUPAC>  (2380) 
(2S)-3-(6-(acetyl)-1H-indol-3-yl)-2-(methylamino)propanoic acid

>  <TYPE>  (2380) 
Backbone

>  <CLASS>  (2380) 
alpha

>  <ANALOG>  (2380) 
Trp

>  <MOL_WT>  (2380) 
260.29299999999995

>  <LOGP>  (2380) 
1.5855999999999997

>  <TPSA>  (2380) 
82.19

>  <POPULARITY>  (2380) 
2.6

>  <PROTECTED>  (2380) 
TRUE

>  <SMILES>  (2380) 
N(C)[C@@H](Cc1(c[nH]c2(cc(ccc12)C(=O)C)))C(=O)O

>  <INCHIKEY>  (2380) 
INYRRXLLSPMLNY-ZDUSSCGKSA-N

$$$$
NMe-Trp_6Br
     RDKit          2D

 17 18  0  0  0  0  0  0  0  0999 V2000
   -2.8839   -1.3305    0.0000 N   0  0  0  0  0  0  0  0  0  0  0  0
   -4.2754   -1.8906    0.0000 C   0  0  0  0  0  0  0  0  0  0  0  0
   -2.6732    0.1546    0.0000 C   0  0  0  0  0  0  0  0  0  0  0  0
   -1.2817    0.7147    0.0000 C   0  0  0  0  0  0  0  0  0  0  0  0
   -0.1009   -0.2104    0.0000 C   0  0  0  0  0  0  0  0  0  0  0  0
   -0.1552   -1.7094    0.0000 C   0  0  0  0  0  0  0  0  0  0  0  0
    1.2536   -2.2243    0.0000 N   0  0  0  0  0  0  0  0  0  0  0  0
    2.1787   -1.0435    0.0000 C   0  0  0  0  0  0  0  0  0  0  0  0
    3.6752   -0.9409    0.0000 C   0  0  0  0  0  0  0  0  0  0  0  0
    4.3345    0.4064    0.0000 C   0  0  0  0  0  0  0  0  0  0  0  0
    5.8310    0.5091    0.0000 Br  0  0  0  0  0  0  0  0  0  0  0  0
    3.4974    1.6511    0.0000 C   0  0  0  0  0  0  0  0  0  0  0  0
    2.0009    1.5485    0.0000 C   0  0  0  0  0  0  0  0  0  0  0  0
    1.3416    0.2011    0.0000 C   0  0  0  0  0  0  0  0  0  0  0  0
   -3.8540    1.0797    0.0000 C   0  0  0  0  0  0  0  0  0  0  0  0
   -3.6432    2.5648    0.0000 O   0  0  0  0  0  0  0  0  0  0  0  0
   -5.2455    0.5196    0.0000 O   0  0  0  0  0  0  0  0  0  0  0  0
  1  2  1  0
  1  3  1  0
  3  4  1  6
  4  5  1  0
  5  6  2  0
  6  7  1  0
  7  8  1  0
  8  9  1  0
  9 10  2  0
 10 11  1  0
 10 12  1  0
 12 13  2  0
 13 14  1  0
  3 15  1  0
 15 16  2  0
 15 17  1  0
 14  5  1  0
 14  8  2  0
M  END
>  <rName>  (2381) 
NMe-Trp_6Br

>  <PQ_SYMBOL>  (2381) 
NMe-Trp_6Br

>  <FULL_NAME>  (2381) 
N-methyl-6-bromo-L-tryptophan

>  <IUPAC_CONDENSED>  (2381) 
Me-Trp(6-Br)

>  <IUPAC>  (2381) 
(2S)-3-(6-bromo-1H-indol-3-yl)-2-(methylamino)propanoic acid

>  <TYPE>  (2381) 
Backbone

>  <CLASS>  (2381) 
alpha

>  <ANALOG>  (2381) 
Trp

>  <MOL_WT>  (2381) 
297.15200000000004

>  <LOGP>  (2381) 
2.1454999999999997

>  <TPSA>  (2381) 
65.12

>  <POPULARITY>  (2381) 
4.6

>  <PROTECTED>  (2381) 
TRUE

>  <SMILES>  (2381) 
N(C)[C@@H](Cc1(c[nH]c2(cc(Br)ccc12)))C(=O)O

>  <INCHIKEY>  (2381) 
KKZJYMVVLCNOBO-NSHDSACASA-N

$$$$
NMe-Trp_6CN
     RDKit          2D

 18 19  0  0  0  0  0  0  0  0999 V2000
   -3.3188   -1.2955    0.0000 N   0  0  0  0  0  0  0  0  0  0  0  0
   -4.7217   -1.8264    0.0000 C   0  0  0  0  0  0  0  0  0  0  0  0
   -3.0771    0.1849    0.0000 C   0  0  0  0  0  0  0  0  0  0  0  0
   -1.6742    0.7158    0.0000 C   0  0  0  0  0  0  0  0  0  0  0  0
   -0.5129   -0.2337    0.0000 C   0  0  0  0  0  0  0  0  0  0  0  0
   -0.5986   -1.7313    0.0000 C   0  0  0  0  0  0  0  0  0  0  0  0
    0.7992   -2.2755    0.0000 N   0  0  0  0  0  0  0  0  0  0  0  0
    1.7487   -1.1142    0.0000 C   0  0  0  0  0  0  0  0  0  0  0  0
    3.2470   -1.0429    0.0000 C   0  0  0  0  0  0  0  0  0  0  0  0
    3.9344    0.2904    0.0000 C   0  0  0  0  0  0  0  0  0  0  0  0
    5.4327    0.3618    0.0000 C   0  0  0  0  0  0  0  0  0  0  0  0
    6.9310    0.4332    0.0000 N   0  0  0  0  0  0  0  0  0  0  0  0
    3.1234    1.5523    0.0000 C   0  0  0  0  0  0  0  0  0  0  0  0
    1.6251    1.4809    0.0000 C   0  0  0  0  0  0  0  0  0  0  0  0
    0.9378    0.1476    0.0000 C   0  0  0  0  0  0  0  0  0  0  0  0
   -4.2383    1.1344    0.0000 C   0  0  0  0  0  0  0  0  0  0  0  0
   -3.9966    2.6148    0.0000 O   0  0  0  0  0  0  0  0  0  0  0  0
   -5.6412    0.6035    0.0000 O   0  0  0  0  0  0  0  0  0  0  0  0
  1  2  1  0
  1  3  1  0
  3  4  1  6
  4  5  1  0
  5  6  2  0
  6  7  1  0
  7  8  1  0
  8  9  1  0
  9 10  2  0
 10 11  1  0
 11 12  3  0
 10 13  1  0
 13 14  2  0
 14 15  1  0
  3 16  1  0
 16 17  2  0
 16 18  1  0
 15  5  1  0
 15  8  2  0
M  END
>  <rName>  (2382) 
NMe-Trp_6CN

>  <PQ_SYMBOL>  (2382) 
NMe-Trp_6CN

>  <FULL_NAME>  (2382) 
N-methyl-6-cyano-L-tryptophan

>  <IUPAC_CONDENSED>  (2382) 
Me-Trp(6-CN)

>  <IUPAC>  (2382) 
(2S)-2-(methylamino)-3-(6-(nitrilomethyl)-1H-indol-3-yl)propanoic acid

>  <TYPE>  (2382) 
Backbone

>  <CLASS>  (2382) 
alpha

>  <ANALOG>  (2382) 
Trp

>  <MOL_WT>  (2382) 
243.266

>  <LOGP>  (2382) 
1.2546799999999998

>  <TPSA>  (2382) 
88.91000000000001

>  <POPULARITY>  (2382) 
2.6

>  <PROTECTED>  (2382) 
TRUE

>  <SMILES>  (2382) 
N(C)[C@@H](Cc1(c[nH]c2(cc(C#N)ccc12)))C(=O)O

>  <INCHIKEY>  (2382) 
FHNKMUWFGDGWHA-LBPRGKRZSA-N

$$$$
NMe-Trp_6CO2H
     RDKit          2D

 19 20  0  0  0  0  0  0  0  0999 V2000
   -3.6142   -1.2883    0.0000 N   0  0  0  0  0  0  0  0  0  0  0  0
   -5.0209   -1.8089    0.0000 C   0  0  0  0  0  0  0  0  0  0  0  0
   -3.3617    0.1903    0.0000 C   0  0  0  0  0  0  0  0  0  0  0  0
   -1.9550    0.7110    0.0000 C   0  0  0  0  0  0  0  0  0  0  0  0
   -0.8007   -0.2469    0.0000 C   0  0  0  0  0  0  0  0  0  0  0  0
   -0.8972   -1.7438    0.0000 C   0  0  0  0  0  0  0  0  0  0  0  0
    0.4966   -2.2982    0.0000 N   0  0  0  0  0  0  0  0  0  0  0  0
    1.4545   -1.1439    0.0000 C   0  0  0  0  0  0  0  0  0  0  0  0
    2.9533   -1.0834    0.0000 C   0  0  0  0  0  0  0  0  0  0  0  0
    3.6503    0.2448    0.0000 C   0  0  0  0  0  0  0  0  0  0  0  0
    2.8486    1.5125    0.0000 C   0  0  0  0  0  0  0  0  0  0  0  0
    1.3498    1.4520    0.0000 C   0  0  0  0  0  0  0  0  0  0  0  0
    0.6528    0.1238    0.0000 C   0  0  0  0  0  0  0  0  0  0  0  0
    5.1491    0.3053    0.0000 C   0  0  0  0  0  0  0  0  0  0  0  0
    5.8461    1.6335    0.0000 O   0  0  0  0  0  0  0  0  0  0  0  0
    5.9509   -0.9625    0.0000 O   0  0  0  0  0  0  0  0  0  0  0  0
   -4.5160    1.1483    0.0000 C   0  0  0  0  0  0  0  0  0  0  0  0
   -4.2635    2.6269    0.0000 O   0  0  0  0  0  0  0  0  0  0  0  0
   -5.9227    0.6276    0.0000 O   0  0  0  0  0  0  0  0  0  0  0  0
  1  2  1  0
  1  3  1  0
  3  4  1  6
  4  5  1  0
  5  6  2  0
  6  7  1  0
  7  8  1  0
  8  9  1  0
  9 10  2  0
 10 11  1  0
 11 12  2  0
 12 13  1  0
 10 14  1  0
 14 15  2  0
 14 16  1  0
  3 17  1  0
 17 18  2  0
 17 19  1  0
 13  5  1  0
 13  8  2  0
M  END
>  <rName>  (2383) 
NMe-Trp_6CO2H

>  <PQ_SYMBOL>  (2383) 
NMe-Trp_6CO2H

>  <FULL_NAME>  (2383) 
N-methyl-6-carboxy-L-tryptophan

>  <IUPAC_CONDENSED>  (2383) 
Me-Trp(6-CO2H)

>  <IUPAC>  (2383) 
3-((2S)-3-hydroxy-2-(methylamino)-3-oxopropyl)-1H-indole-6-carboxylic acid

>  <TYPE>  (2383) 
Backbone

>  <CLASS>  (2383) 
alpha

>  <ANALOG>  (2383) 
Trp

>  <MOL_WT>  (2383) 
262.265

>  <LOGP>  (2383) 
1.0812

>  <TPSA>  (2383) 
102.42

>  <POPULARITY>  (2383) 
2.6

>  <PROTECTED>  (2383) 
TRUE

>  <SMILES>  (2383) 
N(C)[C@@H](Cc1(c[nH]c2(cc(ccc12)C(=O)O)))C(=O)O

>  <INCHIKEY>  (2383) 
BJYGWIIWVWGYGD-NSHDSACASA-N

$$$$
NMe-Trp_6CONH2
     RDKit          2D

 19 20  0  0  0  0  0  0  0  0999 V2000
   -3.6142   -1.2883    0.0000 N   0  0  0  0  0  0  0  0  0  0  0  0
   -5.0209   -1.8089    0.0000 C   0  0  0  0  0  0  0  0  0  0  0  0
   -3.3617    0.1903    0.0000 C   0  0  0  0  0  0  0  0  0  0  0  0
   -1.9550    0.7110    0.0000 C   0  0  0  0  0  0  0  0  0  0  0  0
   -0.8007   -0.2469    0.0000 C   0  0  0  0  0  0  0  0  0  0  0  0
   -0.8972   -1.7438    0.0000 C   0  0  0  0  0  0  0  0  0  0  0  0
    0.4966   -2.2982    0.0000 N   0  0  0  0  0  0  0  0  0  0  0  0
    1.4545   -1.1439    0.0000 C   0  0  0  0  0  0  0  0  0  0  0  0
    2.9533   -1.0834    0.0000 C   0  0  0  0  0  0  0  0  0  0  0  0
    3.6503    0.2448    0.0000 C   0  0  0  0  0  0  0  0  0  0  0  0
    2.8486    1.5125    0.0000 C   0  0  0  0  0  0  0  0  0  0  0  0
    1.3498    1.4520    0.0000 C   0  0  0  0  0  0  0  0  0  0  0  0
    0.6528    0.1238    0.0000 C   0  0  0  0  0  0  0  0  0  0  0  0
    5.1491    0.3053    0.0000 C   0  0  0  0  0  0  0  0  0  0  0  0
    5.8461    1.6335    0.0000 O   0  0  0  0  0  0  0  0  0  0  0  0
    5.9509   -0.9625    0.0000 N   0  0  0  0  0  0  0  0  0  0  0  0
   -4.5160    1.1483    0.0000 C   0  0  0  0  0  0  0  0  0  0  0  0
   -4.2635    2.6269    0.0000 O   0  0  0  0  0  0  0  0  0  0  0  0
   -5.9227    0.6276    0.0000 O   0  0  0  0  0  0  0  0  0  0  0  0
  1  2  1  0
  1  3  1  0
  3  4  1  6
  4  5  1  0
  5  6  2  0
  6  7  1  0
  7  8  1  0
  8  9  1  0
  9 10  2  0
 10 11  1  0
 11 12  2  0
 12 13  1  0
 10 14  1  0
 14 15  2  0
 14 16  1  0
  3 17  1  0
 17 18  2  0
 17 19  1  0
 13  5  1  0
 13  8  2  0
M  END
>  <rName>  (2384) 
NMe-Trp_6CONH2

>  <PQ_SYMBOL>  (2384) 
NMe-Trp_6CONH2

>  <FULL_NAME>  (2384) 
N-methyl-6-carbamoyl-L-tryptophan

>  <IUPAC_CONDENSED>  (2384) 
Me-Trp(6-CONH2)

>  <IUPAC>  (2384) 
(2S)-3-(6-carbamoyl-1H-indol-3-yl)-2-(methylamino)propanoic acid

>  <TYPE>  (2384) 
Backbone

>  <CLASS>  (2384) 
alpha

>  <ANALOG>  (2384) 
Trp

>  <MOL_WT>  (2384) 
261.28099999999995

>  <LOGP>  (2384) 
0.4818999999999996

>  <TPSA>  (2384) 
108.21

>  <POPULARITY>  (2384) 
2.6

>  <PROTECTED>  (2384) 
TRUE

>  <SMILES>  (2384) 
N(C)[C@@H](Cc1(c[nH]c2(cc(ccc12)C(=O)N)))C(=O)O

>  <INCHIKEY>  (2384) 
LIDNHGHFTBVOIA-NSHDSACASA-N

$$$$
NMe-Trp_6Cl
     RDKit          2D

 17 18  0  0  0  0  0  0  0  0999 V2000
   -2.8839   -1.3305    0.0000 N   0  0  0  0  0  0  0  0  0  0  0  0
   -4.2754   -1.8906    0.0000 C   0  0  0  0  0  0  0  0  0  0  0  0
   -2.6732    0.1546    0.0000 C   0  0  0  0  0  0  0  0  0  0  0  0
   -1.2817    0.7147    0.0000 C   0  0  0  0  0  0  0  0  0  0  0  0
   -0.1009   -0.2104    0.0000 C   0  0  0  0  0  0  0  0  0  0  0  0
   -0.1552   -1.7094    0.0000 C   0  0  0  0  0  0  0  0  0  0  0  0
    1.2536   -2.2243    0.0000 N   0  0  0  0  0  0  0  0  0  0  0  0
    2.1787   -1.0435    0.0000 C   0  0  0  0  0  0  0  0  0  0  0  0
    3.6752   -0.9409    0.0000 C   0  0  0  0  0  0  0  0  0  0  0  0
    4.3345    0.4064    0.0000 C   0  0  0  0  0  0  0  0  0  0  0  0
    5.8310    0.5091    0.0000 Cl  0  0  0  0  0  0  0  0  0  0  0  0
    3.4974    1.6511    0.0000 C   0  0  0  0  0  0  0  0  0  0  0  0
    2.0009    1.5485    0.0000 C   0  0  0  0  0  0  0  0  0  0  0  0
    1.3416    0.2011    0.0000 C   0  0  0  0  0  0  0  0  0  0  0  0
   -3.8540    1.0797    0.0000 C   0  0  0  0  0  0  0  0  0  0  0  0
   -3.6432    2.5648    0.0000 O   0  0  0  0  0  0  0  0  0  0  0  0
   -5.2455    0.5196    0.0000 O   0  0  0  0  0  0  0  0  0  0  0  0
  1  2  1  0
  1  3  1  0
  3  4  1  6
  4  5  1  0
  5  6  2  0
  6  7  1  0
  7  8  1  0
  8  9  1  0
  9 10  2  0
 10 11  1  0
 10 12  1  0
 12 13  2  0
 13 14  1  0
  3 15  1  0
 15 16  2  0
 15 17  1  0
 14  5  1  0
 14  8  2  0
M  END
>  <rName>  (2385) 
NMe-Trp_6Cl

>  <PQ_SYMBOL>  (2385) 
NMe-Trp_6Cl

>  <FULL_NAME>  (2385) 
N-methyl-6-chloro-L-tryptophan

>  <IUPAC_CONDENSED>  (2385) 
Me-Trp(6-Cl)

>  <IUPAC>  (2385) 
(2S)-3-(6-chloro-1H-indol-3-yl)-2-(methylamino)propanoic acid

>  <TYPE>  (2385) 
Backbone

>  <CLASS>  (2385) 
alpha

>  <ANALOG>  (2385) 
Trp

>  <MOL_WT>  (2385) 
252.701

>  <LOGP>  (2385) 
2.0363999999999995

>  <TPSA>  (2385) 
65.12

>  <POPULARITY>  (2385) 
5.0

>  <PROTECTED>  (2385) 
TRUE

>  <SMILES>  (2385) 
N(C)[C@@H](Cc1(c[nH]c2(cc(Cl)ccc12)))C(=O)O

>  <INCHIKEY>  (2385) 
TWLNYIGAXUFVKU-NSHDSACASA-N

$$$$
NMe-Trp_6F
     RDKit          2D

 17 18  0  0  0  0  0  0  0  0999 V2000
   -2.8839   -1.3305    0.0000 N   0  0  0  0  0  0  0  0  0  0  0  0
   -4.2754   -1.8906    0.0000 C   0  0  0  0  0  0  0  0  0  0  0  0
   -2.6732    0.1546    0.0000 C   0  0  0  0  0  0  0  0  0  0  0  0
   -1.2817    0.7147    0.0000 C   0  0  0  0  0  0  0  0  0  0  0  0
   -0.1009   -0.2104    0.0000 C   0  0  0  0  0  0  0  0  0  0  0  0
   -0.1552   -1.7094    0.0000 C   0  0  0  0  0  0  0  0  0  0  0  0
    1.2536   -2.2243    0.0000 N   0  0  0  0  0  0  0  0  0  0  0  0
    2.1787   -1.0435    0.0000 C   0  0  0  0  0  0  0  0  0  0  0  0
    3.6752   -0.9409    0.0000 C   0  0  0  0  0  0  0  0  0  0  0  0
    4.3345    0.4064    0.0000 C   0  0  0  0  0  0  0  0  0  0  0  0
    5.8310    0.5091    0.0000 F   0  0  0  0  0  0  0  0  0  0  0  0
    3.4974    1.6511    0.0000 C   0  0  0  0  0  0  0  0  0  0  0  0
    2.0009    1.5485    0.0000 C   0  0  0  0  0  0  0  0  0  0  0  0
    1.3416    0.2011    0.0000 C   0  0  0  0  0  0  0  0  0  0  0  0
   -3.8540    1.0797    0.0000 C   0  0  0  0  0  0  0  0  0  0  0  0
   -3.6432    2.5648    0.0000 O   0  0  0  0  0  0  0  0  0  0  0  0
   -5.2455    0.5196    0.0000 O   0  0  0  0  0  0  0  0  0  0  0  0
  1  2  1  0
  1  3  1  0
  3  4  1  6
  4  5  1  0
  5  6  2  0
  6  7  1  0
  7  8  1  0
  8  9  1  0
  9 10  2  0
 10 11  1  0
 10 12  1  0
 12 13  2  0
 13 14  1  0
  3 15  1  0
 15 16  2  0
 15 17  1  0
 14  5  1  0
 14  8  2  0
M  END
>  <rName>  (2386) 
NMe-Trp_6F

>  <PQ_SYMBOL>  (2386) 
NMe-Trp_6F

>  <FULL_NAME>  (2386) 
N-methyl-6-fluoro-L-tryptophan

>  <IUPAC_CONDENSED>  (2386) 
Me-Trp(6-F)

>  <IUPAC>  (2386) 
(2S)-3-(6-fluoro-1H-indol-3-yl)-2-(methylamino)propanoic acid

>  <TYPE>  (2386) 
Backbone

>  <CLASS>  (2386) 
alpha

>  <ANALOG>  (2386) 
Trp

>  <MOL_WT>  (2386) 
236.24599999999998

>  <LOGP>  (2386) 
1.5220999999999998

>  <TPSA>  (2386) 
65.12

>  <POPULARITY>  (2386) 
5.9

>  <PROTECTED>  (2386) 
TRUE

>  <SMILES>  (2386) 
N(C)[C@@H](Cc1(c[nH]c2(cc(F)ccc12)))C(=O)O

>  <INCHIKEY>  (2386) 
FXZWQEAMWIITGD-NSHDSACASA-N

$$$$
NMe-Trp_6For
     RDKit          2D

 18 19  0  0  0  0  0  0  0  0999 V2000
   -3.2226   -1.3670    0.0000 N   0  0  0  0  0  0  0  0  0  0  0  0
   -4.6004   -1.9601    0.0000 C   0  0  0  0  0  0  0  0  0  0  0  0
   -3.0474    0.1227    0.0000 C   0  0  0  0  0  0  0  0  0  0  0  0
   -1.6697    0.7159    0.0000 C   0  0  0  0  0  0  0  0  0  0  0  0
   -0.4671   -0.1807    0.0000 C   0  0  0  0  0  0  0  0  0  0  0  0
   -0.4857   -1.6806    0.0000 C   0  0  0  0  0  0  0  0  0  0  0  0
    0.9351   -2.1617    0.0000 N   0  0  0  0  0  0  0  0  0  0  0  0
    1.8317   -0.9592    0.0000 C   0  0  0  0  0  0  0  0  0  0  0  0
    3.3253   -0.8208    0.0000 C   0  0  0  0  0  0  0  0  0  0  0  0
    3.9523    0.5418    0.0000 C   0  0  0  0  0  0  0  0  0  0  0  0
    5.4459    0.6802    0.0000 C   0  0  0  0  0  0  0  0  0  0  0  0
    6.3125   -0.5441    0.0000 O   0  0  0  0  0  0  0  0  0  0  0  0
    3.0856    1.7662    0.0000 C   0  0  0  0  0  0  0  0  0  0  0  0
    1.5920    1.6278    0.0000 C   0  0  0  0  0  0  0  0  0  0  0  0
    0.9651    0.2651    0.0000 C   0  0  0  0  0  0  0  0  0  0  0  0
   -4.2500    1.0193    0.0000 C   0  0  0  0  0  0  0  0  0  0  0  0
   -4.0748    2.5091    0.0000 O   0  0  0  0  0  0  0  0  0  0  0  0
   -5.6277    0.4262    0.0000 O   0  0  0  0  0  0  0  0  0  0  0  0
  1  2  1  0
  1  3  1  0
  3  4  1  6
  4  5  1  0
  5  6  2  0
  6  7  1  0
  7  8  1  0
  8  9  1  0
  9 10  2  0
 10 11  1  0
 11 12  2  0
 10 13  1  0
 13 14  2  0
 14 15  1  0
  3 16  1  0
 16 17  2  0
 16 18  1  0
 15  5  1  0
 15  8  2  0
M  END
>  <rName>  (2387) 
NMe-Trp_6For

>  <PQ_SYMBOL>  (2387) 
NMe-Trp_6For

>  <FULL_NAME>  (2387) 
N-methyl-6-formyl-L-tryptophan

>  <IUPAC_CONDENSED>  (2387) 
Me-Trp(6-For)

>  <IUPAC>  (2387) 
(2S)-3-(6-(formyl)-1H-indol-3-yl)-2-(methylamino)propanoic acid

>  <TYPE>  (2387) 
Backbone

>  <CLASS>  (2387) 
alpha

>  <ANALOG>  (2387) 
Trp

>  <MOL_WT>  (2387) 
246.266

>  <LOGP>  (2387) 
1.1954999999999998

>  <TPSA>  (2387) 
82.19

>  <POPULARITY>  (2387) 
2.6

>  <PROTECTED>  (2387) 
TRUE

>  <SMILES>  (2387) 
N(C)[C@@H](Cc1(c[nH]c2(cc(C=O)ccc12)))C(=O)O

>  <INCHIKEY>  (2387) 
GEKUBQVUWCUGIS-LBPRGKRZSA-N

$$$$
NMe-Trp_6I
     RDKit          2D

 17 18  0  0  0  0  0  0  0  0999 V2000
   -2.8839   -1.3305    0.0000 N   0  0  0  0  0  0  0  0  0  0  0  0
   -4.2754   -1.8906    0.0000 C   0  0  0  0  0  0  0  0  0  0  0  0
   -2.6732    0.1546    0.0000 C   0  0  0  0  0  0  0  0  0  0  0  0
   -1.2817    0.7147    0.0000 C   0  0  0  0  0  0  0  0  0  0  0  0
   -0.1009   -0.2104    0.0000 C   0  0  0  0  0  0  0  0  0  0  0  0
   -0.1552   -1.7094    0.0000 C   0  0  0  0  0  0  0  0  0  0  0  0
    1.2536   -2.2243    0.0000 N   0  0  0  0  0  0  0  0  0  0  0  0
    2.1787   -1.0435    0.0000 C   0  0  0  0  0  0  0  0  0  0  0  0
    3.6752   -0.9409    0.0000 C   0  0  0  0  0  0  0  0  0  0  0  0
    4.3345    0.4064    0.0000 C   0  0  0  0  0  0  0  0  0  0  0  0
    5.8310    0.5091    0.0000 I   0  0  0  0  0  0  0  0  0  0  0  0
    3.4974    1.6511    0.0000 C   0  0  0  0  0  0  0  0  0  0  0  0
    2.0009    1.5485    0.0000 C   0  0  0  0  0  0  0  0  0  0  0  0
    1.3416    0.2011    0.0000 C   0  0  0  0  0  0  0  0  0  0  0  0
   -3.8540    1.0797    0.0000 C   0  0  0  0  0  0  0  0  0  0  0  0
   -3.6432    2.5648    0.0000 O   0  0  0  0  0  0  0  0  0  0  0  0
   -5.2455    0.5196    0.0000 O   0  0  0  0  0  0  0  0  0  0  0  0
  1  2  1  0
  1  3  1  0
  3  4  1  6
  4  5  1  0
  5  6  2  0
  6  7  1  0
  7  8  1  0
  8  9  1  0
  9 10  2  0
 10 11  1  0
 10 12  1  0
 12 13  2  0
 13 14  1  0
  3 15  1  0
 15 16  2  0
 15 17  1  0
 14  5  1  0
 14  8  2  0
M  END
>  <rName>  (2388) 
NMe-Trp_6I

>  <PQ_SYMBOL>  (2388) 
NMe-Trp_6I

>  <FULL_NAME>  (2388) 
N-methyl-6-iodo-L-tryptophan

>  <IUPAC_CONDENSED>  (2388) 
Me-Trp(6-I)

>  <IUPAC>  (2388) 
(2S)-3-(6-iodo-1H-indol-3-yl)-2-(methylamino)propanoic acid

>  <TYPE>  (2388) 
Backbone

>  <CLASS>  (2388) 
alpha

>  <ANALOG>  (2388) 
Trp

>  <MOL_WT>  (2388) 
344.1520000000001

>  <LOGP>  (2388) 
1.9875999999999998

>  <TPSA>  (2388) 
65.12

>  <POPULARITY>  (2388) 
3.1

>  <PROTECTED>  (2388) 
TRUE

>  <SMILES>  (2388) 
N(C)[C@@H](Cc1(c[nH]c2(cc(I)ccc12)))C(=O)O

>  <INCHIKEY>  (2388) 
PLBRGGSFLHZBME-NSHDSACASA-N

$$$$
NMe-Trp_6Me
     RDKit          2D

 17 18  0  0  0  0  0  0  0  0999 V2000
   -2.8839   -1.3305    0.0000 N   0  0  0  0  0  0  0  0  0  0  0  0
   -4.2754   -1.8906    0.0000 C   0  0  0  0  0  0  0  0  0  0  0  0
   -2.6732    0.1546    0.0000 C   0  0  0  0  0  0  0  0  0  0  0  0
   -1.2817    0.7147    0.0000 C   0  0  0  0  0  0  0  0  0  0  0  0
   -0.1009   -0.2104    0.0000 C   0  0  0  0  0  0  0  0  0  0  0  0
   -0.1552   -1.7094    0.0000 C   0  0  0  0  0  0  0  0  0  0  0  0
    1.2536   -2.2243    0.0000 N   0  0  0  0  0  0  0  0  0  0  0  0
    2.1787   -1.0435    0.0000 C   0  0  0  0  0  0  0  0  0  0  0  0
    3.6752   -0.9409    0.0000 C   0  0  0  0  0  0  0  0  0  0  0  0
    4.3345    0.4064    0.0000 C   0  0  0  0  0  0  0  0  0  0  0  0
    5.8310    0.5091    0.0000 C   0  0  0  0  0  0  0  0  0  0  0  0
    3.4974    1.6511    0.0000 C   0  0  0  0  0  0  0  0  0  0  0  0
    2.0009    1.5485    0.0000 C   0  0  0  0  0  0  0  0  0  0  0  0
    1.3416    0.2011    0.0000 C   0  0  0  0  0  0  0  0  0  0  0  0
   -3.8540    1.0797    0.0000 C   0  0  0  0  0  0  0  0  0  0  0  0
   -3.6432    2.5648    0.0000 O   0  0  0  0  0  0  0  0  0  0  0  0
   -5.2455    0.5196    0.0000 O   0  0  0  0  0  0  0  0  0  0  0  0
  1  2  1  0
  1  3  1  0
  3  4  1  6
  4  5  1  0
  5  6  2  0
  6  7  1  0
  7  8  1  0
  8  9  1  0
  9 10  2  0
 10 11  1  0
 10 12  1  0
 12 13  2  0
 13 14  1  0
  3 15  1  0
 15 16  2  0
 15 17  1  0
 14  5  1  0
 14  8  2  0
M  END
>  <rName>  (2389) 
NMe-Trp_6Me

>  <PQ_SYMBOL>  (2389) 
NMe-Trp_6Me

>  <FULL_NAME>  (2389) 
N-methyl-6-methyl-L-tryptophan

>  <IUPAC_CONDENSED>  (2389) 
Me-Trp(6-Me)

>  <IUPAC>  (2389) 
(2S)-3-(6-methyl-1H-indol-3-yl)-2-(methylamino)propanoic acid

>  <TYPE>  (2389) 
Backbone

>  <CLASS>  (2389) 
alpha

>  <ANALOG>  (2389) 
Trp

>  <MOL_WT>  (2389) 
232.283

>  <LOGP>  (2389) 
1.6914199999999997

>  <TPSA>  (2389) 
65.12

>  <POPULARITY>  (2389) 
4.7

>  <PROTECTED>  (2389) 
TRUE

>  <SMILES>  (2389) 
N(C)[C@@H](Cc1(c[nH]c2(cc(C)ccc12)))C(=O)O

>  <INCHIKEY>  (2389) 
RTEQWRJZAZAFLH-LBPRGKRZSA-N

$$$$
NMe-Trp_6NO2
     RDKit          2D

 19 20  0  0  0  0  0  0  0  0999 V2000
   -3.6142   -1.2883    0.0000 N   0  0  0  0  0  0  0  0  0  0  0  0
   -5.0209   -1.8089    0.0000 C   0  0  0  0  0  0  0  0  0  0  0  0
   -3.3617    0.1903    0.0000 C   0  0  0  0  0  0  0  0  0  0  0  0
   -1.9550    0.7110    0.0000 C   0  0  0  0  0  0  0  0  0  0  0  0
   -0.8007   -0.2469    0.0000 C   0  0  0  0  0  0  0  0  0  0  0  0
   -0.8972   -1.7438    0.0000 C   0  0  0  0  0  0  0  0  0  0  0  0
    0.4966   -2.2982    0.0000 N   0  0  0  0  0  0  0  0  0  0  0  0
    1.4545   -1.1439    0.0000 C   0  0  0  0  0  0  0  0  0  0  0  0
    2.9533   -1.0834    0.0000 C   0  0  0  0  0  0  0  0  0  0  0  0
    3.6503    0.2448    0.0000 C   0  0  0  0  0  0  0  0  0  0  0  0
    2.8486    1.5125    0.0000 C   0  0  0  0  0  0  0  0  0  0  0  0
    1.3498    1.4520    0.0000 C   0  0  0  0  0  0  0  0  0  0  0  0
    0.6528    0.1238    0.0000 C   0  0  0  0  0  0  0  0  0  0  0  0
    5.1491    0.3053    0.0000 N   0  0  0  0  0  0  0  0  0  0  0  0
    5.8461    1.6335    0.0000 O   0  0  0  0  0  0  0  0  0  0  0  0
    5.9509   -0.9625    0.0000 O   0  0  0  0  0  0  0  0  0  0  0  0
   -4.5160    1.1483    0.0000 C   0  0  0  0  0  0  0  0  0  0  0  0
   -4.2635    2.6269    0.0000 O   0  0  0  0  0  0  0  0  0  0  0  0
   -5.9227    0.6276    0.0000 O   0  0  0  0  0  0  0  0  0  0  0  0
  1  2  1  0
  1  3  1  0
  3  4  1  6
  4  5  1  0
  5  6  2  0
  6  7  1  0
  7  8  1  0
  8  9  1  0
  9 10  2  0
 10 11  1  0
 11 12  2  0
 12 13  1  0
 10 14  1  0
 14 15  2  0
 14 16  1  0
  3 17  1  0
 17 18  2  0
 17 19  1  0
 13  5  1  0
 13  8  2  0
M  CHG  2  14   1  16  -1
M  END
>  <rName>  (2390) 
NMe-Trp_6NO2

>  <PQ_SYMBOL>  (2390) 
NMe-Trp_6NO2

>  <FULL_NAME>  (2390) 
N-methyl-6-nitro-L-tryptophan

>  <IUPAC_CONDENSED>  (2390) 
Me-Trp(6-NO2)

>  <IUPAC>  (2390) 
(2S)-2-(methylamino)-3-(6-nitro-1H-indol-3-yl)propanoic acid

>  <TYPE>  (2390) 
Backbone

>  <CLASS>  (2390) 
alpha

>  <ANALOG>  (2390) 
Trp

>  <MOL_WT>  (2390) 
263.253

>  <LOGP>  (2390) 
1.2911999999999997

>  <TPSA>  (2390) 
108.26

>  <POPULARITY>  (2390) 
2.6

>  <PROTECTED>  (2390) 
TRUE

>  <SMILES>  (2390) 
N(C)[C@@H](Cc1(c[nH]c2(cc(ccc12)[N+](=O)[O-])))C(=O)O

>  <INCHIKEY>  (2390) 
KDILDMARWYUWQY-NSHDSACASA-N

$$$$
NMe-Trp_6OBn
     RDKit          2D

 24 26  0  0  0  0  0  0  0  0999 V2000
   -5.5216   -1.4064    0.0000 N   0  0  0  0  0  0  0  0  0  0  0  0
   -6.8877   -2.0258    0.0000 C   0  0  0  0  0  0  0  0  0  0  0  0
   -5.3750    0.0865    0.0000 C   0  0  0  0  0  0  0  0  0  0  0  0
   -4.0089    0.7059    0.0000 C   0  0  0  0  0  0  0  0  0  0  0  0
   -2.7894   -0.1674    0.0000 C   0  0  0  0  0  0  0  0  0  0  0  0
   -2.7791   -1.6674    0.0000 C   0  0  0  0  0  0  0  0  0  0  0  0
   -1.3494   -2.1212    0.0000 N   0  0  0  0  0  0  0  0  0  0  0  0
   -0.4760   -0.9016    0.0000 C   0  0  0  0  0  0  0  0  0  0  0  0
    1.0146   -0.7346    0.0000 C   0  0  0  0  0  0  0  0  0  0  0  0
    1.6154    0.6398    0.0000 C   0  0  0  0  0  0  0  0  0  0  0  0
    3.1060    0.8068    0.0000 O   0  0  0  0  0  0  0  0  0  0  0  0
    3.9960   -0.4007    0.0000 C   0  0  0  0  0  0  0  0  0  0  0  0
    5.4867   -0.2337    0.0000 C   0  0  0  0  0  0  0  0  0  0  0  0
    6.3766   -1.4411    0.0000 C   0  0  0  0  0  0  0  0  0  0  0  0
    7.8673   -1.2742    0.0000 C   0  0  0  0  0  0  0  0  0  0  0  0
    8.4680    0.1003    0.0000 C   0  0  0  0  0  0  0  0  0  0  0  0
    7.5781    1.3078    0.0000 C   0  0  0  0  0  0  0  0  0  0  0  0
    6.0874    1.1408    0.0000 C   0  0  0  0  0  0  0  0  0  0  0  0
    0.7254    1.8473    0.0000 C   0  0  0  0  0  0  0  0  0  0  0  0
   -0.7653    1.6803    0.0000 C   0  0  0  0  0  0  0  0  0  0  0  0
   -1.3660    0.3058    0.0000 C   0  0  0  0  0  0  0  0  0  0  0  0
   -6.5945    0.9598    0.0000 C   0  0  0  0  0  0  0  0  0  0  0  0
   -6.4479    2.4526    0.0000 O   0  0  0  0  0  0  0  0  0  0  0  0
   -7.9607    0.3404    0.0000 O   0  0  0  0  0  0  0  0  0  0  0  0
  1  2  1  0
  1  3  1  0
  3  4  1  6
  4  5  1  0
  5  6  2  0
  6  7  1  0
  7  8  1  0
  8  9  1  0
  9 10  2  0
 10 11  1  0
 11 12  1  0
 12 13  1  0
 13 14  2  0
 14 15  1  0
 15 16  2  0
 16 17  1  0
 17 18  2  0
 10 19  1  0
 19 20  2  0
 20 21  1  0
  3 22  1  0
 22 23  2  0
 22 24  1  0
 18 13  1  0
 21  5  1  0
 21  8  2  0
M  END
>  <rName>  (2391) 
NMe-Trp_6OBn

>  <PQ_SYMBOL>  (2391) 
NMe-Trp_6OBn

>  <FULL_NAME>  (2391) 
N-methyl-6-benzyloxy-L-tryptophan

>  <IUPAC_CONDENSED>  (2391) 
Me-Trp(6-OBn)

>  <IUPAC>  (2391) 
(2S)-2-(methylamino)-3-(6-benzyloxy-1H-indol-3-yl)propanoic acid

>  <TYPE>  (2391) 
Backbone

>  <CLASS>  (2391) 
alpha

>  <ANALOG>  (2391) 
Trp

>  <MOL_WT>  (2391) 
324.38000000000005

>  <LOGP>  (2391) 
2.9620000000000006

>  <TPSA>  (2391) 
74.35

>  <POPULARITY>  (2391) 
2.6

>  <PROTECTED>  (2391) 
TRUE

>  <SMILES>  (2391) 
N(C)[C@@H](Cc2(c[nH]c3(cc(OCc1(ccccc1))ccc23)))C(=O)O

>  <INCHIKEY>  (2391) 
HBNSFJDQDBPFNF-SFHVURJKSA-N

$$$$
NMe-Trp_6OH
     RDKit          2D

 17 18  0  0  0  0  0  0  0  0999 V2000
   -2.8839   -1.3305    0.0000 N   0  0  0  0  0  0  0  0  0  0  0  0
   -4.2754   -1.8906    0.0000 C   0  0  0  0  0  0  0  0  0  0  0  0
   -2.6732    0.1546    0.0000 C   0  0  0  0  0  0  0  0  0  0  0  0
   -1.2817    0.7147    0.0000 C   0  0  0  0  0  0  0  0  0  0  0  0
   -0.1009   -0.2104    0.0000 C   0  0  0  0  0  0  0  0  0  0  0  0
   -0.1552   -1.7094    0.0000 C   0  0  0  0  0  0  0  0  0  0  0  0
    1.2536   -2.2243    0.0000 N   0  0  0  0  0  0  0  0  0  0  0  0
    2.1787   -1.0435    0.0000 C   0  0  0  0  0  0  0  0  0  0  0  0
    3.6752   -0.9409    0.0000 C   0  0  0  0  0  0  0  0  0  0  0  0
    4.3345    0.4064    0.0000 C   0  0  0  0  0  0  0  0  0  0  0  0
    5.8310    0.5091    0.0000 O   0  0  0  0  0  0  0  0  0  0  0  0
    3.4974    1.6511    0.0000 C   0  0  0  0  0  0  0  0  0  0  0  0
    2.0009    1.5485    0.0000 C   0  0  0  0  0  0  0  0  0  0  0  0
    1.3416    0.2011    0.0000 C   0  0  0  0  0  0  0  0  0  0  0  0
   -3.8540    1.0797    0.0000 C   0  0  0  0  0  0  0  0  0  0  0  0
   -3.6432    2.5648    0.0000 O   0  0  0  0  0  0  0  0  0  0  0  0
   -5.2455    0.5196    0.0000 O   0  0  0  0  0  0  0  0  0  0  0  0
  1  2  1  0
  1  3  1  0
  3  4  1  6
  4  5  1  0
  5  6  2  0
  6  7  1  0
  7  8  1  0
  8  9  1  0
  9 10  2  0
 10 11  1  0
 10 12  1  0
 12 13  2  0
 13 14  1  0
  3 15  1  0
 15 16  2  0
 15 17  1  0
 14  5  1  0
 14  8  2  0
M  END
>  <rName>  (2392) 
NMe-Trp_6OH

>  <PQ_SYMBOL>  (2392) 
NMe-Trp_6OH

>  <FULL_NAME>  (2392) 
N-methyl-6-hydroxy-L-tryptophan

>  <IUPAC_CONDENSED>  (2392) 
Me-Trp(6-OH)

>  <IUPAC>  (2392) 
(2S)-3-(6-hydroxy-1H-indol-3-yl)-2-(methylamino)propanoic acid

>  <TYPE>  (2392) 
Backbone

>  <CLASS>  (2392) 
alpha

>  <ANALOG>  (2392) 
Trp

>  <MOL_WT>  (2392) 
234.255

>  <LOGP>  (2392) 
1.0885999999999998

>  <TPSA>  (2392) 
85.35000000000001

>  <POPULARITY>  (2392) 
6.3

>  <PROTECTED>  (2392) 
TRUE

>  <SMILES>  (2392) 
N(C)[C@@H](Cc1(c[nH]c2(cc(O)ccc12)))C(=O)O

>  <INCHIKEY>  (2392) 
SCEWVMPYUUQDQT-NSHDSACASA-N

$$$$
NMe-Trp_6OMe
     RDKit          2D

 18 19  0  0  0  0  0  0  0  0999 V2000
   -3.2226   -1.3670    0.0000 N   0  0  0  0  0  0  0  0  0  0  0  0
   -4.6004   -1.9601    0.0000 C   0  0  0  0  0  0  0  0  0  0  0  0
   -3.0474    0.1227    0.0000 C   0  0  0  0  0  0  0  0  0  0  0  0
   -1.6697    0.7159    0.0000 C   0  0  0  0  0  0  0  0  0  0  0  0
   -0.4671   -0.1807    0.0000 C   0  0  0  0  0  0  0  0  0  0  0  0
   -0.4857   -1.6806    0.0000 C   0  0  0  0  0  0  0  0  0  0  0  0
    0.9351   -2.1617    0.0000 N   0  0  0  0  0  0  0  0  0  0  0  0
    1.8317   -0.9592    0.0000 C   0  0  0  0  0  0  0  0  0  0  0  0
    3.3253   -0.8208    0.0000 C   0  0  0  0  0  0  0  0  0  0  0  0
    3.9523    0.5418    0.0000 C   0  0  0  0  0  0  0  0  0  0  0  0
    5.4459    0.6802    0.0000 O   0  0  0  0  0  0  0  0  0  0  0  0
    6.3125   -0.5441    0.0000 C   0  0  0  0  0  0  0  0  0  0  0  0
    3.0856    1.7662    0.0000 C   0  0  0  0  0  0  0  0  0  0  0  0
    1.5920    1.6278    0.0000 C   0  0  0  0  0  0  0  0  0  0  0  0
    0.9651    0.2651    0.0000 C   0  0  0  0  0  0  0  0  0  0  0  0
   -4.2500    1.0193    0.0000 C   0  0  0  0  0  0  0  0  0  0  0  0
   -4.0748    2.5091    0.0000 O   0  0  0  0  0  0  0  0  0  0  0  0
   -5.6277    0.4262    0.0000 O   0  0  0  0  0  0  0  0  0  0  0  0
  1  2  1  0
  1  3  1  0
  3  4  1  6
  4  5  1  0
  5  6  2  0
  6  7  1  0
  7  8  1  0
  8  9  1  0
  9 10  2  0
 10 11  1  0
 11 12  1  0
 10 13  1  0
 13 14  2  0
 14 15  1  0
  3 16  1  0
 16 17  2  0
 16 18  1  0
 15  5  1  0
 15  8  2  0
M  END
>  <rName>  (2393) 
NMe-Trp_6OMe

>  <PQ_SYMBOL>  (2393) 
NMe-Trp_6OMe

>  <FULL_NAME>  (2393) 
N-methyl-6-methoxy-L-tryptophan

>  <IUPAC_CONDENSED>  (2393) 
Me-Trp(6-OMe)

>  <IUPAC>  (2393) 
(2S)-3-(6-methoxy-1H-indol-3-yl)-2-(methylamino)propanoic acid

>  <TYPE>  (2393) 
Backbone

>  <CLASS>  (2393) 
alpha

>  <ANALOG>  (2393) 
Trp

>  <MOL_WT>  (2393) 
248.28199999999998

>  <LOGP>  (2393) 
1.3915999999999997

>  <TPSA>  (2393) 
74.35

>  <POPULARITY>  (2393) 
6.1

>  <PROTECTED>  (2393) 
TRUE

>  <SMILES>  (2393) 
N(C)[C@@H](Cc1(c[nH]c2(cc(OC)ccc12)))C(=O)O

>  <INCHIKEY>  (2393) 
JNQJFHZGCVBILC-LBPRGKRZSA-N

$$$$
NMe-Trp_6Ph
     RDKit          2D

 22 24  0  0  0  0  0  0  0  0999 V2000
   -4.6843   -1.2448    0.0000 N   0  0  0  0  0  0  0  0  0  0  0  0
   -6.1018   -1.7356    0.0000 C   0  0  0  0  0  0  0  0  0  0  0  0
   -4.4007    0.2281    0.0000 C   0  0  0  0  0  0  0  0  0  0  0  0
   -2.9832    0.7189    0.0000 C   0  0  0  0  0  0  0  0  0  0  0  0
   -1.8495   -0.2632    0.0000 C   0  0  0  0  0  0  0  0  0  0  0  0
   -1.9776   -1.7578    0.0000 C   0  0  0  0  0  0  0  0  0  0  0  0
   -0.5959   -2.3415    0.0000 N   0  0  0  0  0  0  0  0  0  0  0  0
    0.3863   -1.2077    0.0000 C   0  0  0  0  0  0  0  0  0  0  0  0
    1.8860   -1.1790    0.0000 C   0  0  0  0  0  0  0  0  0  0  0  0
    2.6110    0.1342    0.0000 C   0  0  0  0  0  0  0  0  0  0  0  0
    1.8362    1.4186    0.0000 C   0  0  0  0  0  0  0  0  0  0  0  0
    0.3365    1.3899    0.0000 C   0  0  0  0  0  0  0  0  0  0  0  0
   -0.3885    0.0767    0.0000 C   0  0  0  0  0  0  0  0  0  0  0  0
    4.1107    0.1630    0.0000 C   0  0  0  0  0  0  0  0  0  0  0  0
    4.8855   -1.1215    0.0000 C   0  0  0  0  0  0  0  0  0  0  0  0
    6.3852   -1.0927    0.0000 C   0  0  0  0  0  0  0  0  0  0  0  0
    7.1101    0.2205    0.0000 C   0  0  0  0  0  0  0  0  0  0  0  0
    6.3354    1.5049    0.0000 C   0  0  0  0  0  0  0  0  0  0  0  0
    4.8356    1.4761    0.0000 C   0  0  0  0  0  0  0  0  0  0  0  0
   -5.5344    1.2102    0.0000 C   0  0  0  0  0  0  0  0  0  0  0  0
   -5.2507    2.6832    0.0000 O   0  0  0  0  0  0  0  0  0  0  0  0
   -6.9518    0.7195    0.0000 O   0  0  0  0  0  0  0  0  0  0  0  0
  1  2  1  0
  1  3  1  0
  3  4  1  6
  4  5  1  0
  5  6  2  0
  6  7  1  0
  7  8  1  0
  8  9  1  0
  9 10  2  0
 10 11  1  0
 11 12  2  0
 12 13  1  0
 10 14  1  0
 14 15  2  0
 15 16  1  0
 16 17  2  0
 17 18  1  0
 18 19  2  0
  3 20  1  0
 20 21  2  0
 20 22  1  0
 13  5  1  0
 13  8  2  0
 19 14  1  0
M  END
>  <rName>  (2394) 
NMe-Trp_6Ph

>  <PQ_SYMBOL>  (2394) 
NMe-Trp_6Ph

>  <FULL_NAME>  (2394) 
N-methyl-6-phenyl-L-tryptophan

>  <IUPAC_CONDENSED>  (2394) 
Me-Trp(6-Ph)

>  <IUPAC>  (2394) 
(2S)-2-(methylamino)-3-(6-phenyl-1H-indol-3-yl)propanoic acid

>  <TYPE>  (2394) 
Backbone

>  <CLASS>  (2394) 
alpha

>  <ANALOG>  (2394) 
Trp

>  <MOL_WT>  (2394) 
294.35400000000004

>  <LOGP>  (2394) 
3.0500000000000007

>  <TPSA>  (2394) 
65.12

>  <POPULARITY>  (2394) 
2.6

>  <PROTECTED>  (2394) 
TRUE

>  <SMILES>  (2394) 
N(C)[C@@H](Cc1(c[nH]c2(cc(ccc12)c3(ccccc3))))C(=O)O

>  <INCHIKEY>  (2394) 
DUQVPUPWGUBLBJ-KRWDZBQOSA-N

$$$$
NMe-Trp_7Ac
     RDKit          2D

 19 20  0  0  0  0  0  0  0  0999 V2000
   -3.0921   -1.5327    0.0000 N   0  0  0  0  0  0  0  0  0  0  0  0
   -4.3459   -2.3560    0.0000 C   0  0  0  0  0  0  0  0  0  0  0  0
   -3.1782   -0.0351    0.0000 C   0  0  0  0  0  0  0  0  0  0  0  0
   -1.9244    0.7882    0.0000 C   0  0  0  0  0  0  0  0  0  0  0  0
   -0.5845    0.1140    0.0000 C   0  0  0  0  0  0  0  0  0  0  0  0
   -0.3423   -1.3663    0.0000 C   0  0  0  0  0  0  0  0  0  0  0  0
    1.1404   -1.5934    0.0000 N   0  0  0  0  0  0  0  0  0  0  0  0
    1.8146   -0.2534    0.0000 C   0  0  0  0  0  0  0  0  0  0  0  0
    3.2615    0.1422    0.0000 C   0  0  0  0  0  0  0  0  0  0  0  0
    3.6424    1.5930    0.0000 C   0  0  0  0  0  0  0  0  0  0  0  0
    2.5763    2.6483    0.0000 C   0  0  0  0  0  0  0  0  0  0  0  0
    1.1294    2.2527    0.0000 C   0  0  0  0  0  0  0  0  0  0  0  0
    0.7486    0.8018    0.0000 C   0  0  0  0  0  0  0  0  0  0  0  0
    4.3276   -0.9131    0.0000 C   0  0  0  0  0  0  0  0  0  0  0  0
    3.9467   -2.3639    0.0000 O   0  0  0  0  0  0  0  0  0  0  0  0
    5.7745   -0.5175    0.0000 C   0  0  0  0  0  0  0  0  0  0  0  0
   -4.5182    0.6390    0.0000 C   0  0  0  0  0  0  0  0  0  0  0  0
   -4.6043    2.1366    0.0000 O   0  0  0  0  0  0  0  0  0  0  0  0
   -5.7720   -0.1843    0.0000 O   0  0  0  0  0  0  0  0  0  0  0  0
  1  2  1  0
  1  3  1  0
  3  4  1  6
  4  5  1  0
  5  6  2  0
  6  7  1  0
  7  8  1  0
  8  9  2  0
  9 10  1  0
 10 11  2  0
 11 12  1  0
 12 13  2  0
  9 14  1  0
 14 15  2  0
 14 16  1  0
  3 17  1  0
 17 18  2  0
 17 19  1  0
 13  5  1  0
 13  8  1  0
M  END
>  <rName>  (2395) 
NMe-Trp_7Ac

>  <PQ_SYMBOL>  (2395) 
NMe-Trp_7Ac

>  <FULL_NAME>  (2395) 
N-methyl-7-acetyl-L-tryptophan

>  <IUPAC_CONDENSED>  (2395) 
Me-Trp(7-Ac)

>  <IUPAC>  (2395) 
(2S)-3-(7-(acetyl)-1H-indol-3-yl)-2-(methylamino)propanoic acid

>  <TYPE>  (2395) 
Backbone

>  <CLASS>  (2395) 
alpha

>  <ANALOG>  (2395) 
Trp

>  <MOL_WT>  (2395) 
260.29299999999995

>  <LOGP>  (2395) 
1.5855999999999997

>  <TPSA>  (2395) 
82.19

>  <POPULARITY>  (2395) 
2.6

>  <PROTECTED>  (2395) 
TRUE

>  <SMILES>  (2395) 
N(C)[C@@H](Cc1(c[nH]c2(c(cccc12)C(=O)C)))C(=O)O

>  <INCHIKEY>  (2395) 
UIUWVGJKPKSHCV-LBPRGKRZSA-N

$$$$
NMe-Trp_7Br
     RDKit          2D

 17 18  0  0  0  0  0  0  0  0999 V2000
   -2.6814   -1.4350    0.0000 N   0  0  0  0  0  0  0  0  0  0  0  0
   -4.0130   -2.1255    0.0000 C   0  0  0  0  0  0  0  0  0  0  0  0
   -2.6137    0.0635    0.0000 C   0  0  0  0  0  0  0  0  0  0  0  0
   -1.2821    0.7541    0.0000 C   0  0  0  0  0  0  0  0  0  0  0  0
   -0.0182   -0.0539    0.0000 C   0  0  0  0  0  0  0  0  0  0  0  0
    0.0710   -1.5512    0.0000 C   0  0  0  0  0  0  0  0  0  0  0  0
    1.5226   -1.9291    0.0000 N   0  0  0  0  0  0  0  0  0  0  0  0
    2.3306   -0.6652    0.0000 C   0  0  0  0  0  0  0  0  0  0  0  0
    3.8104   -0.4200    0.0000 C   0  0  0  0  0  0  0  0  0  0  0  0
    4.7627   -1.5789    0.0000 Br  0  0  0  0  0  0  0  0  0  0  0  0
    4.3379    0.9842    0.0000 C   0  0  0  0  0  0  0  0  0  0  0  0
    3.3856    2.1431    0.0000 C   0  0  0  0  0  0  0  0  0  0  0  0
    1.9058    1.8979    0.0000 C   0  0  0  0  0  0  0  0  0  0  0  0
    1.3783    0.4937    0.0000 C   0  0  0  0  0  0  0  0  0  0  0  0
   -3.8775    0.8714    0.0000 C   0  0  0  0  0  0  0  0  0  0  0  0
   -3.8097    2.3699    0.0000 O   0  0  0  0  0  0  0  0  0  0  0  0
   -5.2091    0.1809    0.0000 O   0  0  0  0  0  0  0  0  0  0  0  0
  1  2  1  0
  1  3  1  0
  3  4  1  6
  4  5  1  0
  5  6  2  0
  6  7  1  0
  7  8  1  0
  8  9  2  0
  9 10  1  0
  9 11  1  0
 11 12  2  0
 12 13  1  0
 13 14  2  0
  3 15  1  0
 15 16  2  0
 15 17  1  0
 14  5  1  0
 14  8  1  0
M  END
>  <rName>  (2396) 
NMe-Trp_7Br

>  <PQ_SYMBOL>  (2396) 
NMe-Trp_7Br

>  <FULL_NAME>  (2396) 
N-methyl-7-bromo-L-tryptophan

>  <IUPAC_CONDENSED>  (2396) 
Me-Trp(7-Br)

>  <IUPAC>  (2396) 
(2S)-3-(7-bromo-1H-indol-3-yl)-2-(methylamino)propanoic acid

>  <TYPE>  (2396) 
Backbone

>  <CLASS>  (2396) 
alpha

>  <ANALOG>  (2396) 
Trp

>  <MOL_WT>  (2396) 
297.15200000000004

>  <LOGP>  (2396) 
2.1454999999999997

>  <TPSA>  (2396) 
65.12

>  <POPULARITY>  (2396) 
4.7

>  <PROTECTED>  (2396) 
TRUE

>  <SMILES>  (2396) 
N(C)[C@@H](Cc1(c[nH]c2(c(Br)cccc12)))C(=O)O

>  <INCHIKEY>  (2396) 
HUWALZXFTKRYHB-JTQLQIEISA-N

$$$$
NMe-Trp_7CF3
     RDKit          2D

 20 21  0  0  0  0  0  0  0  0999 V2000
   -3.2799   -1.5490    0.0000 N   0  0  0  0  0  0  0  0  0  0  0  0
   -4.5180   -2.3959    0.0000 C   0  0  0  0  0  0  0  0  0  0  0  0
   -3.3942   -0.0534    0.0000 C   0  0  0  0  0  0  0  0  0  0  0  0
   -2.1561    0.7934    0.0000 C   0  0  0  0  0  0  0  0  0  0  0  0
   -0.8037    0.1446    0.0000 C   0  0  0  0  0  0  0  0  0  0  0  0
   -0.5337   -1.3309    0.0000 C   0  0  0  0  0  0  0  0  0  0  0  0
    0.9530   -1.5301    0.0000 N   0  0  0  0  0  0  0  0  0  0  0  0
    1.6019   -0.1777    0.0000 C   0  0  0  0  0  0  0  0  0  0  0  0
    3.0411    0.2451    0.0000 C   0  0  0  0  0  0  0  0  0  0  0  0
    3.3945    1.7029    0.0000 C   0  0  0  0  0  0  0  0  0  0  0  0
    2.3088    2.7379    0.0000 C   0  0  0  0  0  0  0  0  0  0  0  0
    0.8696    2.3151    0.0000 C   0  0  0  0  0  0  0  0  0  0  0  0
    0.5161    0.8573    0.0000 C   0  0  0  0  0  0  0  0  0  0  0  0
    4.1268   -0.7899    0.0000 C   0  0  0  0  0  0  0  0  0  0  0  0
    5.2125   -1.8249    0.0000 F   0  0  0  0  0  0  0  0  0  0  0  0
    5.1618    0.2959    0.0000 F   0  0  0  0  0  0  0  0  0  0  0  0
    3.0918   -1.8756    0.0000 F   0  0  0  0  0  0  0  0  0  0  0  0
   -4.7466    0.5954    0.0000 C   0  0  0  0  0  0  0  0  0  0  0  0
   -4.8609    2.0911    0.0000 O   0  0  0  0  0  0  0  0  0  0  0  0
   -5.9847   -0.2514    0.0000 O   0  0  0  0  0  0  0  0  0  0  0  0
  1  2  1  0
  1  3  1  0
  3  4  1  6
  4  5  1  0
  5  6  2  0
  6  7  1  0
  7  8  1  0
  8  9  2  0
  9 10  1  0
 10 11  2  0
 11 12  1  0
 12 13  2  0
  9 14  1  0
 14 15  1  0
 14 16  1  0
 14 17  1  0
  3 18  1  0
 18 19  2  0
 18 20  1  0
 13  5  1  0
 13  8  1  0
M  END
>  <rName>  (2397) 
NMe-Trp_7CF3

>  <PQ_SYMBOL>  (2397) 
NMe-Trp_7CF3

>  <FULL_NAME>  (2397) 
N-methyl-7-(trifluoromethyl)-L-tryptophan

>  <IUPAC_CONDENSED>  (2397) 
Me-Trp(7-CF3)

>  <IUPAC>  (2397) 
(2S)-2-(methylamino)-3-(7-(trifluoromethyl)-1H-indol-3-yl)propanoic acid

>  <TYPE>  (2397) 
Backbone

>  <CLASS>  (2397) 
alpha

>  <ANALOG>  (2397) 
Trp

>  <MOL_WT>  (2397) 
286.253

>  <LOGP>  (2397) 
2.4017999999999997

>  <TPSA>  (2397) 
65.12

>  <POPULARITY>  (2397) 
2.6

>  <PROTECTED>  (2397) 
TRUE

>  <SMILES>  (2397) 
N(C)[C@@H](Cc1(c[nH]c2(c(cccc12)C(F)(F)F)))C(=O)O

>  <INCHIKEY>  (2397) 
PTMLKQDPIAPWRL-JTQLQIEISA-N

$$$$
NMe-Trp_7CN
     RDKit          2D

 18 19  0  0  0  0  0  0  0  0999 V2000
   -2.8701   -1.5498    0.0000 N   0  0  0  0  0  0  0  0  0  0  0  0
   -4.1335   -2.3583    0.0000 C   0  0  0  0  0  0  0  0  0  0  0  0
   -2.9386   -0.0513    0.0000 C   0  0  0  0  0  0  0  0  0  0  0  0
   -1.6752    0.7572    0.0000 C   0  0  0  0  0  0  0  0  0  0  0  0
   -0.3433    0.0673    0.0000 C   0  0  0  0  0  0  0  0  0  0  0  0
   -0.1185   -1.4157    0.0000 C   0  0  0  0  0  0  0  0  0  0  0  0
    1.3614   -1.6602    0.0000 N   0  0  0  0  0  0  0  0  0  0  0  0
    2.0513   -0.3283    0.0000 C   0  0  0  0  0  0  0  0  0  0  0  0
    3.5028    0.0503    0.0000 C   0  0  0  0  0  0  0  0  0  0  0  0
    4.5563   -1.0174    0.0000 C   0  0  0  0  0  0  0  0  0  0  0  0
    5.6099   -2.0851    0.0000 N   0  0  0  0  0  0  0  0  0  0  0  0
    3.9006    1.4965    0.0000 C   0  0  0  0  0  0  0  0  0  0  0  0
    2.8471    2.5642    0.0000 C   0  0  0  0  0  0  0  0  0  0  0  0
    1.3956    2.1857    0.0000 C   0  0  0  0  0  0  0  0  0  0  0  0
    0.9978    0.7394    0.0000 C   0  0  0  0  0  0  0  0  0  0  0  0
   -4.2706    0.6385    0.0000 C   0  0  0  0  0  0  0  0  0  0  0  0
   -4.3391    2.1370    0.0000 O   0  0  0  0  0  0  0  0  0  0  0  0
   -5.5340   -0.1700    0.0000 O   0  0  0  0  0  0  0  0  0  0  0  0
  1  2  1  0
  1  3  1  0
  3  4  1  6
  4  5  1  0
  5  6  2  0
  6  7  1  0
  7  8  1  0
  8  9  2  0
  9 10  1  0
 10 11  3  0
  9 12  1  0
 12 13  2  0
 13 14  1  0
 14 15  2  0
  3 16  1  0
 16 17  2  0
 16 18  1  0
 15  5  1  0
 15  8  1  0
M  END
>  <rName>  (2398) 
NMe-Trp_7CN

>  <PQ_SYMBOL>  (2398) 
NMe-Trp_7CN

>  <FULL_NAME>  (2398) 
N-methyl-7-cyano-L-tryptophan

>  <IUPAC_CONDENSED>  (2398) 
Me-Trp(7-CN)

>  <IUPAC>  (2398) 
(2S)-2-(methylamino)-3-(7-(nitrilomethyl)-1H-indol-3-yl)propanoic acid

>  <TYPE>  (2398) 
Backbone

>  <CLASS>  (2398) 
alpha

>  <ANALOG>  (2398) 
Trp

>  <MOL_WT>  (2398) 
243.266

>  <LOGP>  (2398) 
1.2546799999999998

>  <TPSA>  (2398) 
88.91000000000001

>  <POPULARITY>  (2398) 
2.6

>  <PROTECTED>  (2398) 
TRUE

>  <SMILES>  (2398) 
N(C)[C@@H](Cc1(c[nH]c2(c(C#N)cccc12)))C(=O)O

>  <INCHIKEY>  (2398) 
QJRLUUROSAQQBJ-NSHDSACASA-N

$$$$
NMe-Trp_7CO2H
     RDKit          2D

 19 20  0  0  0  0  0  0  0  0999 V2000
   -3.0921   -1.5327    0.0000 N   0  0  0  0  0  0  0  0  0  0  0  0
   -4.3459   -2.3560    0.0000 C   0  0  0  0  0  0  0  0  0  0  0  0
   -3.1782   -0.0351    0.0000 C   0  0  0  0  0  0  0  0  0  0  0  0
   -1.9244    0.7882    0.0000 C   0  0  0  0  0  0  0  0  0  0  0  0
   -0.5845    0.1140    0.0000 C   0  0  0  0  0  0  0  0  0  0  0  0
   -0.3423   -1.3663    0.0000 C   0  0  0  0  0  0  0  0  0  0  0  0
    1.1404   -1.5934    0.0000 N   0  0  0  0  0  0  0  0  0  0  0  0
    1.8146   -0.2534    0.0000 C   0  0  0  0  0  0  0  0  0  0  0  0
    3.2615    0.1422    0.0000 C   0  0  0  0  0  0  0  0  0  0  0  0
    3.6424    1.5930    0.0000 C   0  0  0  0  0  0  0  0  0  0  0  0
    2.5763    2.6483    0.0000 C   0  0  0  0  0  0  0  0  0  0  0  0
    1.1294    2.2527    0.0000 C   0  0  0  0  0  0  0  0  0  0  0  0
    0.7486    0.8018    0.0000 C   0  0  0  0  0  0  0  0  0  0  0  0
    4.3276   -0.9131    0.0000 C   0  0  0  0  0  0  0  0  0  0  0  0
    3.9467   -2.3639    0.0000 O   0  0  0  0  0  0  0  0  0  0  0  0
    5.7745   -0.5175    0.0000 O   0  0  0  0  0  0  0  0  0  0  0  0
   -4.5182    0.6390    0.0000 C   0  0  0  0  0  0  0  0  0  0  0  0
   -4.6043    2.1366    0.0000 O   0  0  0  0  0  0  0  0  0  0  0  0
   -5.7720   -0.1843    0.0000 O   0  0  0  0  0  0  0  0  0  0  0  0
  1  2  1  0
  1  3  1  0
  3  4  1  6
  4  5  1  0
  5  6  2  0
  6  7  1  0
  7  8  1  0
  8  9  2  0
  9 10  1  0
 10 11  2  0
 11 12  1  0
 12 13  2  0
  9 14  1  0
 14 15  2  0
 14 16  1  0
  3 17  1  0
 17 18  2  0
 17 19  1  0
 13  5  1  0
 13  8  1  0
M  END
>  <rName>  (2399) 
NMe-Trp_7CO2H

>  <PQ_SYMBOL>  (2399) 
NMe-Trp_7CO2H

>  <FULL_NAME>  (2399) 
N-methyl-7-carboxy-L-tryptophan

>  <IUPAC_CONDENSED>  (2399) 
Me-Trp(7-CO2H)

>  <IUPAC>  (2399) 
3-((2S)-3-hydroxy-2-(methylamino)-3-oxopropyl)-1H-indole-7-carboxylic acid

>  <TYPE>  (2399) 
Backbone

>  <CLASS>  (2399) 
alpha

>  <ANALOG>  (2399) 
Trp

>  <MOL_WT>  (2399) 
262.265

>  <LOGP>  (2399) 
1.0812

>  <TPSA>  (2399) 
102.42

>  <POPULARITY>  (2399) 
2.6

>  <PROTECTED>  (2399) 
TRUE

>  <SMILES>  (2399) 
N(C)[C@@H](Cc1(c[nH]c2(c(cccc12)C(=O)O)))C(=O)O

>  <INCHIKEY>  (2399) 
QMMFRUXMVNIQQR-JTQLQIEISA-N

$$$$
NMe-Trp_7CONH2
     RDKit          2D

 19 20  0  0  0  0  0  0  0  0999 V2000
   -3.0921   -1.5327    0.0000 N   0  0  0  0  0  0  0  0  0  0  0  0
   -4.3459   -2.3560    0.0000 C   0  0  0  0  0  0  0  0  0  0  0  0
   -3.1782   -0.0351    0.0000 C   0  0  0  0  0  0  0  0  0  0  0  0
   -1.9244    0.7882    0.0000 C   0  0  0  0  0  0  0  0  0  0  0  0
   -0.5845    0.1140    0.0000 C   0  0  0  0  0  0  0  0  0  0  0  0
   -0.3423   -1.3663    0.0000 C   0  0  0  0  0  0  0  0  0  0  0  0
    1.1404   -1.5934    0.0000 N   0  0  0  0  0  0  0  0  0  0  0  0
    1.8146   -0.2534    0.0000 C   0  0  0  0  0  0  0  0  0  0  0  0
    3.2615    0.1422    0.0000 C   0  0  0  0  0  0  0  0  0  0  0  0
    3.6424    1.5930    0.0000 C   0  0  0  0  0  0  0  0  0  0  0  0
    2.5763    2.6483    0.0000 C   0  0  0  0  0  0  0  0  0  0  0  0
    1.1294    2.2527    0.0000 C   0  0  0  0  0  0  0  0  0  0  0  0
    0.7486    0.8018    0.0000 C   0  0  0  0  0  0  0  0  0  0  0  0
    4.3276   -0.9131    0.0000 C   0  0  0  0  0  0  0  0  0  0  0  0
    3.9467   -2.3639    0.0000 O   0  0  0  0  0  0  0  0  0  0  0  0
    5.7745   -0.5175    0.0000 N   0  0  0  0  0  0  0  0  0  0  0  0
   -4.5182    0.6390    0.0000 C   0  0  0  0  0  0  0  0  0  0  0  0
   -4.6043    2.1366    0.0000 O   0  0  0  0  0  0  0  0  0  0  0  0
   -5.7720   -0.1843    0.0000 O   0  0  0  0  0  0  0  0  0  0  0  0
  1  2  1  0
  1  3  1  0
  3  4  1  6
  4  5  1  0
  5  6  2  0
  6  7  1  0
  7  8  1  0
  8  9  2  0
  9 10  1  0
 10 11  2  0
 11 12  1  0
 12 13  2  0
  9 14  1  0
 14 15  2  0
 14 16  1  0
  3 17  1  0
 17 18  2  0
 17 19  1  0
 13  5  1  0
 13  8  1  0
M  END
>  <rName>  (2400) 
NMe-Trp_7CONH2

>  <PQ_SYMBOL>  (2400) 
NMe-Trp_7CONH2

>  <FULL_NAME>  (2400) 
N-methyl-7-carbamoyl-L-tryptophan

>  <IUPAC_CONDENSED>  (2400) 
Me-Trp(7-CONH2)

>  <IUPAC>  (2400) 
(2S)-3-(7-carbamoyl-1H-indol-3-yl)-2-(methylamino)propanoic acid

>  <TYPE>  (2400) 
Backbone

>  <CLASS>  (2400) 
alpha

>  <ANALOG>  (2400) 
Trp

>  <MOL_WT>  (2400) 
261.28099999999995

>  <LOGP>  (2400) 
0.4818999999999996

>  <TPSA>  (2400) 
108.21

>  <POPULARITY>  (2400) 
2.6

>  <PROTECTED>  (2400) 
TRUE

>  <SMILES>  (2400) 
N(C)[C@@H](Cc1(c[nH]c2(c(cccc12)C(=O)N)))C(=O)O

>  <INCHIKEY>  (2400) 
VWGSWSMWVFFEGZ-JTQLQIEISA-N

$$$$
NMe-Trp_7Cl
     RDKit          2D

 17 18  0  0  0  0  0  0  0  0999 V2000
   -2.6814   -1.4350    0.0000 N   0  0  0  0  0  0  0  0  0  0  0  0
   -4.0130   -2.1255    0.0000 C   0  0  0  0  0  0  0  0  0  0  0  0
   -2.6137    0.0635    0.0000 C   0  0  0  0  0  0  0  0  0  0  0  0
   -1.2821    0.7541    0.0000 C   0  0  0  0  0  0  0  0  0  0  0  0
   -0.0182   -0.0539    0.0000 C   0  0  0  0  0  0  0  0  0  0  0  0
    0.0710   -1.5512    0.0000 C   0  0  0  0  0  0  0  0  0  0  0  0
    1.5226   -1.9291    0.0000 N   0  0  0  0  0  0  0  0  0  0  0  0
    2.3306   -0.6652    0.0000 C   0  0  0  0  0  0  0  0  0  0  0  0
    3.8104   -0.4200    0.0000 C   0  0  0  0  0  0  0  0  0  0  0  0
    4.7627   -1.5789    0.0000 Cl  0  0  0  0  0  0  0  0  0  0  0  0
    4.3379    0.9842    0.0000 C   0  0  0  0  0  0  0  0  0  0  0  0
    3.3856    2.1431    0.0000 C   0  0  0  0  0  0  0  0  0  0  0  0
    1.9058    1.8979    0.0000 C   0  0  0  0  0  0  0  0  0  0  0  0
    1.3783    0.4937    0.0000 C   0  0  0  0  0  0  0  0  0  0  0  0
   -3.8775    0.8714    0.0000 C   0  0  0  0  0  0  0  0  0  0  0  0
   -3.8097    2.3699    0.0000 O   0  0  0  0  0  0  0  0  0  0  0  0
   -5.2091    0.1809    0.0000 O   0  0  0  0  0  0  0  0  0  0  0  0
  1  2  1  0
  1  3  1  0
  3  4  1  6
  4  5  1  0
  5  6  2  0
  6  7  1  0
  7  8  1  0
  8  9  2  0
  9 10  1  0
  9 11  1  0
 11 12  2  0
 12 13  1  0
 13 14  2  0
  3 15  1  0
 15 16  2  0
 15 17  1  0
 14  5  1  0
 14  8  1  0
M  END
>  <rName>  (2401) 
NMe-Trp_7Cl

>  <PQ_SYMBOL>  (2401) 
NMe-Trp_7Cl

>  <FULL_NAME>  (2401) 
N-methyl-7-chloro-L-tryptophan

>  <IUPAC_CONDENSED>  (2401) 
Me-Trp(7-Cl)

>  <IUPAC>  (2401) 
(2S)-3-(7-chloro-1H-indol-3-yl)-2-(methylamino)propanoic acid

>  <TYPE>  (2401) 
Backbone

>  <CLASS>  (2401) 
alpha

>  <ANALOG>  (2401) 
Trp

>  <MOL_WT>  (2401) 
252.701

>  <LOGP>  (2401) 
2.0363999999999995

>  <TPSA>  (2401) 
65.12

>  <POPULARITY>  (2401) 
4.4

>  <PROTECTED>  (2401) 
TRUE

>  <SMILES>  (2401) 
N(C)[C@@H](Cc1(c[nH]c2(c(Cl)cccc12)))C(=O)O

>  <INCHIKEY>  (2401) 
ITNAFBMPPPLJCG-JTQLQIEISA-N

$$$$
NMe-Trp_7F
     RDKit          2D

 17 18  0  0  0  0  0  0  0  0999 V2000
   -2.6814   -1.4350    0.0000 N   0  0  0  0  0  0  0  0  0  0  0  0
   -4.0130   -2.1255    0.0000 C   0  0  0  0  0  0  0  0  0  0  0  0
   -2.6137    0.0635    0.0000 C   0  0  0  0  0  0  0  0  0  0  0  0
   -1.2821    0.7541    0.0000 C   0  0  0  0  0  0  0  0  0  0  0  0
   -0.0182   -0.0539    0.0000 C   0  0  0  0  0  0  0  0  0  0  0  0
    0.0710   -1.5512    0.0000 C   0  0  0  0  0  0  0  0  0  0  0  0
    1.5226   -1.9291    0.0000 N   0  0  0  0  0  0  0  0  0  0  0  0
    2.3306   -0.6652    0.0000 C   0  0  0  0  0  0  0  0  0  0  0  0
    3.8104   -0.4200    0.0000 C   0  0  0  0  0  0  0  0  0  0  0  0
    4.7627   -1.5789    0.0000 F   0  0  0  0  0  0  0  0  0  0  0  0
    4.3379    0.9842    0.0000 C   0  0  0  0  0  0  0  0  0  0  0  0
    3.3856    2.1431    0.0000 C   0  0  0  0  0  0  0  0  0  0  0  0
    1.9058    1.8979    0.0000 C   0  0  0  0  0  0  0  0  0  0  0  0
    1.3783    0.4937    0.0000 C   0  0  0  0  0  0  0  0  0  0  0  0
   -3.8775    0.8714    0.0000 C   0  0  0  0  0  0  0  0  0  0  0  0
   -3.8097    2.3699    0.0000 O   0  0  0  0  0  0  0  0  0  0  0  0
   -5.2091    0.1809    0.0000 O   0  0  0  0  0  0  0  0  0  0  0  0
  1  2  1  0
  1  3  1  0
  3  4  1  6
  4  5  1  0
  5  6  2  0
  6  7  1  0
  7  8  1  0
  8  9  2  0
  9 10  1  0
  9 11  1  0
 11 12  2  0
 12 13  1  0
 13 14  2  0
  3 15  1  0
 15 16  2  0
 15 17  1  0
 14  5  1  0
 14  8  1  0
M  END
>  <rName>  (2402) 
NMe-Trp_7F

>  <PQ_SYMBOL>  (2402) 
NMe-Trp_7F

>  <FULL_NAME>  (2402) 
N-methyl-7-fluoro-L-tryptophan

>  <IUPAC_CONDENSED>  (2402) 
Me-Trp(7-F)

>  <IUPAC>  (2402) 
(2S)-3-(7-fluoro-1H-indol-3-yl)-2-(methylamino)propanoic acid

>  <TYPE>  (2402) 
Backbone

>  <CLASS>  (2402) 
alpha

>  <ANALOG>  (2402) 
Trp

>  <MOL_WT>  (2402) 
236.24599999999998

>  <LOGP>  (2402) 
1.5220999999999998

>  <TPSA>  (2402) 
65.12

>  <POPULARITY>  (2402) 
4.4

>  <PROTECTED>  (2402) 
TRUE

>  <SMILES>  (2402) 
N(C)[C@@H](Cc1(c[nH]c2(c(F)cccc12)))C(=O)O

>  <INCHIKEY>  (2402) 
ZYSOGBLFOSNJPR-JTQLQIEISA-N

$$$$
NMe-Trp_7For
     RDKit          2D

 18 19  0  0  0  0  0  0  0  0999 V2000
   -2.9631   -1.4973    0.0000 N   0  0  0  0  0  0  0  0  0  0  0  0
   -4.2619   -2.2478    0.0000 C   0  0  0  0  0  0  0  0  0  0  0  0
   -2.9637    0.0027    0.0000 C   0  0  0  0  0  0  0  0  0  0  0  0
   -1.6649    0.7531    0.0000 C   0  0  0  0  0  0  0  0  0  0  0  0
   -0.3656    0.0036    0.0000 C   0  0  0  0  0  0  0  0  0  0  0  0
   -0.2083   -1.4882    0.0000 C   0  0  0  0  0  0  0  0  0  0  0  0
    1.2591   -1.7995    0.0000 N   0  0  0  0  0  0  0  0  0  0  0  0
    2.0086   -0.5002    0.0000 C   0  0  0  0  0  0  0  0  0  0  0  0
    3.4757   -0.1878    0.0000 C   0  0  0  0  0  0  0  0  0  0  0  0
    4.4798   -1.3022    0.0000 C   0  0  0  0  0  0  0  0  0  0  0  0
    5.9469   -0.9898    0.0000 O   0  0  0  0  0  0  0  0  0  0  0  0
    3.9387    1.2389    0.0000 C   0  0  0  0  0  0  0  0  0  0  0  0
    2.9347    2.3533    0.0000 C   0  0  0  0  0  0  0  0  0  0  0  0
    1.4675    2.0409    0.0000 C   0  0  0  0  0  0  0  0  0  0  0  0
    1.0045    0.6142    0.0000 C   0  0  0  0  0  0  0  0  0  0  0  0
   -4.2630    0.7522    0.0000 C   0  0  0  0  0  0  0  0  0  0  0  0
   -4.2635    2.2522    0.0000 O   0  0  0  0  0  0  0  0  0  0  0  0
   -5.5617    0.0017    0.0000 O   0  0  0  0  0  0  0  0  0  0  0  0
  1  2  1  0
  1  3  1  0
  3  4  1  6
  4  5  1  0
  5  6  2  0
  6  7  1  0
  7  8  1  0
  8  9  2  0
  9 10  1  0
 10 11  2  0
  9 12  1  0
 12 13  2  0
 13 14  1  0
 14 15  2  0
  3 16  1  0
 16 17  2  0
 16 18  1  0
 15  5  1  0
 15  8  1  0
M  END
>  <rName>  (2403) 
NMe-Trp_7For

>  <PQ_SYMBOL>  (2403) 
NMe-Trp_7For

>  <FULL_NAME>  (2403) 
N-methyl-7-formyl-L-tryptophan

>  <IUPAC_CONDENSED>  (2403) 
Me-Trp(7-For)

>  <IUPAC>  (2403) 
(2S)-3-(7-(formyl)-1H-indol-3-yl)-2-(methylamino)propanoic acid

>  <TYPE>  (2403) 
Backbone

>  <CLASS>  (2403) 
alpha

>  <ANALOG>  (2403) 
Trp

>  <MOL_WT>  (2403) 
246.266

>  <LOGP>  (2403) 
1.1954999999999998

>  <TPSA>  (2403) 
82.19

>  <POPULARITY>  (2403) 
2.6

>  <PROTECTED>  (2403) 
TRUE

>  <SMILES>  (2403) 
N(C)[C@@H](Cc1(c[nH]c2(c(C=O)cccc12)))C(=O)O

>  <INCHIKEY>  (2403) 
ICOISUIENXARPP-NSHDSACASA-N

$$$$
NMe-Trp_7I
     RDKit          2D

 17 18  0  0  0  0  0  0  0  0999 V2000
   -2.6814   -1.4350    0.0000 N   0  0  0  0  0  0  0  0  0  0  0  0
   -4.0130   -2.1255    0.0000 C   0  0  0  0  0  0  0  0  0  0  0  0
   -2.6137    0.0635    0.0000 C   0  0  0  0  0  0  0  0  0  0  0  0
   -1.2821    0.7541    0.0000 C   0  0  0  0  0  0  0  0  0  0  0  0
   -0.0182   -0.0539    0.0000 C   0  0  0  0  0  0  0  0  0  0  0  0
    0.0710   -1.5512    0.0000 C   0  0  0  0  0  0  0  0  0  0  0  0
    1.5226   -1.9291    0.0000 N   0  0  0  0  0  0  0  0  0  0  0  0
    2.3306   -0.6652    0.0000 C   0  0  0  0  0  0  0  0  0  0  0  0
    3.8104   -0.4200    0.0000 C   0  0  0  0  0  0  0  0  0  0  0  0
    4.7627   -1.5789    0.0000 I   0  0  0  0  0  0  0  0  0  0  0  0
    4.3379    0.9842    0.0000 C   0  0  0  0  0  0  0  0  0  0  0  0
    3.3856    2.1431    0.0000 C   0  0  0  0  0  0  0  0  0  0  0  0
    1.9058    1.8979    0.0000 C   0  0  0  0  0  0  0  0  0  0  0  0
    1.3783    0.4937    0.0000 C   0  0  0  0  0  0  0  0  0  0  0  0
   -3.8775    0.8714    0.0000 C   0  0  0  0  0  0  0  0  0  0  0  0
   -3.8097    2.3699    0.0000 O   0  0  0  0  0  0  0  0  0  0  0  0
   -5.2091    0.1809    0.0000 O   0  0  0  0  0  0  0  0  0  0  0  0
  1  2  1  0
  1  3  1  0
  3  4  1  6
  4  5  1  0
  5  6  2  0
  6  7  1  0
  7  8  1  0
  8  9  2  0
  9 10  1  0
  9 11  1  0
 11 12  2  0
 12 13  1  0
 13 14  2  0
  3 15  1  0
 15 16  2  0
 15 17  1  0
 14  5  1  0
 14  8  1  0
M  END
>  <rName>  (2404) 
NMe-Trp_7I

>  <PQ_SYMBOL>  (2404) 
NMe-Trp_7I

>  <FULL_NAME>  (2404) 
N-methyl-7-iodo-L-tryptophan

>  <IUPAC_CONDENSED>  (2404) 
Me-Trp(7-I)

>  <IUPAC>  (2404) 
(2S)-3-(7-iodo-1H-indol-3-yl)-2-(methylamino)propanoic acid

>  <TYPE>  (2404) 
Backbone

>  <CLASS>  (2404) 
alpha

>  <ANALOG>  (2404) 
Trp

>  <MOL_WT>  (2404) 
344.15200000000004

>  <LOGP>  (2404) 
1.9875999999999998

>  <TPSA>  (2404) 
65.12

>  <POPULARITY>  (2404) 
3.1

>  <PROTECTED>  (2404) 
TRUE

>  <SMILES>  (2404) 
N(C)[C@@H](Cc1(c[nH]c2(c(I)cccc12)))C(=O)O

>  <INCHIKEY>  (2404) 
JANCALXMLWVAMC-JTQLQIEISA-N

$$$$
NMe-Trp_7Me
     RDKit          2D

 17 18  0  0  0  0  0  0  0  0999 V2000
   -2.6814   -1.4350    0.0000 N   0  0  0  0  0  0  0  0  0  0  0  0
   -4.0130   -2.1255    0.0000 C   0  0  0  0  0  0  0  0  0  0  0  0
   -2.6137    0.0635    0.0000 C   0  0  0  0  0  0  0  0  0  0  0  0
   -1.2821    0.7541    0.0000 C   0  0  0  0  0  0  0  0  0  0  0  0
   -0.0182   -0.0539    0.0000 C   0  0  0  0  0  0  0  0  0  0  0  0
    0.0710   -1.5512    0.0000 C   0  0  0  0  0  0  0  0  0  0  0  0
    1.5226   -1.9291    0.0000 N   0  0  0  0  0  0  0  0  0  0  0  0
    2.3306   -0.6652    0.0000 C   0  0  0  0  0  0  0  0  0  0  0  0
    3.8104   -0.4200    0.0000 C   0  0  0  0  0  0  0  0  0  0  0  0
    4.7627   -1.5789    0.0000 C   0  0  0  0  0  0  0  0  0  0  0  0
    4.3379    0.9842    0.0000 C   0  0  0  0  0  0  0  0  0  0  0  0
    3.3856    2.1431    0.0000 C   0  0  0  0  0  0  0  0  0  0  0  0
    1.9058    1.8979    0.0000 C   0  0  0  0  0  0  0  0  0  0  0  0
    1.3783    0.4937    0.0000 C   0  0  0  0  0  0  0  0  0  0  0  0
   -3.8775    0.8714    0.0000 C   0  0  0  0  0  0  0  0  0  0  0  0
   -3.8097    2.3699    0.0000 O   0  0  0  0  0  0  0  0  0  0  0  0
   -5.2091    0.1809    0.0000 O   0  0  0  0  0  0  0  0  0  0  0  0
  1  2  1  0
  1  3  1  0
  3  4  1  6
  4  5  1  0
  5  6  2  0
  6  7  1  0
  7  8  1  0
  8  9  2  0
  9 10  1  0
  9 11  1  0
 11 12  2  0
 12 13  1  0
 13 14  2  0
  3 15  1  0
 15 16  2  0
 15 17  1  0
 14  5  1  0
 14  8  1  0
M  END
>  <rName>  (2405) 
NMe-Trp_7Me

>  <PQ_SYMBOL>  (2405) 
NMe-Trp_7Me

>  <FULL_NAME>  (2405) 
N-methyl-7-methyl-L-tryptophan

>  <IUPAC_CONDENSED>  (2405) 
Me-Trp(7-Me)

>  <IUPAC>  (2405) 
(2S)-3-(7-methyl-1H-indol-3-yl)-2-(methylamino)propanoic acid

>  <TYPE>  (2405) 
Backbone

>  <CLASS>  (2405) 
alpha

>  <ANALOG>  (2405) 
Trp

>  <MOL_WT>  (2405) 
232.283

>  <LOGP>  (2405) 
1.6914199999999997

>  <TPSA>  (2405) 
65.12

>  <POPULARITY>  (2405) 
6.6

>  <PROTECTED>  (2405) 
TRUE

>  <SMILES>  (2405) 
N(C)[C@@H](Cc1(c[nH]c2(c(C)cccc12)))C(=O)O

>  <INCHIKEY>  (2405) 
XGQBBLQLYKFGJH-NSHDSACASA-N

$$$$
NMe-Trp_7NO2
     RDKit          2D

 19 20  0  0  0  0  0  0  0  0999 V2000
   -3.0921   -1.5327    0.0000 N   0  0  0  0  0  0  0  0  0  0  0  0
   -4.3459   -2.3560    0.0000 C   0  0  0  0  0  0  0  0  0  0  0  0
   -3.1782   -0.0351    0.0000 C   0  0  0  0  0  0  0  0  0  0  0  0
   -1.9244    0.7882    0.0000 C   0  0  0  0  0  0  0  0  0  0  0  0
   -0.5845    0.1140    0.0000 C   0  0  0  0  0  0  0  0  0  0  0  0
   -0.3423   -1.3663    0.0000 C   0  0  0  0  0  0  0  0  0  0  0  0
    1.1404   -1.5934    0.0000 N   0  0  0  0  0  0  0  0  0  0  0  0
    1.8146   -0.2534    0.0000 C   0  0  0  0  0  0  0  0  0  0  0  0
    3.2615    0.1422    0.0000 C   0  0  0  0  0  0  0  0  0  0  0  0
    3.6424    1.5930    0.0000 C   0  0  0  0  0  0  0  0  0  0  0  0
    2.5763    2.6483    0.0000 C   0  0  0  0  0  0  0  0  0  0  0  0
    1.1294    2.2527    0.0000 C   0  0  0  0  0  0  0  0  0  0  0  0
    0.7486    0.8018    0.0000 C   0  0  0  0  0  0  0  0  0  0  0  0
    4.3276   -0.9131    0.0000 N   0  0  0  0  0  0  0  0  0  0  0  0
    3.9467   -2.3639    0.0000 O   0  0  0  0  0  0  0  0  0  0  0  0
    5.7745   -0.5175    0.0000 O   0  0  0  0  0  0  0  0  0  0  0  0
   -4.5182    0.6390    0.0000 C   0  0  0  0  0  0  0  0  0  0  0  0
   -4.6043    2.1366    0.0000 O   0  0  0  0  0  0  0  0  0  0  0  0
   -5.7720   -0.1843    0.0000 O   0  0  0  0  0  0  0  0  0  0  0  0
  1  2  1  0
  1  3  1  0
  3  4  1  6
  4  5  1  0
  5  6  2  0
  6  7  1  0
  7  8  1  0
  8  9  2  0
  9 10  1  0
 10 11  2  0
 11 12  1  0
 12 13  2  0
  9 14  1  0
 14 15  2  0
 14 16  1  0
  3 17  1  0
 17 18  2  0
 17 19  1  0
 13  5  1  0
 13  8  1  0
M  CHG  2  14   1  16  -1
M  END
>  <rName>  (2406) 
NMe-Trp_7NO2

>  <PQ_SYMBOL>  (2406) 
NMe-Trp_7NO2

>  <FULL_NAME>  (2406) 
N-methyl-7-nitro-L-tryptophan

>  <IUPAC_CONDENSED>  (2406) 
Me-Trp(7-NO2)

>  <IUPAC>  (2406) 
(2S)-2-(methylamino)-3-(7-nitro-1H-indol-3-yl)propanoic acid

>  <TYPE>  (2406) 
Backbone

>  <CLASS>  (2406) 
alpha

>  <ANALOG>  (2406) 
Trp

>  <MOL_WT>  (2406) 
263.253

>  <LOGP>  (2406) 
1.2911999999999997

>  <TPSA>  (2406) 
108.26

>  <POPULARITY>  (2406) 
2.6

>  <PROTECTED>  (2406) 
TRUE

>  <SMILES>  (2406) 
N(C)[C@@H](Cc1(c[nH]c2(c(cccc12)[N+](=O)[O-])))C(=O)O

>  <INCHIKEY>  (2406) 
NJEWZDHDXRSMJN-VIFPVBQESA-N

$$$$
NMe-Trp_7OBn
     RDKit          2D

 24 26  0  0  0  0  0  0  0  0999 V2000
    4.6161    1.9217    0.0000 N   0  0  0  0  0  0  0  0  0  0  0  0
    5.6831    2.9760    0.0000 C   0  0  0  0  0  0  0  0  0  0  0  0
    4.9957    0.4705    0.0000 C   0  0  0  0  0  0  0  0  0  0  0  0
    3.9287   -0.5838    0.0000 C   0  0  0  0  0  0  0  0  0  0  0  0
    2.4822   -0.1870    0.0000 C   0  0  0  0  0  0  0  0  0  0  0  0
    1.9530    1.2166    0.0000 C   0  0  0  0  0  0  0  0  0  0  0  0
    0.4546    1.1470    0.0000 N   0  0  0  0  0  0  0  0  0  0  0  0
    0.0577   -0.2996    0.0000 C   0  0  0  0  0  0  0  0  0  0  0  0
   -1.2828   -0.9726    0.0000 C   0  0  0  0  0  0  0  0  0  0  0  0
   -2.5359   -0.1481    0.0000 O   0  0  0  0  0  0  0  0  0  0  0  0
   -3.8765   -0.8211    0.0000 C   0  0  0  0  0  0  0  0  0  0  0  0
   -5.1296    0.0033    0.0000 C   0  0  0  0  0  0  0  0  0  0  0  0
   -5.0421    1.5007    0.0000 C   0  0  0  0  0  0  0  0  0  0  0  0
   -6.2953    2.3252    0.0000 C   0  0  0  0  0  0  0  0  0  0  0  0
   -7.6358    1.6522    0.0000 C   0  0  0  0  0  0  0  0  0  0  0  0
   -7.7232    0.1547    0.0000 C   0  0  0  0  0  0  0  0  0  0  0  0
   -6.4701   -0.6697    0.0000 C   0  0  0  0  0  0  0  0  0  0  0  0
   -1.3702   -2.4700    0.0000 C   0  0  0  0  0  0  0  0  0  0  0  0
   -0.1171   -3.2945    0.0000 C   0  0  0  0  0  0  0  0  0  0  0  0
    1.2234   -2.6214    0.0000 C   0  0  0  0  0  0  0  0  0  0  0  0
    1.3109   -1.1240    0.0000 C   0  0  0  0  0  0  0  0  0  0  0  0
    6.4422    0.0736    0.0000 C   0  0  0  0  0  0  0  0  0  0  0  0
    6.8218   -1.3775    0.0000 O   0  0  0  0  0  0  0  0  0  0  0  0
    7.5092    1.1280    0.0000 O   0  0  0  0  0  0  0  0  0  0  0  0
  1  2  1  0
  1  3  1  0
  3  4  1  6
  4  5  1  0
  5  6  2  0
  6  7  1  0
  7  8  1  0
  8  9  2  0
  9 10  1  0
 10 11  1  0
 11 12  1  0
 12 13  2  0
 13 14  1  0
 14 15  2  0
 15 16  1  0
 16 17  2  0
  9 18  1  0
 18 19  2  0
 19 20  1  0
 20 21  2  0
  3 22  1  0
 22 23  2  0
 22 24  1  0
 17 12  1  0
 21  5  1  0
 21  8  1  0
M  END
>  <rName>  (2407) 
NMe-Trp_7OBn

>  <PQ_SYMBOL>  (2407) 
NMe-Trp_7OBn

>  <FULL_NAME>  (2407) 
N-methyl-7-benzyloxy-L-tryptophan

>  <IUPAC_CONDENSED>  (2407) 
Me-Trp(7-OBn)

>  <IUPAC>  (2407) 
(2S)-2-(methylamino)-3-(7-benzyloxy-1H-indol-3-yl)propanoic acid

>  <TYPE>  (2407) 
Backbone

>  <CLASS>  (2407) 
alpha

>  <ANALOG>  (2407) 
Trp

>  <MOL_WT>  (2407) 
324.38000000000005

>  <LOGP>  (2407) 
2.9620000000000006

>  <TPSA>  (2407) 
74.35

>  <POPULARITY>  (2407) 
2.6

>  <PROTECTED>  (2407) 
TRUE

>  <SMILES>  (2407) 
N(C)[C@@H](Cc2(c[nH]c3(c(OCc1(ccccc1))cccc23)))C(=O)O

>  <INCHIKEY>  (2407) 
QNMLBGMSAARHIR-INIZCTEOSA-N

$$$$
NMe-Trp_7OH
     RDKit          2D

 17 18  0  0  0  0  0  0  0  0999 V2000
   -2.6814   -1.4350    0.0000 N   0  0  0  0  0  0  0  0  0  0  0  0
   -4.0130   -2.1255    0.0000 C   0  0  0  0  0  0  0  0  0  0  0  0
   -2.6137    0.0635    0.0000 C   0  0  0  0  0  0  0  0  0  0  0  0
   -1.2821    0.7541    0.0000 C   0  0  0  0  0  0  0  0  0  0  0  0
   -0.0182   -0.0539    0.0000 C   0  0  0  0  0  0  0  0  0  0  0  0
    0.0710   -1.5512    0.0000 C   0  0  0  0  0  0  0  0  0  0  0  0
    1.5226   -1.9291    0.0000 N   0  0  0  0  0  0  0  0  0  0  0  0
    2.3306   -0.6652    0.0000 C   0  0  0  0  0  0  0  0  0  0  0  0
    3.8104   -0.4200    0.0000 C   0  0  0  0  0  0  0  0  0  0  0  0
    4.7627   -1.5789    0.0000 O   0  0  0  0  0  0  0  0  0  0  0  0
    4.3379    0.9842    0.0000 C   0  0  0  0  0  0  0  0  0  0  0  0
    3.3856    2.1431    0.0000 C   0  0  0  0  0  0  0  0  0  0  0  0
    1.9058    1.8979    0.0000 C   0  0  0  0  0  0  0  0  0  0  0  0
    1.3783    0.4937    0.0000 C   0  0  0  0  0  0  0  0  0  0  0  0
   -3.8775    0.8714    0.0000 C   0  0  0  0  0  0  0  0  0  0  0  0
   -3.8097    2.3699    0.0000 O   0  0  0  0  0  0  0  0  0  0  0  0
   -5.2091    0.1809    0.0000 O   0  0  0  0  0  0  0  0  0  0  0  0
  1  2  1  0
  1  3  1  0
  3  4  1  6
  4  5  1  0
  5  6  2  0
  6  7  1  0
  7  8  1  0
  8  9  2  0
  9 10  1  0
  9 11  1  0
 11 12  2  0
 12 13  1  0
 13 14  2  0
  3 15  1  0
 15 16  2  0
 15 17  1  0
 14  5  1  0
 14  8  1  0
M  END
>  <rName>  (2408) 
NMe-Trp_7OH

>  <PQ_SYMBOL>  (2408) 
NMe-Trp_7OH

>  <FULL_NAME>  (2408) 
N-methyl-7-hydroxy-L-tryptophan

>  <IUPAC_CONDENSED>  (2408) 
Me-Trp(7-OH)

>  <IUPAC>  (2408) 
(2S)-3-(7-hydroxy-1H-indol-3-yl)-2-(methylamino)propanoic acid

>  <TYPE>  (2408) 
Backbone

>  <CLASS>  (2408) 
alpha

>  <ANALOG>  (2408) 
Trp

>  <MOL_WT>  (2408) 
234.255

>  <LOGP>  (2408) 
1.0885999999999998

>  <TPSA>  (2408) 
85.35000000000001

>  <POPULARITY>  (2408) 
3.3

>  <PROTECTED>  (2408) 
TRUE

>  <SMILES>  (2408) 
N(C)[C@@H](Cc1(c[nH]c2(c(O)cccc12)))C(=O)O

>  <INCHIKEY>  (2408) 
LZRGUDNICXNBGM-VIFPVBQESA-N

$$$$
NMe-Trp_7OMe
     RDKit          2D

 18 19  0  0  0  0  0  0  0  0999 V2000
   -2.9631   -1.4973    0.0000 N   0  0  0  0  0  0  0  0  0  0  0  0
   -4.2619   -2.2478    0.0000 C   0  0  0  0  0  0  0  0  0  0  0  0
   -2.9637    0.0027    0.0000 C   0  0  0  0  0  0  0  0  0  0  0  0
   -1.6649    0.7531    0.0000 C   0  0  0  0  0  0  0  0  0  0  0  0
   -0.3656    0.0036    0.0000 C   0  0  0  0  0  0  0  0  0  0  0  0
   -0.2083   -1.4882    0.0000 C   0  0  0  0  0  0  0  0  0  0  0  0
    1.2591   -1.7995    0.0000 N   0  0  0  0  0  0  0  0  0  0  0  0
    2.0086   -0.5002    0.0000 C   0  0  0  0  0  0  0  0  0  0  0  0
    3.4757   -0.1878    0.0000 C   0  0  0  0  0  0  0  0  0  0  0  0
    4.4798   -1.3022    0.0000 O   0  0  0  0  0  0  0  0  0  0  0  0
    5.9469   -0.9898    0.0000 C   0  0  0  0  0  0  0  0  0  0  0  0
    3.9387    1.2389    0.0000 C   0  0  0  0  0  0  0  0  0  0  0  0
    2.9347    2.3533    0.0000 C   0  0  0  0  0  0  0  0  0  0  0  0
    1.4675    2.0409    0.0000 C   0  0  0  0  0  0  0  0  0  0  0  0
    1.0045    0.6142    0.0000 C   0  0  0  0  0  0  0  0  0  0  0  0
   -4.2630    0.7522    0.0000 C   0  0  0  0  0  0  0  0  0  0  0  0
   -4.2635    2.2522    0.0000 O   0  0  0  0  0  0  0  0  0  0  0  0
   -5.5617    0.0017    0.0000 O   0  0  0  0  0  0  0  0  0  0  0  0
  1  2  1  0
  1  3  1  0
  3  4  1  6
  4  5  1  0
  5  6  2  0
  6  7  1  0
  7  8  1  0
  8  9  2  0
  9 10  1  0
 10 11  1  0
  9 12  1  0
 12 13  2  0
 13 14  1  0
 14 15  2  0
  3 16  1  0
 16 17  2  0
 16 18  1  0
 15  5  1  0
 15  8  1  0
M  END
>  <rName>  (2409) 
NMe-Trp_7OMe

>  <PQ_SYMBOL>  (2409) 
NMe-Trp_7OMe

>  <FULL_NAME>  (2409) 
N-methyl-7-methoxy-L-tryptophan

>  <IUPAC_CONDENSED>  (2409) 
Me-Trp(7-OMe)

>  <IUPAC>  (2409) 
(2S)-3-(7-methoxy-1H-indol-3-yl)-2-(methylamino)propanoic acid

>  <TYPE>  (2409) 
Backbone

>  <CLASS>  (2409) 
alpha

>  <ANALOG>  (2409) 
Trp

>  <MOL_WT>  (2409) 
248.28199999999998

>  <LOGP>  (2409) 
1.3915999999999997

>  <TPSA>  (2409) 
74.35

>  <POPULARITY>  (2409) 
3.3

>  <PROTECTED>  (2409) 
TRUE

>  <SMILES>  (2409) 
N(C)[C@@H](Cc1(c[nH]c2(c(OC)cccc12)))C(=O)O

>  <INCHIKEY>  (2409) 
KZZKKJPJRUPGCF-JTQLQIEISA-N

$$$$
NMe-Trp_7Ph
     RDKit          2D

 22 24  0  0  0  0  0  0  0  0999 V2000
    3.7028    1.7481    0.0000 N   0  0  0  0  0  0  0  0  0  0  0  0
    4.8178    2.7516    0.0000 C   0  0  0  0  0  0  0  0  0  0  0  0
    4.0143    0.2808    0.0000 C   0  0  0  0  0  0  0  0  0  0  0  0
    2.8994   -0.7226    0.0000 C   0  0  0  0  0  0  0  0  0  0  0  0
    1.4729   -0.2587    0.0000 C   0  0  0  0  0  0  0  0  0  0  0  0
    1.0097    1.1680    0.0000 C   0  0  0  0  0  0  0  0  0  0  0  0
   -0.4903    1.1684    0.0000 N   0  0  0  0  0  0  0  0  0  0  0  0
   -0.9542   -0.2581    0.0000 C   0  0  0  0  0  0  0  0  0  0  0  0
   -2.3246   -0.8679    0.0000 C   0  0  0  0  0  0  0  0  0  0  0  0
   -2.4818   -2.3596    0.0000 C   0  0  0  0  0  0  0  0  0  0  0  0
   -1.2685   -3.2416    0.0000 C   0  0  0  0  0  0  0  0  0  0  0  0
    0.1020   -2.6318    0.0000 C   0  0  0  0  0  0  0  0  0  0  0  0
    0.2591   -1.1401    0.0000 C   0  0  0  0  0  0  0  0  0  0  0  0
   -3.5379    0.0141    0.0000 C   0  0  0  0  0  0  0  0  0  0  0  0
   -3.3808    1.5058    0.0000 C   0  0  0  0  0  0  0  0  0  0  0  0
   -4.5941    2.3878    0.0000 C   0  0  0  0  0  0  0  0  0  0  0  0
   -5.9646    1.7780    0.0000 C   0  0  0  0  0  0  0  0  0  0  0  0
   -6.1217    0.2863    0.0000 C   0  0  0  0  0  0  0  0  0  0  0  0
   -4.9084   -0.5957    0.0000 C   0  0  0  0  0  0  0  0  0  0  0  0
    5.4408   -0.1830    0.0000 C   0  0  0  0  0  0  0  0  0  0  0  0
    5.7523   -1.6503    0.0000 O   0  0  0  0  0  0  0  0  0  0  0  0
    6.5558    0.8204    0.0000 O   0  0  0  0  0  0  0  0  0  0  0  0
  1  2  1  0
  1  3  1  0
  3  4  1  6
  4  5  1  0
  5  6  2  0
  6  7  1  0
  7  8  1  0
  8  9  2  0
  9 10  1  0
 10 11  2  0
 11 12  1  0
 12 13  2  0
  9 14  1  0
 14 15  2  0
 15 16  1  0
 16 17  2  0
 17 18  1  0
 18 19  2  0
  3 20  1  0
 20 21  2  0
 20 22  1  0
 13  5  1  0
 13  8  1  0
 19 14  1  0
M  END
>  <rName>  (2410) 
NMe-Trp_7Ph

>  <PQ_SYMBOL>  (2410) 
NMe-Trp_7Ph

>  <FULL_NAME>  (2410) 
N-methyl-7-phenyl-L-tryptophan

>  <IUPAC_CONDENSED>  (2410) 
Me-Trp(7-Ph)

>  <IUPAC>  (2410) 
(2S)-2-(methylamino)-3-(7-phenyl-1H-indol-3-yl)propanoic acid

>  <TYPE>  (2410) 
Backbone

>  <CLASS>  (2410) 
alpha

>  <ANALOG>  (2410) 
Trp

>  <MOL_WT>  (2410) 
294.35400000000004

>  <LOGP>  (2410) 
3.0500000000000007

>  <TPSA>  (2410) 
65.12

>  <POPULARITY>  (2410) 
2.6

>  <PROTECTED>  (2410) 
TRUE

>  <SMILES>  (2410) 
N(C)[C@@H](Cc1(c[nH]c2(c(cccc12)c3(ccccc3))))C(=O)O

>  <INCHIKEY>  (2410) 
SHXRRSDRJZMIIB-INIZCTEOSA-N

$$$$
NMe-Trp_Me
     RDKit          2D

 17 18  0  0  0  0  0  0  0  0999 V2000
   -2.5274   -1.3240    0.0000 N   0  0  0  0  0  0  0  0  0  0  0  0
   -3.8612   -2.0101    0.0000 C   0  0  0  0  0  0  0  0  0  0  0  0
   -2.4547    0.1743    0.0000 C   0  0  0  0  0  0  0  0  0  0  0  0
   -1.1209    0.8605    0.0000 C   0  0  0  0  0  0  0  0  0  0  0  0
    0.1403    0.0484    0.0000 C   0  0  0  0  0  0  0  0  0  0  0  0
    0.2246   -1.4492    0.0000 C   0  0  0  0  0  0  0  0  0  0  0  0
    1.6750   -1.8318    0.0000 N   0  0  0  0  0  0  0  0  0  0  0  0
    2.2180   -3.2301    0.0000 C   0  0  0  0  0  0  0  0  0  0  0  0
    2.4871   -0.5706    0.0000 C   0  0  0  0  0  0  0  0  0  0  0  0
    3.9677   -0.3302    0.0000 C   0  0  0  0  0  0  0  0  0  0  0  0
    4.4998    1.0722    0.0000 C   0  0  0  0  0  0  0  0  0  0  0  0
    3.5513    2.2343    0.0000 C   0  0  0  0  0  0  0  0  0  0  0  0
    2.0707    1.9939    0.0000 C   0  0  0  0  0  0  0  0  0  0  0  0
    1.5386    0.5914    0.0000 C   0  0  0  0  0  0  0  0  0  0  0  0
   -3.7159    0.9863    0.0000 C   0  0  0  0  0  0  0  0  0  0  0  0
   -3.6432    2.4846    0.0000 O   0  0  0  0  0  0  0  0  0  0  0  0
   -5.0497    0.3002    0.0000 O   0  0  0  0  0  0  0  0  0  0  0  0
  1  2  1  0
  1  3  1  0
  3  4  1  6
  4  5  1  0
  5  6  2  0
  6  7  1  0
  7  8  1  0
  7  9  1  0
  9 10  2  0
 10 11  1  0
 11 12  2  0
 12 13  1  0
 13 14  2  0
  3 15  1  0
 15 16  2  0
 15 17  1  0
 14  5  1  0
 14  9  1  0
M  END
>  <rName>  (2411) 
NMe-Trp_Me

>  <PQ_SYMBOL>  (2411) 
NMe-Trp_Me

>  <FULL_NAME>  (2411) 
N-methyl-1-methyl-L-tryptophan

>  <IUPAC_CONDENSED>  (2411) 
Me-Trp(Me)

>  <IUPAC>  (2411) 
(2S)-3-(1-methyl-1H-indol-3-yl)-2-(methylamino)propanoic acid

>  <TYPE>  (2411) 
Backbone

>  <CLASS>  (2411) 
alpha

>  <ANALOG>  (2411) 
Trp

>  <MOL_WT>  (2411) 
232.28300000000002

>  <LOGP>  (2411) 
1.3934

>  <TPSA>  (2411) 
54.260000000000005

>  <POPULARITY>  (2411) 
9.2

>  <PROTECTED>  (2411) 
TRUE

>  <SMILES>  (2411) 
N(C)[C@@H](Cc1(cn(C)c2(ccccc12)))C(=O)O

>  <INCHIKEY>  (2411) 
LLXSARQPJDZTPZ-NSHDSACASA-N

$$$$
NMe-Tyr_3I
     RDKit          2D

 15 15  0  0  0  0  0  0  0  0999 V2000
   -1.9066    1.3766    0.0000 N   0  0  0  0  0  0  0  0  0  0  0  0
   -3.0895    2.2989    0.0000 C   0  0  0  0  0  0  0  0  0  0  0  0
   -2.1138   -0.1090    0.0000 C   0  0  0  0  0  0  0  0  0  0  0  0
   -0.9308   -1.0313    0.0000 C   0  0  0  0  0  0  0  0  0  0  0  0
    0.4594   -0.4680    0.0000 C   0  0  0  0  0  0  0  0  0  0  0  0
    0.6666    1.0177    0.0000 C   0  0  0  0  0  0  0  0  0  0  0  0
    2.0568    1.5810    0.0000 C   0  0  0  0  0  0  0  0  0  0  0  0
    3.2398    0.6587    0.0000 C   0  0  0  0  0  0  0  0  0  0  0  0
    4.6300    1.2221    0.0000 O   0  0  0  0  0  0  0  0  0  0  0  0
    3.0325   -0.8269    0.0000 C   0  0  0  0  0  0  0  0  0  0  0  0
    4.2155   -1.7492    0.0000 I   0  0  0  0  0  0  0  0  0  0  0  0
    1.6423   -1.3902    0.0000 C   0  0  0  0  0  0  0  0  0  0  0  0
   -3.5040   -0.6724    0.0000 C   0  0  0  0  0  0  0  0  0  0  0  0
   -3.7112   -2.1580    0.0000 O   0  0  0  0  0  0  0  0  0  0  0  0
   -4.6870    0.2499    0.0000 O   0  0  0  0  0  0  0  0  0  0  0  0
  1  2  1  0
  1  3  1  0
  3  4  1  1
  4  5  1  0
  5  6  1  0
  6  7  2  0
  7  8  1  0
  8  9  1  0
  8 10  2  0
 10 11  1  0
 10 12  1  0
  3 13  1  0
 13 14  2  0
 13 15  1  0
 12  5  2  0
M  END
>  <rName>  (2412) 
NMe-Tyr_3I

>  <PQ_SYMBOL>  (2412) 
NMe-Tyr_3I

>  <FULL_NAME>  (2412) 
(2S)-3-(4-hydroxy-3-iodophenyl)-2-(methylamino)propanoic acid

>  <IUPAC_CONDENSED>  (2412) 
Me-Tyr(3-I)

>  <IUPAC>  (2412) 
(2S)-3-(4-hydroxy-3-iodophenyl)-2-(methylamino)propanoic acid

>  <TYPE>  (2412) 
Backbone

>  <CLASS>  (2412) 
alpha

>  <ANALOG>  (2412) 
Tyr

>  <MOL_WT>  (2412) 
321.11400000000003

>  <LOGP>  (2412) 
1.2118999999999998

>  <TPSA>  (2412) 
69.56

>  <POPULARITY>  (2412) 
6.4

>  <PROTECTED>  (2412) 
TRUE

>  <SMILES>  (2412) 
N(C)[C@@H](Cc1(ccc(O)c(I)c1))C(=O)O

>  <INCHIKEY>  (2412) 
PADMBYHCEGCPJU-QMMMGPOBSA-N

$$$$
NMe-Tyr_CHF2
     RDKit          2D

 17 17  0  0  0  0  0  0  0  0999 V2000
   -2.7053    1.3753    0.0000 N   0  0  0  0  0  0  0  0  0  0  0  0
   -3.8536    2.3404    0.0000 C   0  0  0  0  0  0  0  0  0  0  0  0
   -2.9670   -0.1017    0.0000 C   0  0  0  0  0  0  0  0  0  0  0  0
   -1.8186   -1.0668    0.0000 C   0  0  0  0  0  0  0  0  0  0  0  0
   -0.4087   -0.5549    0.0000 C   0  0  0  0  0  0  0  0  0  0  0  0
   -0.1471    0.9221    0.0000 C   0  0  0  0  0  0  0  0  0  0  0  0
    1.2629    1.4341    0.0000 C   0  0  0  0  0  0  0  0  0  0  0  0
    2.4112    0.4690    0.0000 C   0  0  0  0  0  0  0  0  0  0  0  0
    3.8211    0.9809    0.0000 O   0  0  0  0  0  0  0  0  0  0  0  0
    4.9694    0.0158    0.0000 C   0  0  0  0  0  0  0  0  0  0  0  0
    6.3794    0.5277    0.0000 F   0  0  0  0  0  0  0  0  0  0  0  0
    4.7078   -1.4612    0.0000 F   0  0  0  0  0  0  0  0  0  0  0  0
    2.1495   -1.0080    0.0000 C   0  0  0  0  0  0  0  0  0  0  0  0
    0.7396   -1.5200    0.0000 C   0  0  0  0  0  0  0  0  0  0  0  0
   -4.3769   -0.6136    0.0000 C   0  0  0  0  0  0  0  0  0  0  0  0
   -4.6385   -2.0906    0.0000 O   0  0  0  0  0  0  0  0  0  0  0  0
   -5.5252    0.3515    0.0000 O   0  0  0  0  0  0  0  0  0  0  0  0
  1  2  1  0
  1  3  1  0
  3  4  1  1
  4  5  1  0
  5  6  1  0
  6  7  2  0
  7  8  1  0
  8  9  1  0
  9 10  1  0
 10 11  1  0
 10 12  1  0
  8 13  2  0
 13 14  1  0
  3 15  1  0
 15 16  2  0
 15 17  1  0
 14  5  2  0
M  END
>  <rName>  (2413) 
NMe-Tyr_CHF2

>  <PQ_SYMBOL>  (2413) 
NMe-Tyr_CHF2

>  <FULL_NAME>  (2413) 
(2S)-3-[4-(difluoromethoxy)phenyl]-2-(methylamino)propanoic acid

>  <IUPAC_CONDENSED>  (2413) 
Me-Tyr(CHF2)

>  <IUPAC>  (2413) 
(2S)-3-[4-(difluoromethoxy)phenyl]-2-(methylamino)propanoic acid

>  <TYPE>  (2413) 
Backbone

>  <CLASS>  (2413) 
alpha

>  <ANALOG>  (2413) 
Tyr

>  <MOL_WT>  (2413) 
245.22499999999997

>  <LOGP>  (2413) 
1.5030999999999999

>  <TPSA>  (2413) 
58.56

>  <POPULARITY>  (2413) 
2.2

>  <PROTECTED>  (2413) 
TRUE

>  <SMILES>  (2413) 
N(C)[C@@H](Cc1(ccc(OC(F)F)cc1))C(=O)O

>  <INCHIKEY>  (2413) 
PRLMFCGMTDNTDO-VIFPVBQESA-N

$$$$
NMe-Tyr_Me
     RDKit          2D

 15 15  0  0  0  0  0  0  0  0999 V2000
   -1.9222    1.3767    0.0000 N   0  0  0  0  0  0  0  0  0  0  0  0
   -3.0383    2.3788    0.0000 C   0  0  0  0  0  0  0  0  0  0  0  0
   -2.2320   -0.0910    0.0000 C   0  0  0  0  0  0  0  0  0  0  0  0
   -1.1158   -1.0931    0.0000 C   0  0  0  0  0  0  0  0  0  0  0  0
    0.3101   -0.6276    0.0000 C   0  0  0  0  0  0  0  0  0  0  0  0
    0.6199    0.8401    0.0000 C   0  0  0  0  0  0  0  0  0  0  0  0
    2.0458    1.3056    0.0000 C   0  0  0  0  0  0  0  0  0  0  0  0
    3.1619    0.3035    0.0000 C   0  0  0  0  0  0  0  0  0  0  0  0
    4.5879    0.7690    0.0000 O   0  0  0  0  0  0  0  0  0  0  0  0
    5.7040   -0.2331    0.0000 C   0  0  0  0  0  0  0  0  0  0  0  0
    2.8521   -1.1642    0.0000 C   0  0  0  0  0  0  0  0  0  0  0  0
    1.4262   -1.6297    0.0000 C   0  0  0  0  0  0  0  0  0  0  0  0
   -3.6579   -0.5565    0.0000 C   0  0  0  0  0  0  0  0  0  0  0  0
   -3.9677   -2.0242    0.0000 O   0  0  0  0  0  0  0  0  0  0  0  0
   -4.7740    0.4456    0.0000 O   0  0  0  0  0  0  0  0  0  0  0  0
  1  2  1  0
  1  3  1  0
  3  4  1  1
  4  5  1  0
  5  6  1  0
  6  7  2  0
  7  8  1  0
  8  9  1  0
  9 10  1  0
  8 11  2  0
 11 12  1  0
  3 13  1  0
 13 14  2  0
 13 15  1  0
 12  5  2  0
M  END
>  <rName>  (2414) 
NMe-Tyr_Me

>  <PQ_SYMBOL>  (2414) 
NMe-Tyr_Me

>  <FULL_NAME>  (2414) 
N,O-Dimethyltyrosine

>  <IUPAC_CONDENSED>  (2414) 
Me-Tyr(Me)

>  <IUPAC>  (2414) 
(2S)-3-(4-methoxyphenyl)-2-(methylamino)propanoic acid

>  <TYPE>  (2414) 
Backbone

>  <CLASS>  (2414) 
alpha

>  <ANALOG>  (2414) 
Tyr

>  <MOL_WT>  (2414) 
209.24499999999998

>  <LOGP>  (2414) 
0.9102999999999997

>  <TPSA>  (2414) 
58.56

>  <POPULARITY>  (2414) 
18.3

>  <PROTECTED>  (2414) 
TRUE

>  <SMILES>  (2414) 
N(C)[C@@H](Cc1(ccc(OC)cc1))C(=O)O

>  <INCHIKEY>  (2414) 
QESMMBKGCOSBNL-JTQLQIEISA-N

$$$$
NMe-Tyr_allyl
     RDKit          2D

 17 17  0  0  0  0  0  0  0  0999 V2000
   -2.8516    1.3570    0.0000 N   0  0  0  0  0  0  0  0  0  0  0  0
   -3.9856    2.3389    0.0000 C   0  0  0  0  0  0  0  0  0  0  0  0
   -3.1349   -0.1160    0.0000 C   0  0  0  0  0  0  0  0  0  0  0  0
   -2.0008   -1.0978    0.0000 C   0  0  0  0  0  0  0  0  0  0  0  0
   -0.5835   -0.6066    0.0000 C   0  0  0  0  0  0  0  0  0  0  0  0
   -0.3003    0.8664    0.0000 C   0  0  0  0  0  0  0  0  0  0  0  0
    1.1170    1.3576    0.0000 C   0  0  0  0  0  0  0  0  0  0  0  0
    2.2511    0.3758    0.0000 C   0  0  0  0  0  0  0  0  0  0  0  0
    3.6684    0.8670    0.0000 O   0  0  0  0  0  0  0  0  0  0  0  0
    4.8024   -0.1149    0.0000 C   0  0  0  0  0  0  0  0  0  0  0  0
    6.2197    0.3763    0.0000 C   0  0  0  0  0  0  0  0  0  0  0  0
    7.3537   -0.6055    0.0000 C   0  0  0  0  0  0  0  0  0  0  0  0
    1.9678   -1.0972    0.0000 C   0  0  0  0  0  0  0  0  0  0  0  0
    0.5505   -1.5884    0.0000 C   0  0  0  0  0  0  0  0  0  0  0  0
   -4.5522   -0.6072    0.0000 C   0  0  0  0  0  0  0  0  0  0  0  0
   -4.8354   -2.0802    0.0000 O   0  0  0  0  0  0  0  0  0  0  0  0
   -5.6862    0.3747    0.0000 O   0  0  0  0  0  0  0  0  0  0  0  0
  1  2  1  0
  1  3  1  0
  3  4  1  1
  4  5  1  0
  5  6  1  0
  6  7  2  0
  7  8  1  0
  8  9  1  0
  9 10  1  0
 10 11  1  0
 11 12  2  0
  8 13  2  0
 13 14  1  0
  3 15  1  0
 15 16  2  0
 15 17  1  0
 14  5  2  0
M  END
>  <rName>  (2415) 
NMe-Tyr_allyl

>  <PQ_SYMBOL>  (2415) 
NMe-Tyr_allyl

>  <FULL_NAME>  (2415) 
(S)-3-(4-(allyloxy)phenyl)-2-(methylamino)propanoic acid

>  <IUPAC_CONDENSED>  (2415) 
Me-Tyr(allyl)

>  <IUPAC>  (2415) 
(2S)-2-(methylamino)-3-(4-((prop-2-en-1-yl)oxy)phenyl)propanoic acid

>  <TYPE>  (2415) 
Backbone

>  <CLASS>  (2415) 
alpha

>  <ANALOG>  (2415) 
Tyr

>  <MOL_WT>  (2415) 
235.28299999999996

>  <LOGP>  (2415) 
1.4665

>  <TPSA>  (2415) 
58.56

>  <POPULARITY>  (2415) 
6.4

>  <PROTECTED>  (2415) 
TRUE

>  <SMILES>  (2415) 
N(C)[C@@H](Cc1(ccc(OCC=C)cc1))C(=O)O

>  <INCHIKEY>  (2415) 
KPNYHJRQXIMURF-LBPRGKRZSA-N

$$$$
NMe-Tza
     RDKit          2D

 12 12  0  0  0  0  0  0  0  0999 V2000
   -0.9097    1.3884    0.0000 N   0  0  0  0  0  0  0  0  0  0  0  0
   -2.0799    2.3268    0.0000 C   0  0  0  0  0  0  0  0  0  0  0  0
   -1.1374   -0.0943    0.0000 C   0  0  0  0  0  0  0  0  0  0  0  0
    0.0327   -1.0328    0.0000 C   0  0  0  0  0  0  0  0  0  0  0  0
    1.4305   -0.4886    0.0000 C   0  0  0  0  0  0  0  0  0  0  0  0
    2.6924   -1.2997    0.0000 C   0  0  0  0  0  0  0  0  0  0  0  0
    3.8536   -0.3502    0.0000 S   0  0  0  0  0  0  0  0  0  0  0  0
    3.3095    1.0476    0.0000 C   0  0  0  0  0  0  0  0  0  0  0  0
    1.8120    0.9621    0.0000 N   0  0  0  0  0  0  0  0  0  0  0  0
   -2.5353   -0.6384    0.0000 C   0  0  0  0  0  0  0  0  0  0  0  0
   -2.7630   -2.1210    0.0000 O   0  0  0  0  0  0  0  0  0  0  0  0
   -3.7054    0.3001    0.0000 O   0  0  0  0  0  0  0  0  0  0  0  0
  1  2  1  0
  1  3  1  0
  3  4  1  1
  4  5  1  0
  5  6  2  0
  6  7  1  0
  7  8  1  0
  8  9  2  0
  3 10  1  0
 10 11  2  0
 10 12  1  0
  9  5  1  0
M  END
>  <rName>  (2416) 
NMe-Tza

>  <PQ_SYMBOL>  (2416) 
NMe-Tza

>  <FULL_NAME>  (2416) 
N-methyl-L-thiazolylalanine

>  <IUPAC_CONDENSED>  (2416) 
Me-Tza

>  <IUPAC>  (2416) 
(2S)-2-(methylamino)-3-(thiazol-4-yl)propanoic acid

>  <TYPE>  (2416) 
Backbone

>  <CLASS>  (2416) 
alpha

>  <ANALOG>  (2416) 
Phe

>  <MOL_WT>  (2416) 
186.23599999999996

>  <LOGP>  (2416) 
0.3581999999999996

>  <TPSA>  (2416) 
62.22

>  <POPULARITY>  (2416) 
9.1

>  <PROTECTED>  (2416) 
TRUE

>  <SMILES>  (2416) 
N(C)[C@@H](Cc1(cscn1))C(=O)O

>  <INCHIKEY>  (2416) 
SJJJQDIGKIMGTG-LURJTMIESA-N

$$$$
NMe-V
     RDKit          2D

  9  8  0  0  0  0  0  0  0  0999 V2000
   -0.7500    1.5877    0.0000 N   0  0  0  0  0  0  0  0  0  0  0  0
   -2.2500    1.5877    0.0000 C   0  0  0  0  0  0  0  0  0  0  0  0
    0.0000    0.2887    0.0000 C   0  0  0  0  0  0  0  0  0  0  0  0
    1.5000    0.2887    0.0000 C   0  0  0  0  0  0  0  0  0  0  0  0
    2.2500   -1.0104    0.0000 C   0  0  0  0  0  0  0  0  0  0  0  0
    2.2500    1.5877    0.0000 C   0  0  0  0  0  0  0  0  0  0  0  0
   -0.7500   -1.0104    0.0000 C   0  0  0  0  0  0  0  0  0  0  0  0
   -2.2500   -1.0104    0.0000 O   0  0  0  0  0  0  0  0  0  0  0  0
   -0.0000   -2.3094    0.0000 O   0  0  0  0  0  0  0  0  0  0  0  0
  1  2  1  0
  3  1  1  1
  3  4  1  0
  4  5  1  0
  4  6  1  0
  3  7  1  0
  7  8  2  0
  7  9  1  0
M  END
>  <rName>  (2417) 
NMe-V

>  <PQ_SYMBOL>  (2417) 
NMe-V

>  <FULL_NAME>  (2417) 
N-methyl-L-Valine

>  <IUPAC_CONDENSED>  (2417) 
Me-Val

>  <IUPAC>  (2417) 
(2S)-3-methyl-2-(methylamino)butanoic acid

>  <TYPE>  (2417) 
Backbone

>  <CLASS>  (2417) 
alpha

>  <ANALOG>  (2417) 
Val

>  <MOL_WT>  (2417) 
131.175

>  <LOGP>  (2417) 
0.31499999999999967

>  <TPSA>  (2417) 
49.33

>  <POPULARITY>  (2417) 
55.9

>  <PROTECTED>  (2417) 
TRUE

>  <SMILES>  (2417) 
N(C)[C@@H](C(C)C)C(=O)O

>  <INCHIKEY>  (2417) 
AKCRVYNORCOYQT-YFKPBYRVSA-N

$$$$
NMe-Val_3Me
     RDKit          2D

 10  9  0  0  0  0  0  0  0  0999 V2000
   -0.8351    1.5945    0.0000 N   0  0  0  0  0  0  0  0  0  0  0  0
   -2.3338    1.6562    0.0000 C   0  0  0  0  0  0  0  0  0  0  0  0
   -0.1392    0.2658    0.0000 C   0  0  0  0  0  0  0  0  0  0  0  0
    1.3595    0.2041    0.0000 C   0  0  0  0  0  0  0  0  0  0  0  0
    1.2978   -1.2947    0.0000 C   0  0  0  0  0  0  0  0  0  0  0  0
    1.4212    1.7028    0.0000 C   0  0  0  0  0  0  0  0  0  0  0  0
    2.8583    0.1424    0.0000 C   0  0  0  0  0  0  0  0  0  0  0  0
   -0.9420   -1.0013    0.0000 C   0  0  0  0  0  0  0  0  0  0  0  0
   -2.4407   -0.9396    0.0000 O   0  0  0  0  0  0  0  0  0  0  0  0
   -0.2461   -2.3301    0.0000 O   0  0  0  0  0  0  0  0  0  0  0  0
  1  2  1  0
  3  1  1  1
  3  4  1  0
  4  5  1  0
  4  6  1  0
  4  7  1  0
  3  8  1  0
  8  9  2  0
  8 10  1  0
M  END
>  <rName>  (2418) 
NMe-Val_3Me

>  <PQ_SYMBOL>  (2418) 
NMe-Val_3Me

>  <FULL_NAME>  (2418) 
(S)-3,3-dimethyl-2-(methylamino)butanoic acid

>  <IUPAC_CONDENSED>  (2418) 
Me-Val(3-Me)

>  <IUPAC>  (2418) 
(2S)-3,3-dimethyl-2-(methylamino)butanoic acid

>  <TYPE>  (2418) 
Backbone

>  <CLASS>  (2418) 
alpha

>  <ANALOG>  (2418) 
Val

>  <MOL_WT>  (2418) 
145.202

>  <LOGP>  (2418) 
0.7051000000000001

>  <TPSA>  (2418) 
49.33

>  <POPULARITY>  (2418) 
15.1

>  <PROTECTED>  (2418) 
TRUE

>  <SMILES>  (2418) 
N(C)[C@@H](C(C)(C)C)C(=O)O

>  <INCHIKEY>  (2418) 
KWWFNGCKGYUCLC-RXMQYKEDSA-N

$$$$
NMe-W
     RDKit          2D

 16 17  0  0  0  0  0  0  0  0999 V2000
   -2.4834   -1.3664    0.0000 N   0  0  0  0  0  0  0  0  0  0  0  0
   -3.8593   -1.9639    0.0000 C   0  0  0  0  0  0  0  0  0  0  0  0
   -2.3129    0.1239    0.0000 C   0  0  0  0  0  0  0  0  0  0  0  0
   -0.9371    0.7214    0.0000 C   0  0  0  0  0  0  0  0  0  0  0  0
    0.2683   -0.1714    0.0000 C   0  0  0  0  0  0  0  0  0  0  0  0
    0.2545   -1.6713    0.0000 C   0  0  0  0  0  0  0  0  0  0  0  0
    1.6768   -2.1479    0.0000 N   0  0  0  0  0  0  0  0  0  0  0  0
    2.5696   -0.9425    0.0000 C   0  0  0  0  0  0  0  0  0  0  0  0
    4.0627   -0.7995    0.0000 C   0  0  0  0  0  0  0  0  0  0  0  0
    4.6854    0.5652    0.0000 C   0  0  0  0  0  0  0  0  0  0  0  0
    3.8149    1.7868    0.0000 C   0  0  0  0  0  0  0  0  0  0  0  0
    2.3217    1.6437    0.0000 C   0  0  0  0  0  0  0  0  0  0  0  0
    1.6991    0.2790    0.0000 C   0  0  0  0  0  0  0  0  0  0  0  0
   -3.5183    1.0167    0.0000 C   0  0  0  0  0  0  0  0  0  0  0  0
   -3.3478    2.5070    0.0000 O   0  0  0  0  0  0  0  0  0  0  0  0
   -4.8942    0.4192    0.0000 O   0  0  0  0  0  0  0  0  0  0  0  0
  1  2  1  0
  1  3  1  0
  3  4  1  6
  4  5  1  0
  5  6  2  0
  6  7  1  0
  7  8  1  0
  8  9  2  0
  9 10  1  0
 10 11  2  0
 11 12  1  0
 12 13  2  0
  3 14  1  0
 14 15  2  0
 14 16  1  0
 13  5  1  0
 13  8  1  0
M  END
>  <rName>  (2419) 
NMe-W

>  <PQ_SYMBOL>  (2419) 
NMe-W

>  <FULL_NAME>  (2419) 
N-methyl-L-Tryptophan

>  <IUPAC_CONDENSED>  (2419) 
Me-Trp

>  <IUPAC>  (2419) 
(2S)-3-(1H-indol-3-yl)-2-(methylamino)propanoic acid

>  <TYPE>  (2419) 
Backbone

>  <CLASS>  (2419) 
alpha

>  <ANALOG>  (2419) 
Trp

>  <MOL_WT>  (2419) 
218.256

>  <LOGP>  (2419) 
1.383

>  <TPSA>  (2419) 
65.12

>  <POPULARITY>  (2419) 
31.8

>  <PROTECTED>  (2419) 
TRUE

>  <SMILES>  (2419) 
N(C)[C@@H](Cc1(c[nH]c2(ccccc12)))C(=O)O

>  <INCHIKEY>  (2419) 
CZCIKBSVHDNIDH-NSHDSACASA-N

$$$$
NMe-Y
     RDKit          2D

 14 14  0  0  0  0  0  0  0  0999 V2000
   -1.4939    1.3829    0.0000 N   0  0  0  0  0  0  0  0  0  0  0  0
   -2.5947    2.4018    0.0000 C   0  0  0  0  0  0  0  0  0  0  0  0
   -1.8260   -0.0799    0.0000 C   0  0  0  0  0  0  0  0  0  0  0  0
   -0.7252   -1.0989    0.0000 C   0  0  0  0  0  0  0  0  0  0  0  0
    0.7076   -0.6550    0.0000 C   0  0  0  0  0  0  0  0  0  0  0  0
    1.0397    0.8077    0.0000 C   0  0  0  0  0  0  0  0  0  0  0  0
    2.4725    1.2516    0.0000 C   0  0  0  0  0  0  0  0  0  0  0  0
    3.5733    0.2326    0.0000 C   0  0  0  0  0  0  0  0  0  0  0  0
    5.0062    0.6765    0.0000 O   0  0  0  0  0  0  0  0  0  0  0  0
    3.2413   -1.2302    0.0000 C   0  0  0  0  0  0  0  0  0  0  0  0
    1.8084   -1.6740    0.0000 C   0  0  0  0  0  0  0  0  0  0  0  0
   -3.2588   -0.5237    0.0000 C   0  0  0  0  0  0  0  0  0  0  0  0
   -3.5909   -1.9865    0.0000 O   0  0  0  0  0  0  0  0  0  0  0  0
   -4.3596    0.4952    0.0000 O   0  0  0  0  0  0  0  0  0  0  0  0
  1  2  1  0
  1  3  1  0
  3  4  1  1
  4  5  1  0
  5  6  1  0
  6  7  2  0
  7  8  1  0
  8  9  1  0
  8 10  2  0
 10 11  1  0
  3 12  1  0
 12 13  2  0
 12 14  1  0
 11  5  2  0
M  END
>  <rName>  (2420) 
NMe-Y

>  <PQ_SYMBOL>  (2420) 
NMe-Y

>  <FULL_NAME>  (2420) 
N-Methyl-L-Tyrosine

>  <IUPAC_CONDENSED>  (2420) 
Me-Tyr

>  <IUPAC>  (2420) 
(2S)-3-(4-hydroxyphenyl)-2-(methylamino)propanoic acid

>  <TYPE>  (2420) 
Backbone

>  <CLASS>  (2420) 
alpha

>  <ANALOG>  (2420) 
Tyr

>  <MOL_WT>  (2420) 
195.218

>  <LOGP>  (2420) 
0.6072999999999997

>  <TPSA>  (2420) 
69.56

>  <POPULARITY>  (2420) 
38.5

>  <PROTECTED>  (2420) 
TRUE

>  <SMILES>  (2420) 
N(C)[C@@H](Cc1(ccc(O)cc1))C(=O)O

>  <INCHIKEY>  (2420) 
AXDLCFOOGCNDST-VIFPVBQESA-N

$$$$
NMe-aIle
     RDKit          2D

 10  9  0  0  0  0  0  0  0  0999 V2000
   -0.7033    1.6772    0.0000 N   0  0  0  0  0  0  0  0  0  0  0  0
   -2.1490    2.0771    0.0000 C   0  0  0  0  0  0  0  0  0  0  0  0
   -0.3268    0.2252    0.0000 C   0  0  0  0  0  0  0  0  0  0  0  0
    1.1189   -0.1748    0.0000 C   0  0  0  0  0  0  0  0  0  0  0  0
    1.4954   -1.6267    0.0000 C   0  0  0  0  0  0  0  0  0  0  0  0
    2.1881    0.8773    0.0000 C   0  0  0  0  0  0  0  0  0  0  0  0
    3.6338    0.4773    0.0000 C   0  0  0  0  0  0  0  0  0  0  0  0
   -1.3960   -0.8269    0.0000 C   0  0  0  0  0  0  0  0  0  0  0  0
   -2.8417   -0.4269    0.0000 O   0  0  0  0  0  0  0  0  0  0  0  0
   -1.0195   -2.2788    0.0000 O   0  0  0  0  0  0  0  0  0  0  0  0
  1  2  1  0
  3  1  1  1
  3  4  1  0
  4  5  1  1
  4  6  1  0
  6  7  1  0
  3  8  1  0
  8  9  2  0
  8 10  1  0
M  END
>  <rName>  (2421) 
NMe-aIle

>  <PQ_SYMBOL>  (2421) 
NMe-aIle

>  <FULL_NAME>  (2421) 
N-methyl-L-allo-Isoleucine

>  <IUPAC_CONDENSED>  (2421) 
Me-aIle

>  <IUPAC>  (2421) 
(2S,3R)-3-methyl-2-(methylamino)pentanoic acid

>  <TYPE>  (2421) 
Backbone

>  <CLASS>  (2421) 
alpha

>  <ANALOG>  (2421) 
Ile

>  <MOL_WT>  (2421) 
145.202

>  <LOGP>  (2421) 
0.7051000000000001

>  <TPSA>  (2421) 
49.33

>  <POPULARITY>  (2421) 
22.0

>  <PROTECTED>  (2421) 
TRUE

>  <SMILES>  (2421) 
N(C)[C@@H]([C@H](C)CC)C(=O)O

>  <INCHIKEY>  (2421) 
KSPIYJQBLVDRRI-RITPCOANSA-N

$$$$
NMe-aThr
     RDKit          2D

  9  8  0  0  0  0  0  0  0  0999 V2000
   -0.7500    1.5877    0.0000 N   0  0  0  0  0  0  0  0  0  0  0  0
   -2.2500    1.5877    0.0000 C   0  0  0  0  0  0  0  0  0  0  0  0
    0.0000    0.2887    0.0000 C   0  0  0  0  0  0  0  0  0  0  0  0
    1.5000    0.2887    0.0000 C   0  0  0  0  0  0  0  0  0  0  0  0
    2.2500    1.5877    0.0000 O   0  0  0  0  0  0  0  0  0  0  0  0
    2.2500   -1.0104    0.0000 C   0  0  0  0  0  0  0  0  0  0  0  0
   -0.7500   -1.0104    0.0000 C   0  0  0  0  0  0  0  0  0  0  0  0
   -2.2500   -1.0104    0.0000 O   0  0  0  0  0  0  0  0  0  0  0  0
   -0.0000   -2.3094    0.0000 O   0  0  0  0  0  0  0  0  0  0  0  0
  1  2  1  0
  3  1  1  1
  3  4  1  0
  4  5  1  0
  4  6  1  1
  3  7  1  0
  7  8  2  0
  7  9  1  0
M  END
>  <rName>  (2422) 
NMe-aThr

>  <PQ_SYMBOL>  (2422) 
NMe-aThr

>  <FULL_NAME>  (2422) 
N-methyl-L-allothreonine

>  <IUPAC_CONDENSED>  (2422) 
Me-aThr

>  <IUPAC>  (2422) 
(2S,3S)-3-hydroxy-2-(methylamino)butanoic acid

>  <TYPE>  (2422) 
N-term cap

>  <CLASS>  (2422) 
n_cap

>  <ANALOG>  (2422) 
X

>  <MOL_WT>  (2422) 
133.147

>  <LOGP>  (2422) 
-0.9602000000000004

>  <TPSA>  (2422) 
69.56

>  <POPULARITY>  (2422) 
7.6

>  <PROTECTED>  (2422) 
FALSE

>  <SMILES>  (2422) 
N(C)[C@@H]([C@@H](O)C)C(=O)O

>  <INCHIKEY>  (2422) 
CCAIIPMIAFGKSI-IMJSIDKUSA-N

$$$$
NMe-bAla
     RDKit          2D

  7  6  0  0  0  0  0  0  0  0999 V2000
    2.2602   -0.5139    0.0000 N   0  0  0  0  0  0  0  0  0  0  0  0
    3.5140    0.3095    0.0000 C   0  0  0  0  0  0  0  0  0  0  0  0
    0.9202    0.1603    0.0000 C   0  0  0  0  0  0  0  0  0  0  0  0
   -0.3336   -0.6631    0.0000 C   0  0  0  0  0  0  0  0  0  0  0  0
   -1.6736    0.0110    0.0000 C   0  0  0  0  0  0  0  0  0  0  0  0
   -1.7598    1.5085    0.0000 O   0  0  0  0  0  0  0  0  0  0  0  0
   -2.9274   -0.8124    0.0000 O   0  0  0  0  0  0  0  0  0  0  0  0
  1  2  1  0
  1  3  1  0
  3  4  1  0
  4  5  1  0
  5  6  2  0
  5  7  1  0
M  END
>  <rName>  (2423) 
NMe-bAla

>  <PQ_SYMBOL>  (2423) 
NMe-bAla

>  <FULL_NAME>  (2423) 
N-methyl-beta-Alanine

>  <IUPAC_CONDENSED>  (2423) 
Me-bAla

>  <IUPAC>  (2423) 
3-(methylamino)propanoic acid

>  <TYPE>  (2423) 
Backbone

>  <CLASS>  (2423) 
beta

>  <ANALOG>  (2423) 
Gly

>  <MOL_WT>  (2423) 
103.12099999999998

>  <LOGP>  (2423) 
-0.31949999999999995

>  <TPSA>  (2423) 
49.33

>  <POPULARITY>  (2423) 
19.1

>  <PROTECTED>  (2423) 
TRUE

>  <SMILES>  (2423) 
N(C)CCC(=O)O

>  <INCHIKEY>  (2423) 
VDIPNVCWMXZNFY-UHFFFAOYSA-N

$$$$
NMe-bAla_3Bn
     RDKit          2D

 14 14  0  0  0  0  0  0  0  0999 V2000
   -0.8633    1.0225    0.0000 N   0  0  0  0  0  0  0  0  0  0  0  0
   -2.1109    1.8553    0.0000 C   0  0  0  0  0  0  0  0  0  0  0  0
   -0.9607   -0.4743    0.0000 C   0  0  0  0  0  0  0  0  0  0  0  0
    0.2869   -1.3071    0.0000 C   0  0  0  0  0  0  0  0  0  0  0  0
    1.6319   -0.6431    0.0000 C   0  0  0  0  0  0  0  0  0  0  0  0
    1.7293    0.8538    0.0000 C   0  0  0  0  0  0  0  0  0  0  0  0
    3.0743    1.5178    0.0000 C   0  0  0  0  0  0  0  0  0  0  0  0
    4.3219    0.6850    0.0000 C   0  0  0  0  0  0  0  0  0  0  0  0
    4.2245   -0.8118    0.0000 C   0  0  0  0  0  0  0  0  0  0  0  0
    2.8795   -1.4758    0.0000 C   0  0  0  0  0  0  0  0  0  0  0  0
   -2.3057   -1.1384    0.0000 C   0  0  0  0  0  0  0  0  0  0  0  0
   -3.5533   -0.3056    0.0000 C   0  0  0  0  0  0  0  0  0  0  0  0
   -3.4559    1.1912    0.0000 O   0  0  0  0  0  0  0  0  0  0  0  0
   -4.8983   -0.9696    0.0000 O   0  0  0  0  0  0  0  0  0  0  0  0
  1  2  1  0
  1  3  1  0
  3  4  1  0
  4  5  1  0
  5  6  2  0
  6  7  1  0
  7  8  2  0
  8  9  1  0
  9 10  2  0
  3 11  1  0
 11 12  1  0
 12 13  2  0
 12 14  1  0
 10  5  1  0
M  END
>  <rName>  (2424) 
NMe-bAla_3Bn

>  <PQ_SYMBOL>  (2424) 
NMe-bAla_3Bn

>  <FULL_NAME>  (2424) 
3-(Methylamino)-4-phenylbutanoic acid

>  <IUPAC_CONDENSED>  (2424) 
Me-bAla(3-Bn)

>  <IUPAC>  (2424) 
3-(methylamino)-4-phenylbutanoic acid

>  <TYPE>  (2424) 
Backbone

>  <CLASS>  (2424) 
beta

>  <ANALOG>  (2424) 
Phe

>  <MOL_WT>  (2424) 
193.24599999999995

>  <LOGP>  (2424) 
1.2917999999999998

>  <TPSA>  (2424) 
49.33

>  <POPULARITY>  (2424) 
12.7

>  <PROTECTED>  (2424) 
TRUE

>  <SMILES>  (2424) 
N(C)C(Cc1(ccccc1))CC(=O)O

>  <INCHIKEY>  (2424) 
XDYCCVBZZUKWFY-UHFFFAOYSA-N

$$$$
NMe-bAla_3RMe
     RDKit          2D

  8  7  0  0  0  0  0  0  0  0999 V2000
    2.3370   -0.1514    0.0000 N   0  0  0  0  0  0  0  0  0  0  0  0
    2.7906    1.2784    0.0000 C   0  0  0  0  0  0  0  0  0  0  0  0
    0.8719   -0.4734    0.0000 C   0  0  0  0  0  0  0  0  0  0  0  0
    0.4183   -1.9031    0.0000 C   0  0  0  0  0  0  0  0  0  0  0  0
   -0.1394    0.6344    0.0000 C   0  0  0  0  0  0  0  0  0  0  0  0
   -1.6045    0.3124    0.0000 C   0  0  0  0  0  0  0  0  0  0  0  0
   -2.0581   -1.1174    0.0000 O   0  0  0  0  0  0  0  0  0  0  0  0
   -2.6158    1.4201    0.0000 O   0  0  0  0  0  0  0  0  0  0  0  0
  1  2  1  0
  1  3  1  0
  3  4  1  6
  3  5  1  0
  5  6  1  0
  6  7  2  0
  6  8  1  0
M  END
>  <rName>  (2425) 
NMe-bAla_3RMe

>  <PQ_SYMBOL>  (2425) 
NMe-bAla_3RMe

>  <FULL_NAME>  (2425) 
N-methyl-D-3-aminobutyric acid

>  <IUPAC_CONDENSED>  (2425) 
Me-bAla(3R-Me)

>  <IUPAC>  (2425) 
(3R)-3-(methylamino)butanoic acid

>  <TYPE>  (2425) 
Backbone

>  <CLASS>  (2425) 
beta

>  <ANALOG>  (2425) 
Ala

>  <MOL_WT>  (2425) 
117.14799999999998

>  <LOGP>  (2425) 
0.06899999999999967

>  <TPSA>  (2425) 
49.33

>  <POPULARITY>  (2425) 
18.3

>  <PROTECTED>  (2425) 
TRUE

>  <SMILES>  (2425) 
N(C)[C@H](C)CC(=O)O

>  <INCHIKEY>  (2425) 
VWQSQYOPIHNGBY-SCSAIBSYSA-N

$$$$
NMe-bAla_3SBn
     RDKit          2D

 14 14  0  0  0  0  0  0  0  0999 V2000
   -0.8633    1.0225    0.0000 N   0  0  0  0  0  0  0  0  0  0  0  0
   -2.1109    1.8553    0.0000 C   0  0  0  0  0  0  0  0  0  0  0  0
   -0.9607   -0.4743    0.0000 C   0  0  0  0  0  0  0  0  0  0  0  0
    0.2869   -1.3071    0.0000 C   0  0  0  0  0  0  0  0  0  0  0  0
    1.6319   -0.6431    0.0000 C   0  0  0  0  0  0  0  0  0  0  0  0
    1.7293    0.8538    0.0000 C   0  0  0  0  0  0  0  0  0  0  0  0
    3.0743    1.5178    0.0000 C   0  0  0  0  0  0  0  0  0  0  0  0
    4.3219    0.6850    0.0000 C   0  0  0  0  0  0  0  0  0  0  0  0
    4.2245   -0.8118    0.0000 C   0  0  0  0  0  0  0  0  0  0  0  0
    2.8795   -1.4758    0.0000 C   0  0  0  0  0  0  0  0  0  0  0  0
   -2.3057   -1.1384    0.0000 C   0  0  0  0  0  0  0  0  0  0  0  0
   -3.5533   -0.3056    0.0000 C   0  0  0  0  0  0  0  0  0  0  0  0
   -3.4559    1.1912    0.0000 O   0  0  0  0  0  0  0  0  0  0  0  0
   -4.8983   -0.9696    0.0000 O   0  0  0  0  0  0  0  0  0  0  0  0
  1  2  1  0
  1  3  1  0
  3  4  1  1
  4  5  1  0
  5  6  2  0
  6  7  1  0
  7  8  2  0
  8  9  1  0
  9 10  2  0
  3 11  1  0
 11 12  1  0
 12 13  2  0
 12 14  1  0
 10  5  1  0
M  END
>  <rName>  (2426) 
NMe-bAla_3SBn

>  <PQ_SYMBOL>  (2426) 
NMe-bAla_3SBn

>  <FULL_NAME>  (2426) 
(3S)-3-(methylamino)-4-phenylbutanoic acid

>  <IUPAC_CONDENSED>  (2426) 
Me-bAla(3S-Bn)

>  <IUPAC>  (2426) 
(3S)-3-(methylamino)-4-phenylbutanoic acid

>  <TYPE>  (2426) 
Backbone

>  <CLASS>  (2426) 
beta

>  <ANALOG>  (2426) 
Phe

>  <MOL_WT>  (2426) 
193.24599999999995

>  <LOGP>  (2426) 
1.2917999999999998

>  <TPSA>  (2426) 
49.33

>  <POPULARITY>  (2426) 
2.2

>  <PROTECTED>  (2426) 
TRUE

>  <SMILES>  (2426) 
N(C)[C@@H](Cc1(ccccc1))CC(=O)O

>  <INCHIKEY>  (2426) 
XDYCCVBZZUKWFY-JTQLQIEISA-N

$$$$
NMe-bAla_3SCONMe2
     RDKit          2D

 12 11  0  0  0  0  0  0  0  0999 V2000
    0.6900    1.8137    0.0000 N   0  0  0  0  0  0  0  0  0  0  0  0
   -0.1911    3.0276    0.0000 C   0  0  0  0  0  0  0  0  0  0  0  0
    0.0793    0.4437    0.0000 C   0  0  0  0  0  0  0  0  0  0  0  0
   -1.4126    0.2876    0.0000 C   0  0  0  0  0  0  0  0  0  0  0  0
   -2.2937    1.5015    0.0000 O   0  0  0  0  0  0  0  0  0  0  0  0
   -2.0234   -1.0824    0.0000 N   0  0  0  0  0  0  0  0  0  0  0  0
   -3.5152   -1.2385    0.0000 C   0  0  0  0  0  0  0  0  0  0  0  0
   -1.1423   -2.2964    0.0000 C   0  0  0  0  0  0  0  0  0  0  0  0
    0.9604   -0.7703    0.0000 C   0  0  0  0  0  0  0  0  0  0  0  0
    2.4522   -0.6142    0.0000 C   0  0  0  0  0  0  0  0  0  0  0  0
    3.3333   -1.8282    0.0000 O   0  0  0  0  0  0  0  0  0  0  0  0
    3.0630    0.7558    0.0000 O   0  0  0  0  0  0  0  0  0  0  0  0
  1  2  1  0
  1  3  1  0
  3  4  1  0
  4  5  2  0
  4  6  1  0
  6  7  1  0
  6  8  1  0
  3  9  1  1
  9 10  1  0
 10 11  2  0
 10 12  1  0
M  END
>  <rName>  (2427) 
NMe-bAla_3SCONMe2

>  <PQ_SYMBOL>  (2427) 
NMe-bAla_3SCONMe2

>  <FULL_NAME>  (2427) 
(3S)-4-(dimethylamino)-3-(methylamino)-4-oxidanylidene-butanoic acid

>  <IUPAC_CONDENSED>  (2427) 
Me-bAla(3S-CONMe2)

>  <IUPAC>  (2427) 
(3S)-3-(dimethylcarbamoyl)-3-(methylamino)propanoic acid

>  <TYPE>  (2427) 
Backbone

>  <CLASS>  (2427) 
beta

>  <ANALOG>  (2427) 
X

>  <MOL_WT>  (2427) 
174.2

>  <LOGP>  (2427) 
-0.8626999999999991

>  <TPSA>  (2427) 
69.64

>  <POPULARITY>  (2427) 
12.7

>  <PROTECTED>  (2427) 
TRUE

>  <SMILES>  (2427) 
N(C)[C@H](C(=O)N(C)C)CC(=O)O

>  <INCHIKEY>  (2427) 
WKRJPGKRIIJGQE-YFKPBYRVSA-N

$$$$
NMe-bAla_3SEt
     RDKit          2D

  9  8  0  0  0  0  0  0  0  0999 V2000
    2.4443   -0.2311    0.0000 N   0  0  0  0  0  0  0  0  0  0  0  0
    3.0839    1.1257    0.0000 C   0  0  0  0  0  0  0  0  0  0  0  0
    0.9494   -0.3555    0.0000 C   0  0  0  0  0  0  0  0  0  0  0  0
    0.3098   -1.7123    0.0000 C   0  0  0  0  0  0  0  0  0  0  0  0
   -1.1851   -1.8367    0.0000 C   0  0  0  0  0  0  0  0  0  0  0  0
    0.0943    0.8769    0.0000 C   0  0  0  0  0  0  0  0  0  0  0  0
   -1.4006    0.7525    0.0000 C   0  0  0  0  0  0  0  0  0  0  0  0
   -2.0402   -0.6043    0.0000 O   0  0  0  0  0  0  0  0  0  0  0  0
   -2.2557    1.9848    0.0000 O   0  0  0  0  0  0  0  0  0  0  0  0
  1  2  1  0
  1  3  1  0
  3  4  1  1
  4  5  1  0
  3  6  1  0
  6  7  1  0
  7  8  2  0
  7  9  1  0
M  END
>  <rName>  (2428) 
NMe-bAla_3SEt

>  <PQ_SYMBOL>  (2428) 
NMe-bAla_3SEt

>  <FULL_NAME>  (2428) 
(3S)-3-(methylamino)pentanoic acid

>  <IUPAC_CONDENSED>  (2428) 
Me-bAla(3S-Et)

>  <IUPAC>  (2428) 
(3S)-3-(methylamino)pentanoic acid

>  <TYPE>  (2428) 
Backbone

>  <CLASS>  (2428) 
beta

>  <ANALOG>  (2428) 
Ala

>  <MOL_WT>  (2428) 
131.175

>  <LOGP>  (2428) 
0.4591

>  <TPSA>  (2428) 
49.33

>  <POPULARITY>  (2428) 
12.6

>  <PROTECTED>  (2428) 
TRUE

>  <SMILES>  (2428) 
N(C)[C@@H](CC)CC(=O)O

>  <INCHIKEY>  (2428) 
KSCYZLSFRKXPGA-YFKPBYRVSA-N

$$$$
NMe-bAla_3SMe
     RDKit          2D

  8  7  0  0  0  0  0  0  0  0999 V2000
    2.3370   -0.1514    0.0000 N   0  0  0  0  0  0  0  0  0  0  0  0
    2.7906    1.2784    0.0000 C   0  0  0  0  0  0  0  0  0  0  0  0
    0.8719   -0.4734    0.0000 C   0  0  0  0  0  0  0  0  0  0  0  0
    0.4183   -1.9031    0.0000 C   0  0  0  0  0  0  0  0  0  0  0  0
   -0.1394    0.6344    0.0000 C   0  0  0  0  0  0  0  0  0  0  0  0
   -1.6045    0.3124    0.0000 C   0  0  0  0  0  0  0  0  0  0  0  0
   -2.0581   -1.1174    0.0000 O   0  0  0  0  0  0  0  0  0  0  0  0
   -2.6158    1.4201    0.0000 O   0  0  0  0  0  0  0  0  0  0  0  0
  1  2  1  0
  1  3  1  0
  3  4  1  1
  3  5  1  0
  5  6  1  0
  6  7  2  0
  6  8  1  0
M  END
>  <rName>  (2429) 
NMe-bAla_3SMe

>  <PQ_SYMBOL>  (2429) 
NMe-bAla_3SMe

>  <FULL_NAME>  (2429) 
(S)-3-(methylamino)butanoic acid

>  <IUPAC_CONDENSED>  (2429) 
Me-bAla(3S-Me)

>  <IUPAC>  (2429) 
(3S)-3-(methylamino)butanoic acid

>  <TYPE>  (2429) 
Backbone

>  <CLASS>  (2429) 
beta

>  <ANALOG>  (2429) 
Ala

>  <MOL_WT>  (2429) 
117.14799999999998

>  <LOGP>  (2429) 
0.06899999999999967

>  <TPSA>  (2429) 
49.33

>  <POPULARITY>  (2429) 
16.6

>  <PROTECTED>  (2429) 
TRUE

>  <SMILES>  (2429) 
N(C)[C@@H](C)CC(=O)O

>  <INCHIKEY>  (2429) 
VWQSQYOPIHNGBY-BYPYZUCNSA-N

$$$$
NMe-bAla_3SiBu
     RDKit          2D

 11 10  0  0  0  0  0  0  0  0999 V2000
   -0.8109    1.8976    0.0000 N   0  0  0  0  0  0  0  0  0  0  0  0
   -2.2892    1.6431    0.0000 C   0  0  0  0  0  0  0  0  0  0  0  0
    0.1486    0.7446    0.0000 C   0  0  0  0  0  0  0  0  0  0  0  0
    1.6268    0.9990    0.0000 C   0  0  0  0  0  0  0  0  0  0  0  0
    2.5863   -0.1540    0.0000 C   0  0  0  0  0  0  0  0  0  0  0  0
    4.0646    0.1005    0.0000 C   0  0  0  0  0  0  0  0  0  0  0  0
    2.0676   -1.5614    0.0000 C   0  0  0  0  0  0  0  0  0  0  0  0
   -0.3702   -0.6629    0.0000 C   0  0  0  0  0  0  0  0  0  0  0  0
   -1.8485   -0.9173    0.0000 C   0  0  0  0  0  0  0  0  0  0  0  0
   -2.8079    0.2357    0.0000 O   0  0  0  0  0  0  0  0  0  0  0  0
   -2.3672   -2.3248    0.0000 O   0  0  0  0  0  0  0  0  0  0  0  0
  1  2  1  0
  1  3  1  0
  3  4  1  1
  4  5  1  0
  5  6  1  0
  5  7  1  0
  3  8  1  0
  8  9  1  0
  9 10  2  0
  9 11  1  0
M  END
>  <rName>  (2430) 
NMe-bAla_3SiBu

>  <PQ_SYMBOL>  (2430) 
NMe-bAla_3SiBu

>  <FULL_NAME>  (2430) 
(S)-5-Methyl-3-(methylamino)hexanoic acid

>  <IUPAC_CONDENSED>  (2430) 
Me-bAla(3S-iBu)

>  <IUPAC>  (2430) 
(3S)-5-methyl-3-(methylamino)hexanoic acid

>  <TYPE>  (2430) 
Backbone

>  <CLASS>  (2430) 
beta

>  <ANALOG>  (2430) 
Leu

>  <MOL_WT>  (2430) 
159.22899999999998

>  <LOGP>  (2430) 
1.0952

>  <TPSA>  (2430) 
49.33

>  <POPULARITY>  (2430) 
9.3

>  <PROTECTED>  (2430) 
TRUE

>  <SMILES>  (2430) 
N(C)[C@@H](CC(C)C)CC(=O)O

>  <INCHIKEY>  (2430) 
IVVTXKJXLQQNQP-ZETCQYMHSA-N

$$$$
NMe-bAla_b_bdiF
     RDKit          2D

  9  8  0  0  0  0  0  0  0  0999 V2000
   -2.2832    0.3846    0.0000 N   0  0  0  0  0  0  0  0  0  0  0  0
   -3.7229   -0.0367    0.0000 C   0  0  0  0  0  0  0  0  0  0  0  0
   -1.1986   -0.6515    0.0000 C   0  0  0  0  0  0  0  0  0  0  0  0
    0.2410   -0.2302    0.0000 C   0  0  0  0  0  0  0  0  0  0  0  0
    0.6623   -1.6699    0.0000 F   0  0  0  0  0  0  0  0  0  0  0  0
   -0.1803    1.2094    0.0000 F   0  0  0  0  0  0  0  0  0  0  0  0
    1.6807    0.1911    0.0000 C   0  0  0  0  0  0  0  0  0  0  0  0
    2.7653   -0.8450    0.0000 O   0  0  0  0  0  0  0  0  0  0  0  0
    2.0356    1.6484    0.0000 O   0  0  0  0  0  0  0  0  0  0  0  0
  1  2  1  0
  1  3  1  0
  3  4  1  0
  4  5  1  0
  4  6  1  0
  4  7  1  0
  7  8  2  0
  7  9  1  0
M  END
>  <rName>  (2431) 
NMe-bAla_b_bdiF

>  <PQ_SYMBOL>  (2431) 
NMe-bAla_b_bdiF

>  <FULL_NAME>  (2431) 
2,2-Difluoro-3-(methylamino)propanoic acid

>  <IUPAC_CONDENSED>  (2431) 
Me-bAla(b,b-diF)

>  <IUPAC>  (2431) 
2,2-difluoro-3-(methylamino)propanoic acid

>  <TYPE>  (2431) 
Backbone

>  <CLASS>  (2431) 
beta

>  <ANALOG>  (2431) 
X

>  <MOL_WT>  (2431) 
139.101

>  <LOGP>  (2431) 
-0.07430000000000031

>  <TPSA>  (2431) 
49.33

>  <POPULARITY>  (2431) 
7.2

>  <PROTECTED>  (2431) 
TRUE

>  <SMILES>  (2431) 
N(C)CC(F)(F)C(=O)O

>  <INCHIKEY>  (2431) 
IXLWKIRZYZPTLF-UHFFFAOYSA-N

$$$$
NMe-bAla_b_bdiMe
     RDKit          2D

  9  8  0  0  0  0  0  0  0  0999 V2000
   -2.2832    0.3846    0.0000 N   0  0  0  0  0  0  0  0  0  0  0  0
   -3.7229   -0.0367    0.0000 C   0  0  0  0  0  0  0  0  0  0  0  0
   -1.1986   -0.6515    0.0000 C   0  0  0  0  0  0  0  0  0  0  0  0
    0.2410   -0.2302    0.0000 C   0  0  0  0  0  0  0  0  0  0  0  0
   -0.1803    1.2094    0.0000 C   0  0  0  0  0  0  0  0  0  0  0  0
    0.6623   -1.6699    0.0000 C   0  0  0  0  0  0  0  0  0  0  0  0
    1.6807    0.1911    0.0000 C   0  0  0  0  0  0  0  0  0  0  0  0
    2.7653   -0.8450    0.0000 O   0  0  0  0  0  0  0  0  0  0  0  0
    2.0356    1.6484    0.0000 O   0  0  0  0  0  0  0  0  0  0  0  0
  1  2  1  0
  1  3  1  0
  3  4  1  0
  4  5  1  0
  4  6  1  0
  4  7  1  0
  7  8  2  0
  7  9  1  0
M  END
>  <rName>  (2432) 
NMe-bAla_b_bdiMe

>  <PQ_SYMBOL>  (2432) 
NMe-bAla_b_bdiMe

>  <FULL_NAME>  (2432) 
2,2-Dimethyl-3-(methylamino)propanoic acid

>  <IUPAC_CONDENSED>  (2432) 
Me-bAla(b,b-diMe)

>  <IUPAC>  (2432) 
2,2-dimethyl-3-(methylamino)propanoic acid

>  <TYPE>  (2432) 
Backbone

>  <CLASS>  (2432) 
beta

>  <ANALOG>  (2432) 
Ala

>  <MOL_WT>  (2432) 
131.17499999999998

>  <LOGP>  (2432) 
0.31659999999999994

>  <TPSA>  (2432) 
49.33

>  <POPULARITY>  (2432) 
15.3

>  <PROTECTED>  (2432) 
TRUE

>  <SMILES>  (2432) 
N(C)CC(C)(C)C(=O)O

>  <INCHIKEY>  (2432) 
WHZFORZLQNBCRK-UHFFFAOYSA-N

$$$$
NMe-dA
     RDKit          2D

  7  6  0  0  0  0  0  0  0  0999 V2000
    1.5000   -0.7423    0.0000 N   0  0  0  0  0  0  0  0  0  0  0  0
    2.2500    0.5567    0.0000 C   0  0  0  0  0  0  0  0  0  0  0  0
    0.0000   -0.7423    0.0000 C   0  0  0  0  0  0  0  0  0  0  0  0
   -0.7500   -2.0413    0.0000 C   0  0  0  0  0  0  0  0  0  0  0  0
   -0.7500    0.5567    0.0000 C   0  0  0  0  0  0  0  0  0  0  0  0
   -0.0000    1.8558    0.0000 O   0  0  0  0  0  0  0  0  0  0  0  0
   -2.2500    0.5567    0.0000 O   0  0  0  0  0  0  0  0  0  0  0  0
  1  2  1  0
  1  3  1  0
  3  4  1  6
  3  5  1  0
  5  6  2  0
  5  7  1  0
M  END
>  <rName>  (2433) 
NMe-dA

>  <PQ_SYMBOL>  (2433) 
NMe-dA

>  <FULL_NAME>  (2433) 
N-Methyl-D-Alanine

>  <IUPAC_CONDENSED>  (2433) 
Me-D-Ala

>  <IUPAC>  (2433) 
(2R)-2-(methylamino)propanoic acid

>  <TYPE>  (2433) 
Backbone

>  <CLASS>  (2433) 
alpha

>  <ANALOG>  (2433) 
Ala

>  <MOL_WT>  (2433) 
103.12099999999998

>  <LOGP>  (2433) 
-0.3211000000000002

>  <TPSA>  (2433) 
49.33

>  <POPULARITY>  (2433) 
34.5

>  <PROTECTED>  (2433) 
TRUE

>  <SMILES>  (2433) 
N(C)[C@H](C)C(=O)O

>  <INCHIKEY>  (2433) 
GDFAOVXKHJXLEI-GSVOUGTGSA-N

$$$$
NMe-dC
     RDKit          2D

  8  7  0  0  0  0  0  0  0  0999 V2000
   -1.6238    0.7500    0.0000 N   0  0  0  0  0  0  0  0  0  0  0  0
   -2.9228    0.0000    0.0000 C   0  0  0  0  0  0  0  0  0  0  0  0
   -0.3248   -0.0000    0.0000 C   0  0  0  0  0  0  0  0  0  0  0  0
   -0.3248   -1.5000    0.0000 C   0  0  0  0  0  0  0  0  0  0  0  0
    0.9743   -2.2500    0.0000 S   0  0  0  0  0  0  0  0  0  0  0  0
    0.9743    0.7500    0.0000 C   0  0  0  0  0  0  0  0  0  0  0  0
    0.9743    2.2500    0.0000 O   0  0  0  0  0  0  0  0  0  0  0  0
    2.2733   -0.0000    0.0000 O   0  0  0  0  0  0  0  0  0  0  0  0
  1  2  1  0
  1  3  1  0
  3  4  1  1
  4  5  1  0
  3  6  1  0
  6  7  2  0
  6  8  1  0
M  END
>  <rName>  (2434) 
NMe-dC

>  <PQ_SYMBOL>  (2434) 
NMe-dC

>  <FULL_NAME>  (2434) 
N-Methyl-D-Cysteine

>  <IUPAC_CONDENSED>  (2434) 
Me-D-Cys

>  <IUPAC>  (2434) 
(2S)-2-(methylamino)-3-sulfanylpropanoic acid

>  <TYPE>  (2434) 
Backbone

>  <CLASS>  (2434) 
alpha

>  <ANALOG>  (2434) 
Cys

>  <MOL_WT>  (2434) 
135.188

>  <LOGP>  (2434) 
-0.41120000000000007

>  <TPSA>  (2434) 
49.33

>  <POPULARITY>  (2434) 
20.6

>  <PROTECTED>  (2434) 
TRUE

>  <SMILES>  (2434) 
N(C)[C@H](CS)C(=O)O

>  <INCHIKEY>  (2434) 
DVOOXRTYGGLORL-GSVOUGTGSA-N

$$$$
NMe-dD
     RDKit          2D

 10  9  0  0  0  0  0  0  0  0999 V2000
   -1.8138    1.4604    0.0000 N   0  0  0  0  0  0  0  0  0  0  0  0
   -3.1802    0.8418    0.0000 C   0  0  0  0  0  0  0  0  0  0  0  0
   -0.5948    0.5863    0.0000 C   0  0  0  0  0  0  0  0  0  0  0  0
    0.7717    1.2050    0.0000 C   0  0  0  0  0  0  0  0  0  0  0  0
    1.9907    0.3309    0.0000 C   0  0  0  0  0  0  0  0  0  0  0  0
    1.8433   -1.1619    0.0000 O   0  0  0  0  0  0  0  0  0  0  0  0
    3.3572    0.9495    0.0000 O   0  0  0  0  0  0  0  0  0  0  0  0
   -0.7422   -0.9064    0.0000 C   0  0  0  0  0  0  0  0  0  0  0  0
   -2.1087   -1.5251    0.0000 O   0  0  0  0  0  0  0  0  0  0  0  0
    0.4768   -1.7805    0.0000 O   0  0  0  0  0  0  0  0  0  0  0  0
  1  2  1  0
  1  3  1  0
  3  4  1  6
  4  5  1  0
  5  6  2  0
  5  7  1  0
  3  8  1  0
  8  9  2  0
  8 10  1  0
M  END
>  <rName>  (2435) 
NMe-dD

>  <PQ_SYMBOL>  (2435) 
NMe-dD

>  <FULL_NAME>  (2435) 
N-Methyl-D-Aspartic acid

>  <IUPAC_CONDENSED>  (2435) 
Me-D-Asp

>  <IUPAC>  (2435) 
(2R)-2-(methylamino)succinic acid

>  <TYPE>  (2435) 
Backbone

>  <CLASS>  (2435) 
alpha

>  <ANALOG>  (2435) 
Asp

>  <MOL_WT>  (2435) 
147.13

>  <LOGP>  (2435) 
-0.8663000000000001

>  <TPSA>  (2435) 
86.63000000000001

>  <POPULARITY>  (2435) 
21.4

>  <PROTECTED>  (2435) 
TRUE

>  <SMILES>  (2435) 
N(C)[C@H](CC(=O)O)C(=O)O

>  <INCHIKEY>  (2435) 
HOKKHZGPKSLGJE-GSVOUGTGSA-N

$$$$
NMe-dE
     RDKit          2D

 11 10  0  0  0  0  0  0  0  0999 V2000
   -2.1418    1.5326    0.0000 N   0  0  0  0  0  0  0  0  0  0  0  0
   -3.5967    1.1676    0.0000 C   0  0  0  0  0  0  0  0  0  0  0  0
   -1.0983    0.4550    0.0000 C   0  0  0  0  0  0  0  0  0  0  0  0
    0.3567    0.8200    0.0000 C   0  0  0  0  0  0  0  0  0  0  0  0
    1.4002   -0.2575    0.0000 C   0  0  0  0  0  0  0  0  0  0  0  0
    2.8551    0.1074    0.0000 C   0  0  0  0  0  0  0  0  0  0  0  0
    3.2665    1.5499    0.0000 O   0  0  0  0  0  0  0  0  0  0  0  0
    3.8986   -0.9701    0.0000 O   0  0  0  0  0  0  0  0  0  0  0  0
   -1.5097   -0.9874    0.0000 C   0  0  0  0  0  0  0  0  0  0  0  0
   -2.9646   -1.3524    0.0000 O   0  0  0  0  0  0  0  0  0  0  0  0
   -0.4661   -2.0650    0.0000 O   0  0  0  0  0  0  0  0  0  0  0  0
  1  2  1  0
  1  3  1  0
  3  4  1  6
  4  5  1  0
  5  6  1  0
  6  7  2  0
  6  8  1  0
  3  9  1  0
  9 10  2  0
  9 11  1  0
M  END
>  <rName>  (2436) 
NMe-dE

>  <PQ_SYMBOL>  (2436) 
NMe-dE

>  <FULL_NAME>  (2436) 
N-Methyl-D-Glutamic acid

>  <IUPAC_CONDENSED>  (2436) 
Me-D-Glu

>  <IUPAC>  (2436) 
(2R)-2-(methylamino)glutaric acid

>  <TYPE>  (2436) 
Backbone

>  <CLASS>  (2436) 
alpha

>  <ANALOG>  (2436) 
Glu

>  <MOL_WT>  (2436) 
161.15699999999998

>  <LOGP>  (2436) 
-0.47620000000000046

>  <TPSA>  (2436) 
86.63000000000001

>  <POPULARITY>  (2436) 
16.1

>  <PROTECTED>  (2436) 
TRUE

>  <SMILES>  (2436) 
N(C)[C@H](CCC(=O)O)C(=O)O

>  <INCHIKEY>  (2436) 
XLBVNMSMFQMKEY-SCSAIBSYSA-N

$$$$
NMe-dF
     RDKit          2D

 13 13  0  0  0  0  0  0  0  0999 V2000
   -1.1846    1.3730    0.0000 N   0  0  0  0  0  0  0  0  0  0  0  0
   -2.3388    2.3311    0.0000 C   0  0  0  0  0  0  0  0  0  0  0  0
   -1.4373   -0.1056    0.0000 C   0  0  0  0  0  0  0  0  0  0  0  0
   -0.2831   -1.0637    0.0000 C   0  0  0  0  0  0  0  0  0  0  0  0
    1.1237   -0.5432    0.0000 C   0  0  0  0  0  0  0  0  0  0  0  0
    1.3763    0.9354    0.0000 C   0  0  0  0  0  0  0  0  0  0  0  0
    2.7831    1.4559    0.0000 C   0  0  0  0  0  0  0  0  0  0  0  0
    3.9373    0.4978    0.0000 C   0  0  0  0  0  0  0  0  0  0  0  0
    3.6846   -0.9808    0.0000 C   0  0  0  0  0  0  0  0  0  0  0  0
    2.2778   -1.5013    0.0000 C   0  0  0  0  0  0  0  0  0  0  0  0
   -2.8441   -0.6260    0.0000 C   0  0  0  0  0  0  0  0  0  0  0  0
   -3.0967   -2.1046    0.0000 O   0  0  0  0  0  0  0  0  0  0  0  0
   -3.9982    0.3321    0.0000 O   0  0  0  0  0  0  0  0  0  0  0  0
  1  2  1  0
  1  3  1  0
  3  4  1  6
  4  5  1  0
  5  6  2  0
  6  7  1  0
  7  8  2  0
  8  9  1  0
  9 10  2  0
  3 11  1  0
 11 12  2  0
 11 13  1  0
 10  5  1  0
M  END
>  <rName>  (2437) 
NMe-dF

>  <PQ_SYMBOL>  (2437) 
NMe-dF

>  <FULL_NAME>  (2437) 
N-methyl-D-Phenylalanine

>  <IUPAC_CONDENSED>  (2437) 
Me-D-Phe

>  <IUPAC>  (2437) 
(2R)-2-(methylamino)-3-phenylpropanoic acid

>  <TYPE>  (2437) 
Backbone

>  <CLASS>  (2437) 
alpha

>  <ANALOG>  (2437) 
Phe

>  <MOL_WT>  (2437) 
179.21899999999997

>  <LOGP>  (2437) 
0.9017

>  <TPSA>  (2437) 
49.33

>  <POPULARITY>  (2437) 
39.9

>  <PROTECTED>  (2437) 
TRUE

>  <SMILES>  (2437) 
N(C)[C@H](Cc1(ccccc1))C(=O)O

>  <INCHIKEY>  (2437) 
SCIFESDRCALIIM-SECBINFHSA-N

$$$$
NMe-dH
     RDKit          2D

 12 12  0  0  0  0  0  0  0  0999 V2000
   -0.9097    1.3884    0.0000 N   0  0  0  0  0  0  0  0  0  0  0  0
   -2.0799    2.3268    0.0000 C   0  0  0  0  0  0  0  0  0  0  0  0
   -1.1374   -0.0943    0.0000 C   0  0  0  0  0  0  0  0  0  0  0  0
    0.0327   -1.0328    0.0000 C   0  0  0  0  0  0  0  0  0  0  0  0
    1.4305   -0.4886    0.0000 C   0  0  0  0  0  0  0  0  0  0  0  0
    2.6924   -1.2997    0.0000 C   0  0  0  0  0  0  0  0  0  0  0  0
    3.8536   -0.3502    0.0000 N   0  0  0  0  0  0  0  0  0  0  0  0
    3.3095    1.0476    0.0000 C   0  0  0  0  0  0  0  0  0  0  0  0
    1.8120    0.9621    0.0000 N   0  0  0  0  0  0  0  0  0  0  0  0
   -2.5353   -0.6384    0.0000 C   0  0  0  0  0  0  0  0  0  0  0  0
   -2.7630   -2.1210    0.0000 O   0  0  0  0  0  0  0  0  0  0  0  0
   -3.7054    0.3001    0.0000 O   0  0  0  0  0  0  0  0  0  0  0  0
  1  2  1  0
  1  3  1  0
  3  4  1  6
  4  5  1  0
  5  6  2  0
  6  7  1  0
  7  8  2  0
  8  9  1  0
  3 10  1  0
 10 11  2  0
 10 12  1  0
  9  5  1  0
M  END
>  <rName>  (2438) 
NMe-dH

>  <PQ_SYMBOL>  (2438) 
NMe-dH

>  <FULL_NAME>  (2438) 
N-Methyl-D-Histidine

>  <IUPAC_CONDENSED>  (2438) 
Me-D-His

>  <IUPAC>  (2438) 
(2R)-3-(1H-imidazol-5-yl)-2-(methylamino)propanoic acid

>  <TYPE>  (2438) 
Backbone

>  <CLASS>  (2438) 
alpha

>  <ANALOG>  (2438) 
His

>  <MOL_WT>  (2438) 
169.184

>  <LOGP>  (2438) 
-0.3752000000000005

>  <TPSA>  (2438) 
78.01

>  <POPULARITY>  (2438) 
11.4

>  <PROTECTED>  (2438) 
TRUE

>  <SMILES>  (2438) 
N(C)[C@H](Cc1(cnc[nH]1))C(=O)O

>  <INCHIKEY>  (2438) 
CYZKJBZEIFWZSR-ZCFIWIBFSA-N

$$$$
NMe-dI
     RDKit          2D

 10  9  0  0  0  0  0  0  0  0999 V2000
   -0.7033    1.6772    0.0000 N   0  0  0  0  0  0  0  0  0  0  0  0
   -2.1490    2.0771    0.0000 C   0  0  0  0  0  0  0  0  0  0  0  0
   -0.3268    0.2252    0.0000 C   0  0  0  0  0  0  0  0  0  0  0  0
    1.1189   -0.1748    0.0000 C   0  0  0  0  0  0  0  0  0  0  0  0
    1.4954   -1.6267    0.0000 C   0  0  0  0  0  0  0  0  0  0  0  0
    2.1881    0.8773    0.0000 C   0  0  0  0  0  0  0  0  0  0  0  0
    3.6338    0.4773    0.0000 C   0  0  0  0  0  0  0  0  0  0  0  0
   -1.3960   -0.8269    0.0000 C   0  0  0  0  0  0  0  0  0  0  0  0
   -2.8417   -0.4269    0.0000 O   0  0  0  0  0  0  0  0  0  0  0  0
   -1.0195   -2.2788    0.0000 O   0  0  0  0  0  0  0  0  0  0  0  0
  1  2  1  0
  3  1  1  6
  3  4  1  0
  4  5  1  1
  4  6  1  0
  6  7  1  0
  3  8  1  0
  8  9  2  0
  8 10  1  0
M  END
>  <rName>  (2439) 
NMe-dI

>  <PQ_SYMBOL>  (2439) 
NMe-dI

>  <FULL_NAME>  (2439) 
N-Methyl-D-Isoleucine

>  <IUPAC_CONDENSED>  (2439) 
Me-D-Ile

>  <IUPAC>  (2439) 
(2R,3R)-3-methyl-2-(methylamino)pentanoic acid

>  <TYPE>  (2439) 
Backbone

>  <CLASS>  (2439) 
alpha

>  <ANALOG>  (2439) 
Ile

>  <MOL_WT>  (2439) 
145.202

>  <LOGP>  (2439) 
0.7051000000000001

>  <TPSA>  (2439) 
49.33

>  <POPULARITY>  (2439) 
15.7

>  <PROTECTED>  (2439) 
TRUE

>  <SMILES>  (2439) 
N(C)[C@H]([C@H](C)CC)C(=O)O

>  <INCHIKEY>  (2439) 
KSPIYJQBLVDRRI-PHDIDXHHSA-N

$$$$
NMe-dK
     RDKit          2D

 11 10  0  0  0  0  0  0  0  0999 V2000
   -2.5061    1.4639    0.0000 N   0  0  0  0  0  0  0  0  0  0  0  0
   -3.9125    0.9425    0.0000 C   0  0  0  0  0  0  0  0  0  0  0  0
   -1.3513    0.5066    0.0000 C   0  0  0  0  0  0  0  0  0  0  0  0
    0.0552    1.0280    0.0000 C   0  0  0  0  0  0  0  0  0  0  0  0
    1.2100    0.0707    0.0000 C   0  0  0  0  0  0  0  0  0  0  0  0
    2.6164    0.5921    0.0000 C   0  0  0  0  0  0  0  0  0  0  0  0
    3.7712   -0.3652    0.0000 C   0  0  0  0  0  0  0  0  0  0  0  0
    5.1777    0.1562    0.0000 N   0  0  0  0  0  0  0  0  0  0  0  0
   -1.6030   -0.9721    0.0000 C   0  0  0  0  0  0  0  0  0  0  0  0
   -3.0094   -1.4935    0.0000 O   0  0  0  0  0  0  0  0  0  0  0  0
   -0.4482   -1.9294    0.0000 O   0  0  0  0  0  0  0  0  0  0  0  0
  1  2  1  0
  1  3  1  0
  3  4  1  6
  4  5  1  0
  5  6  1  0
  6  7  1  0
  7  8  1  0
  3  9  1  0
  9 10  2  0
  9 11  1  0
M  END
>  <rName>  (2440) 
NMe-dK

>  <PQ_SYMBOL>  (2440) 
NMe-dK

>  <FULL_NAME>  (2440) 
N(2)-Methyl-D-Lysine

>  <IUPAC_CONDENSED>  (2440) 
Me-D-Lys

>  <IUPAC>  (2440) 
(2R)-6-amino-2-(methylamino)hexanoic acid

>  <TYPE>  (2440) 
Backbone

>  <CLASS>  (2440) 
alpha

>  <ANALOG>  (2440) 
Lys

>  <MOL_WT>  (2440) 
160.217

>  <LOGP>  (2440) 
-0.21200000000000002

>  <TPSA>  (2440) 
75.35

>  <POPULARITY>  (2440) 
16.4

>  <PROTECTED>  (2440) 
TRUE

>  <SMILES>  (2440) 
N(C)[C@H](CCCCN)C(=O)O

>  <INCHIKEY>  (2440) 
OLYPWXRMOFUVGH-ZCFIWIBFSA-N

$$$$
NMe-dL
     RDKit          2D

 10  9  0  0  0  0  0  0  0  0999 V2000
   -1.8138    1.4604    0.0000 N   0  0  0  0  0  0  0  0  0  0  0  0
   -3.1802    0.8418    0.0000 C   0  0  0  0  0  0  0  0  0  0  0  0
   -0.5948    0.5863    0.0000 C   0  0  0  0  0  0  0  0  0  0  0  0
    0.7717    1.2050    0.0000 C   0  0  0  0  0  0  0  0  0  0  0  0
    1.9907    0.3309    0.0000 C   0  0  0  0  0  0  0  0  0  0  0  0
    3.3572    0.9495    0.0000 C   0  0  0  0  0  0  0  0  0  0  0  0
    1.8433   -1.1619    0.0000 C   0  0  0  0  0  0  0  0  0  0  0  0
   -0.7422   -0.9064    0.0000 C   0  0  0  0  0  0  0  0  0  0  0  0
   -2.1087   -1.5251    0.0000 O   0  0  0  0  0  0  0  0  0  0  0  0
    0.4768   -1.7805    0.0000 O   0  0  0  0  0  0  0  0  0  0  0  0
  1  2  1  0
  1  3  1  0
  3  4  1  6
  4  5  1  0
  5  6  1  0
  5  7  1  0
  3  8  1  0
  8  9  2  0
  8 10  1  0
M  END
>  <rName>  (2441) 
NMe-dL

>  <PQ_SYMBOL>  (2441) 
NMe-dL

>  <FULL_NAME>  (2441) 
N-Methyl-D-Leucine

>  <IUPAC_CONDENSED>  (2441) 
Me-D-Leu

>  <IUPAC>  (2441) 
(2R)-4-methyl-2-(methylamino)pentanoic acid

>  <TYPE>  (2441) 
Backbone

>  <CLASS>  (2441) 
alpha

>  <ANALOG>  (2441) 
Leu

>  <MOL_WT>  (2441) 
145.202

>  <LOGP>  (2441) 
0.7051000000000001

>  <TPSA>  (2441) 
49.33

>  <POPULARITY>  (2441) 
45.4

>  <PROTECTED>  (2441) 
TRUE

>  <SMILES>  (2441) 
N(C)[C@H](CC(C)C)C(=O)O

>  <INCHIKEY>  (2441) 
XJODGRWDFZVTKW-ZCFIWIBFSA-N

$$$$
NMe-dM
     RDKit          2D

 10  9  0  0  0  0  0  0  0  0999 V2000
   -2.0182    1.4385    0.0000 N   0  0  0  0  0  0  0  0  0  0  0  0
   -3.4137    0.8883    0.0000 C   0  0  0  0  0  0  0  0  0  0  0  0
   -0.8441    0.5050    0.0000 C   0  0  0  0  0  0  0  0  0  0  0  0
    0.5514    1.0552    0.0000 C   0  0  0  0  0  0  0  0  0  0  0  0
    1.7256    0.1218    0.0000 C   0  0  0  0  0  0  0  0  0  0  0  0
    3.1211    0.6719    0.0000 S   0  0  0  0  0  0  0  0  0  0  0  0
    4.2952   -0.2615    0.0000 C   0  0  0  0  0  0  0  0  0  0  0  0
   -1.0653   -0.9785    0.0000 C   0  0  0  0  0  0  0  0  0  0  0  0
   -2.4608   -1.5287    0.0000 O   0  0  0  0  0  0  0  0  0  0  0  0
    0.1088   -1.9120    0.0000 O   0  0  0  0  0  0  0  0  0  0  0  0
  1  2  1  0
  1  3  1  0
  3  4  1  6
  4  5  1  0
  5  6  1  0
  6  7  1  0
  3  8  1  0
  8  9  2  0
  8 10  1  0
M  END
>  <rName>  (2442) 
NMe-dM

>  <PQ_SYMBOL>  (2442) 
NMe-dM

>  <FULL_NAME>  (2442) 
N-Methyl-D-Methionine

>  <IUPAC_CONDENSED>  (2442) 
Me-D-Met

>  <IUPAC>  (2442) 
(2R)-2-(methylamino)-4-(methylsulfanyl)butanoic acid

>  <TYPE>  (2442) 
Backbone

>  <CLASS>  (2442) 
alpha

>  <ANALOG>  (2442) 
Met

>  <MOL_WT>  (2442) 
163.242

>  <LOGP>  (2442) 
0.41209999999999986

>  <TPSA>  (2442) 
49.33

>  <POPULARITY>  (2442) 
9.8

>  <PROTECTED>  (2442) 
TRUE

>  <SMILES>  (2442) 
N(C)[C@H](CCSC)C(=O)O

>  <INCHIKEY>  (2442) 
YAXAFCHJCYILRU-RXMQYKEDSA-N

$$$$
NMe-dN
     RDKit          2D

 10  9  0  0  0  0  0  0  0  0999 V2000
   -1.8138    1.4604    0.0000 N   0  0  0  0  0  0  0  0  0  0  0  0
   -3.1802    0.8418    0.0000 C   0  0  0  0  0  0  0  0  0  0  0  0
   -0.5948    0.5863    0.0000 C   0  0  0  0  0  0  0  0  0  0  0  0
    0.7717    1.2050    0.0000 C   0  0  0  0  0  0  0  0  0  0  0  0
    1.9907    0.3309    0.0000 C   0  0  0  0  0  0  0  0  0  0  0  0
    1.8433   -1.1619    0.0000 O   0  0  0  0  0  0  0  0  0  0  0  0
    3.3572    0.9495    0.0000 N   0  0  0  0  0  0  0  0  0  0  0  0
   -0.7422   -0.9064    0.0000 C   0  0  0  0  0  0  0  0  0  0  0  0
   -2.1087   -1.5251    0.0000 O   0  0  0  0  0  0  0  0  0  0  0  0
    0.4768   -1.7805    0.0000 O   0  0  0  0  0  0  0  0  0  0  0  0
  1  2  1  0
  1  3  1  0
  3  4  1  6
  4  5  1  0
  5  6  2  0
  5  7  1  0
  3  8  1  0
  8  9  2  0
  8 10  1  0
M  END
>  <rName>  (2443) 
NMe-dN

>  <PQ_SYMBOL>  (2443) 
NMe-dN

>  <FULL_NAME>  (2443) 
N-Methyl-D-Asparagine

>  <IUPAC_CONDENSED>  (2443) 
Me-D-Asn

>  <IUPAC>  (2443) 
(2R)-3-carbamoyl-2-(methylamino)propanoic acid

>  <TYPE>  (2443) 
Backbone

>  <CLASS>  (2443) 
alpha

>  <ANALOG>  (2443) 
Asn

>  <MOL_WT>  (2443) 
146.14600000000002

>  <LOGP>  (2443) 
-1.4655999999999993

>  <TPSA>  (2443) 
92.42

>  <POPULARITY>  (2443) 
11.7

>  <PROTECTED>  (2443) 
TRUE

>  <SMILES>  (2443) 
N(C)[C@H](CC(=O)N)C(=O)O

>  <INCHIKEY>  (2443) 
LNSMPSPTFDIWRQ-GSVOUGTGSA-N

$$$$
NMe-dQ
     RDKit          2D

 11 10  0  0  0  0  0  0  0  0999 V2000
   -2.1418    1.5326    0.0000 N   0  0  0  0  0  0  0  0  0  0  0  0
   -3.5967    1.1676    0.0000 C   0  0  0  0  0  0  0  0  0  0  0  0
   -1.0983    0.4550    0.0000 C   0  0  0  0  0  0  0  0  0  0  0  0
    0.3567    0.8200    0.0000 C   0  0  0  0  0  0  0  0  0  0  0  0
    1.4002   -0.2575    0.0000 C   0  0  0  0  0  0  0  0  0  0  0  0
    2.8551    0.1074    0.0000 C   0  0  0  0  0  0  0  0  0  0  0  0
    3.2665    1.5499    0.0000 O   0  0  0  0  0  0  0  0  0  0  0  0
    3.8986   -0.9701    0.0000 N   0  0  0  0  0  0  0  0  0  0  0  0
   -1.5097   -0.9874    0.0000 C   0  0  0  0  0  0  0  0  0  0  0  0
   -2.9646   -1.3524    0.0000 O   0  0  0  0  0  0  0  0  0  0  0  0
   -0.4661   -2.0650    0.0000 O   0  0  0  0  0  0  0  0  0  0  0  0
  1  2  1  0
  1  3  1  0
  3  4  1  6
  4  5  1  0
  5  6  1  0
  6  7  2  0
  6  8  1  0
  3  9  1  0
  9 10  2  0
  9 11  1  0
M  END
>  <rName>  (2444) 
NMe-dQ

>  <PQ_SYMBOL>  (2444) 
NMe-dQ

>  <FULL_NAME>  (2444) 
N2-Methyl-D-Glutamine

>  <IUPAC_CONDENSED>  (2444) 
Me-D-Gln

>  <IUPAC>  (2444) 
(2R)-4-carbamoyl-2-(methylamino)butanoic acid

>  <TYPE>  (2444) 
Backbone

>  <CLASS>  (2444) 
alpha

>  <ANALOG>  (2444) 
Gln

>  <MOL_WT>  (2444) 
160.173

>  <LOGP>  (2444) 
-1.0754999999999995

>  <TPSA>  (2444) 
92.42

>  <POPULARITY>  (2444) 
19.3

>  <PROTECTED>  (2444) 
TRUE

>  <SMILES>  (2444) 
N(C)[C@H](CCC(=O)N)C(=O)O

>  <INCHIKEY>  (2444) 
KSZFSNZOGAXEGH-SCSAIBSYSA-N

$$$$
NMe-dR
     RDKit          2D

 13 12  0  0  0  0  0  0  0  0999 V2000
   -3.3767    1.4803    0.0000 N   0  0  0  0  0  0  0  0  0  0  0  0
   -4.7951    0.9924    0.0000 C   0  0  0  0  0  0  0  0  0  0  0  0
   -2.2449    0.4958    0.0000 C   0  0  0  0  0  0  0  0  0  0  0  0
   -0.8265    0.9838    0.0000 C   0  0  0  0  0  0  0  0  0  0  0  0
    0.3053   -0.0007    0.0000 C   0  0  0  0  0  0  0  0  0  0  0  0
    1.7237    0.4873    0.0000 C   0  0  0  0  0  0  0  0  0  0  0  0
    2.8555   -0.4972    0.0000 N   0  0  0  0  0  0  0  0  0  0  0  0
    4.2739   -0.0092    0.0000 C   0  0  0  0  0  0  0  0  0  0  0  0
    4.5606    1.4631    0.0000 N   0  0  0  0  0  0  0  0  0  0  0  0
    5.4057   -0.9937    0.0000 N   0  0  0  0  0  0  0  0  0  0  0  0
   -2.5316   -0.9765    0.0000 C   0  0  0  0  0  0  0  0  0  0  0  0
   -3.9500   -1.4644    0.0000 O   0  0  0  0  0  0  0  0  0  0  0  0
   -1.3998   -1.9609    0.0000 O   0  0  0  0  0  0  0  0  0  0  0  0
  1  2  1  0
  1  3  1  0
  3  4  1  6
  4  5  1  0
  5  6  1  0
  6  7  1  0
  7  8  1  0
  8  9  2  0
  8 10  1  0
  3 11  1  0
 11 12  2  0
 11 13  1  0
M  END
>  <rName>  (2445) 
NMe-dR

>  <PQ_SYMBOL>  (2445) 
NMe-dR

>  <FULL_NAME>  (2445) 
N2-Methyl-D-Arginine

>  <IUPAC_CONDENSED>  (2445) 
Me-D-Arg

>  <IUPAC>  (2445) 
(2R)-5-(((amino)(imino)methyl)amino)-2-(methylamino)pentanoic acid

>  <TYPE>  (2445) 
Backbone

>  <CLASS>  (2445) 
alpha

>  <ANALOG>  (2445) 
Arg

>  <MOL_WT>  (2445) 
188.231

>  <LOGP>  (2445) 
-1.077729999999998

>  <TPSA>  (2445) 
111.23

>  <POPULARITY>  (2445) 
18.7

>  <PROTECTED>  (2445) 
TRUE

>  <SMILES>  (2445) 
N(C)[C@H](CCCNC(=N)N)C(=O)O

>  <INCHIKEY>  (2445) 
NTWVQPHTOUKMDI-RXMQYKEDSA-N

$$$$
NMe-dS
     RDKit          2D

  8  7  0  0  0  0  0  0  0  0999 V2000
   -1.2990    1.3125    0.0000 N   0  0  0  0  0  0  0  0  0  0  0  0
   -2.5981    0.5625    0.0000 C   0  0  0  0  0  0  0  0  0  0  0  0
    0.0000    0.5625    0.0000 C   0  0  0  0  0  0  0  0  0  0  0  0
    1.2990    1.3125    0.0000 C   0  0  0  0  0  0  0  0  0  0  0  0
    2.5981    0.5625    0.0000 O   0  0  0  0  0  0  0  0  0  0  0  0
    0.0000   -0.9375    0.0000 C   0  0  0  0  0  0  0  0  0  0  0  0
   -1.2990   -1.6875    0.0000 O   0  0  0  0  0  0  0  0  0  0  0  0
    1.2990   -1.6875    0.0000 O   0  0  0  0  0  0  0  0  0  0  0  0
  1  2  1  0
  1  3  1  0
  3  4  1  6
  4  5  1  0
  3  6  1  0
  6  7  2  0
  6  8  1  0
M  END
>  <rName>  (2446) 
NMe-dS

>  <PQ_SYMBOL>  (2446) 
NMe-dS

>  <FULL_NAME>  (2446) 
N-Methyl-D-Serine

>  <IUPAC_CONDENSED>  (2446) 
Me-D-Ser

>  <IUPAC>  (2446) 
(2R)-3-hydroxy-2-(methylamino)propanoic acid

>  <TYPE>  (2446) 
Backbone

>  <CLASS>  (2446) 
alpha

>  <ANALOG>  (2446) 
Ser

>  <MOL_WT>  (2446) 
119.11999999999998

>  <LOGP>  (2446) 
-1.3487

>  <TPSA>  (2446) 
69.56

>  <POPULARITY>  (2446) 
23.4

>  <PROTECTED>  (2446) 
TRUE

>  <SMILES>  (2446) 
N(C)[C@H](CO)C(=O)O

>  <INCHIKEY>  (2446) 
PSFABYLDRXJYID-GSVOUGTGSA-N

$$$$
NMe-dT
     RDKit          2D

  9  8  0  0  0  0  0  0  0  0999 V2000
   -0.7500    1.5877    0.0000 N   0  0  0  0  0  0  0  0  0  0  0  0
   -2.2500    1.5877    0.0000 C   0  0  0  0  0  0  0  0  0  0  0  0
    0.0000    0.2887    0.0000 C   0  0  0  0  0  0  0  0  0  0  0  0
    1.5000    0.2887    0.0000 C   0  0  0  0  0  0  0  0  0  0  0  0
    2.2500    1.5877    0.0000 O   0  0  0  0  0  0  0  0  0  0  0  0
    2.2500   -1.0104    0.0000 C   0  0  0  0  0  0  0  0  0  0  0  0
   -0.7500   -1.0104    0.0000 C   0  0  0  0  0  0  0  0  0  0  0  0
   -2.2500   -1.0104    0.0000 O   0  0  0  0  0  0  0  0  0  0  0  0
   -0.0000   -2.3094    0.0000 O   0  0  0  0  0  0  0  0  0  0  0  0
  1  2  1  0
  3  1  1  6
  3  4  1  0
  4  5  1  0
  4  6  1  1
  3  7  1  0
  7  8  2  0
  7  9  1  0
M  END
>  <rName>  (2447) 
NMe-dT

>  <PQ_SYMBOL>  (2447) 
NMe-dT

>  <FULL_NAME>  (2447) 
N-Methyl-D-Threonine

>  <IUPAC_CONDENSED>  (2447) 
Me-D-Thr

>  <IUPAC>  (2447) 
(2R,3S)-3-hydroxy-2-(methylamino)butanoic acid

>  <TYPE>  (2447) 
Backbone

>  <CLASS>  (2447) 
alpha

>  <ANALOG>  (2447) 
Thr

>  <MOL_WT>  (2447) 
133.147

>  <LOGP>  (2447) 
-0.9602000000000004

>  <TPSA>  (2447) 
69.56

>  <POPULARITY>  (2447) 
13.5

>  <PROTECTED>  (2447) 
TRUE

>  <SMILES>  (2447) 
N(C)[C@H]([C@@H](O)C)C(=O)O

>  <INCHIKEY>  (2447) 
CCAIIPMIAFGKSI-IUYQGCFVSA-N

$$$$
NMe-dV
     RDKit          2D

  9  8  0  0  0  0  0  0  0  0999 V2000
   -0.7500    1.5877    0.0000 N   0  0  0  0  0  0  0  0  0  0  0  0
   -2.2500    1.5877    0.0000 C   0  0  0  0  0  0  0  0  0  0  0  0
    0.0000    0.2887    0.0000 C   0  0  0  0  0  0  0  0  0  0  0  0
    1.5000    0.2887    0.0000 C   0  0  0  0  0  0  0  0  0  0  0  0
    2.2500   -1.0104    0.0000 C   0  0  0  0  0  0  0  0  0  0  0  0
    2.2500    1.5877    0.0000 C   0  0  0  0  0  0  0  0  0  0  0  0
   -0.7500   -1.0104    0.0000 C   0  0  0  0  0  0  0  0  0  0  0  0
   -2.2500   -1.0104    0.0000 O   0  0  0  0  0  0  0  0  0  0  0  0
   -0.0000   -2.3094    0.0000 O   0  0  0  0  0  0  0  0  0  0  0  0
  1  2  1  0
  3  1  1  6
  3  4  1  0
  4  5  1  0
  4  6  1  0
  3  7  1  0
  7  8  2  0
  7  9  1  0
M  END
>  <rName>  (2448) 
NMe-dV

>  <PQ_SYMBOL>  (2448) 
NMe-dV

>  <FULL_NAME>  (2448) 
N-methyl-D-Valine

>  <IUPAC_CONDENSED>  (2448) 
Me-D-Val

>  <IUPAC>  (2448) 
(2R)-3-methyl-2-(methylamino)butanoic acid

>  <TYPE>  (2448) 
Backbone

>  <CLASS>  (2448) 
alpha

>  <ANALOG>  (2448) 
Val

>  <MOL_WT>  (2448) 
131.175

>  <LOGP>  (2448) 
0.31499999999999967

>  <TPSA>  (2448) 
49.33

>  <POPULARITY>  (2448) 
31.5

>  <PROTECTED>  (2448) 
TRUE

>  <SMILES>  (2448) 
N(C)[C@H](C(C)C)C(=O)O

>  <INCHIKEY>  (2448) 
AKCRVYNORCOYQT-RXMQYKEDSA-N

$$$$
NMe-dW
     RDKit          2D

 16 17  0  0  0  0  0  0  0  0999 V2000
   -2.4834   -1.3664    0.0000 N   0  0  0  0  0  0  0  0  0  0  0  0
   -3.8593   -1.9639    0.0000 C   0  0  0  0  0  0  0  0  0  0  0  0
   -2.3129    0.1239    0.0000 C   0  0  0  0  0  0  0  0  0  0  0  0
   -0.9371    0.7214    0.0000 C   0  0  0  0  0  0  0  0  0  0  0  0
    0.2683   -0.1714    0.0000 C   0  0  0  0  0  0  0  0  0  0  0  0
    0.2545   -1.6713    0.0000 C   0  0  0  0  0  0  0  0  0  0  0  0
    1.6768   -2.1479    0.0000 N   0  0  0  0  0  0  0  0  0  0  0  0
    2.5696   -0.9425    0.0000 C   0  0  0  0  0  0  0  0  0  0  0  0
    4.0627   -0.7995    0.0000 C   0  0  0  0  0  0  0  0  0  0  0  0
    4.6854    0.5652    0.0000 C   0  0  0  0  0  0  0  0  0  0  0  0
    3.8149    1.7868    0.0000 C   0  0  0  0  0  0  0  0  0  0  0  0
    2.3217    1.6437    0.0000 C   0  0  0  0  0  0  0  0  0  0  0  0
    1.6991    0.2790    0.0000 C   0  0  0  0  0  0  0  0  0  0  0  0
   -3.5183    1.0167    0.0000 C   0  0  0  0  0  0  0  0  0  0  0  0
   -3.3478    2.5070    0.0000 O   0  0  0  0  0  0  0  0  0  0  0  0
   -4.8942    0.4192    0.0000 O   0  0  0  0  0  0  0  0  0  0  0  0
  1  2  1  0
  1  3  1  0
  3  4  1  1
  4  5  1  0
  5  6  2  0
  6  7  1  0
  7  8  1  0
  8  9  2  0
  9 10  1  0
 10 11  2  0
 11 12  1  0
 12 13  2  0
  3 14  1  0
 14 15  2  0
 14 16  1  0
 13  5  1  0
 13  8  1  0
M  END
>  <rName>  (2449) 
NMe-dW

>  <PQ_SYMBOL>  (2449) 
NMe-dW

>  <FULL_NAME>  (2449) 
N-methyl-D-Tryptophan

>  <IUPAC_CONDENSED>  (2449) 
Me-D-Trp

>  <IUPAC>  (2449) 
(2R)-3-(1H-indol-3-yl)-2-(methylamino)propanoic acid

>  <TYPE>  (2449) 
Backbone

>  <CLASS>  (2449) 
alpha

>  <ANALOG>  (2449) 
Trp

>  <MOL_WT>  (2449) 
218.256

>  <LOGP>  (2449) 
1.383

>  <TPSA>  (2449) 
65.12

>  <POPULARITY>  (2449) 
19.9

>  <PROTECTED>  (2449) 
TRUE

>  <SMILES>  (2449) 
N(C)[C@H](Cc1(c[nH]c2(ccccc12)))C(=O)O

>  <INCHIKEY>  (2449) 
CZCIKBSVHDNIDH-LLVKDONJSA-N

$$$$
NMe-dY
     RDKit          2D

 14 14  0  0  0  0  0  0  0  0999 V2000
   -1.4939    1.3829    0.0000 N   0  0  0  0  0  0  0  0  0  0  0  0
   -2.5947    2.4018    0.0000 C   0  0  0  0  0  0  0  0  0  0  0  0
   -1.8260   -0.0799    0.0000 C   0  0  0  0  0  0  0  0  0  0  0  0
   -0.7252   -1.0989    0.0000 C   0  0  0  0  0  0  0  0  0  0  0  0
    0.7076   -0.6550    0.0000 C   0  0  0  0  0  0  0  0  0  0  0  0
    1.0397    0.8077    0.0000 C   0  0  0  0  0  0  0  0  0  0  0  0
    2.4725    1.2516    0.0000 C   0  0  0  0  0  0  0  0  0  0  0  0
    3.5733    0.2326    0.0000 C   0  0  0  0  0  0  0  0  0  0  0  0
    5.0062    0.6765    0.0000 O   0  0  0  0  0  0  0  0  0  0  0  0
    3.2413   -1.2302    0.0000 C   0  0  0  0  0  0  0  0  0  0  0  0
    1.8084   -1.6740    0.0000 C   0  0  0  0  0  0  0  0  0  0  0  0
   -3.2588   -0.5237    0.0000 C   0  0  0  0  0  0  0  0  0  0  0  0
   -3.5909   -1.9865    0.0000 O   0  0  0  0  0  0  0  0  0  0  0  0
   -4.3596    0.4952    0.0000 O   0  0  0  0  0  0  0  0  0  0  0  0
  1  2  1  0
  1  3  1  0
  3  4  1  6
  4  5  1  0
  5  6  1  0
  6  7  2  0
  7  8  1  0
  8  9  1  0
  8 10  2  0
 10 11  1  0
  3 12  1  0
 12 13  2  0
 12 14  1  0
 11  5  2  0
M  END
>  <rName>  (2450) 
NMe-dY

>  <PQ_SYMBOL>  (2450) 
NMe-dY

>  <FULL_NAME>  (2450) 
N-Methyl-D-Tyrosine

>  <IUPAC_CONDENSED>  (2450) 
Me-D-Tyr

>  <IUPAC>  (2450) 
(2R)-3-(4-hydroxyphenyl)-2-(methylamino)propanoic acid

>  <TYPE>  (2450) 
Backbone

>  <CLASS>  (2450) 
alpha

>  <ANALOG>  (2450) 
Tyr

>  <MOL_WT>  (2450) 
195.218

>  <LOGP>  (2450) 
0.6072999999999997

>  <TPSA>  (2450) 
69.56

>  <POPULARITY>  (2450) 
18.1

>  <PROTECTED>  (2450) 
TRUE

>  <SMILES>  (2450) 
N(C)[C@H](Cc1(ccc(O)cc1))C(=O)O

>  <INCHIKEY>  (2450) 
AXDLCFOOGCNDST-SECBINFHSA-N

$$$$
NMe-hArg
     RDKit          2D

 14 13  0  0  0  0  0  0  0  0999 V2000
   -4.0848    1.3362    0.0000 N   0  0  0  0  0  0  0  0  0  0  0  0
   -5.4377    0.6884    0.0000 C   0  0  0  0  0  0  0  0  0  0  0  0
   -2.8473    0.4884    0.0000 C   0  0  0  0  0  0  0  0  0  0  0  0
   -1.4944    1.1362    0.0000 C   0  0  0  0  0  0  0  0  0  0  0  0
   -0.2569    0.2885    0.0000 C   0  0  0  0  0  0  0  0  0  0  0  0
    1.0960    0.9363    0.0000 C   0  0  0  0  0  0  0  0  0  0  0  0
    2.3334    0.0885    0.0000 C   0  0  0  0  0  0  0  0  0  0  0  0
    3.6864    0.7363    0.0000 N   0  0  0  0  0  0  0  0  0  0  0  0
    4.9238   -0.1114    0.0000 C   0  0  0  0  0  0  0  0  0  0  0  0
    4.8084   -1.6070    0.0000 N   0  0  0  0  0  0  0  0  0  0  0  0
    6.2767    0.5364    0.0000 N   0  0  0  0  0  0  0  0  0  0  0  0
   -2.9627   -1.0071    0.0000 C   0  0  0  0  0  0  0  0  0  0  0  0
   -4.3156   -1.6549    0.0000 O   0  0  0  0  0  0  0  0  0  0  0  0
   -1.7253   -1.8549    0.0000 O   0  0  0  0  0  0  0  0  0  0  0  0
  1  2  1  0
  1  3  1  0
  3  4  1  1
  4  5  1  0
  5  6  1  0
  6  7  1  0
  7  8  1  0
  8  9  1  0
  9 10  2  0
  9 11  1  0
  3 12  1  0
 12 13  2  0
 12 14  1  0
M  END
>  <rName>  (2451) 
NMe-hArg

>  <PQ_SYMBOL>  (2451) 
NMe-hArg

>  <FULL_NAME>  (2451) 
n-Methyl-l-homoarginine

>  <IUPAC_CONDENSED>  (2451) 
Me-hArg

>  <IUPAC>  (2451) 
(2S)-6-(diaminomethylideneamino)-2-(methylamino)hexanoic acid

>  <TYPE>  (2451) 
Backbone

>  <CLASS>  (2451) 
alpha

>  <ANALOG>  (2451) 
Arg

>  <MOL_WT>  (2451) 
202.258

>  <LOGP>  (2451) 
-0.6876299999999982

>  <TPSA>  (2451) 
111.23

>  <POPULARITY>  (2451) 
2.2

>  <PROTECTED>  (2451) 
TRUE

>  <SMILES>  (2451) 
N(C)[C@@H](CCCCNC(=N)N)C(=O)O

>  <INCHIKEY>  (2451) 
QPSLHZWJZSBVBL-LURJTMIESA-N

$$$$
NMe-indolGly
     RDKit          2D

 15 16  0  0  0  0  0  0  0  0999 V2000
   -2.2153   -0.0185    0.0000 N   0  0  0  0  0  0  0  0  0  0  0  0
   -0.8594    0.6231    0.0000 C   0  0  0  0  0  0  0  0  0  0  0  0
    0.3742   -0.2304    0.0000 C   0  0  0  0  0  0  0  0  0  0  0  0
    0.4088   -1.7300    0.0000 C   0  0  0  0  0  0  0  0  0  0  0  0
    1.8457   -2.1604    0.0000 N   0  0  0  0  0  0  0  0  0  0  0  0
    2.6991   -0.9269    0.0000 C   0  0  0  0  0  0  0  0  0  0  0  0
    4.1869   -0.7357    0.0000 C   0  0  0  0  0  0  0  0  0  0  0  0
    4.7652    0.6484    0.0000 C   0  0  0  0  0  0  0  0  0  0  0  0
    3.8557    1.8412    0.0000 C   0  0  0  0  0  0  0  0  0  0  0  0
    2.3680    1.6500    0.0000 C   0  0  0  0  0  0  0  0  0  0  0  0
    1.7897    0.2660    0.0000 C   0  0  0  0  0  0  0  0  0  0  0  0
   -3.4488    0.8349    0.0000 C   0  0  0  0  0  0  0  0  0  0  0  0
   -4.8047    0.1933    0.0000 C   0  0  0  0  0  0  0  0  0  0  0  0
   -4.9270   -1.3017    0.0000 O   0  0  0  0  0  0  0  0  0  0  0  0
   -6.0382    1.0467    0.0000 O   0  0  0  0  0  0  0  0  0  0  0  0
  1  2  1  0
  2  3  1  0
  3  4  2  0
  4  5  1  0
  5  6  1  0
  6  7  2  0
  7  8  1  0
  8  9  2  0
  9 10  1  0
 10 11  2  0
  1 12  1  0
 12 13  1  0
 13 14  2  0
 13 15  1  0
 11  3  1  0
 11  6  1  0
M  END
>  <rName>  (2452) 
NMe-indolGly

>  <PQ_SYMBOL>  (2452) 
NMe-indolGly

>  <FULL_NAME>  (2452) 
N-(1H-indol-3-ylmethyl)-glycine

>  <IUPAC_CONDENSED>  (2452) 
N(Me-indol)Gly

>  <IUPAC>  (2452) 
2-(((1H-indol-3-yl)methyl)amino)acetic acid

>  <TYPE>  (2452) 
Backbone

>  <CLASS>  (2452) 
alpha

>  <ANALOG>  (2452) 
Gly

>  <MOL_WT>  (2452) 
204.22899999999996

>  <LOGP>  (2452) 
1.3421

>  <TPSA>  (2452) 
65.12

>  <POPULARITY>  (2452) 
13.2

>  <PROTECTED>  (2452) 
TRUE

>  <SMILES>  (2452) 
N(Cc1(c[nH]c2(ccccc12)))CC(=O)O

>  <INCHIKEY>  (2452) 
WIRBGPCBAWTAJW-UHFFFAOYSA-N

$$$$
NMe23Abz
     RDKit          2D

 12 12  0  0  0  0  0  0  0  0999 V2000
    2.5981   -2.1250    0.0000 C   0  0  0  0  0  0  0  0  0  0  0  0
    2.5981   -0.6250    0.0000 N   0  0  0  0  0  0  0  0  0  0  0  0
    3.8971    0.1250    0.0000 C   0  0  0  0  0  0  0  0  0  0  0  0
    1.2990    0.1250    0.0000 C   0  0  0  0  0  0  0  0  0  0  0  0
   -0.0000   -0.6250    0.0000 C   0  0  0  0  0  0  0  0  0  0  0  0
   -1.2990    0.1250    0.0000 C   0  0  0  0  0  0  0  0  0  0  0  0
   -1.2990    1.6250    0.0000 C   0  0  0  0  0  0  0  0  0  0  0  0
   -0.0000    2.3750    0.0000 C   0  0  0  0  0  0  0  0  0  0  0  0
    1.2990    1.6250    0.0000 C   0  0  0  0  0  0  0  0  0  0  0  0
   -2.5981   -0.6250    0.0000 C   0  0  0  0  0  0  0  0  0  0  0  0
   -2.5981   -2.1250    0.0000 O   0  0  0  0  0  0  0  0  0  0  0  0
   -3.8971    0.1250    0.0000 O   0  0  0  0  0  0  0  0  0  0  0  0
  1  2  1  0
  2  3  1  0
  2  4  1  0
  4  5  1  0
  5  6  2  0
  6  7  1  0
  7  8  2  0
  8  9  1  0
  6 10  1  0
 10 11  2  0
 10 12  1  0
  9  4  2  0
M  END
>  <rName>  (2453) 
NMe23Abz

>  <PQ_SYMBOL>  (2453) 
NMe23Abz

>  <FULL_NAME>  (2453) 
3-(dimethylamino)benzoic acid

>  <IUPAC_CONDENSED>  (2453) 
N(Me2)3Abz

>  <IUPAC>  (2453) 
3-(dimethylamino)benzoic acid

>  <TYPE>  (2453) 
N-term cap

>  <CLASS>  (2453) 
n_cap

>  <ANALOG>  (2453) 
X

>  <MOL_WT>  (2453) 
165.19199999999995

>  <LOGP>  (2453) 
1.4507999999999999

>  <TPSA>  (2453) 
40.540000000000006

>  <POPULARITY>  (2453) 
12.2

>  <PROTECTED>  (2453) 
FALSE

>  <SMILES>  (2453) 
CN(C)c1cc(ccc1)C(=O)O

>  <INCHIKEY>  (2453) 
NEGFNJRAUMCZMY-UHFFFAOYSA-N

$$$$
NMe24Abz
     RDKit          2D

 12 12  0  0  0  0  0  0  0  0999 V2000
    3.7500   -1.2990    0.0000 C   0  0  0  0  0  0  0  0  0  0  0  0
    3.0000    0.0000    0.0000 N   0  0  0  0  0  0  0  0  0  0  0  0
    3.7500    1.2990    0.0000 C   0  0  0  0  0  0  0  0  0  0  0  0
    1.5000   -0.0000    0.0000 C   0  0  0  0  0  0  0  0  0  0  0  0
    0.7500   -1.2990    0.0000 C   0  0  0  0  0  0  0  0  0  0  0  0
   -0.7500   -1.2990    0.0000 C   0  0  0  0  0  0  0  0  0  0  0  0
   -1.5000    0.0000    0.0000 C   0  0  0  0  0  0  0  0  0  0  0  0
   -0.7500    1.2990    0.0000 C   0  0  0  0  0  0  0  0  0  0  0  0
    0.7500    1.2990    0.0000 C   0  0  0  0  0  0  0  0  0  0  0  0
   -3.0000    0.0000    0.0000 C   0  0  0  0  0  0  0  0  0  0  0  0
   -3.7500   -1.2990    0.0000 O   0  0  0  0  0  0  0  0  0  0  0  0
   -3.7500    1.2990    0.0000 O   0  0  0  0  0  0  0  0  0  0  0  0
  1  2  1  0
  2  3  1  0
  2  4  1  0
  4  5  1  0
  5  6  2  0
  6  7  1  0
  7  8  2  0
  8  9  1  0
  7 10  1  0
 10 11  2  0
 10 12  1  0
  9  4  2  0
M  END
>  <rName>  (2454) 
NMe24Abz

>  <PQ_SYMBOL>  (2454) 
NMe24Abz

>  <FULL_NAME>  (2454) 
4-(dimethylamino)benzoic acid

>  <IUPAC_CONDENSED>  (2454) 
N(Me2)4Abz

>  <IUPAC>  (2454) 
4-(dimethylamino)benzoic acid

>  <TYPE>  (2454) 
N-term cap

>  <CLASS>  (2454) 
n_cap

>  <ANALOG>  (2454) 
X

>  <MOL_WT>  (2454) 
165.19199999999995

>  <LOGP>  (2454) 
1.4507999999999999

>  <TPSA>  (2454) 
40.540000000000006

>  <POPULARITY>  (2454) 
11.9

>  <PROTECTED>  (2454) 
FALSE

>  <SMILES>  (2454) 
CN(C)c1ccc(cc1)C(=O)O

>  <INCHIKEY>  (2454) 
YDIYEOMDOWUDTJ-UHFFFAOYSA-N

$$$$
NMe2Ala
     RDKit          2D

  8  7  0  0  0  0  0  0  0  0999 V2000
   -1.2990    1.6875    0.0000 C   0  0  0  0  0  0  0  0  0  0  0  0
   -1.2990    0.1875    0.0000 N   0  0  0  0  0  0  0  0  0  0  0  0
   -2.5981   -0.5625    0.0000 C   0  0  0  0  0  0  0  0  0  0  0  0
    0.0000   -0.5625    0.0000 C   0  0  0  0  0  0  0  0  0  0  0  0
    0.0000   -2.0625    0.0000 C   0  0  0  0  0  0  0  0  0  0  0  0
    1.2990    0.1875    0.0000 C   0  0  0  0  0  0  0  0  0  0  0  0
    1.2990    1.6875    0.0000 O   0  0  0  0  0  0  0  0  0  0  0  0
    2.5981   -0.5625    0.0000 O   0  0  0  0  0  0  0  0  0  0  0  0
  1  2  1  0
  2  3  1  0
  2  4  1  0
  4  5  1  6
  4  6  1  0
  6  7  2  0
  6  8  1  0
M  END
>  <rName>  (2455) 
NMe2Ala

>  <PQ_SYMBOL>  (2455) 
NMe2Ala

>  <FULL_NAME>  (2455) 
methyl N-Methyl-Alanine

>  <IUPAC_CONDENSED>  (2455) 
N(Me2)Ala

>  <IUPAC>  (2455) 
(2S)-2-(dimethylamino)propanoic acid

>  <TYPE>  (2455) 
N-term cap

>  <CLASS>  (2455) 
n_cap

>  <ANALOG>  (2455) 
X

>  <MOL_WT>  (2455) 
117.14799999999998

>  <LOGP>  (2455) 
0.021100000000000063

>  <TPSA>  (2455) 
40.540000000000006

>  <POPULARITY>  (2455) 
25.8

>  <PROTECTED>  (2455) 
TRUE

>  <SMILES>  (2455) 
CN(C)[C@@H](C)C(=O)O

>  <INCHIKEY>  (2455) 
QCYOIFVBYZNUNW-BYPYZUCNSA-N

$$$$
NMe2Ile
     RDKit          2D

 11 10  0  0  0  0  0  0  0  0999 V2000
    2.7273    0.0000    0.0000 C   0  0  0  0  0  0  0  0  0  0  0  0
    1.9773   -1.2990    0.0000 C   0  0  0  0  0  0  0  0  0  0  0  0
    0.4773   -1.2990    0.0000 C   0  0  0  0  0  0  0  0  0  0  0  0
   -0.2727   -2.5981    0.0000 C   0  0  0  0  0  0  0  0  0  0  0  0
   -0.2727    0.0000    0.0000 C   0  0  0  0  0  0  0  0  0  0  0  0
    0.4773    1.2990    0.0000 N   0  0  0  0  0  0  0  0  0  0  0  0
   -0.2727    2.5981    0.0000 C   0  0  0  0  0  0  0  0  0  0  0  0
    1.9773    1.2990    0.0000 C   0  0  0  0  0  0  0  0  0  0  0  0
   -1.7727   -0.0000    0.0000 C   0  0  0  0  0  0  0  0  0  0  0  0
   -2.5227   -1.2990    0.0000 O   0  0  0  0  0  0  0  0  0  0  0  0
   -2.5227    1.2990    0.0000 O   0  0  0  0  0  0  0  0  0  0  0  0
  1  2  1  0
  2  3  1  0
  3  4  1  6
  3  5  1  0
  5  6  1  1
  6  7  1  0
  6  8  1  0
  5  9  1  0
  9 10  2  0
  9 11  1  0
M  END
>  <rName>  (2456) 
NMe2Ile

>  <PQ_SYMBOL>  (2456) 
NMe2Ile

>  <FULL_NAME>  (2456) 
methyl N-Methyl-Isoleucine

>  <IUPAC_CONDENSED>  (2456) 
N(Me2)Ile

>  <IUPAC>  (2456) 
(2S,3S)-2-(dimethylamino)-3-methylpentanoic acid

>  <TYPE>  (2456) 
N-term cap

>  <CLASS>  (2456) 
n_cap

>  <ANALOG>  (2456) 
X

>  <MOL_WT>  (2456) 
159.22899999999998

>  <LOGP>  (2456) 
1.0473

>  <TPSA>  (2456) 
40.540000000000006

>  <POPULARITY>  (2456) 
11.8

>  <PROTECTED>  (2456) 
TRUE

>  <SMILES>  (2456) 
CC[C@H](C)[C@H](N(C)C)C(=O)O

>  <INCHIKEY>  (2456) 
OQJJVXKMPUJFJK-BQBZGAKWSA-N

$$$$
NMe2Leu
     RDKit          2D

 11 10  0  0  0  0  0  0  0  0999 V2000
   -3.2824    1.4145    0.0000 C   0  0  0  0  0  0  0  0  0  0  0  0
   -2.0795    0.5184    0.0000 C   0  0  0  0  0  0  0  0  0  0  0  0
   -2.2541   -0.9714    0.0000 C   0  0  0  0  0  0  0  0  0  0  0  0
   -0.7020    1.1120    0.0000 C   0  0  0  0  0  0  0  0  0  0  0  0
    0.5009    0.2159    0.0000 C   0  0  0  0  0  0  0  0  0  0  0  0
    0.3263   -1.2739    0.0000 N   0  0  0  0  0  0  0  0  0  0  0  0
    1.5291   -2.1701    0.0000 C   0  0  0  0  0  0  0  0  0  0  0  0
   -1.0513   -1.8676    0.0000 C   0  0  0  0  0  0  0  0  0  0  0  0
    1.8784    0.8095    0.0000 C   0  0  0  0  0  0  0  0  0  0  0  0
    2.0531    2.2993    0.0000 O   0  0  0  0  0  0  0  0  0  0  0  0
    3.0813   -0.0866    0.0000 O   0  0  0  0  0  0  0  0  0  0  0  0
  1  2  1  0
  2  3  1  0
  2  4  1  0
  5  4  1  1
  5  6  1  0
  6  7  1  0
  6  8  1  0
  5  9  1  0
  9 10  2  0
  9 11  1  0
M  END
>  <rName>  (2457) 
NMe2Leu

>  <PQ_SYMBOL>  (2457) 
NMe2Leu

>  <FULL_NAME>  (2457) 
methyl N-Methyl-Leucine

>  <IUPAC_CONDENSED>  (2457) 
N(Me2)Leu

>  <IUPAC>  (2457) 
(2S)-2-(dimethylamino)-4-methylpentanoic acid

>  <TYPE>  (2457) 
N-term cap

>  <CLASS>  (2457) 
n_cap

>  <ANALOG>  (2457) 
X

>  <MOL_WT>  (2457) 
159.22899999999998

>  <LOGP>  (2457) 
1.0473

>  <TPSA>  (2457) 
40.540000000000006

>  <POPULARITY>  (2457) 
19.3

>  <PROTECTED>  (2457) 
TRUE

>  <SMILES>  (2457) 
CC(C)C[C@H](N(C)C)C(=O)O

>  <INCHIKEY>  (2457) 
FZLYRJBAUQHHIH-ZETCQYMHSA-N

$$$$
NMe2Lys_Me2
     RDKit          2D

 14 13  0  0  0  0  0  0  0  0999 V2000
   -5.6928    0.8361    0.0000 C   0  0  0  0  0  0  0  0  0  0  0  0
   -4.4994   -0.0727    0.0000 N   0  0  0  0  0  0  0  0  0  0  0  0
   -4.6897   -1.5606    0.0000 C   0  0  0  0  0  0  0  0  0  0  0  0
   -3.1157    0.5065    0.0000 C   0  0  0  0  0  0  0  0  0  0  0  0
   -1.9223   -0.4023    0.0000 C   0  0  0  0  0  0  0  0  0  0  0  0
   -0.5386    0.1769    0.0000 C   0  0  0  0  0  0  0  0  0  0  0  0
    0.6548   -0.7318    0.0000 C   0  0  0  0  0  0  0  0  0  0  0  0
    2.0384   -0.1527    0.0000 C   0  0  0  0  0  0  0  0  0  0  0  0
    2.2287    1.3352    0.0000 N   0  0  0  0  0  0  0  0  0  0  0  0
    3.6124    1.9144    0.0000 C   0  0  0  0  0  0  0  0  0  0  0  0
    1.0353    2.2439    0.0000 C   0  0  0  0  0  0  0  0  0  0  0  0
    3.2318   -1.0614    0.0000 C   0  0  0  0  0  0  0  0  0  0  0  0
    3.0416   -2.5493    0.0000 O   0  0  0  0  0  0  0  0  0  0  0  0
    4.6155   -0.4823    0.0000 O   0  0  0  0  0  0  0  0  0  0  0  0
  1  2  1  0
  2  3  1  0
  2  4  1  0
  4  5  1  0
  5  6  1  0
  6  7  1  0
  8  7  1  6
  8  9  1  0
  9 10  1  0
  9 11  1  0
  8 12  1  0
 12 13  2  0
 12 14  1  0
M  END
>  <rName>  (2458) 
NMe2Lys_Me2

>  <PQ_SYMBOL>  (2458) 
NMe2Lys_Me2

>  <FULL_NAME>  (2458) 
N~2~,N~2~,N~6~,N~6~-tetramethyl-L-lysine

>  <IUPAC_CONDENSED>  (2458) 
N(Me2)Lys(Me2)

>  <IUPAC>  (2458) 
(2S)-2,6-bis(dimethylamino)hexanoic acid

>  <TYPE>  (2458) 
N-term cap

>  <CLASS>  (2458) 
n_cap

>  <ANALOG>  (2458) 
X

>  <MOL_WT>  (2458) 
202.298

>  <LOGP>  (2458) 
0.7331000000000003

>  <TPSA>  (2458) 
43.78

>  <POPULARITY>  (2458) 
10.6

>  <PROTECTED>  (2458) 
FALSE

>  <SMILES>  (2458) 
CN(C)CCCC[C@H](N(C)C)C(=O)O

>  <INCHIKEY>  (2458) 
HNWHSCYWLXEVJP-VIFPVBQESA-N

$$$$
NMe2Phe
     RDKit          2D

 14 14  0  0  0  0  0  0  0  0999 V2000
   -3.9235   -0.3387    0.0000 C   0  0  0  0  0  0  0  0  0  0  0  0
   -3.6619    1.1383    0.0000 C   0  0  0  0  0  0  0  0  0  0  0  0
   -2.2520    1.6502    0.0000 C   0  0  0  0  0  0  0  0  0  0  0  0
   -1.1037    0.6851    0.0000 C   0  0  0  0  0  0  0  0  0  0  0  0
   -1.3653   -0.7919    0.0000 C   0  0  0  0  0  0  0  0  0  0  0  0
   -2.7752   -1.3038    0.0000 C   0  0  0  0  0  0  0  0  0  0  0  0
    0.3063    1.1971    0.0000 C   0  0  0  0  0  0  0  0  0  0  0  0
    1.4546    0.2320    0.0000 C   0  0  0  0  0  0  0  0  0  0  0  0
    1.1930   -1.2450    0.0000 N   0  0  0  0  0  0  0  0  0  0  0  0
    2.3413   -2.2101    0.0000 C   0  0  0  0  0  0  0  0  0  0  0  0
   -0.2170   -1.7569    0.0000 C   0  0  0  0  0  0  0  0  0  0  0  0
    2.8645    0.7439    0.0000 C   0  0  0  0  0  0  0  0  0  0  0  0
    3.1261    2.2209    0.0000 O   0  0  0  0  0  0  0  0  0  0  0  0
    4.0128   -0.2211    0.0000 O   0  0  0  0  0  0  0  0  0  0  0  0
  1  2  2  0
  2  3  1  0
  3  4  2  0
  4  5  1  0
  5  6  2  0
  4  7  1  0
  8  7  1  1
  8  9  1  0
  9 10  1  0
  9 11  1  0
  8 12  1  0
 12 13  2  0
 12 14  1  0
  6  1  1  0
M  END
>  <rName>  (2459) 
NMe2Phe

>  <PQ_SYMBOL>  (2459) 
NMe2Phe

>  <FULL_NAME>  (2459) 
methyl N-Methyl-Phenylalanine

>  <IUPAC_CONDENSED>  (2459) 
N(Me2)Phe

>  <IUPAC>  (2459) 
(2S)-2-(dimethylamino)-3-phenylpropanoic acid

>  <TYPE>  (2459) 
N-term cap

>  <CLASS>  (2459) 
n_cap

>  <ANALOG>  (2459) 
X

>  <MOL_WT>  (2459) 
193.24599999999998

>  <LOGP>  (2459) 
1.2439

>  <TPSA>  (2459) 
40.540000000000006

>  <POPULARITY>  (2459) 
15.4

>  <PROTECTED>  (2459) 
TRUE

>  <SMILES>  (2459) 
c1ccc(cc1)C[C@H](N(C)C)C(=O)O

>  <INCHIKEY>  (2459) 
HOGIQTACRLIOHC-JTQLQIEISA-N

$$$$
NMe2Ser
     RDKit          2D

  9  8  0  0  0  0  0  0  0  0999 V2000
    2.2500   -1.5877    0.0000 O   0  0  0  0  0  0  0  0  0  0  0  0
    0.7500   -1.5877    0.0000 C   0  0  0  0  0  0  0  0  0  0  0  0
   -0.0000   -0.2887    0.0000 C   0  0  0  0  0  0  0  0  0  0  0  0
   -1.5000   -0.2887    0.0000 N   0  0  0  0  0  0  0  0  0  0  0  0
   -2.2500    1.0104    0.0000 C   0  0  0  0  0  0  0  0  0  0  0  0
   -2.2500   -1.5877    0.0000 C   0  0  0  0  0  0  0  0  0  0  0  0
    0.7500    1.0104    0.0000 C   0  0  0  0  0  0  0  0  0  0  0  0
    0.0000    2.3094    0.0000 O   0  0  0  0  0  0  0  0  0  0  0  0
    2.2500    1.0104    0.0000 O   0  0  0  0  0  0  0  0  0  0  0  0
  1  2  1  0
  3  2  1  6
  3  4  1  0
  4  5  1  0
  4  6  1  0
  3  7  1  0
  7  8  2  0
  7  9  1  0
M  END
>  <rName>  (2460) 
NMe2Ser

>  <PQ_SYMBOL>  (2460) 
NMe2Ser

>  <FULL_NAME>  (2460) 
methyl N-Methyl-Serine

>  <IUPAC_CONDENSED>  (2460) 
N(Me2)Ser

>  <IUPAC>  (2460) 
(2S)-2-(dimethylamino)-3-hydroxypropanoic acid

>  <TYPE>  (2460) 
N-term cap

>  <CLASS>  (2460) 
n_cap

>  <ANALOG>  (2460) 
X

>  <MOL_WT>  (2460) 
133.147

>  <LOGP>  (2460) 
-1.0064999999999995

>  <TPSA>  (2460) 
60.769999999999996

>  <POPULARITY>  (2460) 
12.1

>  <PROTECTED>  (2460) 
TRUE

>  <SMILES>  (2460) 
OC[C@H](N(C)C)C(=O)O

>  <INCHIKEY>  (2460) 
UHOZUUWRLMQQBZ-BYPYZUCNSA-N

$$$$
NMe2Thr
     RDKit          2D

 10  9  0  0  0  0  0  0  0  0999 V2000
   -1.2990    2.2500    0.0000 O   0  0  0  0  0  0  0  0  0  0  0  0
   -1.2990    0.7500    0.0000 C   0  0  0  0  0  0  0  0  0  0  0  0
   -2.5981    0.0000    0.0000 C   0  0  0  0  0  0  0  0  0  0  0  0
    0.0000   -0.0000    0.0000 C   0  0  0  0  0  0  0  0  0  0  0  0
    0.0000   -1.5000    0.0000 N   0  0  0  0  0  0  0  0  0  0  0  0
    1.2990   -2.2500    0.0000 C   0  0  0  0  0  0  0  0  0  0  0  0
   -1.2990   -2.2500    0.0000 C   0  0  0  0  0  0  0  0  0  0  0  0
    1.2990    0.7500    0.0000 C   0  0  0  0  0  0  0  0  0  0  0  0
    1.2990    2.2500    0.0000 O   0  0  0  0  0  0  0  0  0  0  0  0
    2.5981   -0.0000    0.0000 O   0  0  0  0  0  0  0  0  0  0  0  0
  1  2  1  0
  2  3  1  1
  2  4  1  0
  4  5  1  1
  5  6  1  0
  5  7  1  0
  4  8  1  0
  8  9  2  0
  8 10  1  0
M  END
>  <rName>  (2461) 
NMe2Thr

>  <PQ_SYMBOL>  (2461) 
NMe2Thr

>  <FULL_NAME>  (2461) 
methyl N-Methyl-Threonine

>  <IUPAC_CONDENSED>  (2461) 
N(Me2)Thr

>  <IUPAC>  (2461) 
(2S,3R)-2-(dimethylamino)-3-hydroxybutanoic acid

>  <TYPE>  (2461) 
N-term cap

>  <CLASS>  (2461) 
n_cap

>  <ANALOG>  (2461) 
X

>  <MOL_WT>  (2461) 
147.174

>  <LOGP>  (2461) 
-0.6179999999999997

>  <TPSA>  (2461) 
60.769999999999996

>  <POPULARITY>  (2461) 
14.9

>  <PROTECTED>  (2461) 
FALSE

>  <SMILES>  (2461) 
O[C@H](C)[C@H](N(C)C)C(=O)O

>  <INCHIKEY>  (2461) 
CIVVRPHZRYVSCF-UHNVWZDZSA-N

$$$$
NMe2Tyr
     RDKit          2D

 15 15  0  0  0  0  0  0  0  0999 V2000
   -5.0096   -0.5604    0.0000 O   0  0  0  0  0  0  0  0  0  0  0  0
   -3.5773   -0.1149    0.0000 C   0  0  0  0  0  0  0  0  0  0  0  0
   -3.2469    1.3482    0.0000 C   0  0  0  0  0  0  0  0  0  0  0  0
   -1.8146    1.7937    0.0000 C   0  0  0  0  0  0  0  0  0  0  0  0
   -0.7126    0.7760    0.0000 C   0  0  0  0  0  0  0  0  0  0  0  0
   -1.0430   -0.6872    0.0000 C   0  0  0  0  0  0  0  0  0  0  0  0
   -2.4753   -1.1326    0.0000 C   0  0  0  0  0  0  0  0  0  0  0  0
    0.7197    1.2215    0.0000 C   0  0  0  0  0  0  0  0  0  0  0  0
    1.8217    0.2038    0.0000 C   0  0  0  0  0  0  0  0  0  0  0  0
    1.4913   -1.2594    0.0000 N   0  0  0  0  0  0  0  0  0  0  0  0
    2.5933   -2.2771    0.0000 C   0  0  0  0  0  0  0  0  0  0  0  0
    0.0590   -1.7049    0.0000 C   0  0  0  0  0  0  0  0  0  0  0  0
    3.2540    0.6493    0.0000 C   0  0  0  0  0  0  0  0  0  0  0  0
    3.5844    2.1124    0.0000 O   0  0  0  0  0  0  0  0  0  0  0  0
    4.3559   -0.3684    0.0000 O   0  0  0  0  0  0  0  0  0  0  0  0
  1  2  1  0
  2  3  1  0
  3  4  2  0
  4  5  1  0
  5  6  2  0
  6  7  1  0
  5  8  1  0
  9  8  1  1
  9 10  1  0
 10 11  1  0
 10 12  1  0
  9 13  1  0
 13 14  2  0
 13 15  1  0
  7  2  2  0
M  END
>  <rName>  (2462) 
NMe2Tyr

>  <PQ_SYMBOL>  (2462) 
NMe2Tyr

>  <FULL_NAME>  (2462) 
methyl N-Methyl-Tyrosine

>  <IUPAC_CONDENSED>  (2462) 
N(Me2)Tyr

>  <IUPAC>  (2462) 
(2S)-2-(dimethylamino)-3-(4-hydroxyphenyl)propanoic acid

>  <TYPE>  (2462) 
N-term cap

>  <CLASS>  (2462) 
n_cap

>  <ANALOG>  (2462) 
X

>  <MOL_WT>  (2462) 
209.24499999999998

>  <LOGP>  (2462) 
0.9495

>  <TPSA>  (2462) 
60.769999999999996

>  <POPULARITY>  (2462) 
11.8

>  <PROTECTED>  (2462) 
TRUE

>  <SMILES>  (2462) 
Oc1ccc(cc1)C[C@H](N(C)C)C(=O)O

>  <INCHIKEY>  (2462) 
WJJGAKCAAJOICV-JTQLQIEISA-N

$$$$
NMe2Val
     RDKit          2D

 10  9  0  0  0  0  0  0  0  0999 V2000
   -1.2990   -2.2500    0.0000 C   0  0  0  0  0  0  0  0  0  0  0  0
    0.0000   -1.5000    0.0000 N   0  0  0  0  0  0  0  0  0  0  0  0
    1.2990   -2.2500    0.0000 C   0  0  0  0  0  0  0  0  0  0  0  0
    0.0000    0.0000    0.0000 C   0  0  0  0  0  0  0  0  0  0  0  0
    1.2990    0.7500    0.0000 C   0  0  0  0  0  0  0  0  0  0  0  0
    1.2990    2.2500    0.0000 C   0  0  0  0  0  0  0  0  0  0  0  0
    2.5981    0.0000    0.0000 C   0  0  0  0  0  0  0  0  0  0  0  0
   -1.2990    0.7500    0.0000 C   0  0  0  0  0  0  0  0  0  0  0  0
   -2.5981    0.0000    0.0000 O   0  0  0  0  0  0  0  0  0  0  0  0
   -1.2990    2.2500    0.0000 O   0  0  0  0  0  0  0  0  0  0  0  0
  1  2  1  0
  2  3  1  0
  2  4  1  0
  4  5  1  6
  5  6  1  0
  5  7  1  0
  4  8  1  0
  8  9  2  0
  8 10  1  0
M  END
>  <rName>  (2463) 
NMe2Val

>  <PQ_SYMBOL>  (2463) 
NMe2Val

>  <FULL_NAME>  (2463) 
methyl N-Methyl-Valine

>  <IUPAC_CONDENSED>  (2463) 
N(Me2)Val

>  <IUPAC>  (2463) 
(2S)-2-(dimethylamino)-3-methylbutanoic acid

>  <TYPE>  (2463) 
N-term cap

>  <CLASS>  (2463) 
n_cap

>  <ANALOG>  (2463) 
X

>  <MOL_WT>  (2463) 
145.202

>  <LOGP>  (2463) 
0.6572

>  <TPSA>  (2463) 
40.540000000000006

>  <POPULARITY>  (2463) 
16.6

>  <PROTECTED>  (2463) 
TRUE

>  <SMILES>  (2463) 
CN(C)[C@@H](C(C)C)C(=O)O

>  <INCHIKEY>  (2463) 
APGLTERDKORUHK-LURJTMIESA-N

$$$$
NMeOEt-G
     RDKit          2D

  9  8  0  0  0  0  0  0  0  0999 V2000
   -0.2960    0.1534    0.0000 N   0  0  0  0  0  0  0  0  0  0  0  0
    1.0358   -0.5368    0.0000 C   0  0  0  0  0  0  0  0  0  0  0  0
    2.2994    0.2714    0.0000 C   0  0  0  0  0  0  0  0  0  0  0  0
    3.6312   -0.4188    0.0000 O   0  0  0  0  0  0  0  0  0  0  0  0
    4.8948    0.3895    0.0000 C   0  0  0  0  0  0  0  0  0  0  0  0
   -1.5596   -0.6549    0.0000 C   0  0  0  0  0  0  0  0  0  0  0  0
   -2.8913    0.0353    0.0000 C   0  0  0  0  0  0  0  0  0  0  0  0
   -2.9595    1.5338    0.0000 O   0  0  0  0  0  0  0  0  0  0  0  0
   -4.1550   -0.7729    0.0000 O   0  0  0  0  0  0  0  0  0  0  0  0
  1  2  1  0
  2  3  1  0
  3  4  1  0
  4  5  1  0
  1  6  1  0
  6  7  1  0
  7  8  2  0
  7  9  1  0
M  END
>  <rName>  (2464) 
NMeOEt-G

>  <PQ_SYMBOL>  (2464) 
NMeOEt-G

>  <FULL_NAME>  (2464) 
2-(2-methoxyethylamino)acetic acid

>  <IUPAC_CONDENSED>  (2464) 
MeOEt-Gly

>  <IUPAC>  (2464) 
2-((2-methoxyethyl)amino)acetic acid

>  <TYPE>  (2464) 
Backbone

>  <CLASS>  (2464) 
alpha

>  <ANALOG>  (2464) 
Gly

>  <MOL_WT>  (2464) 
133.147

>  <LOGP>  (2464) 
-0.6929999999999998

>  <TPSA>  (2464) 
58.56

>  <POPULARITY>  (2464) 
22.0

>  <PROTECTED>  (2464) 
TRUE

>  <SMILES>  (2464) 
N(CCOC)CC(=O)O

>  <INCHIKEY>  (2464) 
RHLQNMMWMDYKFY-UHFFFAOYSA-N

$$$$
NMob-G
     RDKit          2D

 14 14  0  0  0  0  0  0  0  0999 V2000
   -2.1023   -0.1855    0.0000 N   0  0  0  0  0  0  0  0  0  0  0  0
   -0.9476   -1.1429    0.0000 C   0  0  0  0  0  0  0  0  0  0  0  0
    0.4589   -0.6216    0.0000 C   0  0  0  0  0  0  0  0  0  0  0  0
    0.7107    0.8572    0.0000 C   0  0  0  0  0  0  0  0  0  0  0  0
    2.1172    1.3785    0.0000 C   0  0  0  0  0  0  0  0  0  0  0  0
    3.2719    0.4211    0.0000 C   0  0  0  0  0  0  0  0  0  0  0  0
    4.6784    0.9425    0.0000 O   0  0  0  0  0  0  0  0  0  0  0  0
    5.8331   -0.0149    0.0000 C   0  0  0  0  0  0  0  0  0  0  0  0
    3.0201   -1.0576    0.0000 C   0  0  0  0  0  0  0  0  0  0  0  0
    1.6137   -1.5789    0.0000 C   0  0  0  0  0  0  0  0  0  0  0  0
   -3.5088   -0.7068    0.0000 C   0  0  0  0  0  0  0  0  0  0  0  0
   -4.6635    0.2505    0.0000 C   0  0  0  0  0  0  0  0  0  0  0  0
   -4.4118    1.7293    0.0000 O   0  0  0  0  0  0  0  0  0  0  0  0
   -6.0700   -0.2708    0.0000 O   0  0  0  0  0  0  0  0  0  0  0  0
  1  2  1  0
  2  3  1  0
  3  4  1  0
  4  5  2  0
  5  6  1  0
  6  7  1  0
  7  8  1  0
  6  9  2  0
  9 10  1  0
  1 11  1  0
 11 12  1  0
 12 13  2  0
 12 14  1  0
 10  3  2  0
M  END
>  <rName>  (2465) 
NMob-G

>  <PQ_SYMBOL>  (2465) 
NMob-G

>  <FULL_NAME>  (2465) 
(4-methoxybenzyl)glycine

>  <IUPAC_CONDENSED>  (2465) 
Mob-Gly

>  <IUPAC>  (2465) 
2-(((4-methoxyphenyl)methyl)amino)acetic acid

>  <TYPE>  (2465) 
Backbone

>  <CLASS>  (2465) 
alpha

>  <ANALOG>  (2465) 
Gly

>  <MOL_WT>  (2465) 
195.21799999999996

>  <LOGP>  (2465) 
0.8694000000000002

>  <TPSA>  (2465) 
58.56

>  <POPULARITY>  (2465) 
14.3

>  <PROTECTED>  (2465) 
TRUE

>  <SMILES>  (2465) 
N(Cc1(ccc(OC)cc1))CC(=O)O

>  <INCHIKEY>  (2465) 
QEOHOHDWOLGNLN-UHFFFAOYSA-N

$$$$
NPh-G
     RDKit          2D

 11 11  0  0  0  0  0  0  0  0999 V2000
   -0.6853   -0.6503    0.0000 N   0  0  0  0  0  0  0  0  0  0  0  0
    0.7732   -0.3002    0.0000 C   0  0  0  0  0  0  0  0  0  0  0  0
    1.1993    1.1380    0.0000 C   0  0  0  0  0  0  0  0  0  0  0  0
    2.6579    1.4881    0.0000 C   0  0  0  0  0  0  0  0  0  0  0  0
    3.6904    0.4000    0.0000 C   0  0  0  0  0  0  0  0  0  0  0  0
    3.2643   -1.0382    0.0000 C   0  0  0  0  0  0  0  0  0  0  0  0
    1.8057   -1.3883    0.0000 C   0  0  0  0  0  0  0  0  0  0  0  0
   -1.7178    0.4378    0.0000 C   0  0  0  0  0  0  0  0  0  0  0  0
   -3.1764    0.0877    0.0000 C   0  0  0  0  0  0  0  0  0  0  0  0
   -3.6025   -1.3505    0.0000 O   0  0  0  0  0  0  0  0  0  0  0  0
   -4.2089    1.1758    0.0000 O   0  0  0  0  0  0  0  0  0  0  0  0
  1  2  1  0
  2  3  2  0
  3  4  1  0
  4  5  2  0
  5  6  1  0
  6  7  2  0
  1  8  1  0
  8  9  1  0
  9 10  2  0
  9 11  1  0
  7  2  1  0
M  END
>  <rName>  (2466) 
NPh-G

>  <PQ_SYMBOL>  (2466) 
NPh-G

>  <FULL_NAME>  (2466) 
N-Phenylglycine

>  <IUPAC_CONDENSED>  (2466) 
N-Ph-Gly

>  <IUPAC>  (2466) 
2-(phenylamino)acetic acid

>  <TYPE>  (2466) 
Backbone

>  <CLASS>  (2466) 
alpha

>  <ANALOG>  (2466) 
Gly

>  <MOL_WT>  (2466) 
151.165

>  <LOGP>  (2466) 
1.1830999999999998

>  <TPSA>  (2466) 
49.33

>  <POPULARITY>  (2466) 
23.0

>  <PROTECTED>  (2466) 
TRUE

>  <SMILES>  (2466) 
N(c1(ccccc1))CC(=O)O

>  <INCHIKEY>  (2466) 
NPKSPKHJBVJUKB-UHFFFAOYSA-N

$$$$
NPh-Q
     RDKit          2D

 16 16  0  0  0  0  0  0  0  0999 V2000
    0.5947   -1.2535    0.0000 N   0  0  0  0  0  0  0  0  0  0  0  0
    2.0081   -0.7512    0.0000 C   0  0  0  0  0  0  0  0  0  0  0  0
    2.2798    0.7240    0.0000 C   0  0  0  0  0  0  0  0  0  0  0  0
    3.6932    1.2262    0.0000 C   0  0  0  0  0  0  0  0  0  0  0  0
    4.8349    0.2533    0.0000 C   0  0  0  0  0  0  0  0  0  0  0  0
    4.5632   -1.2219    0.0000 C   0  0  0  0  0  0  0  0  0  0  0  0
    3.1497   -1.7242    0.0000 C   0  0  0  0  0  0  0  0  0  0  0  0
   -0.5470   -0.2805    0.0000 C   0  0  0  0  0  0  0  0  0  0  0  0
   -1.9604   -0.7828    0.0000 C   0  0  0  0  0  0  0  0  0  0  0  0
   -3.1021    0.1901    0.0000 C   0  0  0  0  0  0  0  0  0  0  0  0
   -4.5155   -0.3121    0.0000 C   0  0  0  0  0  0  0  0  0  0  0  0
   -4.7873   -1.7873    0.0000 O   0  0  0  0  0  0  0  0  0  0  0  0
   -5.6572    0.6608    0.0000 N   0  0  0  0  0  0  0  0  0  0  0  0
   -0.2753    1.1946    0.0000 C   0  0  0  0  0  0  0  0  0  0  0  0
    1.1381    1.6969    0.0000 O   0  0  0  0  0  0  0  0  0  0  0  0
   -1.4169    2.1676    0.0000 O   0  0  0  0  0  0  0  0  0  0  0  0
  1  2  1  0
  2  3  2  0
  3  4  1  0
  4  5  2  0
  5  6  1  0
  6  7  2  0
  1  8  1  0
  8  9  1  1
  9 10  1  0
 10 11  1  0
 11 12  2  0
 11 13  1  0
  8 14  1  0
 14 15  2  0
 14 16  1  0
  7  2  1  0
M  END
>  <rName>  (2467) 
NPh-Q

>  <PQ_SYMBOL>  (2467) 
NPh-Q

>  <FULL_NAME>  (2467) 
N~2~-Phenyl-L-glutamine

>  <IUPAC_CONDENSED>  (2467) 
Ph-Gln

>  <IUPAC>  (2467) 
(2S)-5-amino-2-anilino-5-oxopentanoic acid

>  <TYPE>  (2467) 
Backbone

>  <CLASS>  (2467) 
alpha

>  <ANALOG>  (2467) 
Gln

>  <MOL_WT>  (2467) 
222.24399999999994

>  <LOGP>  (2467) 
0.8171999999999997

>  <TPSA>  (2467) 
92.42

>  <POPULARITY>  (2467) 
2.2

>  <PROTECTED>  (2467) 
TRUE

>  <SMILES>  (2467) 
N(c1(ccccc1))[C@@H](CCC(=O)N)C(=O)O

>  <INCHIKEY>  (2467) 
PMUMUYYQHZMXNQ-VIFPVBQESA-N

$$$$
NPh24diClEt-G
     RDKit          2D

 15 15  0  0  0  0  0  0  0  0999 V2000
   -2.6084   -0.2572    0.0000 N   0  0  0  0  0  0  0  0  0  0  0  0
   -1.1902    0.2313    0.0000 C   0  0  0  0  0  0  0  0  0  0  0  0
   -0.0580   -0.7527    0.0000 C   0  0  0  0  0  0  0  0  0  0  0  0
    1.3602   -0.2643    0.0000 C   0  0  0  0  0  0  0  0  0  0  0  0
    1.6463    1.2082    0.0000 C   0  0  0  0  0  0  0  0  0  0  0  0
    3.0645    1.6966    0.0000 C   0  0  0  0  0  0  0  0  0  0  0  0
    4.1967    0.7126    0.0000 C   0  0  0  0  0  0  0  0  0  0  0  0
    5.6149    1.2011    0.0000 Cl  0  0  0  0  0  0  0  0  0  0  0  0
    3.9106   -0.7598    0.0000 C   0  0  0  0  0  0  0  0  0  0  0  0
    2.4923   -1.2483    0.0000 C   0  0  0  0  0  0  0  0  0  0  0  0
    2.2062   -2.7208    0.0000 Cl  0  0  0  0  0  0  0  0  0  0  0  0
   -3.7406    0.7268    0.0000 C   0  0  0  0  0  0  0  0  0  0  0  0
   -5.1588    0.2383    0.0000 C   0  0  0  0  0  0  0  0  0  0  0  0
   -5.4449   -1.2341    0.0000 O   0  0  0  0  0  0  0  0  0  0  0  0
   -6.2909    1.2223    0.0000 O   0  0  0  0  0  0  0  0  0  0  0  0
  1  2  1  0
  2  3  1  0
  3  4  1  0
  4  5  1  0
  5  6  2  0
  6  7  1  0
  7  8  1  0
  7  9  2  0
  9 10  1  0
 10 11  1  0
  1 12  1  0
 12 13  1  0
 13 14  2  0
 13 15  1  0
 10  4  2  0
M  END
>  <rName>  (2468) 
NPh24diClEt-G

>  <PQ_SYMBOL>  (2468) 
NPh24diClEt-G

>  <FULL_NAME>  (2468) 
2-[2-(2,4-dichlorophenyl)ethylamino]acetic acid

>  <IUPAC_CONDENSED>  (2468) 
Ph(2,4-diCl)Et-Gly

>  <IUPAC>  (2468) 
2-((2-(2,4-dichlorophenyl)ethyl)amino)acetic acid

>  <TYPE>  (2468) 
Backbone

>  <CLASS>  (2468) 
alpha

>  <ANALOG>  (2468) 
Gly

>  <MOL_WT>  (2468) 
248.10899999999998

>  <LOGP>  (2468) 
2.2101

>  <TPSA>  (2468) 
49.33

>  <POPULARITY>  (2468) 
13.1

>  <PROTECTED>  (2468) 
TRUE

>  <SMILES>  (2468) 
N(CCc1(ccc(Cl)cc1Cl))CC(=O)O

>  <INCHIKEY>  (2468) 
WCERMYSQMSKTDS-UHFFFAOYSA-N

$$$$
NPh2ClEt-G
     RDKit          2D

 14 14  0  0  0  0  0  0  0  0999 V2000
   -2.1970   -0.2737    0.0000 N   0  0  0  0  0  0  0  0  0  0  0  0
   -0.8030    0.2801    0.0000 C   0  0  0  0  0  0  0  0  0  0  0  0
    0.3736   -0.6503    0.0000 C   0  0  0  0  0  0  0  0  0  0  0  0
    1.7677   -0.0965    0.0000 C   0  0  0  0  0  0  0  0  0  0  0  0
    1.9851    1.3876    0.0000 C   0  0  0  0  0  0  0  0  0  0  0  0
    3.3791    1.9414    0.0000 C   0  0  0  0  0  0  0  0  0  0  0  0
    4.5557    1.0111    0.0000 C   0  0  0  0  0  0  0  0  0  0  0  0
    4.3383   -0.4731    0.0000 C   0  0  0  0  0  0  0  0  0  0  0  0
    2.9443   -1.0269    0.0000 C   0  0  0  0  0  0  0  0  0  0  0  0
    2.7269   -2.5110    0.0000 Cl  0  0  0  0  0  0  0  0  0  0  0  0
   -3.3736    0.6566    0.0000 C   0  0  0  0  0  0  0  0  0  0  0  0
   -4.7677    0.1028    0.0000 C   0  0  0  0  0  0  0  0  0  0  0  0
   -4.9851   -1.3813    0.0000 O   0  0  0  0  0  0  0  0  0  0  0  0
   -5.9443    1.0332    0.0000 O   0  0  0  0  0  0  0  0  0  0  0  0
  1  2  1  0
  2  3  1  0
  3  4  1  0
  4  5  2  0
  5  6  1  0
  6  7  2  0
  7  8  1  0
  8  9  2  0
  9 10  1  0
  1 11  1  0
 11 12  1  0
 12 13  2  0
 12 14  1  0
  9  4  1  0
M  END
>  <rName>  (2469) 
NPh2ClEt-G

>  <PQ_SYMBOL>  (2469) 
NPh2ClEt-G

>  <FULL_NAME>  (2469) 
N-[2-(2-chlorophenyl)ethyl]glycine

>  <IUPAC_CONDENSED>  (2469) 
Ph(2-Cl)Et-Gly

>  <IUPAC>  (2469) 
2-[2-(2-chlorophenyl)ethylamino]acetic acid

>  <TYPE>  (2469) 
Backbone

>  <CLASS>  (2469) 
alpha

>  <ANALOG>  (2469) 
Gly

>  <MOL_WT>  (2469) 
213.66399999999993

>  <LOGP>  (2469) 
1.5567000000000002

>  <TPSA>  (2469) 
49.33

>  <POPULARITY>  (2469) 
2.2

>  <PROTECTED>  (2469) 
TRUE

>  <SMILES>  (2469) 
N(CCc1(ccccc1Cl))CC(=O)O

>  <INCHIKEY>  (2469) 
FNWVQQVYOIAOOR-UHFFFAOYSA-N

$$$$
NPh2FEt-G
     RDKit          2D

 14 14  0  0  0  0  0  0  0  0999 V2000
   -2.1970   -0.2737    0.0000 N   0  0  0  0  0  0  0  0  0  0  0  0
   -0.8030    0.2801    0.0000 C   0  0  0  0  0  0  0  0  0  0  0  0
    0.3736   -0.6503    0.0000 C   0  0  0  0  0  0  0  0  0  0  0  0
    1.7677   -0.0965    0.0000 C   0  0  0  0  0  0  0  0  0  0  0  0
    1.9851    1.3876    0.0000 C   0  0  0  0  0  0  0  0  0  0  0  0
    3.3791    1.9414    0.0000 C   0  0  0  0  0  0  0  0  0  0  0  0
    4.5557    1.0111    0.0000 C   0  0  0  0  0  0  0  0  0  0  0  0
    4.3383   -0.4731    0.0000 C   0  0  0  0  0  0  0  0  0  0  0  0
    2.9443   -1.0269    0.0000 C   0  0  0  0  0  0  0  0  0  0  0  0
    2.7269   -2.5110    0.0000 F   0  0  0  0  0  0  0  0  0  0  0  0
   -3.3736    0.6566    0.0000 C   0  0  0  0  0  0  0  0  0  0  0  0
   -4.7677    0.1028    0.0000 C   0  0  0  0  0  0  0  0  0  0  0  0
   -4.9851   -1.3813    0.0000 O   0  0  0  0  0  0  0  0  0  0  0  0
   -5.9443    1.0332    0.0000 O   0  0  0  0  0  0  0  0  0  0  0  0
  1  2  1  0
  2  3  1  0
  3  4  1  0
  4  5  2  0
  5  6  1  0
  6  7  2  0
  7  8  1  0
  8  9  2  0
  9 10  1  0
  1 11  1  0
 11 12  1  0
 12 13  2  0
 12 14  1  0
  9  4  1  0
M  END
>  <rName>  (2470) 
NPh2FEt-G

>  <PQ_SYMBOL>  (2470) 
NPh2FEt-G

>  <FULL_NAME>  (2470) 
2-[2-(2-Fluorophenyl)ethylamino]acetic acid

>  <IUPAC_CONDENSED>  (2470) 
Ph(2-F)Et-Gly

>  <IUPAC>  (2470) 
2-[2-(2-fluorophenyl)ethylamino]acetic acid

>  <TYPE>  (2470) 
Backbone

>  <CLASS>  (2470) 
alpha

>  <ANALOG>  (2470) 
Gly

>  <MOL_WT>  (2470) 
197.20899999999995

>  <LOGP>  (2470) 
1.0424

>  <TPSA>  (2470) 
49.33

>  <POPULARITY>  (2470) 
2.2

>  <PROTECTED>  (2470) 
TRUE

>  <SMILES>  (2470) 
N(CCc1(ccccc1F))CC(=O)O

>  <INCHIKEY>  (2470) 
PZHYXPAOHPCFDI-UHFFFAOYSA-N

$$$$
NPh2OMe-G
     RDKit          2D

 13 13  0  0  0  0  0  0  0  0999 V2000
   -0.9346   -0.3137    0.0000 N   0  0  0  0  0  0  0  0  0  0  0  0
    0.4317    0.3053    0.0000 C   0  0  0  0  0  0  0  0  0  0  0  0
    0.5789    1.7980    0.0000 C   0  0  0  0  0  0  0  0  0  0  0  0
    1.9452    2.4170    0.0000 C   0  0  0  0  0  0  0  0  0  0  0  0
    3.1644    1.5432    0.0000 C   0  0  0  0  0  0  0  0  0  0  0  0
    3.0173    0.0504    0.0000 C   0  0  0  0  0  0  0  0  0  0  0  0
    1.6509   -0.5685    0.0000 C   0  0  0  0  0  0  0  0  0  0  0  0
    1.5038   -2.0613    0.0000 O   0  0  0  0  0  0  0  0  0  0  0  0
    2.7230   -2.9351    0.0000 C   0  0  0  0  0  0  0  0  0  0  0  0
   -2.1538    0.5601    0.0000 C   0  0  0  0  0  0  0  0  0  0  0  0
   -3.5202   -0.0588    0.0000 C   0  0  0  0  0  0  0  0  0  0  0  0
   -3.6673   -1.5516    0.0000 O   0  0  0  0  0  0  0  0  0  0  0  0
   -4.7394    0.8150    0.0000 O   0  0  0  0  0  0  0  0  0  0  0  0
  1  2  1  0
  2  3  2  0
  3  4  1  0
  4  5  2  0
  5  6  1  0
  6  7  2  0
  7  8  1  0
  8  9  1  0
  1 10  1  0
 10 11  1  0
 11 12  2  0
 11 13  1  0
  7  2  1  0
M  END
>  <rName>  (2471) 
NPh2OMe-G

>  <PQ_SYMBOL>  (2471) 
NPh2OMe-G

>  <FULL_NAME>  (2471) 
2-(2-methoxyanilino)acetic acid

>  <IUPAC_CONDENSED>  (2471) 
N-Ph(2-OMe)-Gly

>  <IUPAC>  (2471) 
2-((2-methoxyphenyl)amino)acetic acid

>  <TYPE>  (2471) 
N-term cap

>  <CLASS>  (2471) 
n_cap

>  <ANALOG>  (2471) 
X

>  <MOL_WT>  (2471) 
181.19099999999997

>  <LOGP>  (2471) 
1.1916999999999998

>  <TPSA>  (2471) 
58.56

>  <POPULARITY>  (2471) 
12.7

>  <PROTECTED>  (2471) 
TRUE

>  <SMILES>  (2471) 
N(c1(ccccc1OC))CC(=O)O

>  <INCHIKEY>  (2471) 
DRMOCHGNKTXIBF-UHFFFAOYSA-N

$$$$
NPh2OMeEt-G
     RDKit          2D

 15 15  0  0  0  0  0  0  0  0999 V2000
   -2.4463   -0.2362    0.0000 N   0  0  0  0  0  0  0  0  0  0  0  0
   -1.0998    0.4248    0.0000 C   0  0  0  0  0  0  0  0  0  0  0  0
    0.1459   -0.4107    0.0000 C   0  0  0  0  0  0  0  0  0  0  0  0
    1.4924    0.2503    0.0000 C   0  0  0  0  0  0  0  0  0  0  0  0
    1.5932    1.7469    0.0000 C   0  0  0  0  0  0  0  0  0  0  0  0
    2.9396    2.4080    0.0000 C   0  0  0  0  0  0  0  0  0  0  0  0
    4.1854    1.5725    0.0000 C   0  0  0  0  0  0  0  0  0  0  0  0
    4.0846    0.0758    0.0000 C   0  0  0  0  0  0  0  0  0  0  0  0
    2.7382   -0.5852    0.0000 C   0  0  0  0  0  0  0  0  0  0  0  0
    2.6374   -2.0818    0.0000 O   0  0  0  0  0  0  0  0  0  0  0  0
    3.8832   -2.9174    0.0000 C   0  0  0  0  0  0  0  0  0  0  0  0
   -3.6920    0.5993    0.0000 C   0  0  0  0  0  0  0  0  0  0  0  0
   -5.0385   -0.0617    0.0000 C   0  0  0  0  0  0  0  0  0  0  0  0
   -5.1392   -1.5584    0.0000 O   0  0  0  0  0  0  0  0  0  0  0  0
   -6.2842    0.7738    0.0000 O   0  0  0  0  0  0  0  0  0  0  0  0
  1  2  1  0
  2  3  1  0
  3  4  1  0
  4  5  2  0
  5  6  1  0
  6  7  2  0
  7  8  1  0
  8  9  2  0
  9 10  1  0
 10 11  1  0
  1 12  1  0
 12 13  1  0
 13 14  2  0
 13 15  1  0
  9  4  1  0
M  END
>  <rName>  (2472) 
NPh2OMeEt-G

>  <PQ_SYMBOL>  (2472) 
NPh2OMeEt-G

>  <FULL_NAME>  (2472) 
2-[2-(2-Methoxyphenyl)ethylamino]acetic acid

>  <IUPAC_CONDENSED>  (2472) 
Ph(2-OMe)Et-Gly

>  <IUPAC>  (2472) 
2-[2-(2-methoxyphenyl)ethylamino]acetic acid

>  <TYPE>  (2472) 
Backbone

>  <CLASS>  (2472) 
alpha

>  <ANALOG>  (2472) 
Gly

>  <MOL_WT>  (2472) 
209.24499999999995

>  <LOGP>  (2472) 
0.9118999999999999

>  <TPSA>  (2472) 
58.56

>  <POPULARITY>  (2472) 
2.2

>  <PROTECTED>  (2472) 
TRUE

>  <SMILES>  (2472) 
N(CCc1(ccccc1OC))CC(=O)O

>  <INCHIKEY>  (2472) 
SDESOIFUFLMNHX-UHFFFAOYSA-N

$$$$
NPh3ClEt-G
     RDKit          2D

 14 14  0  0  0  0  0  0  0  0999 V2000
   -2.3940   -0.3675    0.0000 N   0  0  0  0  0  0  0  0  0  0  0  0
   -1.0033    0.1948    0.0000 C   0  0  0  0  0  0  0  0  0  0  0  0
    0.1789   -0.7283    0.0000 C   0  0  0  0  0  0  0  0  0  0  0  0
    1.5696   -0.1661    0.0000 C   0  0  0  0  0  0  0  0  0  0  0  0
    1.7779    1.3194    0.0000 C   0  0  0  0  0  0  0  0  0  0  0  0
    3.1685    1.8817    0.0000 C   0  0  0  0  0  0  0  0  0  0  0  0
    4.3508    0.9585    0.0000 C   0  0  0  0  0  0  0  0  0  0  0  0
    4.1424   -0.5270    0.0000 C   0  0  0  0  0  0  0  0  0  0  0  0
    5.3247   -1.4501    0.0000 Cl  0  0  0  0  0  0  0  0  0  0  0  0
    2.7518   -1.0892    0.0000 C   0  0  0  0  0  0  0  0  0  0  0  0
   -3.5762    0.5557    0.0000 C   0  0  0  0  0  0  0  0  0  0  0  0
   -4.9669   -0.0066    0.0000 C   0  0  0  0  0  0  0  0  0  0  0  0
   -5.1752   -1.4920    0.0000 O   0  0  0  0  0  0  0  0  0  0  0  0
   -6.1491    0.9166    0.0000 O   0  0  0  0  0  0  0  0  0  0  0  0
  1  2  1  0
  2  3  1  0
  3  4  1  0
  4  5  2  0
  5  6  1  0
  6  7  2  0
  7  8  1  0
  8  9  1  0
  8 10  2  0
  1 11  1  0
 11 12  1  0
 12 13  2  0
 12 14  1  0
 10  4  1  0
M  END
>  <rName>  (2473) 
NPh3ClEt-G

>  <PQ_SYMBOL>  (2473) 
NPh3ClEt-G

>  <FULL_NAME>  (2473) 
N-[2-(3-chlorophenyl)ethyl]glycine

>  <IUPAC_CONDENSED>  (2473) 
Ph(3-Cl)Et-Gly

>  <IUPAC>  (2473) 
2-[2-(3-chlorophenyl)ethylamino]acetic acid

>  <TYPE>  (2473) 
Backbone

>  <CLASS>  (2473) 
alpha

>  <ANALOG>  (2473) 
Gly

>  <MOL_WT>  (2473) 
213.66399999999996

>  <LOGP>  (2473) 
1.5567000000000002

>  <TPSA>  (2473) 
49.33

>  <POPULARITY>  (2473) 
2.2

>  <PROTECTED>  (2473) 
TRUE

>  <SMILES>  (2473) 
N(CCc1(cccc(Cl)c1))CC(=O)O

>  <INCHIKEY>  (2473) 
VZJONLBGBZYTRY-UHFFFAOYSA-N

$$$$
NPh3FEt-G
     RDKit          2D

 14 14  0  0  0  0  0  0  0  0999 V2000
   -2.3940   -0.3675    0.0000 N   0  0  0  0  0  0  0  0  0  0  0  0
   -1.0033    0.1948    0.0000 C   0  0  0  0  0  0  0  0  0  0  0  0
    0.1789   -0.7283    0.0000 C   0  0  0  0  0  0  0  0  0  0  0  0
    1.5696   -0.1661    0.0000 C   0  0  0  0  0  0  0  0  0  0  0  0
    1.7779    1.3194    0.0000 C   0  0  0  0  0  0  0  0  0  0  0  0
    3.1685    1.8817    0.0000 C   0  0  0  0  0  0  0  0  0  0  0  0
    4.3508    0.9585    0.0000 C   0  0  0  0  0  0  0  0  0  0  0  0
    4.1424   -0.5270    0.0000 C   0  0  0  0  0  0  0  0  0  0  0  0
    5.3247   -1.4501    0.0000 F   0  0  0  0  0  0  0  0  0  0  0  0
    2.7518   -1.0892    0.0000 C   0  0  0  0  0  0  0  0  0  0  0  0
   -3.5762    0.5557    0.0000 C   0  0  0  0  0  0  0  0  0  0  0  0
   -4.9669   -0.0066    0.0000 C   0  0  0  0  0  0  0  0  0  0  0  0
   -5.1752   -1.4920    0.0000 O   0  0  0  0  0  0  0  0  0  0  0  0
   -6.1491    0.9166    0.0000 O   0  0  0  0  0  0  0  0  0  0  0  0
  1  2  1  0
  2  3  1  0
  3  4  1  0
  4  5  2  0
  5  6  1  0
  6  7  2  0
  7  8  1  0
  8  9  1  0
  8 10  2  0
  1 11  1  0
 11 12  1  0
 12 13  2  0
 12 14  1  0
 10  4  1  0
M  END
>  <rName>  (2474) 
NPh3FEt-G

>  <PQ_SYMBOL>  (2474) 
NPh3FEt-G

>  <FULL_NAME>  (2474) 
2-[2-(3-Fluorophenyl)ethylamino]acetic acid

>  <IUPAC_CONDENSED>  (2474) 
Ph(3-F)Et-Gly

>  <IUPAC>  (2474) 
2-[2-(3-fluorophenyl)ethylamino]acetic acid

>  <TYPE>  (2474) 
Backbone

>  <CLASS>  (2474) 
alpha

>  <ANALOG>  (2474) 
Gly

>  <MOL_WT>  (2474) 
197.20899999999997

>  <LOGP>  (2474) 
1.0424

>  <TPSA>  (2474) 
49.33

>  <POPULARITY>  (2474) 
2.2

>  <PROTECTED>  (2474) 
TRUE

>  <SMILES>  (2474) 
N(CCc1(cccc(F)c1))CC(=O)O

>  <INCHIKEY>  (2474) 
RLNRGBNIKZLYSN-UHFFFAOYSA-N

$$$$
NPh3OMe-G
     RDKit          2D

 13 13  0  0  0  0  0  0  0  0999 V2000
   -1.2373   -0.4896    0.0000 N   0  0  0  0  0  0  0  0  0  0  0  0
    0.1121    0.1655    0.0000 C   0  0  0  0  0  0  0  0  0  0  0  0
    0.2195    1.6616    0.0000 C   0  0  0  0  0  0  0  0  0  0  0  0
    1.5689    2.3167    0.0000 C   0  0  0  0  0  0  0  0  0  0  0  0
    2.8109    1.4756    0.0000 C   0  0  0  0  0  0  0  0  0  0  0  0
    2.7035   -0.0206    0.0000 C   0  0  0  0  0  0  0  0  0  0  0  0
    3.9455   -0.8617    0.0000 O   0  0  0  0  0  0  0  0  0  0  0  0
    3.8380   -2.3578    0.0000 C   0  0  0  0  0  0  0  0  0  0  0  0
    1.3541   -0.6756    0.0000 C   0  0  0  0  0  0  0  0  0  0  0  0
   -2.4793    0.3515    0.0000 C   0  0  0  0  0  0  0  0  0  0  0  0
   -3.8288   -0.3035    0.0000 C   0  0  0  0  0  0  0  0  0  0  0  0
   -3.9362   -1.7997    0.0000 O   0  0  0  0  0  0  0  0  0  0  0  0
   -5.0707    0.5376    0.0000 O   0  0  0  0  0  0  0  0  0  0  0  0
  1  2  1  0
  2  3  1  0
  3  4  2  0
  4  5  1  0
  5  6  2  0
  6  7  1  0
  7  8  1  0
  6  9  1  0
  1 10  1  0
 10 11  1  0
 11 12  2  0
 11 13  1  0
  9  2  2  0
M  END
>  <rName>  (2475) 
NPh3OMe-G

>  <PQ_SYMBOL>  (2475) 
NPh3OMe-G

>  <FULL_NAME>  (2475) 
2-(3-methoxyanilino)acetic acid

>  <IUPAC_CONDENSED>  (2475) 
N-Ph(3-OMe)-Gly

>  <IUPAC>  (2475) 
2-((3-methoxyphenyl)amino)acetic acid

>  <TYPE>  (2475) 
N-term cap

>  <CLASS>  (2475) 
n_cap

>  <ANALOG>  (2475) 
X

>  <MOL_WT>  (2475) 
181.19099999999997

>  <LOGP>  (2475) 
1.1916999999999998

>  <TPSA>  (2475) 
58.56

>  <POPULARITY>  (2475) 
12.0

>  <PROTECTED>  (2475) 
TRUE

>  <SMILES>  (2475) 
N(c1(cccc(OC)c1))CC(=O)O

>  <INCHIKEY>  (2475) 
SKFZRKRPFROPDR-UHFFFAOYSA-N

$$$$
NPh3OMeEt-G
     RDKit          2D

 15 15  0  0  0  0  0  0  0  0999 V2000
   -2.7163   -0.3626    0.0000 N   0  0  0  0  0  0  0  0  0  0  0  0
   -1.3684    0.2956    0.0000 C   0  0  0  0  0  0  0  0  0  0  0  0
   -0.1245   -0.5427    0.0000 C   0  0  0  0  0  0  0  0  0  0  0  0
    1.2234    0.1155    0.0000 C   0  0  0  0  0  0  0  0  0  0  0  0
    1.3274    1.6119    0.0000 C   0  0  0  0  0  0  0  0  0  0  0  0
    2.6753    2.2700    0.0000 C   0  0  0  0  0  0  0  0  0  0  0  0
    3.9192    1.4317    0.0000 C   0  0  0  0  0  0  0  0  0  0  0  0
    3.8152   -0.0646    0.0000 C   0  0  0  0  0  0  0  0  0  0  0  0
    5.0591   -0.9029    0.0000 O   0  0  0  0  0  0  0  0  0  0  0  0
    4.9551   -2.3993    0.0000 C   0  0  0  0  0  0  0  0  0  0  0  0
    2.4673   -0.7228    0.0000 C   0  0  0  0  0  0  0  0  0  0  0  0
   -3.9603    0.4757    0.0000 C   0  0  0  0  0  0  0  0  0  0  0  0
   -5.3082   -0.1824    0.0000 C   0  0  0  0  0  0  0  0  0  0  0  0
   -5.4122   -1.6788    0.0000 O   0  0  0  0  0  0  0  0  0  0  0  0
   -6.5521    0.6558    0.0000 O   0  0  0  0  0  0  0  0  0  0  0  0
  1  2  1  0
  2  3  1  0
  3  4  1  0
  4  5  1  0
  5  6  2  0
  6  7  1  0
  7  8  2  0
  8  9  1  0
  9 10  1  0
  8 11  1  0
  1 12  1  0
 12 13  1  0
 13 14  2  0
 13 15  1  0
 11  4  2  0
M  END
>  <rName>  (2476) 
NPh3OMeEt-G

>  <PQ_SYMBOL>  (2476) 
NPh3OMeEt-G

>  <FULL_NAME>  (2476) 
2-[2-(3-Methoxyphenyl)ethylamino]acetic acid

>  <IUPAC_CONDENSED>  (2476) 
Ph(3-OMe)Et-Gly

>  <IUPAC>  (2476) 
2-[2-(3-methoxyphenyl)ethylamino]acetic acid

>  <TYPE>  (2476) 
Backbone

>  <CLASS>  (2476) 
alpha

>  <ANALOG>  (2476) 
Gly

>  <MOL_WT>  (2476) 
209.24499999999995

>  <LOGP>  (2476) 
0.9118999999999999

>  <TPSA>  (2476) 
58.56

>  <POPULARITY>  (2476) 
2.2

>  <PROTECTED>  (2476) 
TRUE

>  <SMILES>  (2476) 
N(CCc1(cccc(OC)c1))CC(=O)O

>  <INCHIKEY>  (2476) 
XBAAXBIBYXWEAP-UHFFFAOYSA-N

$$$$
NPh4ClEt-G
     RDKit          2D

 14 14  0  0  0  0  0  0  0  0999 V2000
   -2.4647   -0.3685    0.0000 N   0  0  0  0  0  0  0  0  0  0  0  0
   -1.0308    0.0718    0.0000 C   0  0  0  0  0  0  0  0  0  0  0  0
    0.0675   -0.9499    0.0000 C   0  0  0  0  0  0  0  0  0  0  0  0
    1.5014   -0.5096    0.0000 C   0  0  0  0  0  0  0  0  0  0  0  0
    1.8371    0.9523    0.0000 C   0  0  0  0  0  0  0  0  0  0  0  0
    3.2710    1.3926    0.0000 C   0  0  0  0  0  0  0  0  0  0  0  0
    4.3693    0.3709    0.0000 C   0  0  0  0  0  0  0  0  0  0  0  0
    5.8032    0.8112    0.0000 Cl  0  0  0  0  0  0  0  0  0  0  0  0
    4.0336   -1.0911    0.0000 C   0  0  0  0  0  0  0  0  0  0  0  0
    2.5997   -1.5313    0.0000 C   0  0  0  0  0  0  0  0  0  0  0  0
   -3.5629    0.6532    0.0000 C   0  0  0  0  0  0  0  0  0  0  0  0
   -4.9969    0.2129    0.0000 C   0  0  0  0  0  0  0  0  0  0  0  0
   -5.3325   -1.2490    0.0000 O   0  0  0  0  0  0  0  0  0  0  0  0
   -6.0951    1.2346    0.0000 O   0  0  0  0  0  0  0  0  0  0  0  0
  1  2  1  0
  2  3  1  0
  3  4  1  0
  4  5  1  0
  5  6  2  0
  6  7  1  0
  7  8  1  0
  7  9  2  0
  9 10  1  0
  1 11  1  0
 11 12  1  0
 12 13  2  0
 12 14  1  0
 10  4  2  0
M  END
>  <rName>  (2477) 
NPh4ClEt-G

>  <PQ_SYMBOL>  (2477) 
NPh4ClEt-G

>  <FULL_NAME>  (2477) 
2-[2-(4-chlorophenyl)ethylamino]acetic acid

>  <IUPAC_CONDENSED>  (2477) 
Ph(4-Cl)Et-Gly

>  <IUPAC>  (2477) 
2-((2-(4-chlorophenyl)ethyl)amino)acetic acid

>  <TYPE>  (2477) 
Backbone

>  <CLASS>  (2477) 
alpha

>  <ANALOG>  (2477) 
Gly

>  <MOL_WT>  (2477) 
213.664

>  <LOGP>  (2477) 
1.5567000000000002

>  <TPSA>  (2477) 
49.33

>  <POPULARITY>  (2477) 
12.4

>  <PROTECTED>  (2477) 
TRUE

>  <SMILES>  (2477) 
N(CCc1(ccc(Cl)cc1))CC(=O)O

>  <INCHIKEY>  (2477) 
VGCRGRLGFZKPIU-UHFFFAOYSA-N

$$$$
NPh4FEt-G
     RDKit          2D

 14 14  0  0  0  0  0  0  0  0999 V2000
   -2.4647   -0.3685    0.0000 N   0  0  0  0  0  0  0  0  0  0  0  0
   -1.0308    0.0718    0.0000 C   0  0  0  0  0  0  0  0  0  0  0  0
    0.0675   -0.9499    0.0000 C   0  0  0  0  0  0  0  0  0  0  0  0
    1.5014   -0.5096    0.0000 C   0  0  0  0  0  0  0  0  0  0  0  0
    1.8371    0.9523    0.0000 C   0  0  0  0  0  0  0  0  0  0  0  0
    3.2710    1.3926    0.0000 C   0  0  0  0  0  0  0  0  0  0  0  0
    4.3693    0.3709    0.0000 C   0  0  0  0  0  0  0  0  0  0  0  0
    5.8032    0.8112    0.0000 F   0  0  0  0  0  0  0  0  0  0  0  0
    4.0336   -1.0911    0.0000 C   0  0  0  0  0  0  0  0  0  0  0  0
    2.5997   -1.5313    0.0000 C   0  0  0  0  0  0  0  0  0  0  0  0
   -3.5629    0.6532    0.0000 C   0  0  0  0  0  0  0  0  0  0  0  0
   -4.9969    0.2129    0.0000 C   0  0  0  0  0  0  0  0  0  0  0  0
   -5.3325   -1.2490    0.0000 O   0  0  0  0  0  0  0  0  0  0  0  0
   -6.0951    1.2346    0.0000 O   0  0  0  0  0  0  0  0  0  0  0  0
  1  2  1  0
  2  3  1  0
  3  4  1  0
  4  5  1  0
  5  6  2  0
  6  7  1  0
  7  8  1  0
  7  9  2  0
  9 10  1  0
  1 11  1  0
 11 12  1  0
 12 13  2  0
 12 14  1  0
 10  4  2  0
M  END
>  <rName>  (2478) 
NPh4FEt-G

>  <PQ_SYMBOL>  (2478) 
NPh4FEt-G

>  <FULL_NAME>  (2478) 
2-[2-(4-Fluorophenyl)ethylamino]acetic acid

>  <IUPAC_CONDENSED>  (2478) 
Ph(4-F)Et-Gly

>  <IUPAC>  (2478) 
2-[2-(4-fluorophenyl)ethylamino]acetic acid

>  <TYPE>  (2478) 
Backbone

>  <CLASS>  (2478) 
alpha

>  <ANALOG>  (2478) 
Gly

>  <MOL_WT>  (2478) 
197.20899999999997

>  <LOGP>  (2478) 
1.0424

>  <TPSA>  (2478) 
49.33

>  <POPULARITY>  (2478) 
2.2

>  <PROTECTED>  (2478) 
TRUE

>  <SMILES>  (2478) 
N(CCc1(ccc(F)cc1))CC(=O)O

>  <INCHIKEY>  (2478) 
RMAOEWZUWPQTNB-UHFFFAOYSA-N

$$$$
NPh4OHEt-G
     RDKit          2D

 14 14  0  0  0  0  0  0  0  0999 V2000
   -2.4647   -0.3685    0.0000 N   0  0  0  0  0  0  0  0  0  0  0  0
   -1.0308    0.0718    0.0000 C   0  0  0  0  0  0  0  0  0  0  0  0
    0.0675   -0.9499    0.0000 C   0  0  0  0  0  0  0  0  0  0  0  0
    1.5014   -0.5096    0.0000 C   0  0  0  0  0  0  0  0  0  0  0  0
    1.8371    0.9523    0.0000 C   0  0  0  0  0  0  0  0  0  0  0  0
    3.2710    1.3926    0.0000 C   0  0  0  0  0  0  0  0  0  0  0  0
    4.3693    0.3709    0.0000 C   0  0  0  0  0  0  0  0  0  0  0  0
    5.8032    0.8112    0.0000 O   0  0  0  0  0  0  0  0  0  0  0  0
    4.0336   -1.0911    0.0000 C   0  0  0  0  0  0  0  0  0  0  0  0
    2.5997   -1.5313    0.0000 C   0  0  0  0  0  0  0  0  0  0  0  0
   -3.5629    0.6532    0.0000 C   0  0  0  0  0  0  0  0  0  0  0  0
   -4.9969    0.2129    0.0000 C   0  0  0  0  0  0  0  0  0  0  0  0
   -5.3325   -1.2490    0.0000 O   0  0  0  0  0  0  0  0  0  0  0  0
   -6.0951    1.2346    0.0000 O   0  0  0  0  0  0  0  0  0  0  0  0
  1  2  1  0
  2  3  1  0
  3  4  1  0
  4  5  1  0
  5  6  2  0
  6  7  1  0
  7  8  1  0
  7  9  2  0
  9 10  1  0
  1 11  1  0
 11 12  1  0
 12 13  2  0
 12 14  1  0
 10  4  2  0
M  END
>  <rName>  (2479) 
NPh4OHEt-G

>  <PQ_SYMBOL>  (2479) 
NPh4OHEt-G

>  <FULL_NAME>  (2479) 
2-[2-(4-hydroxyphenyl)ethylamino]acetic acid

>  <IUPAC_CONDENSED>  (2479) 
Ph(4-OH)Et-Gly

>  <IUPAC>  (2479) 
2-((2-(4-hydroxyphenyl)ethyl)amino)acetic acid

>  <TYPE>  (2479) 
Backbone

>  <CLASS>  (2479) 
alpha

>  <ANALOG>  (2479) 
Gly

>  <MOL_WT>  (2479) 
195.21799999999996

>  <LOGP>  (2479) 
0.6089

>  <TPSA>  (2479) 
69.56

>  <POPULARITY>  (2479) 
22.1

>  <PROTECTED>  (2479) 
TRUE

>  <SMILES>  (2479) 
N(CCc1(ccc(O)cc1))CC(=O)O

>  <INCHIKEY>  (2479) 
CNIWLQLCALZLEQ-UHFFFAOYSA-N

$$$$
NPh4OMe-G
     RDKit          2D

 13 13  0  0  0  0  0  0  0  0999 V2000
   -1.5645   -0.6643    0.0000 N   0  0  0  0  0  0  0  0  0  0  0  0
   -0.1021   -0.3308    0.0000 C   0  0  0  0  0  0  0  0  0  0  0  0
    0.3403    1.1025    0.0000 C   0  0  0  0  0  0  0  0  0  0  0  0
    1.8028    1.4360    0.0000 C   0  0  0  0  0  0  0  0  0  0  0  0
    2.8228    0.3363    0.0000 C   0  0  0  0  0  0  0  0  0  0  0  0
    4.2853    0.6698    0.0000 O   0  0  0  0  0  0  0  0  0  0  0  0
    5.3053   -0.4300    0.0000 C   0  0  0  0  0  0  0  0  0  0  0  0
    2.3804   -1.0970    0.0000 C   0  0  0  0  0  0  0  0  0  0  0  0
    0.9180   -1.4305    0.0000 C   0  0  0  0  0  0  0  0  0  0  0  0
   -2.5846    0.4355    0.0000 C   0  0  0  0  0  0  0  0  0  0  0  0
   -4.0471    0.1020    0.0000 C   0  0  0  0  0  0  0  0  0  0  0  0
   -4.4894   -1.3313    0.0000 O   0  0  0  0  0  0  0  0  0  0  0  0
   -5.0671    1.2017    0.0000 O   0  0  0  0  0  0  0  0  0  0  0  0
  1  2  1  0
  2  3  1  0
  3  4  2  0
  4  5  1  0
  5  6  1  0
  6  7  1  0
  5  8  2  0
  8  9  1  0
  1 10  1  0
 10 11  1  0
 11 12  2  0
 11 13  1  0
  9  2  2  0
M  END
>  <rName>  (2480) 
NPh4OMe-G

>  <PQ_SYMBOL>  (2480) 
NPh4OMe-G

>  <FULL_NAME>  (2480) 
2-(4-methoxyanilino)acetic acid

>  <IUPAC_CONDENSED>  (2480) 
N-Ph(4-OMe)-Gly

>  <IUPAC>  (2480) 
2-((4-methoxyphenyl)amino)acetic acid

>  <TYPE>  (2480) 
N-term cap

>  <CLASS>  (2480) 
n_cap

>  <ANALOG>  (2480) 
X

>  <MOL_WT>  (2480) 
181.19099999999997

>  <LOGP>  (2480) 
1.1917

>  <TPSA>  (2480) 
58.56

>  <POPULARITY>  (2480) 
12.6

>  <PROTECTED>  (2480) 
TRUE

>  <SMILES>  (2480) 
N(c1(ccc(OC)cc1))CC(=O)O

>  <INCHIKEY>  (2480) 
NJVJSULZTHOJGT-UHFFFAOYSA-N

$$$$
NPh4OMeEt-G
     RDKit          2D

 15 15  0  0  0  0  0  0  0  0999 V2000
   -2.9227   -0.3713    0.0000 N   0  0  0  0  0  0  0  0  0  0  0  0
   -1.4913    0.0772    0.0000 C   0  0  0  0  0  0  0  0  0  0  0  0
   -0.3872   -0.9381    0.0000 C   0  0  0  0  0  0  0  0  0  0  0  0
    1.0442   -0.4896    0.0000 C   0  0  0  0  0  0  0  0  0  0  0  0
    1.3714    0.9743    0.0000 C   0  0  0  0  0  0  0  0  0  0  0  0
    2.8028    1.4228    0.0000 C   0  0  0  0  0  0  0  0  0  0  0  0
    3.9069    0.4075    0.0000 C   0  0  0  0  0  0  0  0  0  0  0  0
    5.3383    0.8560    0.0000 O   0  0  0  0  0  0  0  0  0  0  0  0
    6.4424   -0.1593    0.0000 C   0  0  0  0  0  0  0  0  0  0  0  0
    3.5797   -1.0564    0.0000 C   0  0  0  0  0  0  0  0  0  0  0  0
    2.1483   -1.5049    0.0000 C   0  0  0  0  0  0  0  0  0  0  0  0
   -4.0268    0.6440    0.0000 C   0  0  0  0  0  0  0  0  0  0  0  0
   -5.4582    0.1955    0.0000 C   0  0  0  0  0  0  0  0  0  0  0  0
   -5.7854   -1.2684    0.0000 O   0  0  0  0  0  0  0  0  0  0  0  0
   -6.5623    1.2108    0.0000 O   0  0  0  0  0  0  0  0  0  0  0  0
  1  2  1  0
  2  3  1  0
  3  4  1  0
  4  5  1  0
  5  6  2  0
  6  7  1  0
  7  8  1  0
  8  9  1  0
  7 10  2  0
 10 11  1  0
  1 12  1  0
 12 13  1  0
 13 14  2  0
 13 15  1  0
 11  4  2  0
M  END
>  <rName>  (2481) 
NPh4OMeEt-G

>  <PQ_SYMBOL>  (2481) 
NPh4OMeEt-G

>  <FULL_NAME>  (2481) 
2-[2-(4-methoxyphenyl)ethylamino]acetic acid

>  <IUPAC_CONDENSED>  (2481) 
Ph(4-OMe)Et-Gly

>  <IUPAC>  (2481) 
2-((2-(4-methoxyphenyl)ethyl)amino)acetic acid

>  <TYPE>  (2481) 
Backbone

>  <CLASS>  (2481) 
alpha

>  <ANALOG>  (2481) 
Gly

>  <MOL_WT>  (2481) 
209.24499999999998

>  <LOGP>  (2481) 
0.9118999999999999

>  <TPSA>  (2481) 
58.56

>  <POPULARITY>  (2481) 
14.6

>  <PROTECTED>  (2481) 
TRUE

>  <SMILES>  (2481) 
N(CCc1(ccc(OC)cc1))CC(=O)O

>  <INCHIKEY>  (2481) 
GYOOOIWLBRGIME-UHFFFAOYSA-N

$$$$
NPhEt-G
     RDKit          2D

 13 13  0  0  0  0  0  0  0  0999 V2000
   -2.0072   -0.3719    0.0000 N   0  0  0  0  0  0  0  0  0  0  0  0
   -0.5884    0.1150    0.0000 C   0  0  0  0  0  0  0  0  0  0  0  0
    0.5426   -0.8703    0.0000 C   0  0  0  0  0  0  0  0  0  0  0  0
    1.9614   -0.3834    0.0000 C   0  0  0  0  0  0  0  0  0  0  0  0
    2.2491    1.0888    0.0000 C   0  0  0  0  0  0  0  0  0  0  0  0
    3.6679    1.5757    0.0000 C   0  0  0  0  0  0  0  0  0  0  0  0
    4.7990    0.5904    0.0000 C   0  0  0  0  0  0  0  0  0  0  0  0
    4.5112   -0.8817    0.0000 C   0  0  0  0  0  0  0  0  0  0  0  0
    3.0925   -1.3686    0.0000 C   0  0  0  0  0  0  0  0  0  0  0  0
   -3.1382    0.6134    0.0000 C   0  0  0  0  0  0  0  0  0  0  0  0
   -4.5570    0.1265    0.0000 C   0  0  0  0  0  0  0  0  0  0  0  0
   -4.8448   -1.3456    0.0000 O   0  0  0  0  0  0  0  0  0  0  0  0
   -5.6881    1.1118    0.0000 O   0  0  0  0  0  0  0  0  0  0  0  0
  1  2  1  0
  2  3  1  0
  3  4  1  0
  4  5  2  0
  5  6  1  0
  6  7  2  0
  7  8  1  0
  8  9  2  0
  1 10  1  0
 10 11  1  0
 11 12  2  0
 11 13  1  0
  9  4  1  0
M  END
>  <rName>  (2482) 
NPhEt-G

>  <PQ_SYMBOL>  (2482) 
NPhEt-G

>  <FULL_NAME>  (2482) 
N-(2-phenylethyl)-glycine

>  <IUPAC_CONDENSED>  (2482) 
PhEt-Gly

>  <IUPAC>  (2482) 
2-((2-phenylethyl)amino)acetic acid

>  <TYPE>  (2482) 
Backbone

>  <CLASS>  (2482) 
alpha

>  <ANALOG>  (2482) 
Gly

>  <MOL_WT>  (2482) 
179.21899999999994

>  <LOGP>  (2482) 
0.9033000000000002

>  <TPSA>  (2482) 
49.33

>  <POPULARITY>  (2482) 
26.8

>  <PROTECTED>  (2482) 
TRUE

>  <SMILES>  (2482) 
N(CCc1(ccccc1))CC(=O)O

>  <INCHIKEY>  (2482) 
UHNMIDKSDRGICN-UHFFFAOYSA-N

$$$$
NPhOEt-G
     RDKit          2D

 14 14  0  0  0  0  0  0  0  0999 V2000
   -2.6069    0.0059    0.0000 N   0  0  0  0  0  0  0  0  0  0  0  0
   -1.3758   -0.8511    0.0000 C   0  0  0  0  0  0  0  0  0  0  0  0
   -0.0181   -0.2135    0.0000 C   0  0  0  0  0  0  0  0  0  0  0  0
    1.2129   -1.0706    0.0000 O   0  0  0  0  0  0  0  0  0  0  0  0
    2.5707   -0.4330    0.0000 C   0  0  0  0  0  0  0  0  0  0  0  0
    2.6974    1.0617    0.0000 C   0  0  0  0  0  0  0  0  0  0  0  0
    4.0551    1.6993    0.0000 C   0  0  0  0  0  0  0  0  0  0  0  0
    5.2862    0.8422    0.0000 C   0  0  0  0  0  0  0  0  0  0  0  0
    5.1595   -0.6524    0.0000 C   0  0  0  0  0  0  0  0  0  0  0  0
    3.8017   -1.2900    0.0000 C   0  0  0  0  0  0  0  0  0  0  0  0
   -3.9646   -0.6317    0.0000 C   0  0  0  0  0  0  0  0  0  0  0  0
   -5.1957    0.2254    0.0000 C   0  0  0  0  0  0  0  0  0  0  0  0
   -5.0690    1.7200    0.0000 O   0  0  0  0  0  0  0  0  0  0  0  0
   -6.5534   -0.4122    0.0000 O   0  0  0  0  0  0  0  0  0  0  0  0
  1  2  1  0
  2  3  1  0
  3  4  1  0
  4  5  1  0
  5  6  2  0
  6  7  1  0
  7  8  2  0
  8  9  1  0
  9 10  2  0
  1 11  1  0
 11 12  1  0
 12 13  2  0
 12 14  1  0
 10  5  1  0
M  END
>  <rName>  (2483) 
NPhOEt-G

>  <PQ_SYMBOL>  (2483) 
NPhOEt-G

>  <FULL_NAME>  (2483) 
2-(2-phenoxyethylamino)acetic acid

>  <IUPAC_CONDENSED>  (2483) 
PhOEt-Gly

>  <IUPAC>  (2483) 
2-((2-phenoxyethyl)amino)acetic acid

>  <TYPE>  (2483) 
Backbone

>  <CLASS>  (2483) 
alpha

>  <ANALOG>  (2483) 
Gly

>  <MOL_WT>  (2483) 
195.21799999999996

>  <LOGP>  (2483) 
0.7396

>  <TPSA>  (2483) 
58.56

>  <POPULARITY>  (2483) 
12.6

>  <PROTECTED>  (2483) 
TRUE

>  <SMILES>  (2483) 
N(CCOc1(ccccc1))CC(=O)O

>  <INCHIKEY>  (2483) 
XVIGHCOSDJCNCI-UHFFFAOYSA-N

$$$$
NPhPr-G
     RDKit          2D

 14 14  0  0  0  0  0  0  0  0999 V2000
   -2.6069    0.0059    0.0000 N   0  0  0  0  0  0  0  0  0  0  0  0
   -1.3758   -0.8511    0.0000 C   0  0  0  0  0  0  0  0  0  0  0  0
   -0.0181   -0.2135    0.0000 C   0  0  0  0  0  0  0  0  0  0  0  0
    1.2129   -1.0706    0.0000 C   0  0  0  0  0  0  0  0  0  0  0  0
    2.5707   -0.4330    0.0000 C   0  0  0  0  0  0  0  0  0  0  0  0
    2.6974    1.0617    0.0000 C   0  0  0  0  0  0  0  0  0  0  0  0
    4.0551    1.6993    0.0000 C   0  0  0  0  0  0  0  0  0  0  0  0
    5.2862    0.8422    0.0000 C   0  0  0  0  0  0  0  0  0  0  0  0
    5.1595   -0.6524    0.0000 C   0  0  0  0  0  0  0  0  0  0  0  0
    3.8017   -1.2900    0.0000 C   0  0  0  0  0  0  0  0  0  0  0  0
   -3.9646   -0.6317    0.0000 C   0  0  0  0  0  0  0  0  0  0  0  0
   -5.1957    0.2254    0.0000 C   0  0  0  0  0  0  0  0  0  0  0  0
   -5.0690    1.7200    0.0000 O   0  0  0  0  0  0  0  0  0  0  0  0
   -6.5534   -0.4122    0.0000 O   0  0  0  0  0  0  0  0  0  0  0  0
  1  2  1  0
  2  3  1  0
  3  4  1  0
  4  5  1  0
  5  6  2  0
  6  7  1  0
  7  8  2  0
  8  9  1  0
  9 10  2  0
  1 11  1  0
 11 12  1  0
 12 13  2  0
 12 14  1  0
 10  5  1  0
M  END
>  <rName>  (2484) 
NPhPr-G

>  <PQ_SYMBOL>  (2484) 
NPhPr-G

>  <FULL_NAME>  (2484) 
2-(3-phenylpropylamino)acetic acid

>  <IUPAC_CONDENSED>  (2484) 
PhPr-Gly

>  <IUPAC>  (2484) 
2-((3-phenylpropyl)amino)acetic acid

>  <TYPE>  (2484) 
Backbone

>  <CLASS>  (2484) 
alpha

>  <ANALOG>  (2484) 
Gly

>  <MOL_WT>  (2484) 
193.24599999999995

>  <LOGP>  (2484) 
1.2934

>  <TPSA>  (2484) 
49.33

>  <POPULARITY>  (2484) 
20.5

>  <PROTECTED>  (2484) 
TRUE

>  <SMILES>  (2484) 
N(CCCc1(ccccc1))CC(=O)O

>  <INCHIKEY>  (2484) 
HZQYNBVUODRYSW-UHFFFAOYSA-N

$$$$
NPr-G
     RDKit          2D

  8  7  0  0  0  0  0  0  0  0999 V2000
   -0.3069    0.2155    0.0000 N   0  0  0  0  0  0  0  0  0  0  0  0
   -1.6672   -0.4165    0.0000 C   0  0  0  0  0  0  0  0  0  0  0  0
   -2.8948    0.4455    0.0000 C   0  0  0  0  0  0  0  0  0  0  0  0
   -4.2551   -0.1865    0.0000 C   0  0  0  0  0  0  0  0  0  0  0  0
    0.9207   -0.6465    0.0000 C   0  0  0  0  0  0  0  0  0  0  0  0
    2.2810   -0.0145    0.0000 C   0  0  0  0  0  0  0  0  0  0  0  0
    2.4138    1.4796    0.0000 O   0  0  0  0  0  0  0  0  0  0  0  0
    3.5085   -0.8766    0.0000 O   0  0  0  0  0  0  0  0  0  0  0  0
  1  2  1  0
  2  3  1  0
  3  4  1  0
  1  5  1  0
  5  6  1  0
  6  7  2  0
  6  8  1  0
M  END
>  <rName>  (2485) 
NPr-G

>  <PQ_SYMBOL>  (2485) 
NPr-G

>  <FULL_NAME>  (2485) 
2-(propylamino)acetic acid

>  <IUPAC_CONDENSED>  (2485) 
Pr-Gly

>  <IUPAC>  (2485) 
2-(propylamino)acetic acid

>  <TYPE>  (2485) 
Backbone

>  <CLASS>  (2485) 
alpha

>  <ANALOG>  (2485) 
Gly

>  <MOL_WT>  (2485) 
117.14799999999998

>  <LOGP>  (2485) 
0.07059999999999994

>  <TPSA>  (2485) 
49.33

>  <POPULARITY>  (2485) 
25.5

>  <PROTECTED>  (2485) 
TRUE

>  <SMILES>  (2485) 
N(CCC)CC(=O)O

>  <INCHIKEY>  (2485) 
BHUGZIJOVAVBOQ-UHFFFAOYSA-N

$$$$
NPr-bAla
     RDKit          2D

  9  8  0  0  0  0  0  0  0  0999 V2000
    1.0358   -0.5368    0.0000 N   0  0  0  0  0  0  0  0  0  0  0  0
    2.2994    0.2714    0.0000 C   0  0  0  0  0  0  0  0  0  0  0  0
    3.6312   -0.4188    0.0000 C   0  0  0  0  0  0  0  0  0  0  0  0
    4.8948    0.3895    0.0000 C   0  0  0  0  0  0  0  0  0  0  0  0
   -0.2960    0.1534    0.0000 C   0  0  0  0  0  0  0  0  0  0  0  0
   -1.5596   -0.6549    0.0000 C   0  0  0  0  0  0  0  0  0  0  0  0
   -2.8913    0.0353    0.0000 C   0  0  0  0  0  0  0  0  0  0  0  0
   -2.9595    1.5338    0.0000 O   0  0  0  0  0  0  0  0  0  0  0  0
   -4.1550   -0.7729    0.0000 O   0  0  0  0  0  0  0  0  0  0  0  0
  1  2  1  0
  2  3  1  0
  3  4  1  0
  1  5  1  0
  5  6  1  0
  6  7  1  0
  7  8  2  0
  7  9  1  0
M  END
>  <rName>  (2486) 
NPr-bAla

>  <PQ_SYMBOL>  (2486) 
NPr-bAla

>  <FULL_NAME>  (2486) 
3-(Propylamino)propanoic acid

>  <IUPAC_CONDENSED>  (2486) 
Pr-bAla

>  <IUPAC>  (2486) 
3-(propylamino)propanoic acid

>  <TYPE>  (2486) 
Backbone

>  <CLASS>  (2486) 
beta

>  <ANALOG>  (2486) 
Gly

>  <MOL_WT>  (2486) 
131.175

>  <LOGP>  (2486) 
0.46069999999999983

>  <TPSA>  (2486) 
49.33

>  <POPULARITY>  (2486) 
17.6

>  <PROTECTED>  (2486) 
TRUE

>  <SMILES>  (2486) 
N(CCC)CCC(=O)O

>  <INCHIKEY>  (2486) 
IRIOFUVLMGOLFE-UHFFFAOYSA-N

$$$$
NPrN3-G
     RDKit          2D

 11 10  0  0  0  0  0  0  0  0999 V2000
    1.5608   -0.1929    0.0000 N   0  0  0  0  0  0  0  0  0  0  0  0
    0.1961    0.4298    0.0000 C   0  0  0  0  0  0  0  0  0  0  0  0
   -1.0255   -0.4408    0.0000 C   0  0  0  0  0  0  0  0  0  0  0  0
   -2.3901    0.1819    0.0000 C   0  0  0  0  0  0  0  0  0  0  0  0
   -3.6117   -0.6887    0.0000 N   0  0  0  0  0  0  0  0  0  0  0  0
   -4.9764   -0.0660    0.0000 N   0  0  0  0  0  0  0  0  0  0  0  0
   -6.3410    0.5566    0.0000 N   0  0  0  0  0  0  0  0  0  0  0  0
    2.7823    0.6777    0.0000 C   0  0  0  0  0  0  0  0  0  0  0  0
    4.1470    0.0550    0.0000 C   0  0  0  0  0  0  0  0  0  0  0  0
    4.2901   -1.4381    0.0000 O   0  0  0  0  0  0  0  0  0  0  0  0
    5.3685    0.9256    0.0000 O   0  0  0  0  0  0  0  0  0  0  0  0
  1  2  1  0
  2  3  1  0
  3  4  1  0
  4  5  1  0
  5  6  2  0
  6  7  2  0
  1  8  1  0
  8  9  1  0
  9 10  2  0
  9 11  1  0
M  CHG  2   6   1   7  -1
M  END
>  <rName>  (2487) 
NPrN3-G

>  <PQ_SYMBOL>  (2487) 
NPrN3-G

>  <FULL_NAME>  (2487) 
N-(azidopropyl)glycine

>  <IUPAC_CONDENSED>  (2487) 
PrN3-Gly

>  <IUPAC>  (2487) 
2-((3-azidopropyl)amino)acetic acid

>  <TYPE>  (2487) 
Backbone

>  <CLASS>  (2487) 
alpha

>  <ANALOG>  (2487) 
Gly

>  <MOL_WT>  (2487) 
158.161

>  <LOGP>  (2487) 
0.36100000000000015

>  <TPSA>  (2487) 
98.09000000000002

>  <POPULARITY>  (2487) 
5.1

>  <PROTECTED>  (2487) 
TRUE

>  <SMILES>  (2487) 
N(CCCN=[N+]=[N-])CC(=O)O

>  <INCHIKEY>  (2487) 
HZOVOMITNORWLQ-UHFFFAOYSA-N

$$$$
NPrNH2-G
     RDKit          2D

  9  8  0  0  0  0  0  0  0  0999 V2000
    0.2960   -0.1534    0.0000 N   0  0  0  0  0  0  0  0  0  0  0  0
   -1.0358    0.5368    0.0000 C   0  0  0  0  0  0  0  0  0  0  0  0
   -2.2994   -0.2714    0.0000 C   0  0  0  0  0  0  0  0  0  0  0  0
   -3.6312    0.4188    0.0000 C   0  0  0  0  0  0  0  0  0  0  0  0
   -4.8948   -0.3895    0.0000 N   0  0  0  0  0  0  0  0  0  0  0  0
    1.5596    0.6549    0.0000 C   0  0  0  0  0  0  0  0  0  0  0  0
    2.8913   -0.0353    0.0000 C   0  0  0  0  0  0  0  0  0  0  0  0
    2.9595   -1.5338    0.0000 O   0  0  0  0  0  0  0  0  0  0  0  0
    4.1550    0.7729    0.0000 O   0  0  0  0  0  0  0  0  0  0  0  0
  1  2  1  0
  2  3  1  0
  3  4  1  0
  4  5  1  0
  1  6  1  0
  6  7  1  0
  7  8  2  0
  7  9  1  0
M  END
>  <rName>  (2488) 
NPrNH2-G

>  <PQ_SYMBOL>  (2488) 
NPrNH2-G

>  <FULL_NAME>  (2488) 
N-(3-aminopropyl)-Glycine

>  <IUPAC_CONDENSED>  (2488) 
H2NPr-Gly

>  <IUPAC>  (2488) 
2-((3-aminopropyl)amino)acetic acid

>  <TYPE>  (2488) 
Backbone

>  <CLASS>  (2488) 
alpha

>  <ANALOG>  (2488) 
Gly

>  <MOL_WT>  (2488) 
132.163

>  <LOGP>  (2488) 
-0.9905999999999995

>  <TPSA>  (2488) 
75.35

>  <POPULARITY>  (2488) 
24.1

>  <PROTECTED>  (2488) 
TRUE

>  <SMILES>  (2488) 
N(CCCN)CC(=O)O

>  <INCHIKEY>  (2488) 
DHGYLUFLENKZHH-UHFFFAOYSA-N

$$$$
N_1PhEtS-G
     RDKit          2D

 13 13  0  0  0  0  0  0  0  0999 V2000
    1.2042    0.0331    0.0000 N   0  0  0  0  0  0  0  0  0  0  0  0
    0.0074   -0.8711    0.0000 C   0  0  0  0  0  0  0  0  0  0  0  0
    0.1920   -2.3597    0.0000 C   0  0  0  0  0  0  0  0  0  0  0  0
   -1.3741   -0.2867    0.0000 C   0  0  0  0  0  0  0  0  0  0  0  0
   -2.5709   -1.1910    0.0000 C   0  0  0  0  0  0  0  0  0  0  0  0
   -3.9524   -0.6066    0.0000 C   0  0  0  0  0  0  0  0  0  0  0  0
   -4.1371    0.8820    0.0000 C   0  0  0  0  0  0  0  0  0  0  0  0
   -2.9403    1.7862    0.0000 C   0  0  0  0  0  0  0  0  0  0  0  0
   -1.5588    1.2019    0.0000 C   0  0  0  0  0  0  0  0  0  0  0  0
    2.5857   -0.5512    0.0000 C   0  0  0  0  0  0  0  0  0  0  0  0
    3.7825    0.3530    0.0000 C   0  0  0  0  0  0  0  0  0  0  0  0
    3.5978    1.8416    0.0000 O   0  0  0  0  0  0  0  0  0  0  0  0
    5.1640   -0.2314    0.0000 O   0  0  0  0  0  0  0  0  0  0  0  0
  1  2  1  0
  2  3  1  1
  2  4  1  0
  4  5  2  0
  5  6  1  0
  6  7  2  0
  7  8  1  0
  8  9  2  0
  1 10  1  0
 10 11  1  0
 11 12  2  0
 11 13  1  0
  9  4  1  0
M  END
>  <rName>  (2489) 
N_1PhEtS-G

>  <PQ_SYMBOL>  (2489) 
N_1PhEtS-G

>  <FULL_NAME>  (2489) 
(S)-[(1-Phenylethyl)amino]acetic acid

>  <IUPAC_CONDENSED>  (2489) 
1-PhEt(S)-Gly

>  <IUPAC>  (2489) 
2-(((1S)-1-phenylethyl)amino)acetic acid

>  <TYPE>  (2489) 
Backbone

>  <CLASS>  (2489) 
alpha

>  <ANALOG>  (2489) 
Gly

>  <MOL_WT>  (2489) 
179.21899999999994

>  <LOGP>  (2489) 
1.4218

>  <TPSA>  (2489) 
49.33

>  <POPULARITY>  (2489) 
22.0

>  <PROTECTED>  (2489) 
TRUE

>  <SMILES>  (2489) 
N([C@@H](C)c1(ccccc1))CC(=O)O

>  <INCHIKEY>  (2489) 
RFEBVEWGRABHPU-QMMMGPOBSA-N

$$$$
N_2OH2Mepropyl-G
     RDKit          2D

 10  9  0  0  0  0  0  0  0  0999 V2000
   -0.2598    0.0000    0.0000 N   0  0  0  0  0  0  0  0  0  0  0  0
    1.0392    0.7500    0.0000 C   0  0  0  0  0  0  0  0  0  0  0  0
    2.3383    0.0000    0.0000 C   0  0  0  0  0  0  0  0  0  0  0  0
    3.6373   -0.7500    0.0000 O   0  0  0  0  0  0  0  0  0  0  0  0
    3.0883    1.2990    0.0000 C   0  0  0  0  0  0  0  0  0  0  0  0
    1.5883   -1.2990    0.0000 C   0  0  0  0  0  0  0  0  0  0  0  0
   -1.5588    0.7500    0.0000 C   0  0  0  0  0  0  0  0  0  0  0  0
   -2.8579    0.0000    0.0000 C   0  0  0  0  0  0  0  0  0  0  0  0
   -2.8579   -1.5000    0.0000 O   0  0  0  0  0  0  0  0  0  0  0  0
   -4.1569    0.7500    0.0000 O   0  0  0  0  0  0  0  0  0  0  0  0
  1  2  1  0
  2  3  1  0
  3  4  1  0
  3  5  1  0
  3  6  1  0
  1  7  1  0
  7  8  1  0
  8  9  2  0
  8 10  1  0
M  END
>  <rName>  (2490) 
N_2OH2Mepropyl-G

>  <PQ_SYMBOL>  (2490) 
N_2OH2Mepropyl-G

>  <FULL_NAME>  (2490) 
2-[(2-Hydroxy-2-methylpropyl)amino]acetic acid

>  <IUPAC_CONDENSED>  (2490) 
2-OH-2-Me-propyl-Gly

>  <IUPAC>  (2490) 
2-((2-hydroxy-2-methylpropyl)amino)acetic acid

>  <TYPE>  (2490) 
Backbone

>  <CLASS>  (2490) 
alpha

>  <ANALOG>  (2490) 
Gly

>  <MOL_WT>  (2490) 
147.174

>  <LOGP>  (2490) 
-0.5685000000000007

>  <TPSA>  (2490) 
69.56

>  <POPULARITY>  (2490) 
11.8

>  <PROTECTED>  (2490) 
TRUE

>  <SMILES>  (2490) 
N(CC(O)(C)C)CC(=O)O

>  <INCHIKEY>  (2490) 
LKBMJLBTAAOAMP-UHFFFAOYSA-N

$$$$
N_2cyanoethyl-G
     RDKit          2D

  9  8  0  0  0  0  0  0  0  0999 V2000
    0.3328   -0.2893    0.0000 N   0  0  0  0  0  0  0  0  0  0  0  0
   -1.0590    0.2701    0.0000 C   0  0  0  0  0  0  0  0  0  0  0  0
   -2.2394   -0.6555    0.0000 C   0  0  0  0  0  0  0  0  0  0  0  0
   -3.6311   -0.0961    0.0000 C   0  0  0  0  0  0  0  0  0  0  0  0
   -5.0229    0.4634    0.0000 N   0  0  0  0  0  0  0  0  0  0  0  0
    1.5131    0.6363    0.0000 C   0  0  0  0  0  0  0  0  0  0  0  0
    2.9049    0.0769    0.0000 C   0  0  0  0  0  0  0  0  0  0  0  0
    3.1163   -1.4082    0.0000 O   0  0  0  0  0  0  0  0  0  0  0  0
    4.0853    1.0025    0.0000 O   0  0  0  0  0  0  0  0  0  0  0  0
  1  2  1  0
  2  3  1  0
  3  4  1  0
  4  5  3  0
  1  6  1  0
  6  7  1  0
  7  8  2  0
  7  9  1  0
M  END
>  <rName>  (2491) 
N_2cyanoethyl-G

>  <PQ_SYMBOL>  (2491) 
N_2cyanoethyl-G

>  <FULL_NAME>  (2491) 
N-(2-cyanoethyl)glycine

>  <IUPAC_CONDENSED>  (2491) 
2-cyanoethyl-Gly

>  <IUPAC>  (2491) 
2-((3-nitrilopropyl)amino)acetic acid

>  <TYPE>  (2491) 
Backbone

>  <CLASS>  (2491) 
alpha

>  <ANALOG>  (2491) 
Gly

>  <MOL_WT>  (2491) 
128.131

>  <LOGP>  (2491) 
-0.42572000000000015

>  <TPSA>  (2491) 
73.12

>  <POPULARITY>  (2491) 
10.4

>  <PROTECTED>  (2491) 
TRUE

>  <SMILES>  (2491) 
N(CCC#N)CC(=O)O

>  <INCHIKEY>  (2491) 
KZUBZCHAWPDYQX-UHFFFAOYSA-N

$$$$
N_2fluoroethyl-G
     RDKit          2D

  8  7  0  0  0  0  0  0  0  0999 V2000
   -0.3069   -0.2155    0.0000 N   0  0  0  0  0  0  0  0  0  0  0  0
   -1.6672    0.4165    0.0000 C   0  0  0  0  0  0  0  0  0  0  0  0
   -2.8948   -0.4455    0.0000 C   0  0  0  0  0  0  0  0  0  0  0  0
   -4.2551    0.1865    0.0000 F   0  0  0  0  0  0  0  0  0  0  0  0
    0.9207    0.6465    0.0000 C   0  0  0  0  0  0  0  0  0  0  0  0
    2.2810    0.0145    0.0000 C   0  0  0  0  0  0  0  0  0  0  0  0
    2.4138   -1.4796    0.0000 O   0  0  0  0  0  0  0  0  0  0  0  0
    3.5085    0.8766    0.0000 O   0  0  0  0  0  0  0  0  0  0  0  0
  1  2  1  0
  2  3  1  0
  3  4  1  0
  1  5  1  0
  5  6  1  0
  6  7  2  0
  6  8  1  0
M  END
>  <rName>  (2492) 
N_2fluoroethyl-G

>  <PQ_SYMBOL>  (2492) 
N_2fluoroethyl-G

>  <FULL_NAME>  (2492) 
N-(2-Fluoroethyl)glycine

>  <IUPAC_CONDENSED>  (2492) 
2-fluoroethyl-Gly

>  <IUPAC>  (2492) 
2-(2-fluoroethylamino)acetic acid

>  <TYPE>  (2492) 
Backbone

>  <CLASS>  (2492) 
alpha

>  <ANALOG>  (2492) 
Gly

>  <MOL_WT>  (2492) 
121.11099999999998

>  <LOGP>  (2492) 
-0.36989999999999995

>  <TPSA>  (2492) 
49.33

>  <POPULARITY>  (2492) 
2.2

>  <PROTECTED>  (2492) 
TRUE

>  <SMILES>  (2492) 
N(CCF)CC(=O)O

>  <INCHIKEY>  (2492) 
XMOFVHLIHKQOLE-UHFFFAOYSA-N

$$$$
N_2pyrid2ylethyl-G
     RDKit          2D

 13 13  0  0  0  0  0  0  0  0999 V2000
   -2.0072   -0.3719    0.0000 N   0  0  0  0  0  0  0  0  0  0  0  0
   -0.5884    0.1150    0.0000 C   0  0  0  0  0  0  0  0  0  0  0  0
    0.5426   -0.8703    0.0000 C   0  0  0  0  0  0  0  0  0  0  0  0
    1.9614   -0.3834    0.0000 C   0  0  0  0  0  0  0  0  0  0  0  0
    2.2491    1.0888    0.0000 C   0  0  0  0  0  0  0  0  0  0  0  0
    3.6679    1.5757    0.0000 C   0  0  0  0  0  0  0  0  0  0  0  0
    4.7990    0.5904    0.0000 C   0  0  0  0  0  0  0  0  0  0  0  0
    4.5112   -0.8817    0.0000 C   0  0  0  0  0  0  0  0  0  0  0  0
    3.0925   -1.3686    0.0000 N   0  0  0  0  0  0  0  0  0  0  0  0
   -3.1382    0.6134    0.0000 C   0  0  0  0  0  0  0  0  0  0  0  0
   -4.5570    0.1265    0.0000 C   0  0  0  0  0  0  0  0  0  0  0  0
   -4.8448   -1.3456    0.0000 O   0  0  0  0  0  0  0  0  0  0  0  0
   -5.6881    1.1118    0.0000 O   0  0  0  0  0  0  0  0  0  0  0  0
  1  2  1  0
  2  3  1  0
  3  4  1  0
  4  5  2  0
  5  6  1  0
  6  7  2  0
  7  8  1  0
  8  9  2  0
  1 10  1  0
 10 11  1  0
 11 12  2  0
 11 13  1  0
  9  4  1  0
M  END
>  <rName>  (2493) 
N_2pyrid2ylethyl-G

>  <PQ_SYMBOL>  (2493) 
N_2pyrid2ylethyl-G

>  <FULL_NAME>  (2493) 
2-(2-pyridin-2-ylethylamino)acetic acid

>  <IUPAC_CONDENSED>  (2493) 
2-pyrid-2-ylethyl-Gly

>  <IUPAC>  (2493) 
2-((2-(pyridin-2-yl)ethyl)amino)acetic acid

>  <TYPE>  (2493) 
Backbone

>  <CLASS>  (2493) 
alpha

>  <ANALOG>  (2493) 
Gly

>  <MOL_WT>  (2493) 
180.20699999999997

>  <LOGP>  (2493) 
0.29829999999999973

>  <TPSA>  (2493) 
62.22

>  <POPULARITY>  (2493) 
9.1

>  <PROTECTED>  (2493) 
TRUE

>  <SMILES>  (2493) 
N(CCc1(ccccn1))CC(=O)O

>  <INCHIKEY>  (2493) 
FFZLXFNCLVYLTA-UHFFFAOYSA-N

$$$$
N_2pyrid3ylethyl-G
     RDKit          2D

 13 13  0  0  0  0  0  0  0  0999 V2000
   -2.0072   -0.3719    0.0000 N   0  0  0  0  0  0  0  0  0  0  0  0
   -0.5884    0.1150    0.0000 C   0  0  0  0  0  0  0  0  0  0  0  0
    0.5426   -0.8703    0.0000 C   0  0  0  0  0  0  0  0  0  0  0  0
    1.9614   -0.3834    0.0000 C   0  0  0  0  0  0  0  0  0  0  0  0
    2.2491    1.0888    0.0000 C   0  0  0  0  0  0  0  0  0  0  0  0
    3.6679    1.5757    0.0000 C   0  0  0  0  0  0  0  0  0  0  0  0
    4.7990    0.5904    0.0000 C   0  0  0  0  0  0  0  0  0  0  0  0
    4.5112   -0.8817    0.0000 N   0  0  0  0  0  0  0  0  0  0  0  0
    3.0925   -1.3686    0.0000 C   0  0  0  0  0  0  0  0  0  0  0  0
   -3.1382    0.6134    0.0000 C   0  0  0  0  0  0  0  0  0  0  0  0
   -4.5570    0.1265    0.0000 C   0  0  0  0  0  0  0  0  0  0  0  0
   -4.8448   -1.3456    0.0000 O   0  0  0  0  0  0  0  0  0  0  0  0
   -5.6881    1.1118    0.0000 O   0  0  0  0  0  0  0  0  0  0  0  0
  1  2  1  0
  2  3  1  0
  3  4  1  0
  4  5  2  0
  5  6  1  0
  6  7  2  0
  7  8  1  0
  8  9  2  0
  1 10  1  0
 10 11  1  0
 11 12  2  0
 11 13  1  0
  9  4  1  0
M  END
>  <rName>  (2494) 
N_2pyrid3ylethyl-G

>  <PQ_SYMBOL>  (2494) 
N_2pyrid3ylethyl-G

>  <FULL_NAME>  (2494) 
N-(2-pyrid-3-ylethyl)-glycine

>  <IUPAC_CONDENSED>  (2494) 
2-pyrid-3-ylethyl-Gly

>  <IUPAC>  (2494) 
2-((2-(pyridin-3-yl)ethyl)amino)acetic acid

>  <TYPE>  (2494) 
Backbone

>  <CLASS>  (2494) 
alpha

>  <ANALOG>  (2494) 
Gly

>  <MOL_WT>  (2494) 
180.20699999999997

>  <LOGP>  (2494) 
0.2983000000000002

>  <TPSA>  (2494) 
62.22

>  <POPULARITY>  (2494) 
7.1

>  <PROTECTED>  (2494) 
TRUE

>  <SMILES>  (2494) 
N(CCc1(cccnc1))CC(=O)O

>  <INCHIKEY>  (2494) 
ISMVIXVHPPMXKB-UHFFFAOYSA-N

$$$$
N_2pyrid4ylethyl-G
     RDKit          2D

 13 13  0  0  0  0  0  0  0  0999 V2000
   -2.0072   -0.3719    0.0000 N   0  0  0  0  0  0  0  0  0  0  0  0
   -0.5884    0.1150    0.0000 C   0  0  0  0  0  0  0  0  0  0  0  0
    0.5426   -0.8703    0.0000 C   0  0  0  0  0  0  0  0  0  0  0  0
    1.9614   -0.3834    0.0000 C   0  0  0  0  0  0  0  0  0  0  0  0
    2.2491    1.0888    0.0000 C   0  0  0  0  0  0  0  0  0  0  0  0
    3.6679    1.5757    0.0000 C   0  0  0  0  0  0  0  0  0  0  0  0
    4.7990    0.5904    0.0000 N   0  0  0  0  0  0  0  0  0  0  0  0
    4.5112   -0.8817    0.0000 C   0  0  0  0  0  0  0  0  0  0  0  0
    3.0925   -1.3686    0.0000 C   0  0  0  0  0  0  0  0  0  0  0  0
   -3.1382    0.6134    0.0000 C   0  0  0  0  0  0  0  0  0  0  0  0
   -4.5570    0.1265    0.0000 C   0  0  0  0  0  0  0  0  0  0  0  0
   -4.8448   -1.3456    0.0000 O   0  0  0  0  0  0  0  0  0  0  0  0
   -5.6881    1.1118    0.0000 O   0  0  0  0  0  0  0  0  0  0  0  0
  1  2  1  0
  2  3  1  0
  3  4  1  0
  4  5  1  0
  5  6  2  0
  6  7  1  0
  7  8  2  0
  8  9  1  0
  1 10  1  0
 10 11  1  0
 11 12  2  0
 11 13  1  0
  9  4  2  0
M  END
>  <rName>  (2495) 
N_2pyrid4ylethyl-G

>  <PQ_SYMBOL>  (2495) 
N_2pyrid4ylethyl-G

>  <FULL_NAME>  (2495) 
2-(2-Pyridin-4-ylethylamino)acetic acid

>  <IUPAC_CONDENSED>  (2495) 
2-pyrid-4-ylethyl-Gly

>  <IUPAC>  (2495) 
2-(2-pyridin-4-ylethylamino)acetic acid

>  <TYPE>  (2495) 
Backbone

>  <CLASS>  (2495) 
alpha

>  <ANALOG>  (2495) 
Gly

>  <MOL_WT>  (2495) 
180.20699999999997

>  <LOGP>  (2495) 
0.29829999999999973

>  <TPSA>  (2495) 
62.22

>  <POPULARITY>  (2495) 
2.2

>  <PROTECTED>  (2495) 
TRUE

>  <SMILES>  (2495) 
N(CCc1(ccncc1))CC(=O)O

>  <INCHIKEY>  (2495) 
OIGWLLGKOVOQRV-UHFFFAOYSA-N

$$$$
N_333trifluoropropyl-G
     RDKit          2D

 11 10  0  0  0  0  0  0  0  0999 V2000
    0.9867   -0.2938    0.0000 N   0  0  0  0  0  0  0  0  0  0  0  0
   -0.3923    0.2963    0.0000 C   0  0  0  0  0  0  0  0  0  0  0  0
   -1.5929   -0.6029    0.0000 C   0  0  0  0  0  0  0  0  0  0  0  0
   -2.9719   -0.0127    0.0000 C   0  0  0  0  0  0  0  0  0  0  0  0
   -4.3510    0.5775    0.0000 F   0  0  0  0  0  0  0  0  0  0  0  0
   -3.5621   -1.3917    0.0000 F   0  0  0  0  0  0  0  0  0  0  0  0
   -2.3818    1.3663    0.0000 F   0  0  0  0  0  0  0  0  0  0  0  0
    2.1873    0.6054    0.0000 C   0  0  0  0  0  0  0  0  0  0  0  0
    3.5663    0.0152    0.0000 C   0  0  0  0  0  0  0  0  0  0  0  0
    3.7448   -1.4741    0.0000 O   0  0  0  0  0  0  0  0  0  0  0  0
    4.7669    0.9144    0.0000 O   0  0  0  0  0  0  0  0  0  0  0  0
  1  2  1  0
  2  3  1  0
  3  4  1  0
  4  5  1  0
  4  6  1  0
  4  7  1  0
  1  8  1  0
  8  9  1  0
  9 10  2  0
  9 11  1  0
M  END
>  <rName>  (2496) 
N_333trifluoropropyl-G

>  <PQ_SYMBOL>  (2496) 
N_333trifluoropropyl-G

>  <FULL_NAME>  (2496) 
(3,3,3-trifluoropropyl)glycine

>  <IUPAC_CONDENSED>  (2496) 
3,3,3-trifluoropropyl-Gly

>  <IUPAC>  (2496) 
2-((3,3,3-trifluoropropyl)amino)acetic acid

>  <TYPE>  (2496) 
Backbone

>  <CLASS>  (2496) 
alpha

>  <ANALOG>  (2496) 
Gly

>  <MOL_WT>  (2496) 
171.11800000000002

>  <LOGP>  (2496) 
0.6130000000000001

>  <TPSA>  (2496) 
49.33

>  <POPULARITY>  (2496) 
10.6

>  <PROTECTED>  (2496) 
TRUE

>  <SMILES>  (2496) 
N(CCC(F)(F)F)CC(=O)O

>  <INCHIKEY>  (2496) 
KCQRFKWRWFPJPB-UHFFFAOYSA-N

$$$$
N_3carboxypropyl-G
     RDKit          2D

 11 10  0  0  0  0  0  0  0  0999 V2000
   -1.2990    0.0682    0.0000 N   0  0  0  0  0  0  0  0  0  0  0  0
   -0.0000   -0.6818    0.0000 C   0  0  0  0  0  0  0  0  0  0  0  0
    1.2990    0.0682    0.0000 C   0  0  0  0  0  0  0  0  0  0  0  0
    2.5981   -0.6818    0.0000 C   0  0  0  0  0  0  0  0  0  0  0  0
    3.8971    0.0682    0.0000 C   0  0  0  0  0  0  0  0  0  0  0  0
    3.8971    1.5682    0.0000 O   0  0  0  0  0  0  0  0  0  0  0  0
    5.1962   -0.6818    0.0000 O   0  0  0  0  0  0  0  0  0  0  0  0
   -2.5981   -0.6818    0.0000 C   0  0  0  0  0  0  0  0  0  0  0  0
   -3.8971    0.0682    0.0000 C   0  0  0  0  0  0  0  0  0  0  0  0
   -3.8971    1.5682    0.0000 O   0  0  0  0  0  0  0  0  0  0  0  0
   -5.1962   -0.6818    0.0000 O   0  0  0  0  0  0  0  0  0  0  0  0
  1  2  1  0
  2  3  1  0
  3  4  1  0
  4  5  1  0
  5  6  2  0
  5  7  1  0
  1  8  1  0
  8  9  1  0
  9 10  2  0
  9 11  1  0
M  END
>  <rName>  (2497) 
N_3carboxypropyl-G

>  <PQ_SYMBOL>  (2497) 
N_3carboxypropyl-G

>  <FULL_NAME>  (2497) 
4-((carboxymethyl)amino)butanoic acid

>  <IUPAC_CONDENSED>  (2497) 
3-carboxypropyl-Gly

>  <IUPAC>  (2497) 
4-((2-hydroxy-2-oxoethyl)amino)butanoic acid

>  <TYPE>  (2497) 
Backbone

>  <CLASS>  (2497) 
alpha

>  <ANALOG>  (2497) 
Gly

>  <MOL_WT>  (2497) 
161.15699999999998

>  <LOGP>  (2497) 
-0.4746000000000002

>  <TPSA>  (2497) 
86.63000000000001

>  <POPULARITY>  (2497) 
14.9

>  <PROTECTED>  (2497) 
TRUE

>  <SMILES>  (2497) 
N(CCCC(=O)O)CC(=O)O

>  <INCHIKEY>  (2497) 
LORSKKAGSYQQSO-UHFFFAOYSA-N

$$$$
N_44diFpiperidinoEt-G
     RDKit          2D

 15 15  0  0  0  0  0  0  0  0999 V2000
   -2.8111   -0.3784    0.0000 N   0  0  0  0  0  0  0  0  0  0  0  0
   -1.3725    0.0463    0.0000 C   0  0  0  0  0  0  0  0  0  0  0  0
   -0.2854   -0.9872    0.0000 C   0  0  0  0  0  0  0  0  0  0  0  0
    1.1533   -0.5625    0.0000 N   0  0  0  0  0  0  0  0  0  0  0  0
    1.5048    0.8957    0.0000 C   0  0  0  0  0  0  0  0  0  0  0  0
    2.9434    1.3204    0.0000 C   0  0  0  0  0  0  0  0  0  0  0  0
    4.0305    0.2869    0.0000 C   0  0  0  0  0  0  0  0  0  0  0  0
    4.8595    1.5370    0.0000 F   0  0  0  0  0  0  0  0  0  0  0  0
    5.4055   -0.3125    0.0000 F   0  0  0  0  0  0  0  0  0  0  0  0
    3.6790   -1.1713    0.0000 C   0  0  0  0  0  0  0  0  0  0  0  0
    2.2404   -1.5960    0.0000 C   0  0  0  0  0  0  0  0  0  0  0  0
   -3.8982    0.6551    0.0000 C   0  0  0  0  0  0  0  0  0  0  0  0
   -5.3368    0.2304    0.0000 C   0  0  0  0  0  0  0  0  0  0  0  0
   -5.6883   -1.2278    0.0000 O   0  0  0  0  0  0  0  0  0  0  0  0
   -6.4240    1.2639    0.0000 O   0  0  0  0  0  0  0  0  0  0  0  0
  1  2  1  0
  2  3  1  0
  3  4  1  0
  4  5  1  0
  5  6  1  0
  6  7  1  0
  7  8  1  0
  7  9  1  0
  7 10  1  0
 10 11  1  0
  1 12  1  0
 12 13  1  0
 13 14  2  0
 13 15  1  0
 11  4  1  0
M  END
>  <rName>  (2498) 
N_44diFpiperidinoEt-G

>  <PQ_SYMBOL>  (2498) 
N_44diFpiperidinoEt-G

>  <FULL_NAME>  (2498) 
2-[2-(4,4-difluoropiperidin-1-yl)ethylamino]acetic acid

>  <IUPAC_CONDENSED>  (2498) 
4,4-diF-piperidinoEt-Gly

>  <IUPAC>  (2498) 
2-((2-(4,4-difluoropiperidin-1-yl)ethyl)amino)acetic acid

>  <TYPE>  (2498) 
Backbone

>  <CLASS>  (2498) 
alpha

>  <ANALOG>  (2498) 
Gly

>  <MOL_WT>  (2498) 
222.23499999999996

>  <LOGP>  (2498) 
0.3917000000000001

>  <TPSA>  (2498) 
52.57000000000001

>  <POPULARITY>  (2498) 
3.8

>  <PROTECTED>  (2498) 
TRUE

>  <SMILES>  (2498) 
N(CCN1(CCC(F)(F)CC1))CC(=O)O

>  <INCHIKEY>  (2498) 
WIOYXLKWIWVETI-UHFFFAOYSA-N

$$$$
N_4MepiperazinoEt-G
     RDKit          2D

 14 14  0  0  0  0  0  0  0  0999 V2000
   -2.4647   -0.3685    0.0000 N   0  0  0  0  0  0  0  0  0  0  0  0
   -1.0308    0.0718    0.0000 C   0  0  0  0  0  0  0  0  0  0  0  0
    0.0675   -0.9499    0.0000 C   0  0  0  0  0  0  0  0  0  0  0  0
    1.5014   -0.5096    0.0000 N   0  0  0  0  0  0  0  0  0  0  0  0
    1.8371    0.9523    0.0000 C   0  0  0  0  0  0  0  0  0  0  0  0
    3.2710    1.3926    0.0000 C   0  0  0  0  0  0  0  0  0  0  0  0
    4.3693    0.3709    0.0000 N   0  0  0  0  0  0  0  0  0  0  0  0
    5.8032    0.8112    0.0000 C   0  0  0  0  0  0  0  0  0  0  0  0
    4.0336   -1.0911    0.0000 C   0  0  0  0  0  0  0  0  0  0  0  0
    2.5997   -1.5313    0.0000 C   0  0  0  0  0  0  0  0  0  0  0  0
   -3.5629    0.6532    0.0000 C   0  0  0  0  0  0  0  0  0  0  0  0
   -4.9969    0.2129    0.0000 C   0  0  0  0  0  0  0  0  0  0  0  0
   -5.3325   -1.2490    0.0000 O   0  0  0  0  0  0  0  0  0  0  0  0
   -6.0951    1.2346    0.0000 O   0  0  0  0  0  0  0  0  0  0  0  0
  1  2  1  0
  2  3  1  0
  3  4  1  0
  4  5  1  0
  5  6  1  0
  6  7  1  0
  7  8  1  0
  7  9  1  0
  9 10  1  0
  1 11  1  0
 11 12  1  0
 12 13  2  0
 12 14  1  0
 10  4  1  0
M  END
>  <rName>  (2499) 
N_4MepiperazinoEt-G

>  <PQ_SYMBOL>  (2499) 
N_4MepiperazinoEt-G

>  <FULL_NAME>  (2499) 
2-{[2-(4-Methylpiperazin-1-yl)ethyl]amino}acetic acid

>  <IUPAC_CONDENSED>  (2499) 
4-Me-piperazinoEt-Gly

>  <IUPAC>  (2499) 
2-((2-(4-methylpiperazin-1-yl)ethyl)amino)acetic acid

>  <TYPE>  (2499) 
Backbone

>  <CLASS>  (2499) 
alpha

>  <ANALOG>  (2499) 
Gly

>  <MOL_WT>  (2499) 
201.26999999999995

>  <LOGP>  (2499) 
-1.091999999999998

>  <TPSA>  (2499) 
55.81

>  <POPULARITY>  (2499) 
9.5

>  <PROTECTED>  (2499) 
TRUE

>  <SMILES>  (2499) 
N(CCN1(CCN(C)CC1))CC(=O)O

>  <INCHIKEY>  (2499) 
BJDUSUPKMWGCJG-UHFFFAOYSA-N

$$$$
N_4carboxybutyl-G
     RDKit          2D

 12 11  0  0  0  0  0  0  0  0999 V2000
    1.9732   -0.2100    0.0000 N   0  0  0  0  0  0  0  0  0  0  0  0
    0.6157    0.4282    0.0000 C   0  0  0  0  0  0  0  0  0  0  0  0
   -0.6157   -0.4282    0.0000 C   0  0  0  0  0  0  0  0  0  0  0  0
   -1.9732    0.2100    0.0000 C   0  0  0  0  0  0  0  0  0  0  0  0
   -3.2046   -0.6465    0.0000 C   0  0  0  0  0  0  0  0  0  0  0  0
   -4.5621   -0.0083    0.0000 C   0  0  0  0  0  0  0  0  0  0  0  0
   -4.6881    1.4864    0.0000 O   0  0  0  0  0  0  0  0  0  0  0  0
   -5.7935   -0.8647    0.0000 O   0  0  0  0  0  0  0  0  0  0  0  0
    3.2046    0.6465    0.0000 C   0  0  0  0  0  0  0  0  0  0  0  0
    4.5621    0.0083    0.0000 C   0  0  0  0  0  0  0  0  0  0  0  0
    4.6881   -1.4864    0.0000 O   0  0  0  0  0  0  0  0  0  0  0  0
    5.7935    0.8647    0.0000 O   0  0  0  0  0  0  0  0  0  0  0  0
  1  2  1  0
  2  3  1  0
  3  4  1  0
  4  5  1  0
  5  6  1  0
  6  7  2  0
  6  8  1  0
  1  9  1  0
  9 10  1  0
 10 11  2  0
 10 12  1  0
M  END
>  <rName>  (2500) 
N_4carboxybutyl-G

>  <PQ_SYMBOL>  (2500) 
N_4carboxybutyl-G

>  <FULL_NAME>  (2500) 
N-carboxybutyl glycine

>  <IUPAC_CONDENSED>  (2500) 
4-carboxybutyl-Gly

>  <IUPAC>  (2500) 
5-(carboxymethylamino)pentanoic acid

>  <TYPE>  (2500) 
Backbone

>  <CLASS>  (2500) 
alpha

>  <ANALOG>  (2500) 
Gly

>  <MOL_WT>  (2500) 
175.18399999999997

>  <LOGP>  (2500) 
-0.0845000000000003

>  <TPSA>  (2500) 
86.63000000000001

>  <POPULARITY>  (2500) 
2.2

>  <PROTECTED>  (2500) 
TRUE

>  <SMILES>  (2500) 
N(CCCCC(=O)O)CC(=O)O

>  <INCHIKEY>  (2500) 
AQTQFDBJYMMSGQ-UHFFFAOYSA-N

$$$$
N_4piperidyl-G
     RDKit          2D

 11 11  0  0  0  0  0  0  0  0999 V2000
   -0.6853   -0.6503    0.0000 N   0  0  0  0  0  0  0  0  0  0  0  0
    0.7732   -0.3002    0.0000 C   0  0  0  0  0  0  0  0  0  0  0  0
    1.1993    1.1380    0.0000 C   0  0  0  0  0  0  0  0  0  0  0  0
    2.6579    1.4881    0.0000 C   0  0  0  0  0  0  0  0  0  0  0  0
    3.6904    0.4000    0.0000 N   0  0  0  0  0  0  0  0  0  0  0  0
    3.2643   -1.0382    0.0000 C   0  0  0  0  0  0  0  0  0  0  0  0
    1.8057   -1.3883    0.0000 C   0  0  0  0  0  0  0  0  0  0  0  0
   -1.7178    0.4378    0.0000 C   0  0  0  0  0  0  0  0  0  0  0  0
   -3.1764    0.0877    0.0000 C   0  0  0  0  0  0  0  0  0  0  0  0
   -3.6025   -1.3505    0.0000 O   0  0  0  0  0  0  0  0  0  0  0  0
   -4.2089    1.1758    0.0000 O   0  0  0  0  0  0  0  0  0  0  0  0
  1  2  1  0
  2  3  1  0
  3  4  1  0
  4  5  1  0
  5  6  1  0
  6  7  1  0
  1  8  1  0
  8  9  1  0
  9 10  2  0
  9 11  1  0
  7  2  1  0
M  END
>  <rName>  (2501) 
N_4piperidyl-G

>  <PQ_SYMBOL>  (2501) 
N_4piperidyl-G

>  <FULL_NAME>  (2501) 
N-4-Piperidinyl-Glycine

>  <IUPAC_CONDENSED>  (2501) 
4-piperidyl-Gly

>  <IUPAC>  (2501) 
2-((piperidin-4-yl)amino)acetic acid

>  <TYPE>  (2501) 
Backbone

>  <CLASS>  (2501) 
alpha

>  <ANALOG>  (2501) 
Gly

>  <MOL_WT>  (2501) 
158.201

>  <LOGP>  (2501) 
-0.5873999999999997

>  <TPSA>  (2501) 
61.36

>  <POPULARITY>  (2501) 
11.7

>  <PROTECTED>  (2501) 
TRUE

>  <SMILES>  (2501) 
N(C1(CCNCC1))CC(=O)O

>  <INCHIKEY>  (2501) 
GMYSPKJLZSKGSC-UHFFFAOYSA-N

$$$$
N_5carboxypentyl-G
     RDKit          2D

 13 12  0  0  0  0  0  0  0  0999 V2000
   -2.5981    0.1154    0.0000 N   0  0  0  0  0  0  0  0  0  0  0  0
   -1.2990   -0.6346    0.0000 C   0  0  0  0  0  0  0  0  0  0  0  0
    0.0000    0.1154    0.0000 C   0  0  0  0  0  0  0  0  0  0  0  0
    1.2990   -0.6346    0.0000 C   0  0  0  0  0  0  0  0  0  0  0  0
    2.5981    0.1154    0.0000 C   0  0  0  0  0  0  0  0  0  0  0  0
    3.8971   -0.6346    0.0000 C   0  0  0  0  0  0  0  0  0  0  0  0
    5.1962    0.1154    0.0000 C   0  0  0  0  0  0  0  0  0  0  0  0
    5.1962    1.6154    0.0000 O   0  0  0  0  0  0  0  0  0  0  0  0
    6.4952   -0.6346    0.0000 O   0  0  0  0  0  0  0  0  0  0  0  0
   -3.8971   -0.6346    0.0000 C   0  0  0  0  0  0  0  0  0  0  0  0
   -5.1962    0.1154    0.0000 C   0  0  0  0  0  0  0  0  0  0  0  0
   -5.1962    1.6154    0.0000 O   0  0  0  0  0  0  0  0  0  0  0  0
   -6.4952   -0.6346    0.0000 O   0  0  0  0  0  0  0  0  0  0  0  0
  1  2  1  0
  2  3  1  0
  3  4  1  0
  4  5  1  0
  5  6  1  0
  6  7  1  0
  7  8  2  0
  7  9  1  0
  1 10  1  0
 10 11  1  0
 11 12  2  0
 11 13  1  0
M  END
>  <rName>  (2502) 
N_5carboxypentyl-G

>  <PQ_SYMBOL>  (2502) 
N_5carboxypentyl-G

>  <FULL_NAME>  (2502) 
6-((carboxymethyl)amino)hexanoic acid

>  <IUPAC_CONDENSED>  (2502) 
5-carboxypentyl-Gly

>  <IUPAC>  (2502) 
6-((2-hydroxy-2-oxoethyl)amino)hexanoic acid

>  <TYPE>  (2502) 
Backbone

>  <CLASS>  (2502) 
alpha

>  <ANALOG>  (2502) 
Gly

>  <MOL_WT>  (2502) 
189.21099999999998

>  <LOGP>  (2502) 
0.30559999999999954

>  <TPSA>  (2502) 
86.63000000000001

>  <POPULARITY>  (2502) 
13.4

>  <PROTECTED>  (2502) 
TRUE

>  <SMILES>  (2502) 
N(CCCCCC(=O)O)CC(=O)O

>  <INCHIKEY>  (2502) 
TUOBABBAWKYTHA-UHFFFAOYSA-N

$$$$
Nallyl-A
     RDKit          2D

  9  8  0  0  0  0  0  0  0  0999 V2000
    0.2932   -1.1292    0.0000 N   0  0  0  0  0  0  0  0  0  0  0  0
    1.3621   -0.0769    0.0000 C   0  0  0  0  0  0  0  0  0  0  0  0
    2.8079   -0.4764    0.0000 C   0  0  0  0  0  0  0  0  0  0  0  0
    3.8768    0.5760    0.0000 C   0  0  0  0  0  0  0  0  0  0  0  0
   -1.1527   -0.7297    0.0000 C   0  0  0  0  0  0  0  0  0  0  0  0
   -2.2216   -1.7821    0.0000 C   0  0  0  0  0  0  0  0  0  0  0  0
   -1.5296    0.7222    0.0000 C   0  0  0  0  0  0  0  0  0  0  0  0
   -0.4607    1.7745    0.0000 O   0  0  0  0  0  0  0  0  0  0  0  0
   -2.9754    1.1217    0.0000 O   0  0  0  0  0  0  0  0  0  0  0  0
  1  2  1  0
  2  3  1  0
  3  4  2  0
  1  5  1  0
  5  6  1  1
  5  7  1  0
  7  8  2  0
  7  9  1  0
M  END
>  <rName>  (2503) 
Nallyl-A

>  <PQ_SYMBOL>  (2503) 
Nallyl-A

>  <FULL_NAME>  (2503) 
N-(2-propenyl)alanine

>  <IUPAC_CONDENSED>  (2503) 
allyl-Ala

>  <IUPAC>  (2503) 
(2S)-2-((prop-2-en-1-yl)amino)propanoic acid

>  <TYPE>  (2503) 
Backbone

>  <CLASS>  (2503) 
alpha

>  <ANALOG>  (2503) 
Ala

>  <MOL_WT>  (2503) 
129.159

>  <LOGP>  (2503) 
0.2350999999999998

>  <TPSA>  (2503) 
49.33

>  <POPULARITY>  (2503) 
17.8

>  <PROTECTED>  (2503) 
TRUE

>  <SMILES>  (2503) 
N(CC=C)[C@@H](C)C(=O)O

>  <INCHIKEY>  (2503) 
ASVUOKGTAIPUBY-YFKPBYRVSA-N

$$$$
Nallyl-F
     RDKit          2D

 15 15  0  0  0  0  0  0  0  0999 V2000
   -1.0539    0.4682    0.0000 N   0  0  0  0  0  0  0  0  0  0  0  0
   -2.4666    0.9725    0.0000 C   0  0  0  0  0  0  0  0  0  0  0  0
   -2.7363    2.4480    0.0000 C   0  0  0  0  0  0  0  0  0  0  0  0
   -4.1489    2.9523    0.0000 C   0  0  0  0  0  0  0  0  0  0  0  0
   -0.7843   -1.0074    0.0000 C   0  0  0  0  0  0  0  0  0  0  0  0
    0.6284   -1.5117    0.0000 C   0  0  0  0  0  0  0  0  0  0  0  0
    1.7714   -0.5404    0.0000 C   0  0  0  0  0  0  0  0  0  0  0  0
    1.5018    0.9352    0.0000 C   0  0  0  0  0  0  0  0  0  0  0  0
    2.6449    1.9065    0.0000 C   0  0  0  0  0  0  0  0  0  0  0  0
    4.0576    1.4022    0.0000 C   0  0  0  0  0  0  0  0  0  0  0  0
    4.3272   -0.0734    0.0000 C   0  0  0  0  0  0  0  0  0  0  0  0
    3.1841   -1.0447    0.0000 C   0  0  0  0  0  0  0  0  0  0  0  0
   -1.9274   -1.9787    0.0000 C   0  0  0  0  0  0  0  0  0  0  0  0
   -1.6578   -3.4542    0.0000 O   0  0  0  0  0  0  0  0  0  0  0  0
   -3.3401   -1.4744    0.0000 O   0  0  0  0  0  0  0  0  0  0  0  0
  1  2  1  0
  2  3  1  0
  3  4  2  0
  1  5  1  0
  5  6  1  1
  6  7  1  0
  7  8  2  0
  8  9  1  0
  9 10  2  0
 10 11  1  0
 11 12  2  0
  5 13  1  0
 13 14  2  0
 13 15  1  0
 12  7  1  0
M  END
>  <rName>  (2504) 
Nallyl-F

>  <PQ_SYMBOL>  (2504) 
Nallyl-F

>  <FULL_NAME>  (2504) 
allyl-L-phenylalanine

>  <IUPAC_CONDENSED>  (2504) 
allyl-Phe

>  <IUPAC>  (2504) 
(2S)-3-phenyl-2-((prop-2-en-1-yl)amino)propanoic acid

>  <TYPE>  (2504) 
Backbone

>  <CLASS>  (2504) 
alpha

>  <ANALOG>  (2504) 
Phe

>  <MOL_WT>  (2504) 
205.257

>  <LOGP>  (2504) 
1.4579

>  <TPSA>  (2504) 
49.33

>  <POPULARITY>  (2504) 
9.4

>  <PROTECTED>  (2504) 
TRUE

>  <SMILES>  (2504) 
N(CC=C)[C@@H](Cc1(ccccc1))C(=O)O

>  <INCHIKEY>  (2504) 
HSASCPKHTQHHLP-NSHDSACASA-N

$$$$
Nallyl-G
     RDKit          2D

  8  7  0  0  0  0  0  0  0  0999 V2000
   -0.3069    0.2155    0.0000 N   0  0  0  0  0  0  0  0  0  0  0  0
   -1.6672   -0.4165    0.0000 C   0  0  0  0  0  0  0  0  0  0  0  0
   -2.8948    0.4455    0.0000 C   0  0  0  0  0  0  0  0  0  0  0  0
   -4.2551   -0.1865    0.0000 C   0  0  0  0  0  0  0  0  0  0  0  0
    0.9207   -0.6465    0.0000 C   0  0  0  0  0  0  0  0  0  0  0  0
    2.2810   -0.0145    0.0000 C   0  0  0  0  0  0  0  0  0  0  0  0
    2.4138    1.4796    0.0000 O   0  0  0  0  0  0  0  0  0  0  0  0
    3.5085   -0.8766    0.0000 O   0  0  0  0  0  0  0  0  0  0  0  0
  1  2  1  0
  2  3  1  0
  3  4  2  0
  1  5  1  0
  5  6  1  0
  6  7  2  0
  6  8  1  0
M  END
>  <rName>  (2505) 
Nallyl-G

>  <PQ_SYMBOL>  (2505) 
Nallyl-G

>  <FULL_NAME>  (2505) 
2-(prop-2-enylamino)acetic acid

>  <IUPAC_CONDENSED>  (2505) 
allyl-Gly

>  <IUPAC>  (2505) 
2-((prop-2-en-1-yl)amino)acetic acid

>  <TYPE>  (2505) 
Backbone

>  <CLASS>  (2505) 
alpha

>  <ANALOG>  (2505) 
Gly

>  <MOL_WT>  (2505) 
115.13199999999999

>  <LOGP>  (2505) 
-0.15340000000000026

>  <TPSA>  (2505) 
49.33

>  <POPULARITY>  (2505) 
23.5

>  <PROTECTED>  (2505) 
TRUE

>  <SMILES>  (2505) 
N(CC=C)CC(=O)O

>  <INCHIKEY>  (2505) 
YVWGGGZYGSZDKW-UHFFFAOYSA-N

$$$$
Nar
     RDKit          2D

 11 10  0  0  0  0  0  0  0  0999 V2000
   -1.6269    1.8430    0.0000 N   0  0  0  0  0  0  0  0  0  0  0  0
   -1.7489    0.3480    0.0000 C   0  0  0  0  0  0  0  0  0  0  0  0
   -0.5152   -0.5052    0.0000 C   0  0  0  0  0  0  0  0  0  0  0  0
    0.8406    0.1366    0.0000 C   0  0  0  0  0  0  0  0  0  0  0  0
    2.0743   -0.7166    0.0000 N   0  0  0  0  0  0  0  0  0  0  0  0
    3.4300   -0.0748    0.0000 C   0  0  0  0  0  0  0  0  0  0  0  0
    3.5521    1.4203    0.0000 N   0  0  0  0  0  0  0  0  0  0  0  0
    4.6637   -0.9280    0.0000 N   0  0  0  0  0  0  0  0  0  0  0  0
   -3.1047   -0.2938    0.0000 C   0  0  0  0  0  0  0  0  0  0  0  0
   -3.2267   -1.7889    0.0000 O   0  0  0  0  0  0  0  0  0  0  0  0
   -4.3384    0.5594    0.0000 O   0  0  0  0  0  0  0  0  0  0  0  0
  2  1  1  1
  2  3  1  0
  3  4  1  0
  4  5  1  0
  5  6  1  0
  6  7  2  0
  6  8  1  0
  2  9  1  0
  9 10  2  0
  9 11  1  0
M  END
>  <rName>  (2506) 
Nar

>  <PQ_SYMBOL>  (2506) 
Nar

>  <FULL_NAME>  (2506) 
L-Norarginine

>  <IUPAC_CONDENSED>  (2506) 
Nar

>  <IUPAC>  (2506) 
(2S)-2-amino-4-(((amino)(imino)methyl)amino)butanoic acid

>  <TYPE>  (2506) 
Backbone

>  <CLASS>  (2506) 
alpha

>  <ANALOG>  (2506) 
Arg

>  <MOL_WT>  (2506) 
160.177

>  <LOGP>  (2506) 
-1.7285299999999992

>  <TPSA>  (2506) 
125.22000000000001

>  <POPULARITY>  (2506) 
24.1

>  <PROTECTED>  (2506) 
TRUE

>  <SMILES>  (2506) 
N[C@@H](CCNC(=N)N)C(=O)O

>  <INCHIKEY>  (2506) 
IFPQOXNWLSRZKX-VKHMYHEASA-N

$$$$
Nbut2ynyl-G
     RDKit          2D

  9  8  0  0  0  0  0  0  0  0999 V2000
    0.3070    0.1298    0.0000 N   0  0  0  0  0  0  0  0  0  0  0  0
   -0.8896    1.0343    0.0000 C   0  0  0  0  0  0  0  0  0  0  0  0
   -2.2712    0.4502    0.0000 C   0  0  0  0  0  0  0  0  0  0  0  0
   -3.6528   -0.1338    0.0000 C   0  0  0  0  0  0  0  0  0  0  0  0
   -5.0345   -0.7179    0.0000 C   0  0  0  0  0  0  0  0  0  0  0  0
    1.6886    0.7138    0.0000 C   0  0  0  0  0  0  0  0  0  0  0  0
    2.8853   -0.1906    0.0000 C   0  0  0  0  0  0  0  0  0  0  0  0
    2.7003   -1.6792    0.0000 O   0  0  0  0  0  0  0  0  0  0  0  0
    4.2669    0.3934    0.0000 O   0  0  0  0  0  0  0  0  0  0  0  0
  1  2  1  0
  2  3  1  0
  3  4  3  0
  4  5  1  0
  1  6  1  0
  6  7  1  0
  7  8  2  0
  7  9  1  0
M  END
>  <rName>  (2507) 
Nbut2ynyl-G

>  <PQ_SYMBOL>  (2507) 
Nbut2ynyl-G

>  <FULL_NAME>  (2507) 
2-(but-2-ynylamino)acetic acid

>  <IUPAC_CONDENSED>  (2507) 
but-2-ynyl-Gly

>  <IUPAC>  (2507) 
2-((but-2-yn-1-yl)amino)acetic acid

>  <TYPE>  (2507) 
Backbone

>  <CLASS>  (2507) 
alpha

>  <ANALOG>  (2507) 
Gly

>  <MOL_WT>  (2507) 
127.14299999999997

>  <LOGP>  (2507) 
-0.3160999999999999

>  <TPSA>  (2507) 
49.33

>  <POPULARITY>  (2507) 
8.4

>  <PROTECTED>  (2507) 
TRUE

>  <SMILES>  (2507) 
N(CC#CC)CC(=O)O

>  <INCHIKEY>  (2507) 
LPWAPYNAXSFRFK-UHFFFAOYSA-N

$$$$
Nbut3enyl-A
     RDKit          2D

 10  9  0  0  0  0  0  0  0  0999 V2000
    0.2559   -1.1432    0.0000 N   0  0  0  0  0  0  0  0  0  0  0  0
   -0.8283   -0.1067    0.0000 C   0  0  0  0  0  0  0  0  0  0  0  0
   -2.2681   -0.5274    0.0000 C   0  0  0  0  0  0  0  0  0  0  0  0
   -3.3524    0.5091    0.0000 C   0  0  0  0  0  0  0  0  0  0  0  0
   -4.7921    0.0884    0.0000 C   0  0  0  0  0  0  0  0  0  0  0  0
    1.6957   -0.7225    0.0000 C   0  0  0  0  0  0  0  0  0  0  0  0
    2.7800   -1.7591    0.0000 C   0  0  0  0  0  0  0  0  0  0  0  0
    2.0513    0.7347    0.0000 C   0  0  0  0  0  0  0  0  0  0  0  0
    0.9670    1.7713    0.0000 O   0  0  0  0  0  0  0  0  0  0  0  0
    3.4911    1.1554    0.0000 O   0  0  0  0  0  0  0  0  0  0  0  0
  1  2  1  0
  2  3  1  0
  3  4  1  0
  4  5  2  0
  1  6  1  0
  6  7  1  6
  6  8  1  0
  8  9  2  0
  8 10  1  0
M  END
>  <rName>  (2508) 
Nbut3enyl-A

>  <PQ_SYMBOL>  (2508) 
Nbut3enyl-A

>  <FULL_NAME>  (2508) 
but-3-en-1-yl-L-alanine

>  <IUPAC_CONDENSED>  (2508) 
but-3-enyl-Ala

>  <IUPAC>  (2508) 
(2S)-2-((but-3-en-1-yl)amino)propanoic acid

>  <TYPE>  (2508) 
Backbone

>  <CLASS>  (2508) 
alpha

>  <ANALOG>  (2508) 
Ala

>  <MOL_WT>  (2508) 
143.186

>  <LOGP>  (2508) 
0.6252000000000002

>  <TPSA>  (2508) 
49.33

>  <POPULARITY>  (2508) 
12.5

>  <PROTECTED>  (2508) 
TRUE

>  <SMILES>  (2508) 
N(CCC=C)[C@@H](C)C(=O)O

>  <INCHIKEY>  (2508) 
BIBPZLSHNULEDH-LURJTMIESA-N

$$$$
Nbut3enyl-F
     RDKit          2D

 16 16  0  0  0  0  0  0  0  0999 V2000
   -0.8008   -0.0176    0.0000 N   0  0  0  0  0  0  0  0  0  0  0  0
   -2.2961    0.1017    0.0000 C   0  0  0  0  0  0  0  0  0  0  0  0
   -2.9404    1.4562    0.0000 C   0  0  0  0  0  0  0  0  0  0  0  0
   -4.4357    1.5755    0.0000 C   0  0  0  0  0  0  0  0  0  0  0  0
   -5.0800    2.9300    0.0000 C   0  0  0  0  0  0  0  0  0  0  0  0
   -0.1565   -1.3721    0.0000 C   0  0  0  0  0  0  0  0  0  0  0  0
    1.3388   -1.4914    0.0000 C   0  0  0  0  0  0  0  0  0  0  0  0
    2.1897   -0.2561    0.0000 C   0  0  0  0  0  0  0  0  0  0  0  0
    1.5453    1.0985    0.0000 C   0  0  0  0  0  0  0  0  0  0  0  0
    2.3963    2.3338    0.0000 C   0  0  0  0  0  0  0  0  0  0  0  0
    3.8915    2.2145    0.0000 C   0  0  0  0  0  0  0  0  0  0  0  0
    4.5359    0.8600    0.0000 C   0  0  0  0  0  0  0  0  0  0  0  0
    3.6849   -0.3753    0.0000 C   0  0  0  0  0  0  0  0  0  0  0  0
   -1.0074   -2.6074    0.0000 C   0  0  0  0  0  0  0  0  0  0  0  0
   -0.3630   -3.9620    0.0000 O   0  0  0  0  0  0  0  0  0  0  0  0
   -2.5026   -2.4882    0.0000 O   0  0  0  0  0  0  0  0  0  0  0  0
  1  2  1  0
  2  3  1  0
  3  4  1  0
  4  5  2  0
  1  6  1  0
  6  7  1  1
  7  8  1  0
  8  9  2  0
  9 10  1  0
 10 11  2  0
 11 12  1  0
 12 13  2  0
  6 14  1  0
 14 15  2  0
 14 16  1  0
 13  8  1  0
M  END
>  <rName>  (2509) 
Nbut3enyl-F

>  <PQ_SYMBOL>  (2509) 
Nbut3enyl-F

>  <FULL_NAME>  (2509) 
N-but-3-en-1-yl-L-phenylalanine

>  <IUPAC_CONDENSED>  (2509) 
but-3-enyl-Phe

>  <IUPAC>  (2509) 
(2S)-2-(but-3-enylamino)-3-phenylpropanoic acid

>  <TYPE>  (2509) 
Backbone

>  <CLASS>  (2509) 
alpha

>  <ANALOG>  (2509) 
Phe

>  <MOL_WT>  (2509) 
219.28400000000002

>  <LOGP>  (2509) 
1.848

>  <TPSA>  (2509) 
49.33

>  <POPULARITY>  (2509) 
2.2

>  <PROTECTED>  (2509) 
TRUE

>  <SMILES>  (2509) 
N(CCC=C)[C@@H](Cc1(ccccc1))C(=O)O

>  <INCHIKEY>  (2509) 
KWRJTUBRPDGNEX-LBPRGKRZSA-N

$$$$
Nbut3enyl-G
     RDKit          2D

  9  8  0  0  0  0  0  0  0  0999 V2000
   -0.2960    0.1534    0.0000 N   0  0  0  0  0  0  0  0  0  0  0  0
    1.0358   -0.5368    0.0000 C   0  0  0  0  0  0  0  0  0  0  0  0
    2.2994    0.2714    0.0000 C   0  0  0  0  0  0  0  0  0  0  0  0
    3.6312   -0.4188    0.0000 C   0  0  0  0  0  0  0  0  0  0  0  0
    4.8948    0.3895    0.0000 C   0  0  0  0  0  0  0  0  0  0  0  0
   -1.5596   -0.6549    0.0000 C   0  0  0  0  0  0  0  0  0  0  0  0
   -2.8913    0.0353    0.0000 C   0  0  0  0  0  0  0  0  0  0  0  0
   -2.9595    1.5338    0.0000 O   0  0  0  0  0  0  0  0  0  0  0  0
   -4.1550   -0.7729    0.0000 O   0  0  0  0  0  0  0  0  0  0  0  0
  1  2  1  0
  2  3  1  0
  3  4  1  0
  4  5  2  0
  1  6  1  0
  6  7  1  0
  7  8  2  0
  7  9  1  0
M  END
>  <rName>  (2510) 
Nbut3enyl-G

>  <PQ_SYMBOL>  (2510) 
Nbut3enyl-G

>  <FULL_NAME>  (2510) 
2-(but-3-enylamino)acetic acid

>  <IUPAC_CONDENSED>  (2510) 
but-3-enyl-Gly

>  <IUPAC>  (2510) 
2-((but-3-en-1-yl)amino)acetic acid

>  <TYPE>  (2510) 
Backbone

>  <CLASS>  (2510) 
alpha

>  <ANALOG>  (2510) 
Gly

>  <MOL_WT>  (2510) 
129.15900000000002

>  <LOGP>  (2510) 
0.23670000000000008

>  <TPSA>  (2510) 
49.33

>  <POPULARITY>  (2510) 
16.4

>  <PROTECTED>  (2510) 
TRUE

>  <SMILES>  (2510) 
N(CCC=C)CC(=O)O

>  <INCHIKEY>  (2510) 
WVFFPDNNNZJDQR-UHFFFAOYSA-N

$$$$
Nbut3enyl-L
     RDKit          2D

 13 12  0  0  0  0  0  0  0  0999 V2000
   -0.7080   -0.9678    0.0000 N   0  0  0  0  0  0  0  0  0  0  0  0
   -1.9186   -0.0822    0.0000 C   0  0  0  0  0  0  0  0  0  0  0  0
   -3.2909   -0.6878    0.0000 C   0  0  0  0  0  0  0  0  0  0  0  0
   -4.5016    0.1979    0.0000 C   0  0  0  0  0  0  0  0  0  0  0  0
   -5.8739   -0.4078    0.0000 C   0  0  0  0  0  0  0  0  0  0  0  0
    0.6643   -0.3622    0.0000 C   0  0  0  0  0  0  0  0  0  0  0  0
    1.8750   -1.2478    0.0000 C   0  0  0  0  0  0  0  0  0  0  0  0
    3.2473   -0.6422    0.0000 C   0  0  0  0  0  0  0  0  0  0  0  0
    4.4579   -1.5278    0.0000 C   0  0  0  0  0  0  0  0  0  0  0  0
    3.4089    0.8491    0.0000 C   0  0  0  0  0  0  0  0  0  0  0  0
    0.8260    1.1291    0.0000 C   0  0  0  0  0  0  0  0  0  0  0  0
   -0.3847    2.0147    0.0000 O   0  0  0  0  0  0  0  0  0  0  0  0
    2.1983    1.7347    0.0000 O   0  0  0  0  0  0  0  0  0  0  0  0
  1  2  1  0
  2  3  1  0
  3  4  1  0
  4  5  2  0
  1  6  1  0
  6  7  1  6
  7  8  1  0
  8  9  1  0
  8 10  1  0
  6 11  1  0
 11 12  2  0
 11 13  1  0
M  END
>  <rName>  (2511) 
Nbut3enyl-L

>  <PQ_SYMBOL>  (2511) 
Nbut3enyl-L

>  <FULL_NAME>  (2511) 
but-3-en-1-yl-L-leucine

>  <IUPAC_CONDENSED>  (2511) 
but-3-enyl-Leu

>  <IUPAC>  (2511) 
(2S)-2-((but-3-en-1-yl)amino)-4-methylpentanoic acid

>  <TYPE>  (2511) 
Backbone

>  <CLASS>  (2511) 
alpha

>  <ANALOG>  (2511) 
Leu

>  <MOL_WT>  (2511) 
185.267

>  <LOGP>  (2511) 
1.6514000000000002

>  <TPSA>  (2511) 
49.33

>  <POPULARITY>  (2511) 
7.9

>  <PROTECTED>  (2511) 
TRUE

>  <SMILES>  (2511) 
N(CCC=C)[C@@H](CC(C)C)C(=O)O

>  <INCHIKEY>  (2511) 
XRNXJJCFVVIGFC-VIFPVBQESA-N

$$$$
Nbut3ynyl-G
     RDKit          2D

  9  8  0  0  0  0  0  0  0  0999 V2000
   -0.3328    0.2893    0.0000 N   0  0  0  0  0  0  0  0  0  0  0  0
    1.0590   -0.2701    0.0000 C   0  0  0  0  0  0  0  0  0  0  0  0
    2.2394    0.6555    0.0000 C   0  0  0  0  0  0  0  0  0  0  0  0
    3.6311    0.0961    0.0000 C   0  0  0  0  0  0  0  0  0  0  0  0
    5.0229   -0.4634    0.0000 C   0  0  0  0  0  0  0  0  0  0  0  0
   -1.5131   -0.6363    0.0000 C   0  0  0  0  0  0  0  0  0  0  0  0
   -2.9049   -0.0769    0.0000 C   0  0  0  0  0  0  0  0  0  0  0  0
   -3.1163    1.4082    0.0000 O   0  0  0  0  0  0  0  0  0  0  0  0
   -4.0853   -1.0025    0.0000 O   0  0  0  0  0  0  0  0  0  0  0  0
  1  2  1  0
  2  3  1  0
  3  4  1  0
  4  5  3  0
  1  6  1  0
  6  7  1  0
  7  8  2  0
  7  9  1  0
M  END
>  <rName>  (2512) 
Nbut3ynyl-G

>  <PQ_SYMBOL>  (2512) 
Nbut3ynyl-G

>  <FULL_NAME>  (2512) 
2-[(But-3-yn-1-yl)amino]acetic acid

>  <IUPAC_CONDENSED>  (2512) 
but-3-ynyl-Gly

>  <IUPAC>  (2512) 
2-(but-3-ynylamino)acetic acid

>  <TYPE>  (2512) 
Backbone

>  <CLASS>  (2512) 
alpha

>  <ANALOG>  (2512) 
Gly

>  <MOL_WT>  (2512) 
127.14299999999997

>  <LOGP>  (2512) 
-0.3160999999999999

>  <TPSA>  (2512) 
49.33

>  <POPULARITY>  (2512) 
2.2

>  <PROTECTED>  (2512) 
TRUE

>  <SMILES>  (2512) 
N(CCC#C)CC(=O)O

>  <INCHIKEY>  (2512) 
AQBFRNRQXVNMPX-UHFFFAOYSA-N

$$$$
NcBu-G
     RDKit          2D

  9  9  0  0  0  0  0  0  0  0999 V2000
    0.0174   -0.5934    0.0000 N   0  0  0  0  0  0  0  0  0  0  0  0
    1.4654   -0.2020    0.0000 C   0  0  0  0  0  0  0  0  0  0  0  0
    2.2126    1.0987    0.0000 C   0  0  0  0  0  0  0  0  0  0  0  0
    3.5132    0.3515    0.0000 C   0  0  0  0  0  0  0  0  0  0  0  0
    2.7661   -0.9492    0.0000 C   0  0  0  0  0  0  0  0  0  0  0  0
   -1.0456    0.4650    0.0000 C   0  0  0  0  0  0  0  0  0  0  0  0
   -2.4937    0.0736    0.0000 C   0  0  0  0  0  0  0  0  0  0  0  0
   -2.8787   -1.3761    0.0000 O   0  0  0  0  0  0  0  0  0  0  0  0
   -3.5566    1.1319    0.0000 O   0  0  0  0  0  0  0  0  0  0  0  0
  1  2  1  0
  2  3  1  0
  3  4  1  0
  4  5  1  0
  1  6  1  0
  6  7  1  0
  7  8  2  0
  7  9  1  0
  5  2  1  0
M  END
>  <rName>  (2513) 
NcBu-G

>  <PQ_SYMBOL>  (2513) 
NcBu-G

>  <FULL_NAME>  (2513) 
2-Cyclobutaneglycine

>  <IUPAC_CONDENSED>  (2513) 
N-cBu-Gly

>  <IUPAC>  (2513) 
2-(cyclobutylamino)acetic acid

>  <TYPE>  (2513) 
Backbone

>  <CLASS>  (2513) 
alpha

>  <ANALOG>  (2513) 
Gly

>  <MOL_WT>  (2513) 
129.15900000000002

>  <LOGP>  (2513) 
0.2131

>  <TPSA>  (2513) 
49.33

>  <POPULARITY>  (2513) 
8.6

>  <PROTECTED>  (2513) 
TRUE

>  <SMILES>  (2513) 
N(C1(CCC1))CC(=O)O

>  <INCHIKEY>  (2513) 
KQLGGQARRCMYGD-UHFFFAOYSA-N

$$$$
NcHept-G
     RDKit          2D

 12 12  0  0  0  0  0  0  0  0999 V2000
   -1.0091   -0.6736    0.0000 N   0  0  0  0  0  0  0  0  0  0  0  0
    0.4536   -0.3409    0.0000 C   0  0  0  0  0  0  0  0  0  0  0  0
    1.3879   -1.5144    0.0000 C   0  0  0  0  0  0  0  0  0  0  0  0
    2.8879   -1.5156    0.0000 C   0  0  0  0  0  0  0  0  0  0  0  0
    3.8240   -0.3435    0.0000 C   0  0  0  0  0  0  0  0  0  0  0  0
    3.4914    1.1191    0.0000 C   0  0  0  0  0  0  0  0  0  0  0  0
    2.1404    1.7710    0.0000 C   0  0  0  0  0  0  0  0  0  0  0  0
    0.7885    1.1212    0.0000 C   0  0  0  0  0  0  0  0  0  0  0  0
   -2.0285    0.4268    0.0000 C   0  0  0  0  0  0  0  0  0  0  0  0
   -3.4911    0.0942    0.0000 C   0  0  0  0  0  0  0  0  0  0  0  0
   -3.9344   -1.3389    0.0000 O   0  0  0  0  0  0  0  0  0  0  0  0
   -4.5106    1.1945    0.0000 O   0  0  0  0  0  0  0  0  0  0  0  0
  1  2  1  0
  2  3  1  0
  3  4  1  0
  4  5  1  0
  5  6  1  0
  6  7  1  0
  7  8  1  0
  1  9  1  0
  9 10  1  0
 10 11  2  0
 10 12  1  0
  8  2  1  0
M  END
>  <rName>  (2514) 
NcHept-G

>  <PQ_SYMBOL>  (2514) 
NcHept-G

>  <FULL_NAME>  (2514) 
N-cycloheptylglycine

>  <IUPAC_CONDENSED>  (2514) 
N-cHept-Gly

>  <IUPAC>  (2514) 
2-(cycloheptylamino)acetic acid

>  <TYPE>  (2514) 
N-term cap

>  <CLASS>  (2514) 
n_cap

>  <ANALOG>  (2514) 
X

>  <MOL_WT>  (2514) 
171.24

>  <LOGP>  (2514) 
1.3834

>  <TPSA>  (2514) 
49.33

>  <POPULARITY>  (2514) 
6.8

>  <PROTECTED>  (2514) 
FALSE

>  <SMILES>  (2514) 
N(C1(CCCCCC1))CC(=O)O

>  <INCHIKEY>  (2514) 
NPLBBQAAYSJEMO-UHFFFAOYSA-N

$$$$
NcHex-A
     RDKit          2D

 12 12  0  0  0  0  0  0  0  0999 V2000
   -0.6495   -1.5000    0.0000 N   0  0  0  0  0  0  0  0  0  0  0  0
    0.6495   -0.7500    0.0000 C   0  0  0  0  0  0  0  0  0  0  0  0
    0.6495    0.7500    0.0000 C   0  0  0  0  0  0  0  0  0  0  0  0
    1.9486    1.5000    0.0000 C   0  0  0  0  0  0  0  0  0  0  0  0
    3.2476    0.7500    0.0000 C   0  0  0  0  0  0  0  0  0  0  0  0
    3.2476   -0.7500    0.0000 C   0  0  0  0  0  0  0  0  0  0  0  0
    1.9486   -1.5000    0.0000 C   0  0  0  0  0  0  0  0  0  0  0  0
   -1.9486   -0.7500    0.0000 C   0  0  0  0  0  0  0  0  0  0  0  0
   -3.2476   -1.5000    0.0000 C   0  0  0  0  0  0  0  0  0  0  0  0
   -1.9486    0.7500    0.0000 C   0  0  0  0  0  0  0  0  0  0  0  0
   -0.6495    1.5000    0.0000 O   0  0  0  0  0  0  0  0  0  0  0  0
   -3.2476    1.5000    0.0000 O   0  0  0  0  0  0  0  0  0  0  0  0
  1  2  1  0
  2  3  1  0
  3  4  1  0
  4  5  1  0
  5  6  1  0
  6  7  1  0
  1  8  1  0
  8  9  1  1
  8 10  1  0
 10 11  2  0
 10 12  1  0
  7  2  1  0
M  END
>  <rName>  (2515) 
NcHex-A

>  <PQ_SYMBOL>  (2515) 
NcHex-A

>  <FULL_NAME>  (2515) 
(2S)-2-(cyclohexylamino)propanoic acid

>  <IUPAC_CONDENSED>  (2515) 
cHex-Ala

>  <IUPAC>  (2515) 
(2S)-2-(cyclohexylamino)propanoic acid

>  <TYPE>  (2515) 
Backbone

>  <CLASS>  (2515) 
alpha

>  <ANALOG>  (2515) 
Ala

>  <MOL_WT>  (2515) 
171.24

>  <LOGP>  (2515) 
1.3818

>  <TPSA>  (2515) 
49.33

>  <POPULARITY>  (2515) 
15.5

>  <PROTECTED>  (2515) 
TRUE

>  <SMILES>  (2515) 
N(C1(CCCCC1))[C@@H](C)C(=O)O

>  <INCHIKEY>  (2515) 
BVAUMRCGVHUWOZ-ZETCQYMHSA-N

$$$$
NcHex-G
     RDKit          2D

 11 11  0  0  0  0  0  0  0  0999 V2000
   -0.6853   -0.6503    0.0000 N   0  0  0  0  0  0  0  0  0  0  0  0
    0.7732   -0.3002    0.0000 C   0  0  0  0  0  0  0  0  0  0  0  0
    1.1993    1.1380    0.0000 C   0  0  0  0  0  0  0  0  0  0  0  0
    2.6579    1.4881    0.0000 C   0  0  0  0  0  0  0  0  0  0  0  0
    3.6904    0.4000    0.0000 C   0  0  0  0  0  0  0  0  0  0  0  0
    3.2643   -1.0382    0.0000 C   0  0  0  0  0  0  0  0  0  0  0  0
    1.8057   -1.3883    0.0000 C   0  0  0  0  0  0  0  0  0  0  0  0
   -1.7178    0.4378    0.0000 C   0  0  0  0  0  0  0  0  0  0  0  0
   -3.1764    0.0877    0.0000 C   0  0  0  0  0  0  0  0  0  0  0  0
   -3.6025   -1.3505    0.0000 O   0  0  0  0  0  0  0  0  0  0  0  0
   -4.2089    1.1758    0.0000 O   0  0  0  0  0  0  0  0  0  0  0  0
  1  2  1  0
  2  3  1  0
  3  4  1  0
  4  5  1  0
  5  6  1  0
  6  7  1  0
  1  8  1  0
  8  9  1  0
  9 10  2  0
  9 11  1  0
  7  2  1  0
M  END
>  <rName>  (2516) 
NcHex-G

>  <PQ_SYMBOL>  (2516) 
NcHex-G

>  <FULL_NAME>  (2516) 
2-(cyclohexylamino)acetic acid

>  <IUPAC_CONDENSED>  (2516) 
N-cHex-Gly

>  <IUPAC>  (2516) 
2-(cyclohexylamino)acetic acid

>  <TYPE>  (2516) 
Backbone

>  <CLASS>  (2516) 
alpha

>  <ANALOG>  (2516) 
Gly

>  <MOL_WT>  (2516) 
157.21300000000002

>  <LOGP>  (2516) 
0.9932999999999998

>  <TPSA>  (2516) 
49.33

>  <POPULARITY>  (2516) 
20.2

>  <PROTECTED>  (2516) 
TRUE

>  <SMILES>  (2516) 
N(C1(CCCCC1))CC(=O)O

>  <INCHIKEY>  (2516) 
OQMYZVWIXPPDDE-UHFFFAOYSA-N

$$$$
NcHex4NH2-G
     RDKit          2D

 12 12  0  0  0  0  0  0  0  0999 V2000
   -1.1404   -0.6704    0.0000 N   0  0  0  0  0  0  0  0  0  0  0  0
    0.3303   -0.3754    0.0000 C   0  0  0  0  0  0  0  0  0  0  0  0
    0.8101    1.0458    0.0000 C   0  0  0  0  0  0  0  0  0  0  0  0
    2.2808    1.3409    0.0000 C   0  0  0  0  0  0  0  0  0  0  0  0
    3.2717    0.2147    0.0000 C   0  0  0  0  0  0  0  0  0  0  0  0
    4.7424    0.5098    0.0000 N   0  0  0  0  0  0  0  0  0  0  0  0
    2.7919   -1.2064    0.0000 C   0  0  0  0  0  0  0  0  0  0  0  0
    1.3212   -1.5015    0.0000 C   0  0  0  0  0  0  0  0  0  0  0  0
   -2.1313    0.4557    0.0000 C   0  0  0  0  0  0  0  0  0  0  0  0
   -3.6020    0.1606    0.0000 C   0  0  0  0  0  0  0  0  0  0  0  0
   -4.0818   -1.2606    0.0000 O   0  0  0  0  0  0  0  0  0  0  0  0
   -4.5928    1.2868    0.0000 O   0  0  0  0  0  0  0  0  0  0  0  0
  1  2  1  0
  2  3  1  0
  3  4  1  0
  4  5  1  0
  5  6  1  0
  5  7  1  0
  7  8  1  0
  1  9  1  0
  9 10  1  0
 10 11  2  0
 10 12  1  0
  8  2  1  0
M  END
>  <rName>  (2517) 
NcHex4NH2-G

>  <PQ_SYMBOL>  (2517) 
NcHex4NH2-G

>  <FULL_NAME>  (2517) 
4-Aminocyclohexylglycine

>  <IUPAC_CONDENSED>  (2517) 
cHex(4-NH2)-Gly

>  <IUPAC>  (2517) 
2-((4-aminocyclohexyl)amino)acetic acid

>  <TYPE>  (2517) 
Backbone

>  <CLASS>  (2517) 
alpha

>  <ANALOG>  (2517) 
Gly

>  <MOL_WT>  (2517) 
172.228

>  <LOGP>  (2517) 
-0.06950000000000017

>  <TPSA>  (2517) 
75.35

>  <POPULARITY>  (2517) 
8.0

>  <PROTECTED>  (2517) 
TRUE

>  <SMILES>  (2517) 
N(C1(CCC(N)CC1))CC(=O)O

>  <INCHIKEY>  (2517) 
SNQBKCVWLYISGN-UHFFFAOYSA-N

$$$$
NcHexCH2-G
     RDKit          2D

 12 12  0  0  0  0  0  0  0  0999 V2000
   -1.2194   -0.1693    0.0000 N   0  0  0  0  0  0  0  0  0  0  0  0
   -0.0183   -1.0678    0.0000 C   0  0  0  0  0  0  0  0  0  0  0  0
    1.3604   -0.4769    0.0000 C   0  0  0  0  0  0  0  0  0  0  0  0
    1.5380    1.0126    0.0000 C   0  0  0  0  0  0  0  0  0  0  0  0
    2.9167    1.6035    0.0000 C   0  0  0  0  0  0  0  0  0  0  0  0
    4.1178    0.7050    0.0000 C   0  0  0  0  0  0  0  0  0  0  0  0
    3.9402   -0.7845    0.0000 C   0  0  0  0  0  0  0  0  0  0  0  0
    2.5615   -1.3754    0.0000 C   0  0  0  0  0  0  0  0  0  0  0  0
   -2.5981   -0.7603    0.0000 C   0  0  0  0  0  0  0  0  0  0  0  0
   -3.7992    0.1382    0.0000 C   0  0  0  0  0  0  0  0  0  0  0  0
   -3.6216    1.6277    0.0000 O   0  0  0  0  0  0  0  0  0  0  0  0
   -5.1779   -0.4527    0.0000 O   0  0  0  0  0  0  0  0  0  0  0  0
  1  2  1  0
  2  3  1  0
  3  4  1  0
  4  5  1  0
  5  6  1  0
  6  7  1  0
  7  8  1  0
  1  9  1  0
  9 10  1  0
 10 11  2  0
 10 12  1  0
  8  3  1  0
M  END
>  <rName>  (2518) 
NcHexCH2-G

>  <PQ_SYMBOL>  (2518) 
NcHexCH2-G

>  <FULL_NAME>  (2518) 
2-(cyclohexylmethylamino)acetic acid

>  <IUPAC_CONDENSED>  (2518) 
cHexCH2-Gly

>  <IUPAC>  (2518) 
2-(cyclohexylmethylamino)acetic acid

>  <TYPE>  (2518) 
Backbone

>  <CLASS>  (2518) 
alpha

>  <ANALOG>  (2518) 
Gly

>  <MOL_WT>  (2518) 
171.24

>  <LOGP>  (2518) 
1.2409000000000001

>  <TPSA>  (2518) 
49.33

>  <POPULARITY>  (2518) 
18.5

>  <PROTECTED>  (2518) 
TRUE

>  <SMILES>  (2518) 
N(CC1(CCCCC1))CC(=O)O

>  <INCHIKEY>  (2518) 
XQMXBAOAYVXFPQ-UHFFFAOYSA-N

$$$$
NcHexEt-G
     RDKit          2D

 13 13  0  0  0  0  0  0  0  0999 V2000
   -2.0072   -0.3719    0.0000 N   0  0  0  0  0  0  0  0  0  0  0  0
   -0.5884    0.1150    0.0000 C   0  0  0  0  0  0  0  0  0  0  0  0
    0.5426   -0.8703    0.0000 C   0  0  0  0  0  0  0  0  0  0  0  0
    1.9614   -0.3834    0.0000 C   0  0  0  0  0  0  0  0  0  0  0  0
    2.2491    1.0888    0.0000 C   0  0  0  0  0  0  0  0  0  0  0  0
    3.6679    1.5757    0.0000 C   0  0  0  0  0  0  0  0  0  0  0  0
    4.7990    0.5904    0.0000 C   0  0  0  0  0  0  0  0  0  0  0  0
    4.5112   -0.8817    0.0000 C   0  0  0  0  0  0  0  0  0  0  0  0
    3.0925   -1.3686    0.0000 C   0  0  0  0  0  0  0  0  0  0  0  0
   -3.1382    0.6134    0.0000 C   0  0  0  0  0  0  0  0  0  0  0  0
   -4.5570    0.1265    0.0000 C   0  0  0  0  0  0  0  0  0  0  0  0
   -4.8448   -1.3456    0.0000 O   0  0  0  0  0  0  0  0  0  0  0  0
   -5.6881    1.1118    0.0000 O   0  0  0  0  0  0  0  0  0  0  0  0
  1  2  1  0
  2  3  1  0
  3  4  1  0
  4  5  1  0
  5  6  1  0
  6  7  1  0
  7  8  1  0
  8  9  1  0
  1 10  1  0
 10 11  1  0
 11 12  2  0
 11 13  1  0
  9  4  1  0
M  END
>  <rName>  (2519) 
NcHexEt-G

>  <PQ_SYMBOL>  (2519) 
NcHexEt-G

>  <FULL_NAME>  (2519) 
2-(2-cyclohexylethylamino)acetic acid

>  <IUPAC_CONDENSED>  (2519) 
cHexEt-Gly

>  <IUPAC>  (2519) 
2-((2-cyclohexylethyl)amino)acetic acid

>  <TYPE>  (2519) 
Backbone

>  <CLASS>  (2519) 
alpha

>  <ANALOG>  (2519) 
Gly

>  <MOL_WT>  (2519) 
185.267

>  <LOGP>  (2519) 
1.631

>  <TPSA>  (2519) 
49.33

>  <POPULARITY>  (2519) 
16.1

>  <PROTECTED>  (2519) 
TRUE

>  <SMILES>  (2519) 
N(CCC1(CCCCC1))CC(=O)O

>  <INCHIKEY>  (2519) 
OXOSGTIYWYTEKT-UHFFFAOYSA-N

$$$$
NcOct-G
     RDKit          2D

 13 13  0  0  0  0  0  0  0  0999 V2000
   -1.3200   -0.6942    0.0000 N   0  0  0  0  0  0  0  0  0  0  0  0
    0.1462   -0.3773    0.0000 C   0  0  0  0  0  0  0  0  0  0  0  0
    0.4145    1.0985    0.0000 C   0  0  0  0  0  0  0  0  0  0  0  0
    1.6478    1.9523    0.0000 C   0  0  0  0  0  0  0  0  0  0  0  0
    3.1236    1.6839    0.0000 C   0  0  0  0  0  0  0  0  0  0  0  0
    3.9774    0.4507    0.0000 C   0  0  0  0  0  0  0  0  0  0  0  0
    3.7091   -1.0251    0.0000 C   0  0  0  0  0  0  0  0  0  0  0  0
    2.4758   -1.8790    0.0000 C   0  0  0  0  0  0  0  0  0  0  0  0
    1.0000   -1.6106    0.0000 C   0  0  0  0  0  0  0  0  0  0  0  0
   -2.3275    0.4171    0.0000 C   0  0  0  0  0  0  0  0  0  0  0  0
   -3.7936    0.1002    0.0000 C   0  0  0  0  0  0  0  0  0  0  0  0
   -4.2523   -1.3279    0.0000 O   0  0  0  0  0  0  0  0  0  0  0  0
   -4.8011    1.2115    0.0000 O   0  0  0  0  0  0  0  0  0  0  0  0
  1  2  1  0
  2  3  1  0
  3  4  1  0
  4  5  1  0
  5  6  1  0
  6  7  1  0
  7  8  1  0
  8  9  1  0
  1 10  1  0
 10 11  1  0
 11 12  2  0
 11 13  1  0
  9  2  1  0
M  END
>  <rName>  (2520) 
NcOct-G

>  <PQ_SYMBOL>  (2520) 
NcOct-G

>  <FULL_NAME>  (2520) 
N-cyclooctylglycine

>  <IUPAC_CONDENSED>  (2520) 
N-cOct-Gly

>  <IUPAC>  (2520) 
2-(cyclooctylamino)acetic acid

>  <TYPE>  (2520) 
N-term cap

>  <CLASS>  (2520) 
n_cap

>  <ANALOG>  (2520) 
X

>  <MOL_WT>  (2520) 
185.267

>  <LOGP>  (2520) 
1.7735

>  <TPSA>  (2520) 
49.33

>  <POPULARITY>  (2520) 
6.7

>  <PROTECTED>  (2520) 
FALSE

>  <SMILES>  (2520) 
N(C1(CCCCCCC1))CC(=O)O

>  <INCHIKEY>  (2520) 
PNKNDNFLQNMQJL-UHFFFAOYSA-N

$$$$
NcPent-G
     RDKit          2D

 10 10  0  0  0  0  0  0  0  0999 V2000
   -0.3449   -0.6238    0.0000 N   0  0  0  0  0  0  0  0  0  0  0  0
    1.1088   -0.2543    0.0000 C   0  0  0  0  0  0  0  0  0  0  0  0
    2.2623   -1.2132    0.0000 C   0  0  0  0  0  0  0  0  0  0  0  0
    3.5307   -0.4124    0.0000 C   0  0  0  0  0  0  0  0  0  0  0  0
    3.1612    1.0413    0.0000 C   0  0  0  0  0  0  0  0  0  0  0  0
    1.6644    1.1391    0.0000 C   0  0  0  0  0  0  0  0  0  0  0  0
   -1.3919    0.4504    0.0000 C   0  0  0  0  0  0  0  0  0  0  0  0
   -2.8456    0.0808    0.0000 C   0  0  0  0  0  0  0  0  0  0  0  0
   -3.2525   -1.3629    0.0000 O   0  0  0  0  0  0  0  0  0  0  0  0
   -3.8925    1.1550    0.0000 O   0  0  0  0  0  0  0  0  0  0  0  0
  1  2  1  0
  2  3  1  0
  3  4  1  0
  4  5  1  0
  5  6  1  0
  1  7  1  0
  7  8  1  0
  8  9  2  0
  8 10  1  0
  6  2  1  0
M  END
>  <rName>  (2521) 
NcPent-G

>  <PQ_SYMBOL>  (2521) 
NcPent-G

>  <FULL_NAME>  (2521) 
2-(Cyclopentylamino)acetic acid

>  <IUPAC_CONDENSED>  (2521) 
N-cPent-Gly

>  <IUPAC>  (2521) 
2-(cyclopentylamino)acetic acid

>  <TYPE>  (2521) 
Backbone

>  <CLASS>  (2521) 
alpha

>  <ANALOG>  (2521) 
Gly

>  <MOL_WT>  (2521) 
143.186

>  <LOGP>  (2521) 
0.6032

>  <TPSA>  (2521) 
49.33

>  <POPULARITY>  (2521) 
16.7

>  <PROTECTED>  (2521) 
TRUE

>  <SMILES>  (2521) 
N(C1(CCCC1))CC(=O)O

>  <INCHIKEY>  (2521) 
LRHRHAWNXCGABU-UHFFFAOYSA-N

$$$$
NcPentCH2-G
     RDKit          2D

 11 11  0  0  0  0  0  0  0  0999 V2000
   -0.8743   -0.1360    0.0000 N   0  0  0  0  0  0  0  0  0  0  0  0
    0.3442   -1.0108    0.0000 C   0  0  0  0  0  0  0  0  0  0  0  0
    1.7110   -0.3930    0.0000 C   0  0  0  0  0  0  0  0  0  0  0  0
    3.0143   -1.1357    0.0000 C   0  0  0  0  0  0  0  0  0  0  0  0
    4.1233   -0.1257    0.0000 C   0  0  0  0  0  0  0  0  0  0  0  0
    3.5055    1.2411    0.0000 C   0  0  0  0  0  0  0  0  0  0  0  0
    2.0146    1.0759    0.0000 C   0  0  0  0  0  0  0  0  0  0  0  0
   -2.2412   -0.7538    0.0000 C   0  0  0  0  0  0  0  0  0  0  0  0
   -3.4596    0.1211    0.0000 C   0  0  0  0  0  0  0  0  0  0  0  0
   -3.3112    1.6137    0.0000 O   0  0  0  0  0  0  0  0  0  0  0  0
   -4.8265   -0.4968    0.0000 O   0  0  0  0  0  0  0  0  0  0  0  0
  1  2  1  0
  2  3  1  0
  3  4  1  0
  4  5  1  0
  5  6  1  0
  6  7  1  0
  1  8  1  0
  8  9  1  0
  9 10  2  0
  9 11  1  0
  7  3  1  0
M  END
>  <rName>  (2522) 
NcPentCH2-G

>  <PQ_SYMBOL>  (2522) 
NcPentCH2-G

>  <FULL_NAME>  (2522) 
2-(Cyclopentylmethylamino)acetic acid

>  <IUPAC_CONDENSED>  (2522) 
cPentCH2-Gly

>  <IUPAC>  (2522) 
2-(cyclopentylmethylamino)acetic acid

>  <TYPE>  (2522) 
Backbone

>  <CLASS>  (2522) 
alpha

>  <ANALOG>  (2522) 
Gly

>  <MOL_WT>  (2522) 
157.21300000000002

>  <LOGP>  (2522) 
0.8507999999999998

>  <TPSA>  (2522) 
49.33

>  <POPULARITY>  (2522) 
2.2

>  <PROTECTED>  (2522) 
TRUE

>  <SMILES>  (2522) 
N(CC1(CCCC1))CC(=O)O

>  <INCHIKEY>  (2522) 
OVRNCLDRYPWWDW-UHFFFAOYSA-N

$$$$
NcPr-A
     RDKit          2D

  9  9  0  0  0  0  0  0  0  0999 V2000
    0.3361   -1.3656    0.0000 N   0  0  0  0  0  0  0  0  0  0  0  0
    1.5442   -0.4765    0.0000 C   0  0  0  0  0  0  0  0  0  0  0  0
    3.0350   -0.3107    0.0000 C   0  0  0  0  0  0  0  0  0  0  0  0
    2.1460    0.8975    0.0000 C   0  0  0  0  0  0  0  0  0  0  0  0
   -1.0379   -0.7638    0.0000 C   0  0  0  0  0  0  0  0  0  0  0  0
   -2.2461   -1.6528    0.0000 C   0  0  0  0  0  0  0  0  0  0  0  0
   -1.2038    0.7270    0.0000 C   0  0  0  0  0  0  0  0  0  0  0  0
    0.0044    1.6161    0.0000 O   0  0  0  0  0  0  0  0  0  0  0  0
   -2.5778    1.3288    0.0000 O   0  0  0  0  0  0  0  0  0  0  0  0
  1  2  1  0
  2  3  1  0
  3  4  1  0
  1  5  1  0
  5  6  1  1
  5  7  1  0
  7  8  2  0
  7  9  1  0
  4  2  1  0
M  END
>  <rName>  (2523) 
NcPr-A

>  <PQ_SYMBOL>  (2523) 
NcPr-A

>  <FULL_NAME>  (2523) 
Dl-cyclopropylalanine

>  <IUPAC_CONDENSED>  (2523) 
cPr-Ala

>  <IUPAC>  (2523) 
(2S)-2-(cyclopropylamino)propanoic acid

>  <TYPE>  (2523) 
Backbone

>  <CLASS>  (2523) 
alpha

>  <ANALOG>  (2523) 
Ala

>  <MOL_WT>  (2523) 
129.159

>  <LOGP>  (2523) 
0.21149999999999974

>  <TPSA>  (2523) 
49.33

>  <POPULARITY>  (2523) 
2.2

>  <PROTECTED>  (2523) 
TRUE

>  <SMILES>  (2523) 
N(C1(CC1))[C@@H](C)C(=O)O

>  <INCHIKEY>  (2523) 
DOGKAHAEQCHFHI-BYPYZUCNSA-N

$$$$
NcPr-Ac4c
     RDKit          2D

 11 12  0  0  0  0  0  0  0  0999 V2000
    0.4246    0.8485    0.0000 N   0  0  0  0  0  0  0  0  0  0  0  0
    1.8792    0.4822    0.0000 C   0  0  0  0  0  0  0  0  0  0  0  0
    3.3220    0.8923    0.0000 C   0  0  0  0  0  0  0  0  0  0  0  0
    2.9558   -0.5623    0.0000 C   0  0  0  0  0  0  0  0  0  0  0  0
   -0.6199   -0.2281    0.0000 C   0  0  0  0  0  0  0  0  0  0  0  0
   -1.6644   -1.3047    0.0000 C   0  0  0  0  0  0  0  0  0  0  0  0
   -0.5878   -2.3492    0.0000 C   0  0  0  0  0  0  0  0  0  0  0  0
    0.4567   -1.2726    0.0000 C   0  0  0  0  0  0  0  0  0  0  0  0
   -1.6965    0.8164    0.0000 C   0  0  0  0  0  0  0  0  0  0  0  0
   -3.1393    0.4063    0.0000 O   0  0  0  0  0  0  0  0  0  0  0  0
   -1.3302    2.2710    0.0000 O   0  0  0  0  0  0  0  0  0  0  0  0
  1  2  1  0
  2  3  1  0
  3  4  1  0
  1  5  1  0
  5  6  1  0
  6  7  1  0
  7  8  1  0
  5  9  1  0
  9 10  2  0
  9 11  1  0
  4  2  1  0
  8  5  1  0
M  END
>  <rName>  (2524) 
NcPr-Ac4c

>  <PQ_SYMBOL>  (2524) 
NcPr-Ac4c

>  <FULL_NAME>  (2524) 
1-(Cyclopropylamino)cyclobutane-1-carboxylic acid

>  <IUPAC_CONDENSED>  (2524) 
cPr-Ac4c

>  <IUPAC>  (2524) 
1-(cyclopropylamino)cyclobutane-1-carboxylic acid

>  <TYPE>  (2524) 
Backbone

>  <CLASS>  (2524) 
alpha

>  <ANALOG>  (2524) 
X

>  <MOL_WT>  (2524) 
155.197

>  <LOGP>  (2524) 
0.7457

>  <TPSA>  (2524) 
49.33

>  <POPULARITY>  (2524) 
2.2

>  <PROTECTED>  (2524) 
TRUE

>  <SMILES>  (2524) 
N(C1(CC1))C2(CCC2)C(=O)O

>  <INCHIKEY>  (2524) 
JMMZRRDWPNYJSP-UHFFFAOYSA-N

$$$$
NcPr-G
     RDKit          2D

  8  8  0  0  0  0  0  0  0  0999 V2000
    0.4085   -0.5581    0.0000 N   0  0  0  0  0  0  0  0  0  0  0  0
    1.8497   -0.1423    0.0000 C   0  0  0  0  0  0  0  0  0  0  0  0
    3.3057   -0.5027    0.0000 C   0  0  0  0  0  0  0  0  0  0  0  0
    2.8899    0.9385    0.0000 C   0  0  0  0  0  0  0  0  0  0  0  0
   -0.6723    0.4820    0.0000 C   0  0  0  0  0  0  0  0  0  0  0  0
   -2.1135    0.0661    0.0000 C   0  0  0  0  0  0  0  0  0  0  0  0
   -2.4739   -1.3899    0.0000 O   0  0  0  0  0  0  0  0  0  0  0  0
   -3.1942    1.1063    0.0000 O   0  0  0  0  0  0  0  0  0  0  0  0
  1  2  1  0
  2  3  1  0
  3  4  1  0
  1  5  1  0
  5  6  1  0
  6  7  2  0
  6  8  1  0
  4  2  1  0
M  END
>  <rName>  (2525) 
NcPr-G

>  <PQ_SYMBOL>  (2525) 
NcPr-G

>  <FULL_NAME>  (2525) 
2-(cyclopropylamino)acetic acid

>  <IUPAC_CONDENSED>  (2525) 
N-cPr-Gly

>  <IUPAC>  (2525) 
2-(cyclopropylamino)acetic acid

>  <TYPE>  (2525) 
Backbone

>  <CLASS>  (2525) 
alpha

>  <ANALOG>  (2525) 
Gly

>  <MOL_WT>  (2525) 
115.13199999999999

>  <LOGP>  (2525) 
-0.17700000000000032

>  <TPSA>  (2525) 
49.33

>  <POPULARITY>  (2525) 
15.5

>  <PROTECTED>  (2525) 
TRUE

>  <SMILES>  (2525) 
N(C1(CC1))CC(=O)O

>  <INCHIKEY>  (2525) 
DXQCCQKRNWMECV-UHFFFAOYSA-N

$$$$
NcPr-bAla
     RDKit          2D

  9  9  0  0  0  0  0  0  0  0999 V2000
    1.1478   -0.8743    0.0000 N   0  0  0  0  0  0  0  0  0  0  0  0
    2.4855   -0.1956    0.0000 C   0  0  0  0  0  0  0  0  0  0  0  0
    3.9833   -0.2766    0.0000 C   0  0  0  0  0  0  0  0  0  0  0  0
    3.3046    1.0610    0.0000 C   0  0  0  0  0  0  0  0  0  0  0  0
   -0.1088   -0.0552    0.0000 C   0  0  0  0  0  0  0  0  0  0  0  0
   -1.4465   -0.7339    0.0000 C   0  0  0  0  0  0  0  0  0  0  0  0
   -2.7031    0.0852    0.0000 C   0  0  0  0  0  0  0  0  0  0  0  0
   -2.6220    1.5830    0.0000 O   0  0  0  0  0  0  0  0  0  0  0  0
   -4.0407   -0.5936    0.0000 O   0  0  0  0  0  0  0  0  0  0  0  0
  1  2  1  0
  2  3  1  0
  3  4  1  0
  1  5  1  0
  5  6  1  0
  6  7  1  0
  7  8  2  0
  7  9  1  0
  4  2  1  0
M  END
>  <rName>  (2526) 
NcPr-bAla

>  <PQ_SYMBOL>  (2526) 
NcPr-bAla

>  <FULL_NAME>  (2526) 
3-(Cyclopropylamino)propionic Acid

>  <IUPAC_CONDENSED>  (2526) 
cPr-bAla

>  <IUPAC>  (2526) 
3-(cyclopropylamino)propanoic acid

>  <TYPE>  (2526) 
Backbone

>  <CLASS>  (2526) 
beta

>  <ANALOG>  (2526) 
Gly

>  <MOL_WT>  (2526) 
129.15900000000002

>  <LOGP>  (2526) 
0.2131

>  <TPSA>  (2526) 
49.33

>  <POPULARITY>  (2526) 
8.6

>  <PROTECTED>  (2526) 
TRUE

>  <SMILES>  (2526) 
N(C1(CC1))CCC(=O)O

>  <INCHIKEY>  (2526) 
KAGNQZHEDUAMKC-UHFFFAOYSA-N

$$$$
NcPrCH2-G
     RDKit          2D

  9  9  0  0  0  0  0  0  0  0999 V2000
   -0.1088   -0.0552    0.0000 N   0  0  0  0  0  0  0  0  0  0  0  0
    1.1478   -0.8743    0.0000 C   0  0  0  0  0  0  0  0  0  0  0  0
    2.4855   -0.1956    0.0000 C   0  0  0  0  0  0  0  0  0  0  0  0
    3.9833   -0.2766    0.0000 C   0  0  0  0  0  0  0  0  0  0  0  0
    3.3046    1.0610    0.0000 C   0  0  0  0  0  0  0  0  0  0  0  0
   -1.4465   -0.7339    0.0000 C   0  0  0  0  0  0  0  0  0  0  0  0
   -2.7031    0.0852    0.0000 C   0  0  0  0  0  0  0  0  0  0  0  0
   -2.6220    1.5830    0.0000 O   0  0  0  0  0  0  0  0  0  0  0  0
   -4.0407   -0.5936    0.0000 O   0  0  0  0  0  0  0  0  0  0  0  0
  1  2  1  0
  2  3  1  0
  3  4  1  0
  4  5  1  0
  1  6  1  0
  6  7  1  0
  7  8  2  0
  7  9  1  0
  5  3  1  0
M  END
>  <rName>  (2527) 
NcPrCH2-G

>  <PQ_SYMBOL>  (2527) 
NcPrCH2-G

>  <FULL_NAME>  (2527) 
N-CYCLOPROPYLMETHYL GLYCINE

>  <IUPAC_CONDENSED>  (2527) 
cPrCH2-Gly

>  <IUPAC>  (2527) 
2-(cyclopropylmethylamino)acetic acid

>  <TYPE>  (2527) 
Backbone

>  <CLASS>  (2527) 
alpha

>  <ANALOG>  (2527) 
Gly

>  <MOL_WT>  (2527) 
129.15900000000002

>  <LOGP>  (2527) 
0.07059999999999994

>  <TPSA>  (2527) 
49.33

>  <POPULARITY>  (2527) 
18.7

>  <PROTECTED>  (2527) 
TRUE

>  <SMILES>  (2527) 
N(CC1(CC1))CC(=O)O

>  <INCHIKEY>  (2527) 
JOWMUWBEMDOCKB-UHFFFAOYSA-N

$$$$
NcPrEt-G
     RDKit          2D

 10 10  0  0  0  0  0  0  0  0999 V2000
   -0.8007   -0.3132    0.0000 N   0  0  0  0  0  0  0  0  0  0  0  0
    0.5962    0.2332    0.0000 C   0  0  0  0  0  0  0  0  0  0  0  0
    1.7679   -0.7033    0.0000 C   0  0  0  0  0  0  0  0  0  0  0  0
    3.1648   -0.1569    0.0000 C   0  0  0  0  0  0  0  0  0  0  0  0
    4.6478   -0.3821    0.0000 C   0  0  0  0  0  0  0  0  0  0  0  0
    4.1014    1.0148    0.0000 C   0  0  0  0  0  0  0  0  0  0  0  0
   -1.9724    0.6233    0.0000 C   0  0  0  0  0  0  0  0  0  0  0  0
   -3.3693    0.0769    0.0000 C   0  0  0  0  0  0  0  0  0  0  0  0
   -3.5946   -1.4061    0.0000 O   0  0  0  0  0  0  0  0  0  0  0  0
   -4.5410    1.0134    0.0000 O   0  0  0  0  0  0  0  0  0  0  0  0
  1  2  1  0
  2  3  1  0
  3  4  1  0
  4  5  1  0
  5  6  1  0
  1  7  1  0
  7  8  1  0
  8  9  2  0
  8 10  1  0
  6  4  1  0
M  END
>  <rName>  (2528) 
NcPrEt-G

>  <PQ_SYMBOL>  (2528) 
NcPrEt-G

>  <FULL_NAME>  (2528) 
2-(2-Cyclopropylethylamino)acetic acid

>  <IUPAC_CONDENSED>  (2528) 
cPrEt-Gly

>  <IUPAC>  (2528) 
2-(2-cyclopropylethylamino)acetic acid

>  <TYPE>  (2528) 
Backbone

>  <CLASS>  (2528) 
alpha

>  <ANALOG>  (2528) 
Gly

>  <MOL_WT>  (2528) 
143.186

>  <LOGP>  (2528) 
0.46069999999999983

>  <TPSA>  (2528) 
49.33

>  <POPULARITY>  (2528) 
2.2

>  <PROTECTED>  (2528) 
TRUE

>  <SMILES>  (2528) 
N(CCC1(CC1))CC(=O)O

>  <INCHIKEY>  (2528) 
JEBKWULWMGXQIF-UHFFFAOYSA-N

$$$$
Ndimethylphosphorylmethyl-G
     RDKit          2D

 10  9  0  0  0  0  0  0  0  0999 V2000
   -0.2598    0.0000    0.0000 N   0  0  0  0  0  0  0  0  0  0  0  0
    1.0392    0.7500    0.0000 C   0  0  0  0  0  0  0  0  0  0  0  0
    2.3383    0.0000    0.0000 P   0  0  0  0  0  0  0  0  0  0  0  0
    3.6373   -0.7500    0.0000 O   0  0  0  0  0  0  0  0  0  0  0  0
    3.0883    1.2990    0.0000 C   0  0  0  0  0  0  0  0  0  0  0  0
    1.5883   -1.2990    0.0000 C   0  0  0  0  0  0  0  0  0  0  0  0
   -1.5588    0.7500    0.0000 C   0  0  0  0  0  0  0  0  0  0  0  0
   -2.8579    0.0000    0.0000 C   0  0  0  0  0  0  0  0  0  0  0  0
   -2.8579   -1.5000    0.0000 O   0  0  0  0  0  0  0  0  0  0  0  0
   -4.1569    0.7500    0.0000 O   0  0  0  0  0  0  0  0  0  0  0  0
  1  2  1  0
  2  3  1  0
  3  4  2  0
  3  5  1  0
  3  6  1  0
  1  7  1  0
  7  8  1  0
  8  9  2  0
  8 10  1  0
M  END
>  <rName>  (2529) 
Ndimethylphosphorylmethyl-G

>  <PQ_SYMBOL>  (2529) 
Ndimethylphosphorylmethyl-G

>  <FULL_NAME>  (2529) 
2-(((Dimethylphosphoryl)methyl)amino)acetic acid

>  <IUPAC_CONDENSED>  (2529) 
dimethylphosphorylmethyl-Gly

>  <IUPAC>  (2529) 
2-(((dimethyloxophosphanyl)methyl)amino)acetic acid

>  <TYPE>  (2529) 
Backbone

>  <CLASS>  (2529) 
alpha

>  <ANALOG>  (2529) 
Gly

>  <MOL_WT>  (2529) 
165.129

>  <LOGP>  (2529) 
0.24079999999999963

>  <TPSA>  (2529) 
66.4

>  <POPULARITY>  (2529) 
3.1

>  <PROTECTED>  (2529) 
TRUE

>  <SMILES>  (2529) 
N(CP(=O)(C)C)CC(=O)O

>  <INCHIKEY>  (2529) 
NCOLKTBILLIIOZ-UHFFFAOYSA-N

$$$$
Nfurfuryl-G
     RDKit          2D

 11 11  0  0  0  0  0  0  0  0999 V2000
   -0.8743   -0.1360    0.0000 N   0  0  0  0  0  0  0  0  0  0  0  0
    0.3442   -1.0108    0.0000 C   0  0  0  0  0  0  0  0  0  0  0  0
    1.7110   -0.3930    0.0000 C   0  0  0  0  0  0  0  0  0  0  0  0
    3.0143   -1.1357    0.0000 C   0  0  0  0  0  0  0  0  0  0  0  0
    4.1233   -0.1257    0.0000 C   0  0  0  0  0  0  0  0  0  0  0  0
    3.5055    1.2411    0.0000 C   0  0  0  0  0  0  0  0  0  0  0  0
    2.0146    1.0759    0.0000 O   0  0  0  0  0  0  0  0  0  0  0  0
   -2.2412   -0.7538    0.0000 C   0  0  0  0  0  0  0  0  0  0  0  0
   -3.4596    0.1211    0.0000 C   0  0  0  0  0  0  0  0  0  0  0  0
   -3.3112    1.6137    0.0000 O   0  0  0  0  0  0  0  0  0  0  0  0
   -4.8265   -0.4968    0.0000 O   0  0  0  0  0  0  0  0  0  0  0  0
  1  2  1  0
  2  3  1  0
  3  4  2  0
  4  5  1  0
  5  6  2  0
  6  7  1  0
  1  8  1  0
  8  9  1  0
  9 10  2  0
  9 11  1  0
  7  3  1  0
M  END
>  <rName>  (2530) 
Nfurfuryl-G

>  <PQ_SYMBOL>  (2530) 
Nfurfuryl-G

>  <FULL_NAME>  (2530) 
2-(furan-2-ylmethylamino)acetic acid

>  <IUPAC_CONDENSED>  (2530) 
furfuryl-Gly

>  <IUPAC>  (2530) 
2-(((furan-2-yl)methyl)amino)acetic acid

>  <TYPE>  (2530) 
Backbone

>  <CLASS>  (2530) 
alpha

>  <ANALOG>  (2530) 
Gly

>  <MOL_WT>  (2530) 
155.153

>  <LOGP>  (2530) 
0.45380000000000015

>  <TPSA>  (2530) 
62.47

>  <POPULARITY>  (2530) 
14.4

>  <PROTECTED>  (2530) 
TRUE

>  <SMILES>  (2530) 
N(Cc1(ccco1))CC(=O)O

>  <INCHIKEY>  (2530) 
NDTZKVFBYRLVQG-UHFFFAOYSA-N

$$$$
Nhex5enyl-G
     RDKit          2D

 11 10  0  0  0  0  0  0  0  0999 V2000
   -1.5414    0.1513    0.0000 N   0  0  0  0  0  0  0  0  0  0  0  0
   -0.2172   -0.5533    0.0000 C   0  0  0  0  0  0  0  0  0  0  0  0
    1.0551    0.2412    0.0000 C   0  0  0  0  0  0  0  0  0  0  0  0
    2.3793   -0.4635    0.0000 C   0  0  0  0  0  0  0  0  0  0  0  0
    3.6517    0.3310    0.0000 C   0  0  0  0  0  0  0  0  0  0  0  0
    4.9759   -0.3736    0.0000 C   0  0  0  0  0  0  0  0  0  0  0  0
    6.2482    0.4209    0.0000 C   0  0  0  0  0  0  0  0  0  0  0  0
   -2.8137   -0.6431    0.0000 C   0  0  0  0  0  0  0  0  0  0  0  0
   -4.1379    0.0615    0.0000 C   0  0  0  0  0  0  0  0  0  0  0  0
   -4.1898    1.5606    0.0000 O   0  0  0  0  0  0  0  0  0  0  0  0
   -5.4102   -0.7330    0.0000 O   0  0  0  0  0  0  0  0  0  0  0  0
  1  2  1  0
  2  3  1  0
  3  4  1  0
  4  5  1  0
  5  6  1  0
  6  7  2  0
  1  8  1  0
  8  9  1  0
  9 10  2  0
  9 11  1  0
M  END
>  <rName>  (2531) 
Nhex5enyl-G

>  <PQ_SYMBOL>  (2531) 
Nhex5enyl-G

>  <FULL_NAME>  (2531) 
2-(hex-5-enylamino)acetic acid

>  <IUPAC_CONDENSED>  (2531) 
hex-5-enyl-Gly

>  <IUPAC>  (2531) 
2-((hex-5-en-1-yl)amino)acetic acid

>  <TYPE>  (2531) 
Backbone

>  <CLASS>  (2531) 
alpha

>  <ANALOG>  (2531) 
Gly

>  <MOL_WT>  (2531) 
157.213

>  <LOGP>  (2531) 
1.0169

>  <TPSA>  (2531) 
49.33

>  <POPULARITY>  (2531) 
14.8

>  <PROTECTED>  (2531) 
TRUE

>  <SMILES>  (2531) 
N(CCCCC=C)CC(=O)O

>  <INCHIKEY>  (2531) 
YVSCSYWGMMOROT-UHFFFAOYSA-N

$$$$
Nhexyl-G
     RDKit          2D

 11 10  0  0  0  0  0  0  0  0999 V2000
   -1.5414    0.1513    0.0000 N   0  0  0  0  0  0  0  0  0  0  0  0
   -0.2172   -0.5533    0.0000 C   0  0  0  0  0  0  0  0  0  0  0  0
    1.0551    0.2412    0.0000 C   0  0  0  0  0  0  0  0  0  0  0  0
    2.3793   -0.4635    0.0000 C   0  0  0  0  0  0  0  0  0  0  0  0
    3.6517    0.3310    0.0000 C   0  0  0  0  0  0  0  0  0  0  0  0
    4.9759   -0.3736    0.0000 C   0  0  0  0  0  0  0  0  0  0  0  0
    6.2482    0.4209    0.0000 C   0  0  0  0  0  0  0  0  0  0  0  0
   -2.8137   -0.6431    0.0000 C   0  0  0  0  0  0  0  0  0  0  0  0
   -4.1379    0.0615    0.0000 C   0  0  0  0  0  0  0  0  0  0  0  0
   -4.1898    1.5606    0.0000 O   0  0  0  0  0  0  0  0  0  0  0  0
   -5.4102   -0.7330    0.0000 O   0  0  0  0  0  0  0  0  0  0  0  0
  1  2  1  0
  2  3  1  0
  3  4  1  0
  4  5  1  0
  5  6  1  0
  6  7  1  0
  1  8  1  0
  8  9  1  0
  9 10  2  0
  9 11  1  0
M  END
>  <rName>  (2532) 
Nhexyl-G

>  <PQ_SYMBOL>  (2532) 
Nhexyl-G

>  <FULL_NAME>  (2532) 
2-(hexylamino)acetic acid

>  <IUPAC_CONDENSED>  (2532) 
hexyl-Gly

>  <IUPAC>  (2532) 
2-(hexylamino)acetic acid

>  <TYPE>  (2532) 
Backbone

>  <CLASS>  (2532) 
alpha

>  <ANALOG>  (2532) 
Gly

>  <MOL_WT>  (2532) 
159.229

>  <LOGP>  (2532) 
1.2409000000000001

>  <TPSA>  (2532) 
49.33

>  <POPULARITY>  (2532) 
20.6

>  <PROTECTED>  (2532) 
TRUE

>  <SMILES>  (2532) 
N(CCCCCC)CC(=O)O

>  <INCHIKEY>  (2532) 
DAQPDSNNUNDKNX-UHFFFAOYSA-N

$$$$
NhexylN3-G
     RDKit          2D

 14 13  0  0  0  0  0  0  0  0999 V2000
   -3.4327    0.1698    0.0000 N   0  0  0  0  0  0  0  0  0  0  0  0
   -2.1357   -0.5836    0.0000 C   0  0  0  0  0  0  0  0  0  0  0  0
   -0.8347    0.1629    0.0000 C   0  0  0  0  0  0  0  0  0  0  0  0
    0.4624   -0.5905    0.0000 C   0  0  0  0  0  0  0  0  0  0  0  0
    1.7634    0.1560    0.0000 C   0  0  0  0  0  0  0  0  0  0  0  0
    3.0604   -0.5974    0.0000 C   0  0  0  0  0  0  0  0  0  0  0  0
    4.3615    0.1491    0.0000 C   0  0  0  0  0  0  0  0  0  0  0  0
    5.6585   -0.6043    0.0000 N   0  0  0  0  0  0  0  0  0  0  0  0
    6.9595    0.1422    0.0000 N   0  0  0  0  0  0  0  0  0  0  0  0
    8.2606    0.8888    0.0000 N   0  0  0  0  0  0  0  0  0  0  0  0
   -4.7338   -0.5767    0.0000 C   0  0  0  0  0  0  0  0  0  0  0  0
   -6.0308    0.1767    0.0000 C   0  0  0  0  0  0  0  0  0  0  0  0
   -6.0268    1.6767    0.0000 O   0  0  0  0  0  0  0  0  0  0  0  0
   -7.3318   -0.5698    0.0000 O   0  0  0  0  0  0  0  0  0  0  0  0
  1  2  1  0
  2  3  1  0
  3  4  1  0
  4  5  1  0
  5  6  1  0
  6  7  1  0
  7  8  1  0
  8  9  2  0
  9 10  2  0
  1 11  1  0
 11 12  1  0
 12 13  2  0
 12 14  1  0
M  CHG  2   9   1  10  -1
M  END
>  <rName>  (2533) 
NhexylN3-G

>  <PQ_SYMBOL>  (2533) 
NhexylN3-G

>  <FULL_NAME>  (2533) 
hexylN3-Gly

>  <IUPAC_CONDENSED>  (2533) 
hexylN3-Gly

>  <IUPAC>  (2533) 
2-((6-azidohexyl)amino)acetic acid

>  <TYPE>  (2533) 
Backbone

>  <CLASS>  (2533) 
alpha

>  <ANALOG>  (2533) 
Gly

>  <MOL_WT>  (2533) 
200.242

>  <LOGP>  (2533) 
1.5312999999999999

>  <TPSA>  (2533) 
98.09000000000002

>  <POPULARITY>  (2533) 
2.2

>  <PROTECTED>  (2533) 
TRUE

>  <SMILES>  (2533) 
N(CCCCCCN=[N+]=[N-])CC(=O)O

>  <INCHIKEY>  (2533) 
QBWKPVMTGSSFIR-UHFFFAOYSA-N

$$$$
NiBu-G
     RDKit          2D

  9  8  0  0  0  0  0  0  0  0999 V2000
    0.0000    0.0000    0.0000 N   0  0  0  0  0  0  0  0  0  0  0  0
   -1.2990    0.7500    0.0000 C   0  0  0  0  0  0  0  0  0  0  0  0
   -2.5981    0.0000    0.0000 C   0  0  0  0  0  0  0  0  0  0  0  0
   -3.8971    0.7500    0.0000 C   0  0  0  0  0  0  0  0  0  0  0  0
   -2.5981   -1.5000    0.0000 C   0  0  0  0  0  0  0  0  0  0  0  0
    1.2990    0.7500    0.0000 C   0  0  0  0  0  0  0  0  0  0  0  0
    2.5981    0.0000    0.0000 C   0  0  0  0  0  0  0  0  0  0  0  0
    2.5981   -1.5000    0.0000 O   0  0  0  0  0  0  0  0  0  0  0  0
    3.8971    0.7500    0.0000 O   0  0  0  0  0  0  0  0  0  0  0  0
  1  2  1  0
  2  3  1  0
  3  4  1  0
  3  5  1  0
  1  6  1  0
  6  7  1  0
  7  8  2  0
  7  9  1  0
M  END
>  <rName>  (2534) 
NiBu-G

>  <PQ_SYMBOL>  (2534) 
NiBu-G

>  <FULL_NAME>  (2534) 
N-isobutylglycine

>  <IUPAC_CONDENSED>  (2534) 
iBu-Gly

>  <IUPAC>  (2534) 
2-((2-methylpropyl)amino)acetic acid

>  <TYPE>  (2534) 
Backbone

>  <CLASS>  (2534) 
alpha

>  <ANALOG>  (2534) 
Gly

>  <MOL_WT>  (2534) 
131.175

>  <LOGP>  (2534) 
0.31659999999999994

>  <TPSA>  (2534) 
49.33

>  <POPULARITY>  (2534) 
32.7

>  <PROTECTED>  (2534) 
TRUE

>  <SMILES>  (2534) 
N(CC(C)C)CC(=O)O

>  <INCHIKEY>  (2534) 
VKZGJEWGVNFKPE-UHFFFAOYSA-N

$$$$
NiBu-bAla
     RDKit          2D

 10  9  0  0  0  0  0  0  0  0999 V2000
   -0.6897   -0.2947    0.0000 N   0  0  0  0  0  0  0  0  0  0  0  0
   -1.8898    0.6050    0.0000 C   0  0  0  0  0  0  0  0  0  0  0  0
   -3.2691    0.0155    0.0000 C   0  0  0  0  0  0  0  0  0  0  0  0
   -4.4693    0.9153    0.0000 C   0  0  0  0  0  0  0  0  0  0  0  0
   -3.4483   -1.4737    0.0000 C   0  0  0  0  0  0  0  0  0  0  0  0
    0.6897    0.2947    0.0000 C   0  0  0  0  0  0  0  0  0  0  0  0
    1.8898   -0.6050    0.0000 C   0  0  0  0  0  0  0  0  0  0  0  0
    3.2691   -0.0155    0.0000 C   0  0  0  0  0  0  0  0  0  0  0  0
    3.4483    1.4737    0.0000 O   0  0  0  0  0  0  0  0  0  0  0  0
    4.4693   -0.9153    0.0000 O   0  0  0  0  0  0  0  0  0  0  0  0
  1  2  1  0
  2  3  1  0
  3  4  1  0
  3  5  1  0
  1  6  1  0
  6  7  1  0
  7  8  1  0
  8  9  2  0
  8 10  1  0
M  END
>  <rName>  (2535) 
NiBu-bAla

>  <PQ_SYMBOL>  (2535) 
NiBu-bAla

>  <FULL_NAME>  (2535) 
3-[(2-Methylpropyl)amino]propanoic acid

>  <IUPAC_CONDENSED>  (2535) 
iBu-bAla

>  <IUPAC>  (2535) 
3-((2-methylpropyl)amino)propanoic acid

>  <TYPE>  (2535) 
Backbone

>  <CLASS>  (2535) 
beta

>  <ANALOG>  (2535) 
Gly

>  <MOL_WT>  (2535) 
145.202

>  <LOGP>  (2535) 
0.7066999999999999

>  <TPSA>  (2535) 
49.33

>  <POPULARITY>  (2535) 
15.5

>  <PROTECTED>  (2535) 
TRUE

>  <SMILES>  (2535) 
N(CC(C)C)CCC(=O)O

>  <INCHIKEY>  (2535) 
PASDZZOUMVZKBD-UHFFFAOYSA-N

$$$$
NiPr-G
     RDKit          2D

  8  7  0  0  0  0  0  0  0  0999 V2000
   -0.5669    0.4910    0.0000 N   0  0  0  0  0  0  0  0  0  0  0  0
   -1.9843    0.0000    0.0000 C   0  0  0  0  0  0  0  0  0  0  0  0
   -3.1182    0.9820    0.0000 C   0  0  0  0  0  0  0  0  0  0  0  0
   -2.2678   -1.4730    0.0000 C   0  0  0  0  0  0  0  0  0  0  0  0
    0.5669   -0.4910    0.0000 C   0  0  0  0  0  0  0  0  0  0  0  0
    1.9843    0.0000    0.0000 C   0  0  0  0  0  0  0  0  0  0  0  0
    2.2678    1.4730    0.0000 O   0  0  0  0  0  0  0  0  0  0  0  0
    3.1182   -0.9820    0.0000 O   0  0  0  0  0  0  0  0  0  0  0  0
  1  2  1  0
  2  3  1  0
  2  4  1  0
  1  5  1  0
  5  6  1  0
  6  7  2  0
  6  8  1  0
M  END
>  <rName>  (2536) 
NiPr-G

>  <PQ_SYMBOL>  (2536) 
NiPr-G

>  <FULL_NAME>  (2536) 
2-(propan-2-ylamino)acetic acid

>  <IUPAC_CONDENSED>  (2536) 
iPr-Gly

>  <IUPAC>  (2536) 
2-((propan-2-yl)amino)acetic acid

>  <TYPE>  (2536) 
Backbone

>  <CLASS>  (2536) 
alpha

>  <ANALOG>  (2536) 
Gly

>  <MOL_WT>  (2536) 
117.14799999999998

>  <LOGP>  (2536) 
0.06899999999999967

>  <TPSA>  (2536) 
49.33

>  <POPULARITY>  (2536) 
27.7

>  <PROTECTED>  (2536) 
TRUE

>  <SMILES>  (2536) 
N(C(C)C)CC(=O)O

>  <INCHIKEY>  (2536) 
HEPOIJKOXBKKNJ-UHFFFAOYSA-N

$$$$
Nip
     RDKit          2D

  9  9  0  0  0  0  0  0  0  0999 V2000
    1.9167   -1.2990    0.0000 N   0  0  0  0  0  0  0  0  0  0  0  0
    0.4167   -1.2990    0.0000 C   0  0  0  0  0  0  0  0  0  0  0  0
   -0.3333    0.0000    0.0000 C   0  0  0  0  0  0  0  0  0  0  0  0
    0.4167    1.2990    0.0000 C   0  0  0  0  0  0  0  0  0  0  0  0
    1.9167    1.2990    0.0000 C   0  0  0  0  0  0  0  0  0  0  0  0
    2.6667    0.0000    0.0000 C   0  0  0  0  0  0  0  0  0  0  0  0
   -1.8333    0.0000    0.0000 C   0  0  0  0  0  0  0  0  0  0  0  0
   -2.5833   -1.2990    0.0000 O   0  0  0  0  0  0  0  0  0  0  0  0
   -2.5833    1.2990    0.0000 O   0  0  0  0  0  0  0  0  0  0  0  0
  1  2  1  0
  2  3  1  0
  3  4  1  0
  4  5  1  0
  5  6  1  0
  3  7  1  6
  7  8  2  0
  7  9  1  0
  6  1  1  0
M  END
>  <rName>  (2537) 
Nip

>  <PQ_SYMBOL>  (2537) 
Nip

>  <FULL_NAME>  (2537) 
(R)-Nipecotic acid

>  <IUPAC_CONDENSED>  (2537) 
Nip

>  <IUPAC>  (2537) 
(3R)-piperidine-3-carboxylic acid

>  <TYPE>  (2537) 
Backbone

>  <CLASS>  (2537) 
beta

>  <ANALOG>  (2537) 
Pro

>  <MOL_WT>  (2537) 
129.15900000000002

>  <LOGP>  (2537) 
0.07059999999999994

>  <TPSA>  (2537) 
49.33

>  <POPULARITY>  (2537) 
15.1

>  <PROTECTED>  (2537) 
TRUE

>  <SMILES>  (2537) 
N1C[C@@H](CCC1)C(=O)O

>  <INCHIKEY>  (2537) 
XJLSEXAGTJCILF-RXMQYKEDSA-N

$$$$
Nip_3CF3
     RDKit          2D

 13 13  0  0  0  0  0  0  0  0999 V2000
    2.4373   -1.1529    0.0000 N   0  0  0  0  0  0  0  0  0  0  0  0
    0.9444   -1.2983    0.0000 C   0  0  0  0  0  0  0  0  0  0  0  0
    0.0720   -0.0780    0.0000 C   0  0  0  0  0  0  0  0  0  0  0  0
    0.6926    1.2876    0.0000 C   0  0  0  0  0  0  0  0  0  0  0  0
    2.1855    1.4329    0.0000 C   0  0  0  0  0  0  0  0  0  0  0  0
    3.0579    0.2127    0.0000 C   0  0  0  0  0  0  0  0  0  0  0  0
   -1.1651    0.7702    0.0000 C   0  0  0  0  0  0  0  0  0  0  0  0
   -2.4022    1.6185    0.0000 F   0  0  0  0  0  0  0  0  0  0  0  0
   -1.8888   -0.0495    0.0000 F   0  0  0  0  0  0  0  0  0  0  0  0
   -0.3168    2.0073    0.0000 F   0  0  0  0  0  0  0  0  0  0  0  0
   -0.9782   -1.1490    0.0000 C   0  0  0  0  0  0  0  0  0  0  0  0
   -2.0625   -1.0075    0.0000 O   0  0  0  0  0  0  0  0  0  0  0  0
   -0.5758   -2.5941    0.0000 O   0  0  0  0  0  0  0  0  0  0  0  0
  1  2  1  0
  2  3  1  0
  3  4  1  0
  4  5  1  0
  5  6  1  0
  3  7  1  0
  7  8  1  0
  7  9  1  0
  7 10  1  0
  3 11  1  0
 11 12  2  0
 11 13  1  0
  6  1  1  0
M  END
>  <rName>  (2538) 
Nip_3CF3

>  <PQ_SYMBOL>  (2538) 
Nip_3CF3

>  <FULL_NAME>  (2538) 
3-(Trifluoromethyl)piperidine-3-carboxylic acid

>  <IUPAC_CONDENSED>  (2538) 
Nip(3-CF3)

>  <IUPAC>  (2538) 
3-(trifluoromethyl)piperidine-3-carboxylic acid

>  <TYPE>  (2538) 
Backbone

>  <CLASS>  (2538) 
beta

>  <ANALOG>  (2538) 
Pro

>  <MOL_WT>  (2538) 
197.15599999999998

>  <LOGP>  (2538) 
1.0030999999999999

>  <TPSA>  (2538) 
49.33

>  <POPULARITY>  (2538) 
2.8

>  <PROTECTED>  (2538) 
TRUE

>  <SMILES>  (2538) 
N1CC(CCC1)(C(F)(F)F)C(=O)O

>  <INCHIKEY>  (2538) 
GDEAPMNTAZDQJE-UHFFFAOYSA-N

$$$$
Nip_3F
     RDKit          2D

 10 10  0  0  0  0  0  0  0  0999 V2000
    1.6072   -1.4630    0.0000 N   0  0  0  0  0  0  0  0  0  0  0  0
    0.1558   -1.0843    0.0000 C   0  0  0  0  0  0  0  0  0  0  0  0
   -0.2419    0.3621    0.0000 C   0  0  0  0  0  0  0  0  0  0  0  0
   -1.1103    1.5851    0.0000 F   0  0  0  0  0  0  0  0  0  0  0  0
    0.8118    1.4296    0.0000 C   0  0  0  0  0  0  0  0  0  0  0  0
    2.2632    1.0509    0.0000 C   0  0  0  0  0  0  0  0  0  0  0  0
    2.6609   -0.3955    0.0000 C   0  0  0  0  0  0  0  0  0  0  0  0
   -1.5972   -0.2807    0.0000 C   0  0  0  0  0  0  0  0  0  0  0  0
   -1.7181   -1.7758    0.0000 O   0  0  0  0  0  0  0  0  0  0  0  0
   -2.8315    0.5716    0.0000 O   0  0  0  0  0  0  0  0  0  0  0  0
  1  2  1  0
  2  3  1  0
  3  4  1  0
  3  5  1  0
  5  6  1  0
  6  7  1  0
  3  8  1  0
  8  9  2  0
  8 10  1  0
  7  1  1  0
M  END
>  <rName>  (2539) 
Nip_3F

>  <PQ_SYMBOL>  (2539) 
Nip_3F

>  <FULL_NAME>  (2539) 
3-Fluoropiperidine-3-carboxylic acid

>  <IUPAC_CONDENSED>  (2539) 
Nip(3-F)

>  <IUPAC>  (2539) 
3-fluoropiperidine-3-carboxylic acid

>  <TYPE>  (2539) 
Backbone

>  <CLASS>  (2539) 
beta

>  <ANALOG>  (2539) 
Pro

>  <MOL_WT>  (2539) 
147.149

>  <LOGP>  (2539) 
0.1627

>  <TPSA>  (2539) 
49.33

>  <POPULARITY>  (2539) 
5.9

>  <PROTECTED>  (2539) 
TRUE

>  <SMILES>  (2539) 
N1CC(F)(CCC1)C(=O)O

>  <INCHIKEY>  (2539) 
KSIRIZKXXISPRE-UHFFFAOYSA-N

$$$$
Nip_3Me
     RDKit          2D

 10 10  0  0  0  0  0  0  0  0999 V2000
    2.2632   -1.0509    0.0000 N   0  0  0  0  0  0  0  0  0  0  0  0
    0.8118   -1.4296    0.0000 C   0  0  0  0  0  0  0  0  0  0  0  0
   -0.2419   -0.3621    0.0000 C   0  0  0  0  0  0  0  0  0  0  0  0
   -1.1103   -1.5851    0.0000 C   0  0  0  0  0  0  0  0  0  0  0  0
    0.1558    1.0843    0.0000 C   0  0  0  0  0  0  0  0  0  0  0  0
    1.6072    1.4630    0.0000 C   0  0  0  0  0  0  0  0  0  0  0  0
    2.6609    0.3955    0.0000 C   0  0  0  0  0  0  0  0  0  0  0  0
   -1.5972    0.2807    0.0000 C   0  0  0  0  0  0  0  0  0  0  0  0
   -2.8315   -0.5716    0.0000 O   0  0  0  0  0  0  0  0  0  0  0  0
   -1.7181    1.7758    0.0000 O   0  0  0  0  0  0  0  0  0  0  0  0
  1  2  1  0
  2  3  1  0
  3  4  1  0
  3  5  1  0
  5  6  1  0
  6  7  1  0
  3  8  1  0
  8  9  2  0
  8 10  1  0
  7  1  1  0
M  END
>  <rName>  (2540) 
Nip_3Me

>  <PQ_SYMBOL>  (2540) 
Nip_3Me

>  <FULL_NAME>  (2540) 
3-Methylpiperidine-3-carboxylic acid

>  <IUPAC_CONDENSED>  (2540) 
Nip(3-Me)

>  <IUPAC>  (2540) 
3-methylpiperidine-3-carboxylic acid

>  <TYPE>  (2540) 
Backbone

>  <CLASS>  (2540) 
beta

>  <ANALOG>  (2540) 
Pro

>  <MOL_WT>  (2540) 
143.186

>  <LOGP>  (2540) 
0.46069999999999983

>  <TPSA>  (2540) 
49.33

>  <POPULARITY>  (2540) 
11.2

>  <PROTECTED>  (2540) 
TRUE

>  <SMILES>  (2540) 
N1CC(C)(CCC1)C(=O)O

>  <INCHIKEY>  (2540) 
DEMOKNSWMVAJPZ-UHFFFAOYSA-N

$$$$
Nip_3OH
     RDKit          2D

 10 10  0  0  0  0  0  0  0  0999 V2000
    1.6072   -1.4630    0.0000 N   0  0  0  0  0  0  0  0  0  0  0  0
    0.1558   -1.0843    0.0000 C   0  0  0  0  0  0  0  0  0  0  0  0
   -0.2419    0.3621    0.0000 C   0  0  0  0  0  0  0  0  0  0  0  0
   -1.1103    1.5851    0.0000 O   0  0  0  0  0  0  0  0  0  0  0  0
    0.8118    1.4296    0.0000 C   0  0  0  0  0  0  0  0  0  0  0  0
    2.2632    1.0509    0.0000 C   0  0  0  0  0  0  0  0  0  0  0  0
    2.6609   -0.3955    0.0000 C   0  0  0  0  0  0  0  0  0  0  0  0
   -1.5972   -0.2807    0.0000 C   0  0  0  0  0  0  0  0  0  0  0  0
   -1.7181   -1.7758    0.0000 O   0  0  0  0  0  0  0  0  0  0  0  0
   -2.8315    0.5716    0.0000 O   0  0  0  0  0  0  0  0  0  0  0  0
  1  2  1  0
  2  3  1  0
  3  4  1  0
  3  5  1  0
  5  6  1  0
  6  7  1  0
  3  8  1  0
  8  9  2  0
  8 10  1  0
  7  1  1  0
M  END
>  <rName>  (2541) 
Nip_3OH

>  <PQ_SYMBOL>  (2541) 
Nip_3OH

>  <FULL_NAME>  (2541) 
3-Hydroxypiperidine-3-carboxylic acid

>  <IUPAC_CONDENSED>  (2541) 
Nip(3-OH)

>  <IUPAC>  (2541) 
3-hydroxypiperidine-3-carboxylic acid

>  <TYPE>  (2541) 
Backbone

>  <CLASS>  (2541) 
beta

>  <ANALOG>  (2541) 
Pro

>  <MOL_WT>  (2541) 
145.15800000000002

>  <LOGP>  (2541) 
-0.8145000000000007

>  <TPSA>  (2541) 
69.56

>  <POPULARITY>  (2541) 
6.8

>  <PROTECTED>  (2541) 
TRUE

>  <SMILES>  (2541) 
N1CC(O)(CCC1)C(=O)O

>  <INCHIKEY>  (2541) 
PEGNTNPGJKQIGM-UHFFFAOYSA-N

$$$$
Nip_3RBn
     RDKit          2D

 16 17  0  0  0  0  0  0  0  0999 V2000
    0.4702   -2.2332    0.0000 N   0  0  0  0  0  0  0  0  0  0  0  0
    0.1545   -0.7668    0.0000 C   0  0  0  0  0  0  0  0  0  0  0  0
    1.2666    0.2398    0.0000 C   0  0  0  0  0  0  0  0  0  0  0  0
    2.6944   -0.2199    0.0000 C   0  0  0  0  0  0  0  0  0  0  0  0
    3.0101   -1.6863    0.0000 C   0  0  0  0  0  0  0  0  0  0  0  0
    1.8980   -2.6930    0.0000 C   0  0  0  0  0  0  0  0  0  0  0  0
    0.0821    1.1602    0.0000 C   0  0  0  0  0  0  0  0  0  0  0  0
   -1.3071    0.5947    0.0000 C   0  0  0  0  0  0  0  0  0  0  0  0
   -1.5120   -0.8913    0.0000 C   0  0  0  0  0  0  0  0  0  0  0  0
   -2.9013   -1.4568    0.0000 C   0  0  0  0  0  0  0  0  0  0  0  0
   -4.0857   -0.5365    0.0000 C   0  0  0  0  0  0  0  0  0  0  0  0
   -3.8809    0.9495    0.0000 C   0  0  0  0  0  0  0  0  0  0  0  0
   -2.4916    1.5150    0.0000 C   0  0  0  0  0  0  0  0  0  0  0  0
    1.9673    1.5661    0.0000 C   0  0  0  0  0  0  0  0  0  0  0  0
    1.1691    2.8361    0.0000 O   0  0  0  0  0  0  0  0  0  0  0  0
    3.4663    1.6224    0.0000 O   0  0  0  0  0  0  0  0  0  0  0  0
  1  2  1  0
  2  3  1  0
  3  4  1  0
  4  5  1  0
  5  6  1  0
  3  7  1  6
  7  8  1  0
  8  9  2  0
  9 10  1  0
 10 11  2  0
 11 12  1  0
 12 13  2  0
  3 14  1  0
 14 15  2  0
 14 16  1  0
  6  1  1  0
 13  8  1  0
M  END
>  <rName>  (2542) 
Nip_3RBn

>  <PQ_SYMBOL>  (2542) 
Nip_3RBn

>  <FULL_NAME>  (2542) 
(3R)-3-benzylpiperidine-3-carboxylic acid

>  <IUPAC_CONDENSED>  (2542) 
Nip(3R-Bn)

>  <IUPAC>  (2542) 
(3R)-3-benzylpiperidine-3-carboxylic acid

>  <TYPE>  (2542) 
Backbone

>  <CLASS>  (2542) 
beta

>  <ANALOG>  (2542) 
Pro

>  <MOL_WT>  (2542) 
219.28400000000002

>  <LOGP>  (2542) 
1.6835

>  <TPSA>  (2542) 
49.33

>  <POPULARITY>  (2542) 
3.5

>  <PROTECTED>  (2542) 
TRUE

>  <SMILES>  (2542) 
N1C[C@@](CCC1)(Cc2(ccccc2))C(=O)O

>  <INCHIKEY>  (2542) 
VUABMCZPLLTLBX-CYBMUJFWSA-N

$$$$
Nip_3RMe
     RDKit          2D

 10 10  0  0  0  0  0  0  0  0999 V2000
    2.2632   -1.0509    0.0000 N   0  0  0  0  0  0  0  0  0  0  0  0
    0.8118   -1.4296    0.0000 C   0  0  0  0  0  0  0  0  0  0  0  0
   -0.2419   -0.3621    0.0000 C   0  0  0  0  0  0  0  0  0  0  0  0
   -1.1103   -1.5851    0.0000 C   0  0  0  0  0  0  0  0  0  0  0  0
    0.1558    1.0843    0.0000 C   0  0  0  0  0  0  0  0  0  0  0  0
    1.6072    1.4630    0.0000 C   0  0  0  0  0  0  0  0  0  0  0  0
    2.6609    0.3955    0.0000 C   0  0  0  0  0  0  0  0  0  0  0  0
   -1.5972    0.2807    0.0000 C   0  0  0  0  0  0  0  0  0  0  0  0
   -2.8315   -0.5716    0.0000 O   0  0  0  0  0  0  0  0  0  0  0  0
   -1.7181    1.7758    0.0000 O   0  0  0  0  0  0  0  0  0  0  0  0
  1  2  1  0
  2  3  1  0
  3  4  1  1
  3  5  1  0
  5  6  1  0
  6  7  1  0
  3  8  1  0
  8  9  2  0
  8 10  1  0
  7  1  1  0
M  END
>  <rName>  (2543) 
Nip_3RMe

>  <PQ_SYMBOL>  (2543) 
Nip_3RMe

>  <FULL_NAME>  (2543) 
(R)-3-Methylpiperidine-3-carboxylic acid

>  <IUPAC_CONDENSED>  (2543) 
Nip(3R-Me)

>  <IUPAC>  (2543) 
(3R)-3-methylpiperidine-3-carboxylic acid

>  <TYPE>  (2543) 
Backbone

>  <CLASS>  (2543) 
beta

>  <ANALOG>  (2543) 
Pro

>  <MOL_WT>  (2543) 
143.186

>  <LOGP>  (2543) 
0.46069999999999983

>  <TPSA>  (2543) 
49.33

>  <POPULARITY>  (2543) 
10.4

>  <PROTECTED>  (2543) 
TRUE

>  <SMILES>  (2543) 
N1C[C@@](C)(CCC1)C(=O)O

>  <INCHIKEY>  (2543) 
DEMOKNSWMVAJPZ-SSDOTTSWSA-N

$$$$
Nip_3SBn
     RDKit          2D

 16 17  0  0  0  0  0  0  0  0999 V2000
    0.4702   -2.2332    0.0000 N   0  0  0  0  0  0  0  0  0  0  0  0
    0.1545   -0.7668    0.0000 C   0  0  0  0  0  0  0  0  0  0  0  0
    1.2666    0.2398    0.0000 C   0  0  0  0  0  0  0  0  0  0  0  0
    2.6944   -0.2199    0.0000 C   0  0  0  0  0  0  0  0  0  0  0  0
    3.0101   -1.6863    0.0000 C   0  0  0  0  0  0  0  0  0  0  0  0
    1.8980   -2.6930    0.0000 C   0  0  0  0  0  0  0  0  0  0  0  0
    0.0821    1.1602    0.0000 C   0  0  0  0  0  0  0  0  0  0  0  0
   -1.3071    0.5947    0.0000 C   0  0  0  0  0  0  0  0  0  0  0  0
   -1.5120   -0.8913    0.0000 C   0  0  0  0  0  0  0  0  0  0  0  0
   -2.9013   -1.4568    0.0000 C   0  0  0  0  0  0  0  0  0  0  0  0
   -4.0857   -0.5365    0.0000 C   0  0  0  0  0  0  0  0  0  0  0  0
   -3.8809    0.9495    0.0000 C   0  0  0  0  0  0  0  0  0  0  0  0
   -2.4916    1.5150    0.0000 C   0  0  0  0  0  0  0  0  0  0  0  0
    1.9673    1.5661    0.0000 C   0  0  0  0  0  0  0  0  0  0  0  0
    1.1691    2.8361    0.0000 O   0  0  0  0  0  0  0  0  0  0  0  0
    3.4663    1.6224    0.0000 O   0  0  0  0  0  0  0  0  0  0  0  0
  1  2  1  0
  2  3  1  0
  3  4  1  0
  4  5  1  0
  5  6  1  0
  3  7  1  1
  7  8  1  0
  8  9  2  0
  9 10  1  0
 10 11  2  0
 11 12  1  0
 12 13  2  0
  3 14  1  0
 14 15  2  0
 14 16  1  0
  6  1  1  0
 13  8  1  0
M  END
>  <rName>  (2544) 
Nip_3SBn

>  <PQ_SYMBOL>  (2544) 
Nip_3SBn

>  <FULL_NAME>  (2544) 
(3S)-3-benzylpiperidine-3-carboxylic acid

>  <IUPAC_CONDENSED>  (2544) 
Nip(3S-Bn)

>  <IUPAC>  (2544) 
(3S)-3-benzylpiperidine-3-carboxylic acid

>  <TYPE>  (2544) 
Backbone

>  <CLASS>  (2544) 
beta

>  <ANALOG>  (2544) 
Pro

>  <MOL_WT>  (2544) 
219.28400000000002

>  <LOGP>  (2544) 
1.6835

>  <TPSA>  (2544) 
49.33

>  <POPULARITY>  (2544) 
3.5

>  <PROTECTED>  (2544) 
TRUE

>  <SMILES>  (2544) 
N1C[C@](CCC1)(Cc2(ccccc2))C(=O)O

>  <INCHIKEY>  (2544) 
VUABMCZPLLTLBX-ZDUSSCGKSA-N

$$$$
Nip_3SMe
     RDKit          2D

 10 10  0  0  0  0  0  0  0  0999 V2000
    2.2632   -1.0509    0.0000 N   0  0  0  0  0  0  0  0  0  0  0  0
    0.8118   -1.4296    0.0000 C   0  0  0  0  0  0  0  0  0  0  0  0
   -0.2419   -0.3621    0.0000 C   0  0  0  0  0  0  0  0  0  0  0  0
   -1.1103   -1.5851    0.0000 C   0  0  0  0  0  0  0  0  0  0  0  0
    0.1558    1.0843    0.0000 C   0  0  0  0  0  0  0  0  0  0  0  0
    1.6072    1.4630    0.0000 C   0  0  0  0  0  0  0  0  0  0  0  0
    2.6609    0.3955    0.0000 C   0  0  0  0  0  0  0  0  0  0  0  0
   -1.5972    0.2807    0.0000 C   0  0  0  0  0  0  0  0  0  0  0  0
   -2.8315   -0.5716    0.0000 O   0  0  0  0  0  0  0  0  0  0  0  0
   -1.7181    1.7758    0.0000 O   0  0  0  0  0  0  0  0  0  0  0  0
  1  2  1  0
  2  3  1  0
  3  4  1  6
  3  5  1  0
  5  6  1  0
  6  7  1  0
  3  8  1  0
  8  9  2  0
  8 10  1  0
  7  1  1  0
M  END
>  <rName>  (2545) 
Nip_3SMe

>  <PQ_SYMBOL>  (2545) 
Nip_3SMe

>  <FULL_NAME>  (2545) 
(S)-3-Methylpiperidine-3-carboxylic acid

>  <IUPAC_CONDENSED>  (2545) 
Nip(3S-Me)

>  <IUPAC>  (2545) 
(3S)-3-methylpiperidine-3-carboxylic acid

>  <TYPE>  (2545) 
Backbone

>  <CLASS>  (2545) 
beta

>  <ANALOG>  (2545) 
Pro

>  <MOL_WT>  (2545) 
143.186

>  <LOGP>  (2545) 
0.46069999999999983

>  <TPSA>  (2545) 
49.33

>  <POPULARITY>  (2545) 
2.2

>  <PROTECTED>  (2545) 
TRUE

>  <SMILES>  (2545) 
N1C[C@](C)(CCC1)C(=O)O

>  <INCHIKEY>  (2545) 
DEMOKNSWMVAJPZ-ZETCQYMHSA-N

$$$$
Nip_4OH_5OH
     RDKit          2D

 11 11  0  0  0  0  0  0  0  0999 V2000
    1.1880   -2.1522    0.0000 N   0  0  0  0  0  0  0  0  0  0  0  0
   -0.2609   -1.7640    0.0000 C   0  0  0  0  0  0  0  0  0  0  0  0
   -0.6491   -0.3151    0.0000 C   0  0  0  0  0  0  0  0  0  0  0  0
    0.4115    0.7456    0.0000 C   0  0  0  0  0  0  0  0  0  0  0  0
    0.0233    2.1944    0.0000 O   0  0  0  0  0  0  0  0  0  0  0  0
    1.8604    0.3573    0.0000 C   0  0  0  0  0  0  0  0  0  0  0  0
    2.9211    1.4180    0.0000 O   0  0  0  0  0  0  0  0  0  0  0  0
    2.2486   -1.0916    0.0000 C   0  0  0  0  0  0  0  0  0  0  0  0
   -2.0980    0.0731    0.0000 C   0  0  0  0  0  0  0  0  0  0  0  0
   -3.1587   -0.9875    0.0000 O   0  0  0  0  0  0  0  0  0  0  0  0
   -2.4862    1.5220    0.0000 O   0  0  0  0  0  0  0  0  0  0  0  0
  1  2  1  0
  2  3  1  0
  3  4  1  0
  4  5  1  0
  4  6  1  0
  6  7  1  0
  6  8  1  0
  3  9  1  0
  9 10  2  0
  9 11  1  0
  8  1  1  0
M  END
>  <rName>  (2546) 
Nip_4OH_5OH

>  <PQ_SYMBOL>  (2546) 
Nip_4OH_5OH

>  <FULL_NAME>  (2546) 
4,5-Dihydroxypiperidine-3-carboxylic acid

>  <IUPAC_CONDENSED>  (2546) 
Nip(4-OH,5-OH)

>  <IUPAC>  (2546) 
4,5-dihydroxypiperidine-3-carboxylic acid

>  <TYPE>  (2546) 
Backbone

>  <CLASS>  (2546) 
beta

>  <ANALOG>  (2546) 
Pro

>  <MOL_WT>  (2546) 
161.15699999999998

>  <LOGP>  (2546) 
-1.9878

>  <TPSA>  (2546) 
89.79

>  <POPULARITY>  (2546) 
4.9

>  <PROTECTED>  (2546) 
TRUE

>  <SMILES>  (2546) 
N1CC(C(O)C(O)C1)C(=O)O

>  <INCHIKEY>  (2546) 
SSMLJUWXZFXWSF-UHFFFAOYSA-N

$$$$
Nip_4RMe
     RDKit          2D

 10 10  0  0  0  0  0  0  0  0999 V2000
    2.0255   -1.4594    0.0000 N   0  0  0  0  0  0  0  0  0  0  0  0
    0.5274   -1.5344    0.0000 C   0  0  0  0  0  0  0  0  0  0  0  0
   -0.2866   -0.2745    0.0000 C   0  0  0  0  0  0  0  0  0  0  0  0
    0.3975    1.0604    0.0000 C   0  0  0  0  0  0  0  0  0  0  0  0
   -0.4166    2.3203    0.0000 C   0  0  0  0  0  0  0  0  0  0  0  0
    1.8956    1.1355    0.0000 C   0  0  0  0  0  0  0  0  0  0  0  0
    2.7096   -0.1244    0.0000 C   0  0  0  0  0  0  0  0  0  0  0  0
   -1.7848   -0.3495    0.0000 C   0  0  0  0  0  0  0  0  0  0  0  0
   -2.5988    0.9104    0.0000 O   0  0  0  0  0  0  0  0  0  0  0  0
   -2.4688   -1.6844    0.0000 O   0  0  0  0  0  0  0  0  0  0  0  0
  1  2  1  0
  2  3  1  0
  3  4  1  0
  4  5  1  6
  4  6  1  0
  6  7  1  0
  3  8  1  6
  8  9  2  0
  8 10  1  0
  7  1  1  0
M  END
>  <rName>  (2547) 
Nip_4RMe

>  <PQ_SYMBOL>  (2547) 
Nip_4RMe

>  <FULL_NAME>  (2547) 
(3R,4R)-4-Methylpiperidine-3-carboxylic acid

>  <IUPAC_CONDENSED>  (2547) 
Nip(4R-Me)

>  <IUPAC>  (2547) 
(3R,4R)-4-methylpiperidine-3-carboxylic acid

>  <TYPE>  (2547) 
Backbone

>  <CLASS>  (2547) 
beta

>  <ANALOG>  (2547) 
Pro

>  <MOL_WT>  (2547) 
143.186

>  <LOGP>  (2547) 
0.31659999999999994

>  <TPSA>  (2547) 
49.33

>  <POPULARITY>  (2547) 
2.2

>  <PROTECTED>  (2547) 
TRUE

>  <SMILES>  (2547) 
N1C[C@@H]([C@H](C)CC1)C(=O)O

>  <INCHIKEY>  (2547) 
WKOFYEXTIWYYNM-RITPCOANSA-N

$$$$
Nip_4RPh
     RDKit          2D

 15 16  0  0  0  0  0  0  0  0999 V2000
   -3.5525   -1.0342    0.0000 N   0  0  0  0  0  0  0  0  0  0  0  0
   -2.9616    0.3445    0.0000 C   0  0  0  0  0  0  0  0  0  0  0  0
   -1.4722    0.5221    0.0000 C   0  0  0  0  0  0  0  0  0  0  0  0
   -0.5736   -0.6789    0.0000 C   0  0  0  0  0  0  0  0  0  0  0  0
   -1.1645   -2.0576    0.0000 C   0  0  0  0  0  0  0  0  0  0  0  0
   -2.6540   -2.2353    0.0000 C   0  0  0  0  0  0  0  0  0  0  0  0
    0.9158   -0.5013    0.0000 C   0  0  0  0  0  0  0  0  0  0  0  0
    1.8144   -1.7024    0.0000 C   0  0  0  0  0  0  0  0  0  0  0  0
    3.3038   -1.5247    0.0000 C   0  0  0  0  0  0  0  0  0  0  0  0
    3.8947   -0.1460    0.0000 C   0  0  0  0  0  0  0  0  0  0  0  0
    2.9961    1.0551    0.0000 C   0  0  0  0  0  0  0  0  0  0  0  0
    1.5067    0.8774    0.0000 C   0  0  0  0  0  0  0  0  0  0  0  0
   -0.8813    1.9009    0.0000 C   0  0  0  0  0  0  0  0  0  0  0  0
    0.6081    2.0785    0.0000 O   0  0  0  0  0  0  0  0  0  0  0  0
   -1.7799    3.1019    0.0000 O   0  0  0  0  0  0  0  0  0  0  0  0
  1  2  1  0
  2  3  1  0
  3  4  1  0
  4  5  1  0
  5  6  1  0
  4  7  1  6
  7  8  2  0
  8  9  1  0
  9 10  2  0
 10 11  1  0
 11 12  2  0
  3 13  1  6
 13 14  2  0
 13 15  1  0
  6  1  1  0
 12  7  1  0
M  END
>  <rName>  (2548) 
Nip_4RPh

>  <PQ_SYMBOL>  (2548) 
Nip_4RPh

>  <FULL_NAME>  (2548) 
3-Piperidinecarboxylic acid, 4-phenyl-, cis-

>  <IUPAC_CONDENSED>  (2548) 
Nip(4R-Ph)

>  <IUPAC>  (2548) 
(3R,4R)-4-phenylpiperidine-3-carboxylic acid

>  <TYPE>  (2548) 
Backbone

>  <CLASS>  (2548) 
beta

>  <ANALOG>  (2548) 
Pro

>  <MOL_WT>  (2548) 
205.257

>  <LOGP>  (2548) 
1.4643

>  <TPSA>  (2548) 
49.33

>  <POPULARITY>  (2548) 
7.0

>  <PROTECTED>  (2548) 
TRUE

>  <SMILES>  (2548) 
N1C[C@@H]([C@@H](CC1)c2(ccccc2))C(=O)O

>  <INCHIKEY>  (2548) 
WZJHHUNNKMJOBR-QWRGUYRKSA-N

$$$$
Nip_5Me
     RDKit          2D

 10 10  0  0  0  0  0  0  0  0999 V2000
    1.1946   -1.9301    0.0000 N   0  0  0  0  0  0  0  0  0  0  0  0
   -0.2551   -1.5451    0.0000 C   0  0  0  0  0  0  0  0  0  0  0  0
   -0.6466   -0.0971    0.0000 C   0  0  0  0  0  0  0  0  0  0  0  0
    0.4117    0.9659    0.0000 C   0  0  0  0  0  0  0  0  0  0  0  0
    1.8615    0.5809    0.0000 C   0  0  0  0  0  0  0  0  0  0  0  0
    2.9197    1.6440    0.0000 C   0  0  0  0  0  0  0  0  0  0  0  0
    2.2529   -0.8671    0.0000 C   0  0  0  0  0  0  0  0  0  0  0  0
   -2.0963    0.2879    0.0000 C   0  0  0  0  0  0  0  0  0  0  0  0
   -3.1546   -0.7752    0.0000 O   0  0  0  0  0  0  0  0  0  0  0  0
   -2.4878    1.7359    0.0000 O   0  0  0  0  0  0  0  0  0  0  0  0
  1  2  1  0
  2  3  1  0
  3  4  1  0
  4  5  1  0
  5  6  1  0
  5  7  1  0
  3  8  1  0
  8  9  2  0
  8 10  1  0
  7  1  1  0
M  END
>  <rName>  (2549) 
Nip_5Me

>  <PQ_SYMBOL>  (2549) 
Nip_5Me

>  <FULL_NAME>  (2549) 
5-Methylpiperidine-3-carboxylic acid

>  <IUPAC_CONDENSED>  (2549) 
Nip(5-Me)

>  <IUPAC>  (2549) 
5-methylpiperidine-3-carboxylic acid

>  <TYPE>  (2549) 
Backbone

>  <CLASS>  (2549) 
beta

>  <ANALOG>  (2549) 
Pro

>  <MOL_WT>  (2549) 
143.186

>  <LOGP>  (2549) 
0.31659999999999994

>  <TPSA>  (2549) 
49.33

>  <POPULARITY>  (2549) 
11.9

>  <PROTECTED>  (2549) 
TRUE

>  <SMILES>  (2549) 
N1CC(CC(C)C1)C(=O)O

>  <INCHIKEY>  (2549) 
CBDSIHCOUDRMMA-UHFFFAOYSA-N

$$$$
Nip_5MeNH2
     RDKit          2D

 11 11  0  0  0  0  0  0  0  0999 V2000
    0.5480   -2.1250    0.0000 N   0  0  0  0  0  0  0  0  0  0  0  0
   -0.8455   -1.5700    0.0000 C   0  0  0  0  0  0  0  0  0  0  0  0
   -1.0616   -0.0856    0.0000 C   0  0  0  0  0  0  0  0  0  0  0  0
    0.1159    0.8437    0.0000 C   0  0  0  0  0  0  0  0  0  0  0  0
    1.5094    0.2886    0.0000 C   0  0  0  0  0  0  0  0  0  0  0  0
    2.6869    1.2179    0.0000 C   0  0  0  0  0  0  0  0  0  0  0  0
    4.0804    0.6628    0.0000 N   0  0  0  0  0  0  0  0  0  0  0  0
    1.7255   -1.1957    0.0000 C   0  0  0  0  0  0  0  0  0  0  0  0
   -2.4551    0.4694    0.0000 C   0  0  0  0  0  0  0  0  0  0  0  0
   -3.6326   -0.4599    0.0000 O   0  0  0  0  0  0  0  0  0  0  0  0
   -2.6712    1.9538    0.0000 O   0  0  0  0  0  0  0  0  0  0  0  0
  1  2  1  0
  2  3  1  0
  3  4  1  0
  4  5  1  0
  5  6  1  0
  6  7  1  0
  5  8  1  0
  3  9  1  0
  9 10  2  0
  9 11  1  0
  8  1  1  0
M  END
>  <rName>  (2550) 
Nip_5MeNH2

>  <PQ_SYMBOL>  (2550) 
Nip_5MeNH2

>  <FULL_NAME>  (2550) 
5-(Aminomethyl)piperidine-3-carboxylic acid

>  <IUPAC_CONDENSED>  (2550) 
Nip(5-MeNH2)

>  <IUPAC>  (2550) 
5-(aminomethyl)piperidine-3-carboxylic acid

>  <TYPE>  (2550) 
Backbone

>  <CLASS>  (2550) 
beta

>  <ANALOG>  (2550) 
Pro

>  <MOL_WT>  (2550) 
158.20100000000002

>  <LOGP>  (2550) 
-0.7445999999999995

>  <TPSA>  (2550) 
75.35

>  <POPULARITY>  (2550) 
8.0

>  <PROTECTED>  (2550) 
TRUE

>  <SMILES>  (2550) 
N1CC(CC(CN)C1)C(=O)O

>  <INCHIKEY>  (2550) 
AGLZAPCVLBFPQX-UHFFFAOYSA-N

$$$$
Nip_5Ph
     RDKit          2D

 15 16  0  0  0  0  0  0  0  0999 V2000
   -1.5193   -2.4823    0.0000 N   0  0  0  0  0  0  0  0  0  0  0  0
   -2.6277   -1.4715    0.0000 C   0  0  0  0  0  0  0  0  0  0  0  0
   -2.3065   -0.0063    0.0000 C   0  0  0  0  0  0  0  0  0  0  0  0
   -0.8770    0.4482    0.0000 C   0  0  0  0  0  0  0  0  0  0  0  0
    0.2313   -0.5626    0.0000 C   0  0  0  0  0  0  0  0  0  0  0  0
   -0.0898   -2.0278    0.0000 C   0  0  0  0  0  0  0  0  0  0  0  0
    1.6608   -0.1081    0.0000 C   0  0  0  0  0  0  0  0  0  0  0  0
    2.7692   -1.1188    0.0000 C   0  0  0  0  0  0  0  0  0  0  0  0
    4.1986   -0.6643    0.0000 C   0  0  0  0  0  0  0  0  0  0  0  0
    4.5198    0.8009    0.0000 C   0  0  0  0  0  0  0  0  0  0  0  0
    3.4115    1.8116    0.0000 C   0  0  0  0  0  0  0  0  0  0  0  0
    1.9820    1.3571    0.0000 C   0  0  0  0  0  0  0  0  0  0  0  0
   -3.4148    1.0044    0.0000 C   0  0  0  0  0  0  0  0  0  0  0  0
   -4.8443    0.5499    0.0000 O   0  0  0  0  0  0  0  0  0  0  0  0
   -3.0937    2.4696    0.0000 O   0  0  0  0  0  0  0  0  0  0  0  0
  1  2  1  0
  2  3  1  0
  3  4  1  0
  4  5  1  0
  5  6  1  0
  5  7  1  0
  7  8  2  0
  8  9  1  0
  9 10  2  0
 10 11  1  0
 11 12  2  0
  3 13  1  0
 13 14  2  0
 13 15  1  0
  6  1  1  0
 12  7  1  0
M  END
>  <rName>  (2551) 
Nip_5Ph

>  <PQ_SYMBOL>  (2551) 
Nip_5Ph

>  <FULL_NAME>  (2551) 
5-Phenylpiperidine-3-carboxylic acid

>  <IUPAC_CONDENSED>  (2551) 
Nip(5-Ph)

>  <IUPAC>  (2551) 
5-phenylpiperidine-3-carboxylic acid

>  <TYPE>  (2551) 
Backbone

>  <CLASS>  (2551) 
beta

>  <ANALOG>  (2551) 
Pro

>  <MOL_WT>  (2551) 
205.257

>  <LOGP>  (2551) 
1.4643

>  <TPSA>  (2551) 
49.33

>  <POPULARITY>  (2551) 
9.7

>  <PROTECTED>  (2551) 
TRUE

>  <SMILES>  (2551) 
N1CC(CC(C1)c2(ccccc2))C(=O)O

>  <INCHIKEY>  (2551) 
XORGFPVZKXBBJZ-UHFFFAOYSA-N

$$$$
Nip_5RCF3
     RDKit          2D

 13 13  0  0  0  0  0  0  0  0999 V2000
   -0.2741   -2.4158    0.0000 N   0  0  0  0  0  0  0  0  0  0  0  0
   -1.5495   -1.6263    0.0000 C   0  0  0  0  0  0  0  0  0  0  0  0
   -1.5035   -0.1270    0.0000 C   0  0  0  0  0  0  0  0  0  0  0  0
   -0.1821    0.5828    0.0000 C   0  0  0  0  0  0  0  0  0  0  0  0
    1.0934   -0.2067    0.0000 C   0  0  0  0  0  0  0  0  0  0  0  0
    1.0474   -1.7060    0.0000 C   0  0  0  0  0  0  0  0  0  0  0  0
    2.4148    0.5031    0.0000 C   0  0  0  0  0  0  0  0  0  0  0  0
    3.7362    1.2129    0.0000 F   0  0  0  0  0  0  0  0  0  0  0  0
    3.1246   -0.8183    0.0000 F   0  0  0  0  0  0  0  0  0  0  0  0
    1.7050    1.8245    0.0000 F   0  0  0  0  0  0  0  0  0  0  0  0
   -2.7789    0.6625    0.0000 C   0  0  0  0  0  0  0  0  0  0  0  0
   -4.1003   -0.0474    0.0000 O   0  0  0  0  0  0  0  0  0  0  0  0
   -2.7329    2.1617    0.0000 O   0  0  0  0  0  0  0  0  0  0  0  0
  1  2  1  0
  2  3  1  0
  3  4  1  0
  4  5  1  0
  5  6  1  0
  5  7  1  1
  7  8  1  0
  7  9  1  0
  7 10  1  0
  3 11  1  6
 11 12  2  0
 11 13  1  0
  6  1  1  0
M  END
>  <rName>  (2552) 
Nip_5RCF3

>  <PQ_SYMBOL>  (2552) 
Nip_5RCF3

>  <FULL_NAME>  (2552) 
O=C(O)[C@H]1CNC[C@H](C(F)(F)F)C1

>  <IUPAC_CONDENSED>  (2552) 
Nip(5R-CF3)

>  <IUPAC>  (2552) 
(3R,5R)-5-(trifluoromethyl)piperidine-3-carboxylic acid

>  <TYPE>  (2552) 
Backbone

>  <CLASS>  (2552) 
beta

>  <ANALOG>  (2552) 
Pro

>  <MOL_WT>  (2552) 
197.15599999999998

>  <LOGP>  (2552) 
0.859

>  <TPSA>  (2552) 
49.33

>  <POPULARITY>  (2552) 
3.0

>  <PROTECTED>  (2552) 
TRUE

>  <SMILES>  (2552) 
N1C[C@@H](C[C@H](C1)C(F)(F)F)C(=O)O

>  <INCHIKEY>  (2552) 
FYCAOBWFMRWJHV-RFZPGFLSSA-N

$$$$
Nip_6Me
     RDKit          2D

 10 10  0  0  0  0  0  0  0  0999 V2000
    1.5000   -1.2990    0.0000 N   0  0  0  0  0  0  0  0  0  0  0  0
   -0.0000   -1.2990    0.0000 C   0  0  0  0  0  0  0  0  0  0  0  0
   -0.7500    0.0000    0.0000 C   0  0  0  0  0  0  0  0  0  0  0  0
   -0.0000    1.2990    0.0000 C   0  0  0  0  0  0  0  0  0  0  0  0
    1.5000    1.2990    0.0000 C   0  0  0  0  0  0  0  0  0  0  0  0
    2.2500   -0.0000    0.0000 C   0  0  0  0  0  0  0  0  0  0  0  0
    3.7500   -0.0000    0.0000 C   0  0  0  0  0  0  0  0  0  0  0  0
   -2.2500    0.0000    0.0000 C   0  0  0  0  0  0  0  0  0  0  0  0
   -3.0000   -1.2990    0.0000 O   0  0  0  0  0  0  0  0  0  0  0  0
   -3.0000    1.2990    0.0000 O   0  0  0  0  0  0  0  0  0  0  0  0
  1  2  1  0
  2  3  1  0
  3  4  1  0
  4  5  1  0
  5  6  1  0
  6  7  1  0
  3  8  1  0
  8  9  2  0
  8 10  1  0
  6  1  1  0
M  END
>  <rName>  (2553) 
Nip_6Me

>  <PQ_SYMBOL>  (2553) 
Nip_6Me

>  <FULL_NAME>  (2553) 
6-Methylpiperidine-3-carboxylic acid

>  <IUPAC_CONDENSED>  (2553) 
Nip(6-Me)

>  <IUPAC>  (2553) 
6-methylpiperidine-3-carboxylic acid

>  <TYPE>  (2553) 
Backbone

>  <CLASS>  (2553) 
beta

>  <ANALOG>  (2553) 
Pro

>  <MOL_WT>  (2553) 
143.186

>  <LOGP>  (2553) 
0.4591

>  <TPSA>  (2553) 
49.33

>  <POPULARITY>  (2553) 
12.4

>  <PROTECTED>  (2553) 
TRUE

>  <SMILES>  (2553) 
N1CC(CCC1C)C(=O)O

>  <INCHIKEY>  (2553) 
ITWDDDADSFZADI-UHFFFAOYSA-N

$$$$
Nip_6RMe
     RDKit          2D

 10 10  0  0  0  0  0  0  0  0999 V2000
    1.5000   -1.2990    0.0000 N   0  0  0  0  0  0  0  0  0  0  0  0
   -0.0000   -1.2990    0.0000 C   0  0  0  0  0  0  0  0  0  0  0  0
   -0.7500    0.0000    0.0000 C   0  0  0  0  0  0  0  0  0  0  0  0
   -0.0000    1.2990    0.0000 C   0  0  0  0  0  0  0  0  0  0  0  0
    1.5000    1.2990    0.0000 C   0  0  0  0  0  0  0  0  0  0  0  0
    2.2500   -0.0000    0.0000 C   0  0  0  0  0  0  0  0  0  0  0  0
    3.7500   -0.0000    0.0000 C   0  0  0  0  0  0  0  0  0  0  0  0
   -2.2500    0.0000    0.0000 C   0  0  0  0  0  0  0  0  0  0  0  0
   -3.0000   -1.2990    0.0000 O   0  0  0  0  0  0  0  0  0  0  0  0
   -3.0000    1.2990    0.0000 O   0  0  0  0  0  0  0  0  0  0  0  0
  1  2  1  0
  2  3  1  0
  3  4  1  0
  4  5  1  0
  5  6  1  0
  6  7  1  1
  3  8  1  6
  8  9  2  0
  8 10  1  0
  6  1  1  0
M  END
>  <rName>  (2554) 
Nip_6RMe

>  <PQ_SYMBOL>  (2554) 
Nip_6RMe

>  <FULL_NAME>  (2554) 
(3R,6R)-6-Methylpiperidine-3-carboxylic acid

>  <IUPAC_CONDENSED>  (2554) 
Nip(6R-Me)

>  <IUPAC>  (2554) 
(3R,6R)-6-methylpiperidine-3-carboxylic acid

>  <TYPE>  (2554) 
Backbone

>  <CLASS>  (2554) 
beta

>  <ANALOG>  (2554) 
Pro

>  <MOL_WT>  (2554) 
143.186

>  <LOGP>  (2554) 
0.4591

>  <TPSA>  (2554) 
49.33

>  <POPULARITY>  (2554) 
2.2

>  <PROTECTED>  (2554) 
TRUE

>  <SMILES>  (2554) 
N1C[C@@H](CC[C@H]1C)C(=O)O

>  <INCHIKEY>  (2554) 
ITWDDDADSFZADI-PHDIDXHHSA-N

$$$$
Nisoamyl-G
     RDKit          2D

 10  9  0  0  0  0  0  0  0  0999 V2000
    0.6897    0.2947    0.0000 N   0  0  0  0  0  0  0  0  0  0  0  0
   -0.6897   -0.2947    0.0000 C   0  0  0  0  0  0  0  0  0  0  0  0
   -1.8898    0.6050    0.0000 C   0  0  0  0  0  0  0  0  0  0  0  0
   -3.2691    0.0155    0.0000 C   0  0  0  0  0  0  0  0  0  0  0  0
   -4.4693    0.9153    0.0000 C   0  0  0  0  0  0  0  0  0  0  0  0
   -3.4483   -1.4737    0.0000 C   0  0  0  0  0  0  0  0  0  0  0  0
    1.8898   -0.6050    0.0000 C   0  0  0  0  0  0  0  0  0  0  0  0
    3.2691   -0.0155    0.0000 C   0  0  0  0  0  0  0  0  0  0  0  0
    3.4483    1.4737    0.0000 O   0  0  0  0  0  0  0  0  0  0  0  0
    4.4693   -0.9153    0.0000 O   0  0  0  0  0  0  0  0  0  0  0  0
  1  2  1  0
  2  3  1  0
  3  4  1  0
  4  5  1  0
  4  6  1  0
  1  7  1  0
  7  8  1  0
  8  9  2  0
  8 10  1  0
M  END
>  <rName>  (2555) 
Nisoamyl-G

>  <PQ_SYMBOL>  (2555) 
Nisoamyl-G

>  <FULL_NAME>  (2555) 
2-(3-methylbutylamino)acetic acid

>  <IUPAC_CONDENSED>  (2555) 
isoamyl-Gly

>  <IUPAC>  (2555) 
2-((3-methylbutyl)amino)acetic acid

>  <TYPE>  (2555) 
Backbone

>  <CLASS>  (2555) 
alpha

>  <ANALOG>  (2555) 
Gly

>  <MOL_WT>  (2555) 
145.202

>  <LOGP>  (2555) 
0.7066999999999999

>  <TPSA>  (2555) 
49.33

>  <POPULARITY>  (2555) 
21.8

>  <PROTECTED>  (2555) 
TRUE

>  <SMILES>  (2555) 
N(CCC(C)C)CC(=O)O

>  <INCHIKEY>  (2555) 
FMZPWUNPTQDABJ-UHFFFAOYSA-N

$$$$
Nle
     RDKit          2D

  9  8  0  0  0  0  0  0  0  0999 V2000
    0.7616   -1.8791    0.0000 N   0  0  0  0  0  0  0  0  0  0  0  0
    0.8459   -0.3815    0.0000 C   0  0  0  0  0  0  0  0  0  0  0  0
   -0.4089    0.4403    0.0000 C   0  0  0  0  0  0  0  0  0  0  0  0
   -1.7480   -0.2354    0.0000 C   0  0  0  0  0  0  0  0  0  0  0  0
   -3.0029    0.5864    0.0000 C   0  0  0  0  0  0  0  0  0  0  0  0
   -4.3420   -0.0894    0.0000 C   0  0  0  0  0  0  0  0  0  0  0  0
    2.1851    0.2943    0.0000 C   0  0  0  0  0  0  0  0  0  0  0  0
    2.2694    1.7919    0.0000 O   0  0  0  0  0  0  0  0  0  0  0  0
    3.4399   -0.5275    0.0000 O   0  0  0  0  0  0  0  0  0  0  0  0
  2  1  1  1
  2  3  1  0
  3  4  1  0
  4  5  1  0
  5  6  1  0
  2  7  1  0
  7  8  2  0
  7  9  1  0
M  END
>  <rName>  (2556) 
Nle

>  <PQ_SYMBOL>  (2556) 
Nle

>  <FULL_NAME>  (2556) 
L-Norleucine

>  <IUPAC_CONDENSED>  (2556) 
Nle

>  <IUPAC>  (2556) 
(2S)-2-aminohexanoic acid

>  <TYPE>  (2556) 
Backbone

>  <CLASS>  (2556) 
alpha

>  <ANALOG>  (2556) 
Leu

>  <MOL_WT>  (2556) 
131.175

>  <LOGP>  (2556) 
0.5884999999999998

>  <TPSA>  (2556) 
63.32000000000001

>  <POPULARITY>  (2556) 
60.5

>  <PROTECTED>  (2556) 
TRUE

>  <SMILES>  (2556) 
N[C@@H](CCCC)C(=O)O

>  <INCHIKEY>  (2556) 
LRQKBLKVPFOOQJ-YFKPBYRVSA-N

$$$$
Nle-NH2
     RDKit          2D

  9  8  0  0  0  0  0  0  0  0999 V2000
    0.7616   -1.8791    0.0000 N   0  0  0  0  0  0  0  0  0  0  0  0
    0.8459   -0.3815    0.0000 C   0  0  0  0  0  0  0  0  0  0  0  0
    2.1851    0.2943    0.0000 C   0  0  0  0  0  0  0  0  0  0  0  0
    2.2694    1.7919    0.0000 O   0  0  0  0  0  0  0  0  0  0  0  0
    3.4399   -0.5275    0.0000 N   0  0  0  0  0  0  0  0  0  0  0  0
   -0.4089    0.4403    0.0000 C   0  0  0  0  0  0  0  0  0  0  0  0
   -1.7480   -0.2354    0.0000 C   0  0  0  0  0  0  0  0  0  0  0  0
   -3.0029    0.5864    0.0000 C   0  0  0  0  0  0  0  0  0  0  0  0
   -4.3420   -0.0894    0.0000 C   0  0  0  0  0  0  0  0  0  0  0  0
  2  1  1  1
  2  3  1  0
  3  4  2  0
  3  5  1  0
  2  6  1  0
  6  7  1  0
  7  8  1  0
  8  9  1  0
M  END
>  <rName>  (2557) 
Nle-NH2

>  <PQ_SYMBOL>  (2557) 
Nle-NH2

>  <FULL_NAME>  (2557) 
NORLEUCINE AMIDE

>  <IUPAC_CONDENSED>  (2557) 
Nle-NH2

>  <IUPAC>  (2557) 
(2S)-2-aminohexanamide

>  <TYPE>  (2557) 
C-term cap

>  <CLASS>  (2557) 
c_cap

>  <ANALOG>  (2557) 
X

>  <MOL_WT>  (2557) 
130.191

>  <LOGP>  (2557) 
-0.010800000000000587

>  <TPSA>  (2557) 
69.11

>  <POPULARITY>  (2557) 
16.6

>  <PROTECTED>  (2557) 
FALSE

>  <SMILES>  (2557) 
N[C@H](C(=O)N)CCCC

>  <INCHIKEY>  (2557) 
YTIHIRCOUAPRCS-YFKPBYRVSA-N

$$$$
Nle-OMe
     RDKit          2D

 10  9  0  0  0  0  0  0  0  0999 V2000
   -0.2656    1.8966    0.0000 N   0  0  0  0  0  0  0  0  0  0  0  0
   -0.3642    0.3998    0.0000 C   0  0  0  0  0  0  0  0  0  0  0  0
   -1.7097   -0.2632    0.0000 C   0  0  0  0  0  0  0  0  0  0  0  0
   -1.8084   -1.7599    0.0000 O   0  0  0  0  0  0  0  0  0  0  0  0
   -2.9567    0.5706    0.0000 O   0  0  0  0  0  0  0  0  0  0  0  0
   -4.3022   -0.0924    0.0000 C   0  0  0  0  0  0  0  0  0  0  0  0
    0.8827   -0.4340    0.0000 C   0  0  0  0  0  0  0  0  0  0  0  0
    2.2282    0.2290    0.0000 C   0  0  0  0  0  0  0  0  0  0  0  0
    3.4752   -0.6047    0.0000 C   0  0  0  0  0  0  0  0  0  0  0  0
    4.8207    0.0582    0.0000 C   0  0  0  0  0  0  0  0  0  0  0  0
  2  1  1  1
  2  3  1  0
  3  4  2  0
  3  5  1  0
  5  6  1  0
  2  7  1  0
  7  8  1  0
  8  9  1  0
  9 10  1  0
M  END
>  <rName>  (2558) 
Nle-OMe

>  <PQ_SYMBOL>  (2558) 
Nle-OMe

>  <FULL_NAME>  (2558) 
norleucine methyl ester

>  <IUPAC_CONDENSED>  (2558) 
Nle-OMe

>  <IUPAC>  (2558) 
methyl (2S)-2-aminohexanoate

>  <TYPE>  (2558) 
C-term cap

>  <CLASS>  (2558) 
c_cap

>  <ANALOG>  (2558) 
X

>  <MOL_WT>  (2558) 
145.202

>  <LOGP>  (2558) 
0.6768999999999996

>  <TPSA>  (2558) 
52.32000000000001

>  <POPULARITY>  (2558) 
20.3

>  <PROTECTED>  (2558) 
TRUE

>  <SMILES>  (2558) 
N[C@H](C(=O)OC)CCCC

>  <INCHIKEY>  (2558) 
TVZNFYXAPXOARC-LURJTMIESA-N

$$$$
Nle-al
     RDKit          2D

  8  7  0  0  0  0  0  0  0  0999 V2000
   -1.2088    1.5398    0.0000 N   0  0  0  0  0  0  0  0  0  0  0  0
   -1.1398    0.0414    0.0000 C   0  0  0  0  0  0  0  0  0  0  0  0
   -2.4029   -0.7676    0.0000 C   0  0  0  0  0  0  0  0  0  0  0  0
   -3.7351   -0.0782    0.0000 O   0  0  0  0  0  0  0  0  0  0  0  0
    0.1924   -0.6481    0.0000 C   0  0  0  0  0  0  0  0  0  0  0  0
    1.4556    0.1609    0.0000 C   0  0  0  0  0  0  0  0  0  0  0  0
    2.7877   -0.5286    0.0000 C   0  0  0  0  0  0  0  0  0  0  0  0
    4.0509    0.2804    0.0000 C   0  0  0  0  0  0  0  0  0  0  0  0
  2  1  1  1
  2  3  1  0
  3  4  2  0
  2  5  1  0
  5  6  1  0
  6  7  1  0
  7  8  1  0
M  END
>  <rName>  (2559) 
Nle-al

>  <PQ_SYMBOL>  (2559) 
Nle-al

>  <FULL_NAME>  (2559) 
(2S)-2-aminohexanal

>  <IUPAC_CONDENSED>  (2559) 
Nle-al

>  <IUPAC>  (2559) 
(2S)-2-aminohexanal

>  <TYPE>  (2559) 
C-term cap

>  <CLASS>  (2559) 
c_cap

>  <ANALOG>  (2559) 
X

>  <MOL_WT>  (2559) 
115.176

>  <LOGP>  (2559) 
0.7027999999999996

>  <TPSA>  (2559) 
43.09

>  <POPULARITY>  (2559) 
22.4

>  <PROTECTED>  (2559) 
FALSE

>  <SMILES>  (2559) 
N[C@H](C=O)CCCC

>  <INCHIKEY>  (2559) 
TZJGKUCHNFFHGN-LURJTMIESA-N

$$$$
Nle_2carboxyethyl
     RDKit          2D

 14 13  0  0  0  0  0  0  0  0999 V2000
    3.6801   -1.8657    0.0000 N   0  0  0  0  0  0  0  0  0  0  0  0
    3.6323   -0.3665    0.0000 C   0  0  0  0  0  0  0  0  0  0  0  0
    2.3100    0.3417    0.0000 C   0  0  0  0  0  0  0  0  0  0  0  0
    1.0355   -0.4493    0.0000 C   0  0  0  0  0  0  0  0  0  0  0  0
   -0.2868    0.2588    0.0000 C   0  0  0  0  0  0  0  0  0  0  0  0
   -1.5612   -0.5322    0.0000 C   0  0  0  0  0  0  0  0  0  0  0  0
   -2.8835    0.1760    0.0000 C   0  0  0  0  0  0  0  0  0  0  0  0
   -4.1580   -0.6151    0.0000 C   0  0  0  0  0  0  0  0  0  0  0  0
   -5.4803    0.0931    0.0000 C   0  0  0  0  0  0  0  0  0  0  0  0
   -5.5281    1.5923    0.0000 O   0  0  0  0  0  0  0  0  0  0  0  0
   -6.7547   -0.6980    0.0000 O   0  0  0  0  0  0  0  0  0  0  0  0
    4.9067    0.4246    0.0000 C   0  0  0  0  0  0  0  0  0  0  0  0
    4.8589    1.9238    0.0000 O   0  0  0  0  0  0  0  0  0  0  0  0
    6.2290   -0.2836    0.0000 O   0  0  0  0  0  0  0  0  0  0  0  0
  2  1  1  1
  2  3  1  0
  3  4  1  0
  4  5  1  0
  5  6  1  0
  6  7  1  0
  7  8  1  0
  8  9  1  0
  9 10  2  0
  9 11  1  0
  2 12  1  0
 12 13  2  0
 12 14  1  0
M  END
>  <rName>  (2560) 
Nle_2carboxyethyl

>  <PQ_SYMBOL>  (2560) 
Nle_2carboxyethyl

>  <FULL_NAME>  (2560) 
(2S)-2-aminononanedioic acid

>  <IUPAC_CONDENSED>  (2560) 
Nle(2-carboxyethyl)

>  <IUPAC>  (2560) 
(2S)-2-aminononanedioic acid

>  <TYPE>  (2560) 
Backbone

>  <CLASS>  (2560) 
alpha

>  <ANALOG>  (2560) 
X

>  <MOL_WT>  (2560) 
203.238

>  <LOGP>  (2560) 
0.8234999999999999

>  <TPSA>  (2560) 
100.62000000000002

>  <POPULARITY>  (2560) 
7.6

>  <PROTECTED>  (2560) 
TRUE

>  <SMILES>  (2560) 
N[C@@H](CCCCCCC(=O)O)C(=O)O

>  <INCHIKEY>  (2560) 
PEATYEGLPLYRIN-ZETCQYMHSA-N

$$$$
Nle_44diMe
     RDKit          2D

 11 10  0  0  0  0  0  0  0  0999 V2000
    0.5813   -1.6858    0.0000 N   0  0  0  0  0  0  0  0  0  0  0  0
    1.0339   -0.2557    0.0000 C   0  0  0  0  0  0  0  0  0  0  0  0
    0.0217    0.8513    0.0000 C   0  0  0  0  0  0  0  0  0  0  0  0
   -1.4431    0.5282    0.0000 C   0  0  0  0  0  0  0  0  0  0  0  0
   -1.7663    1.9930    0.0000 C   0  0  0  0  0  0  0  0  0  0  0  0
   -1.1200   -0.9366    0.0000 C   0  0  0  0  0  0  0  0  0  0  0  0
   -2.9079    0.2050    0.0000 C   0  0  0  0  0  0  0  0  0  0  0  0
   -3.3605   -1.2251    0.0000 C   0  0  0  0  0  0  0  0  0  0  0  0
    2.4987    0.0675    0.0000 C   0  0  0  0  0  0  0  0  0  0  0  0
    2.9512    1.4976    0.0000 O   0  0  0  0  0  0  0  0  0  0  0  0
    3.5109   -1.0395    0.0000 O   0  0  0  0  0  0  0  0  0  0  0  0
  2  1  1  1
  2  3  1  0
  3  4  1  0
  4  5  1  0
  4  6  1  0
  4  7  1  0
  7  8  1  0
  2  9  1  0
  9 10  2  0
  9 11  1  0
M  END
>  <rName>  (2561) 
Nle_44diMe

>  <PQ_SYMBOL>  (2561) 
Nle_44diMe

>  <FULL_NAME>  (2561) 
(S)-2-amino-4,4-dimethylhexanoic acid

>  <IUPAC_CONDENSED>  (2561) 
Nle(4,4-diMe)

>  <IUPAC>  (2561) 
(2S)-2-amino-4,4-dimethylhexanoic acid

>  <TYPE>  (2561) 
Backbone

>  <CLASS>  (2561) 
alpha

>  <ANALOG>  (2561) 
Leu

>  <MOL_WT>  (2561) 
159.22899999999998

>  <LOGP>  (2561) 
1.2245999999999997

>  <TPSA>  (2561) 
63.32000000000001

>  <POPULARITY>  (2561) 
12.0

>  <PROTECTED>  (2561) 
TRUE

>  <SMILES>  (2561) 
N[C@@H](CC(C)(C)CC)C(=O)O

>  <INCHIKEY>  (2561) 
UUJYECQXYRUUEJ-LURJTMIESA-N

$$$$
Nle_4Et
     RDKit          2D

 11 10  0  0  0  0  0  0  0  0999 V2000
   -0.9775   -1.6170    0.0000 N   0  0  0  0  0  0  0  0  0  0  0  0
   -0.9473   -0.1173    0.0000 C   0  0  0  0  0  0  0  0  0  0  0  0
    0.3666    0.6064    0.0000 C   0  0  0  0  0  0  0  0  0  0  0  0
    1.6502   -0.1696    0.0000 C   0  0  0  0  0  0  0  0  0  0  0  0
    2.9641    0.5541    0.0000 C   0  0  0  0  0  0  0  0  0  0  0  0
    2.9943    2.0538    0.0000 C   0  0  0  0  0  0  0  0  0  0  0  0
    1.6200   -1.6693    0.0000 C   0  0  0  0  0  0  0  0  0  0  0  0
    0.3062   -2.3930    0.0000 C   0  0  0  0  0  0  0  0  0  0  0  0
   -2.2310    0.6587    0.0000 C   0  0  0  0  0  0  0  0  0  0  0  0
   -2.2008    2.1584    0.0000 O   0  0  0  0  0  0  0  0  0  0  0  0
   -3.5449   -0.0650    0.0000 O   0  0  0  0  0  0  0  0  0  0  0  0
  2  1  1  6
  2  3  1  0
  3  4  1  0
  4  5  1  0
  5  6  1  0
  4  7  1  0
  7  8  1  0
  2  9  1  0
  9 10  2  0
  9 11  1  0
M  END
>  <rName>  (2562) 
Nle_4Et

>  <PQ_SYMBOL>  (2562) 
Nle_4Et

>  <FULL_NAME>  (2562) 
(S)-2-amino-4-ethylhexanoic acid

>  <IUPAC_CONDENSED>  (2562) 
Nle(4-Et)

>  <IUPAC>  (2562) 
(2S)-2-amino-4-ethylhexanoic acid

>  <TYPE>  (2562) 
Backbone

>  <CLASS>  (2562) 
alpha

>  <ANALOG>  (2562) 
Leu

>  <MOL_WT>  (2562) 
159.229

>  <LOGP>  (2562) 
1.2245999999999997

>  <TPSA>  (2562) 
63.32000000000001

>  <POPULARITY>  (2562) 
14.3

>  <PROTECTED>  (2562) 
TRUE

>  <SMILES>  (2562) 
N[C@@H](CC(CC)CC)C(=O)O

>  <INCHIKEY>  (2562) 
FNTZSUXNNTXOEI-ZETCQYMHSA-N

$$$$
Nle_56dehydro_5Me
     RDKit          2D

 10  9  0  0  0  0  0  0  0  0999 V2000
    1.2717    1.9622    0.0000 N   0  0  0  0  0  0  0  0  0  0  0  0
    1.1946    0.4642    0.0000 C   0  0  0  0  0  0  0  0  0  0  0  0
   -0.1413   -0.2180    0.0000 C   0  0  0  0  0  0  0  0  0  0  0  0
   -1.4001    0.5978    0.0000 C   0  0  0  0  0  0  0  0  0  0  0  0
   -2.7359   -0.0845    0.0000 C   0  0  0  0  0  0  0  0  0  0  0  0
   -3.9947    0.7313    0.0000 C   0  0  0  0  0  0  0  0  0  0  0  0
   -2.8131   -1.5825    0.0000 C   0  0  0  0  0  0  0  0  0  0  0  0
    2.4533   -0.3516    0.0000 C   0  0  0  0  0  0  0  0  0  0  0  0
    2.3762   -1.8496    0.0000 O   0  0  0  0  0  0  0  0  0  0  0  0
    3.7892    0.3306    0.0000 O   0  0  0  0  0  0  0  0  0  0  0  0
  2  1  1  6
  2  3  1  0
  3  4  1  0
  4  5  1  0
  5  6  2  0
  5  7  1  0
  2  8  1  0
  8  9  2  0
  8 10  1  0
M  END
>  <rName>  (2563) 
Nle_56dehydro_5Me

>  <PQ_SYMBOL>  (2563) 
Nle_56dehydro_5Me

>  <FULL_NAME>  (2563) 
(S)-2-amino-5-methylhex-5-enoic acid

>  <IUPAC_CONDENSED>  (2563) 
Nle(5,6-dehydro,5-Me)

>  <IUPAC>  (2563) 
(2S)-2-amino-5-methylhex-5-enoic acid

>  <TYPE>  (2563) 
Backbone

>  <CLASS>  (2563) 
alpha

>  <ANALOG>  (2563) 
Leu

>  <MOL_WT>  (2563) 
143.186

>  <LOGP>  (2563) 
0.7545999999999999

>  <TPSA>  (2563) 
63.32000000000001

>  <POPULARITY>  (2563) 
9.5

>  <PROTECTED>  (2563) 
TRUE

>  <SMILES>  (2563) 
N[C@@H](CCC(=C)C)C(=O)O

>  <INCHIKEY>  (2563) 
OYGZAERTQAIZGU-LURJTMIESA-N

$$$$
Nle_Bu
     RDKit          2D

 13 12  0  0  0  0  0  0  0  0999 V2000
    3.1740   -1.8865    0.0000 N   0  0  0  0  0  0  0  0  0  0  0  0
    3.1930   -0.3866    0.0000 C   0  0  0  0  0  0  0  0  0  0  0  0
    1.9036    0.3798    0.0000 C   0  0  0  0  0  0  0  0  0  0  0  0
    0.5951   -0.3537    0.0000 C   0  0  0  0  0  0  0  0  0  0  0  0
   -0.6943    0.4127    0.0000 C   0  0  0  0  0  0  0  0  0  0  0  0
   -2.0027   -0.3208    0.0000 C   0  0  0  0  0  0  0  0  0  0  0  0
   -3.2922    0.4456    0.0000 C   0  0  0  0  0  0  0  0  0  0  0  0
   -4.6006   -0.2879    0.0000 C   0  0  0  0  0  0  0  0  0  0  0  0
   -5.8900    0.4785    0.0000 C   0  0  0  0  0  0  0  0  0  0  0  0
   -7.1985   -0.2550    0.0000 C   0  0  0  0  0  0  0  0  0  0  0  0
    4.5014    0.3468    0.0000 C   0  0  0  0  0  0  0  0  0  0  0  0
    4.5204    1.8467    0.0000 O   0  0  0  0  0  0  0  0  0  0  0  0
    5.7909   -0.4196    0.0000 O   0  0  0  0  0  0  0  0  0  0  0  0
  2  1  1  1
  2  3  1  0
  3  4  1  0
  4  5  1  0
  5  6  1  0
  6  7  1  0
  7  8  1  0
  8  9  1  0
  9 10  1  0
  2 11  1  0
 11 12  2  0
 11 13  1  0
M  END
>  <rName>  (2564) 
Nle_Bu

>  <PQ_SYMBOL>  (2564) 
Nle_Bu

>  <FULL_NAME>  (2564) 
(S)-2-Aminodecanoic acid

>  <IUPAC_CONDENSED>  (2564) 
Nle(Bu)

>  <IUPAC>  (2564) 
(2S)-2-aminodecanoic acid

>  <TYPE>  (2564) 
Backbone

>  <CLASS>  (2564) 
alpha

>  <ANALOG>  (2564) 
X

>  <MOL_WT>  (2564) 
187.28300000000002

>  <LOGP>  (2564) 
2.1489

>  <TPSA>  (2564) 
63.32000000000001

>  <POPULARITY>  (2564) 
19.6

>  <PROTECTED>  (2564) 
TRUE

>  <SMILES>  (2564) 
N[C@@H](CCCCCCCC)C(=O)O

>  <INCHIKEY>  (2564) 
JINGUCXQUOKWKH-VIFPVBQESA-N

$$$$
Nle_CF3
     RDKit          2D

 13 12  0  0  0  0  0  0  0  0999 V2000
    2.7828   -1.9007    0.0000 N   0  0  0  0  0  0  0  0  0  0  0  0
    2.7179   -0.4021    0.0000 C   0  0  0  0  0  0  0  0  0  0  0  0
    1.3877    0.2910    0.0000 C   0  0  0  0  0  0  0  0  0  0  0  0
    0.1223   -0.5144    0.0000 C   0  0  0  0  0  0  0  0  0  0  0  0
   -1.2080    0.1787    0.0000 C   0  0  0  0  0  0  0  0  0  0  0  0
   -2.4734   -0.6267    0.0000 C   0  0  0  0  0  0  0  0  0  0  0  0
   -3.8036    0.0664    0.0000 C   0  0  0  0  0  0  0  0  0  0  0  0
   -5.1339    0.7595    0.0000 F   0  0  0  0  0  0  0  0  0  0  0  0
   -4.4968   -1.2639    0.0000 F   0  0  0  0  0  0  0  0  0  0  0  0
   -3.1105    1.3966    0.0000 F   0  0  0  0  0  0  0  0  0  0  0  0
    3.9833    0.4034    0.0000 C   0  0  0  0  0  0  0  0  0  0  0  0
    3.9185    1.9020    0.0000 O   0  0  0  0  0  0  0  0  0  0  0  0
    5.3136   -0.2898    0.0000 O   0  0  0  0  0  0  0  0  0  0  0  0
  2  1  1  1
  2  3  1  0
  3  4  1  0
  4  5  1  0
  5  6  1  0
  6  7  1  0
  7  8  1  0
  7  9  1  0
  7 10  1  0
  2 11  1  0
 11 12  2  0
 11 13  1  0
M  END
>  <rName>  (2565) 
Nle_CF3

>  <PQ_SYMBOL>  (2565) 
Nle_CF3

>  <FULL_NAME>  (2565) 
(2S)-2-amino-7,7,7-trifluoroheptanoic acid

>  <IUPAC_CONDENSED>  (2565) 
Nle(CF3)

>  <IUPAC>  (2565) 
(2S)-2-amino-7,7,7-trifluoroheptanoic acid

>  <TYPE>  (2565) 
Backbone

>  <CLASS>  (2565) 
alpha

>  <ANALOG>  (2565) 
X

>  <MOL_WT>  (2565) 
199.172

>  <LOGP>  (2565) 
1.5210000000000001

>  <TPSA>  (2565) 
63.32000000000001

>  <POPULARITY>  (2565) 
2.2

>  <PROTECTED>  (2565) 
TRUE

>  <SMILES>  (2565) 
N[C@@H](CCCCC(F)(F)F)C(=O)O

>  <INCHIKEY>  (2565) 
RDMRTEFVHPSCBQ-YFKPBYRVSA-N

$$$$
Nle_CH2CONHOH
     RDKit          2D

 14 13  0  0  0  0  0  0  0  0999 V2000
   -3.4434    1.8746    0.0000 N   0  0  0  0  0  0  0  0  0  0  0  0
   -3.5124    0.3762    0.0000 C   0  0  0  0  0  0  0  0  0  0  0  0
   -2.2492   -0.4328    0.0000 C   0  0  0  0  0  0  0  0  0  0  0  0
   -0.9171    0.2567    0.0000 C   0  0  0  0  0  0  0  0  0  0  0  0
    0.3461   -0.5522    0.0000 C   0  0  0  0  0  0  0  0  0  0  0  0
    1.6783    0.1373    0.0000 C   0  0  0  0  0  0  0  0  0  0  0  0
    2.9415   -0.6717    0.0000 C   0  0  0  0  0  0  0  0  0  0  0  0
    4.2736    0.0178    0.0000 C   0  0  0  0  0  0  0  0  0  0  0  0
    4.3426    1.5162    0.0000 O   0  0  0  0  0  0  0  0  0  0  0  0
    5.5368   -0.7911    0.0000 N   0  0  0  0  0  0  0  0  0  0  0  0
    6.8689   -0.1016    0.0000 O   0  0  0  0  0  0  0  0  0  0  0  0
   -4.8445   -0.3133    0.0000 C   0  0  0  0  0  0  0  0  0  0  0  0
   -4.9135   -1.8117    0.0000 O   0  0  0  0  0  0  0  0  0  0  0  0
   -6.1077    0.4956    0.0000 O   0  0  0  0  0  0  0  0  0  0  0  0
  2  1  1  1
  2  3  1  0
  3  4  1  0
  4  5  1  0
  5  6  1  0
  6  7  1  0
  7  8  1  0
  8  9  2  0
  8 10  1  0
 10 11  1  0
  2 12  1  0
 12 13  2  0
 12 14  1  0
M  END
>  <rName>  (2566) 
Nle_CH2CONHOH

>  <PQ_SYMBOL>  (2566) 
Nle_CH2CONHOH

>  <FULL_NAME>  (2566) 
(2S)-2-amino-8-(hydroxyamino)-8-oxooctanoic acid

>  <IUPAC_CONDENSED>  (2566) 
Nle(CH2CONHOH)

>  <IUPAC>  (2566) 
(2S)-2-amino-8-(hydroxyamino)-8-oxooctanoic acid

>  <TYPE>  (2566) 
Backbone

>  <CLASS>  (2566) 
alpha

>  <ANALOG>  (2566) 
X

>  <MOL_WT>  (2566) 
204.226

>  <LOGP>  (2566) 
-0.14580000000000082

>  <TPSA>  (2566) 
112.65000000000002

>  <POPULARITY>  (2566) 
3.5

>  <PROTECTED>  (2566) 
TRUE

>  <SMILES>  (2566) 
N[C@@H](CCCCCC(=O)NO)C(=O)O

>  <INCHIKEY>  (2566) 
RDQUMSJVLRPKKZ-LURJTMIESA-N

$$$$
Nle_Et
     RDKit          2D

 11 10  0  0  0  0  0  0  0  0999 V2000
    1.9630   -1.8884    0.0000 N   0  0  0  0  0  0  0  0  0  0  0  0
    1.9989   -0.3888    0.0000 C   0  0  0  0  0  0  0  0  0  0  0  0
    0.7181    0.3920    0.0000 C   0  0  0  0  0  0  0  0  0  0  0  0
   -0.5985   -0.3267    0.0000 C   0  0  0  0  0  0  0  0  0  0  0  0
   -1.8792    0.4541    0.0000 C   0  0  0  0  0  0  0  0  0  0  0  0
   -3.1958   -0.2646    0.0000 C   0  0  0  0  0  0  0  0  0  0  0  0
   -4.4765    0.5162    0.0000 C   0  0  0  0  0  0  0  0  0  0  0  0
   -5.7931   -0.2025    0.0000 C   0  0  0  0  0  0  0  0  0  0  0  0
    3.3155    0.3299    0.0000 C   0  0  0  0  0  0  0  0  0  0  0  0
    3.3513    1.8295    0.0000 O   0  0  0  0  0  0  0  0  0  0  0  0
    4.5962   -0.4509    0.0000 O   0  0  0  0  0  0  0  0  0  0  0  0
  2  1  1  1
  2  3  1  0
  3  4  1  0
  4  5  1  0
  5  6  1  0
  6  7  1  0
  7  8  1  0
  2  9  1  0
  9 10  2  0
  9 11  1  0
M  END
>  <rName>  (2567) 
Nle_Et

>  <PQ_SYMBOL>  (2567) 
Nle_Et

>  <FULL_NAME>  (2567) 
(S)-2-Aminooctanoic acid, S-Capryline

>  <IUPAC_CONDENSED>  (2567) 
Nle(Et)

>  <IUPAC>  (2567) 
(2S)-2-aminooctanoic acid

>  <TYPE>  (2567) 
Backbone

>  <CLASS>  (2567) 
alpha

>  <ANALOG>  (2567) 
Leu

>  <MOL_WT>  (2567) 
159.229

>  <LOGP>  (2567) 
1.3687

>  <TPSA>  (2567) 
63.32000000000001

>  <POPULARITY>  (2567) 
24.1

>  <PROTECTED>  (2567) 
TRUE

>  <SMILES>  (2567) 
N[C@@H](CCCCCC)C(=O)O

>  <INCHIKEY>  (2567) 
AKVBCGQVQXPRLD-ZETCQYMHSA-N

$$$$
Nle_EtNH2
     RDKit          2D

 12 11  0  0  0  0  0  0  0  0999 V2000
   -2.5981    1.8750    0.0000 N   0  0  0  0  0  0  0  0  0  0  0  0
   -2.5981    0.3750    0.0000 C   0  0  0  0  0  0  0  0  0  0  0  0
   -1.2990   -0.3750    0.0000 C   0  0  0  0  0  0  0  0  0  0  0  0
    0.0000    0.3750    0.0000 C   0  0  0  0  0  0  0  0  0  0  0  0
    1.2990   -0.3750    0.0000 C   0  0  0  0  0  0  0  0  0  0  0  0
    2.5981    0.3750    0.0000 C   0  0  0  0  0  0  0  0  0  0  0  0
    3.8971   -0.3750    0.0000 C   0  0  0  0  0  0  0  0  0  0  0  0
    5.1962    0.3750    0.0000 C   0  0  0  0  0  0  0  0  0  0  0  0
    6.4952   -0.3750    0.0000 N   0  0  0  0  0  0  0  0  0  0  0  0
   -3.8971   -0.3750    0.0000 C   0  0  0  0  0  0  0  0  0  0  0  0
   -3.8971   -1.8750    0.0000 O   0  0  0  0  0  0  0  0  0  0  0  0
   -5.1962    0.3750    0.0000 O   0  0  0  0  0  0  0  0  0  0  0  0
  2  1  1  1
  2  3  1  0
  3  4  1  0
  4  5  1  0
  5  6  1  0
  6  7  1  0
  7  8  1  0
  8  9  1  0
  2 10  1  0
 10 11  2  0
 10 12  1  0
M  END
>  <rName>  (2568) 
Nle_EtNH2

>  <PQ_SYMBOL>  (2568) 
Nle_EtNH2

>  <FULL_NAME>  (2568) 
(2S)-2,8-Diaminooctanoic Acid

>  <IUPAC_CONDENSED>  (2568) 
Nle(EtNH2)

>  <IUPAC>  (2568) 
(2S)-2,8-diaminooctanoic acid

>  <TYPE>  (2568) 
Backbone

>  <CLASS>  (2568) 
alpha

>  <ANALOG>  (2568) 
X

>  <MOL_WT>  (2568) 
174.244

>  <LOGP>  (2568) 
0.30749999999999994

>  <TPSA>  (2568) 
89.34

>  <POPULARITY>  (2568) 
14.2

>  <PROTECTED>  (2568) 
TRUE

>  <SMILES>  (2568) 
N[C@@H](CCCCCCN)C(=O)O

>  <INCHIKEY>  (2568) 
KMPBBRFCAYFTMR-ZETCQYMHSA-N

$$$$
Nle_Me
     RDKit          2D

 10  9  0  0  0  0  0  0  0  0999 V2000
   -1.4166   -1.8843    0.0000 N   0  0  0  0  0  0  0  0  0  0  0  0
   -1.4265   -0.3844    0.0000 C   0  0  0  0  0  0  0  0  0  0  0  0
   -0.1324    0.3741    0.0000 C   0  0  0  0  0  0  0  0  0  0  0  0
    1.1716   -0.3673    0.0000 C   0  0  0  0  0  0  0  0  0  0  0  0
    2.4657    0.3912    0.0000 C   0  0  0  0  0  0  0  0  0  0  0  0
    3.7696   -0.3503    0.0000 C   0  0  0  0  0  0  0  0  0  0  0  0
    5.0637    0.4082    0.0000 C   0  0  0  0  0  0  0  0  0  0  0  0
   -2.7304    0.3571    0.0000 C   0  0  0  0  0  0  0  0  0  0  0  0
   -2.7402    1.8571    0.0000 O   0  0  0  0  0  0  0  0  0  0  0  0
   -4.0245   -0.4014    0.0000 O   0  0  0  0  0  0  0  0  0  0  0  0
  2  1  1  6
  2  3  1  0
  3  4  1  0
  4  5  1  0
  5  6  1  0
  6  7  1  0
  2  8  1  0
  8  9  2  0
  8 10  1  0
M  END
>  <rName>  (2569) 
Nle_Me

>  <PQ_SYMBOL>  (2569) 
Nle_Me

>  <FULL_NAME>  (2569) 
(2S)-2-Aminoheptanoic acid

>  <IUPAC_CONDENSED>  (2569) 
Nle(Me)

>  <IUPAC>  (2569) 
(2S)-2-aminoheptanoic acid

>  <TYPE>  (2569) 
Backbone

>  <CLASS>  (2569) 
alpha

>  <ANALOG>  (2569) 
Leu

>  <MOL_WT>  (2569) 
145.202

>  <LOGP>  (2569) 
0.9785999999999997

>  <TPSA>  (2569) 
63.32000000000001

>  <POPULARITY>  (2569) 
29.6

>  <PROTECTED>  (2569) 
TRUE

>  <SMILES>  (2569) 
N[C@@H](CCCCC)C(=O)O

>  <INCHIKEY>  (2569) 
RDFMDVXONNIGBC-LURJTMIESA-N

$$$$
Nle_MeOH
     RDKit          2D

 11 10  0  0  0  0  0  0  0  0999 V2000
   -1.9630    1.8884    0.0000 N   0  0  0  0  0  0  0  0  0  0  0  0
   -1.9989    0.3888    0.0000 C   0  0  0  0  0  0  0  0  0  0  0  0
   -0.7181   -0.3920    0.0000 C   0  0  0  0  0  0  0  0  0  0  0  0
    0.5985    0.3267    0.0000 C   0  0  0  0  0  0  0  0  0  0  0  0
    1.8792   -0.4541    0.0000 C   0  0  0  0  0  0  0  0  0  0  0  0
    3.1958    0.2646    0.0000 C   0  0  0  0  0  0  0  0  0  0  0  0
    4.4765   -0.5162    0.0000 C   0  0  0  0  0  0  0  0  0  0  0  0
    5.7931    0.2025    0.0000 O   0  0  0  0  0  0  0  0  0  0  0  0
   -3.3155   -0.3299    0.0000 C   0  0  0  0  0  0  0  0  0  0  0  0
   -3.3513   -1.8295    0.0000 O   0  0  0  0  0  0  0  0  0  0  0  0
   -4.5962    0.4509    0.0000 O   0  0  0  0  0  0  0  0  0  0  0  0
  2  1  1  1
  2  3  1  0
  3  4  1  0
  4  5  1  0
  5  6  1  0
  6  7  1  0
  7  8  1  0
  2  9  1  0
  9 10  2  0
  9 11  1  0
M  END
>  <rName>  (2570) 
Nle_MeOH

>  <PQ_SYMBOL>  (2570) 
Nle_MeOH

>  <FULL_NAME>  (2570) 
(S)-2-Amino-7-hydroxyheptanoic acid

>  <IUPAC_CONDENSED>  (2570) 
Nle(MeOH)

>  <IUPAC>  (2570) 
(2S)-2-amino-7-hydroxyheptanoic acid

>  <TYPE>  (2570) 
Backbone

>  <CLASS>  (2570) 
alpha

>  <ANALOG>  (2570) 
X

>  <MOL_WT>  (2570) 
161.201

>  <LOGP>  (2570) 
-0.049000000000000155

>  <TPSA>  (2570) 
83.55

>  <POPULARITY>  (2570) 
2.2

>  <PROTECTED>  (2570) 
TRUE

>  <SMILES>  (2570) 
N[C@@H](CCCCCO)C(=O)O

>  <INCHIKEY>  (2570) 
HNNFYWQGCVWFSF-LURJTMIESA-N

$$$$
Nle_MeSH
     RDKit          2D

 11 10  0  0  0  0  0  0  0  0999 V2000
   -1.9630    1.8884    0.0000 N   0  0  0  0  0  0  0  0  0  0  0  0
   -1.9989    0.3888    0.0000 C   0  0  0  0  0  0  0  0  0  0  0  0
   -0.7181   -0.3920    0.0000 C   0  0  0  0  0  0  0  0  0  0  0  0
    0.5985    0.3267    0.0000 C   0  0  0  0  0  0  0  0  0  0  0  0
    1.8792   -0.4541    0.0000 C   0  0  0  0  0  0  0  0  0  0  0  0
    3.1958    0.2646    0.0000 C   0  0  0  0  0  0  0  0  0  0  0  0
    4.4765   -0.5162    0.0000 C   0  0  0  0  0  0  0  0  0  0  0  0
    5.7931    0.2025    0.0000 S   0  0  0  0  0  0  0  0  0  0  0  0
   -3.3155   -0.3299    0.0000 C   0  0  0  0  0  0  0  0  0  0  0  0
   -3.3513   -1.8295    0.0000 O   0  0  0  0  0  0  0  0  0  0  0  0
   -4.5962    0.4509    0.0000 O   0  0  0  0  0  0  0  0  0  0  0  0
  2  1  1  1
  2  3  1  0
  3  4  1  0
  4  5  1  0
  5  6  1  0
  6  7  1  0
  7  8  1  0
  2  9  1  0
  9 10  2  0
  9 11  1  0
M  END
>  <rName>  (2571) 
Nle_MeSH

>  <PQ_SYMBOL>  (2571) 
Nle_MeSH

>  <FULL_NAME>  (2571) 
(2S)-2-amino-7-sulfanylheptanoic acid

>  <IUPAC_CONDENSED>  (2571) 
Nle(MeSH)

>  <IUPAC>  (2571) 
(2S)-2-amino-7-sulfanylheptanoic acid

>  <TYPE>  (2571) 
Backbone

>  <CLASS>  (2571) 
alpha

>  <ANALOG>  (2571) 
X

>  <MOL_WT>  (2571) 
177.269

>  <LOGP>  (2571) 
0.8884999999999998

>  <TPSA>  (2571) 
63.32000000000001

>  <POPULARITY>  (2571) 
24.5

>  <PROTECTED>  (2571) 
TRUE

>  <SMILES>  (2571) 
N[C@@H](CCCCCS)C(=O)O

>  <INCHIKEY>  (2571) 
QICNSJMVLZSQPX-LURJTMIESA-N

$$$$
Nle_Me_Me
     RDKit          2D

 11 10  0  0  0  0  0  0  0  0999 V2000
    1.6269   -1.8430    0.0000 N   0  0  0  0  0  0  0  0  0  0  0  0
    1.7489   -0.3480    0.0000 C   0  0  0  0  0  0  0  0  0  0  0  0
    0.5152    0.5052    0.0000 C   0  0  0  0  0  0  0  0  0  0  0  0
   -0.8406   -0.1366    0.0000 C   0  0  0  0  0  0  0  0  0  0  0  0
   -2.0743    0.7166    0.0000 C   0  0  0  0  0  0  0  0  0  0  0  0
   -3.4300    0.0748    0.0000 C   0  0  0  0  0  0  0  0  0  0  0  0
   -4.6637    0.9280    0.0000 C   0  0  0  0  0  0  0  0  0  0  0  0
   -3.5521   -1.4203    0.0000 C   0  0  0  0  0  0  0  0  0  0  0  0
    3.1047    0.2938    0.0000 C   0  0  0  0  0  0  0  0  0  0  0  0
    3.2267    1.7889    0.0000 O   0  0  0  0  0  0  0  0  0  0  0  0
    4.3384   -0.5594    0.0000 O   0  0  0  0  0  0  0  0  0  0  0  0
  2  1  1  1
  2  3  1  0
  3  4  1  0
  4  5  1  0
  5  6  1  0
  6  7  1  0
  6  8  1  0
  2  9  1  0
  9 10  2  0
  9 11  1  0
M  END
>  <rName>  (2572) 
Nle_Me_Me

>  <PQ_SYMBOL>  (2572) 
Nle_Me_Me

>  <FULL_NAME>  (2572) 
(S)-2-amino-6-methylheptanoic acid

>  <IUPAC_CONDENSED>  (2572) 
Nle(Me,Me)

>  <IUPAC>  (2572) 
(2S)-2-amino-6-methylheptanoic acid

>  <TYPE>  (2572) 
Backbone

>  <CLASS>  (2572) 
alpha

>  <ANALOG>  (2572) 
Leu

>  <MOL_WT>  (2572) 
159.22899999999998

>  <LOGP>  (2572) 
1.2245999999999997

>  <TPSA>  (2572) 
63.32000000000001

>  <POPULARITY>  (2572) 
11.9

>  <PROTECTED>  (2572) 
TRUE

>  <SMILES>  (2572) 
N[C@@H](CCCC(C)C)C(=O)O

>  <INCHIKEY>  (2572) 
HDIIAKZNFLPDPT-ZETCQYMHSA-N

$$$$
Nle_N3
     RDKit          2D

 12 11  0  0  0  0  0  0  0  0999 V2000
   -2.4844    1.9079    0.0000 N   0  0  0  0  0  0  0  0  0  0  0  0
   -2.5775    0.4108    0.0000 C   0  0  0  0  0  0  0  0  0  0  0  0
   -1.3276   -0.4184    0.0000 C   0  0  0  0  0  0  0  0  0  0  0  0
    0.0155    0.2495    0.0000 C   0  0  0  0  0  0  0  0  0  0  0  0
    1.2655   -0.5797    0.0000 C   0  0  0  0  0  0  0  0  0  0  0  0
    2.6086    0.0882    0.0000 C   0  0  0  0  0  0  0  0  0  0  0  0
    3.8585   -0.7410    0.0000 N   0  0  0  0  0  0  0  0  0  0  0  0
    5.2016   -0.0731    0.0000 N   0  0  0  0  0  0  0  0  0  0  0  0
    6.5447    0.5948    0.0000 N   0  0  0  0  0  0  0  0  0  0  0  0
   -3.9206   -0.2571    0.0000 C   0  0  0  0  0  0  0  0  0  0  0  0
   -4.0138   -1.7542    0.0000 O   0  0  0  0  0  0  0  0  0  0  0  0
   -5.1706    0.5722    0.0000 O   0  0  0  0  0  0  0  0  0  0  0  0
  2  1  1  1
  2  3  1  0
  3  4  1  0
  4  5  1  0
  5  6  1  0
  6  7  1  0
  7  8  2  0
  8  9  2  0
  2 10  1  0
 10 11  2  0
 10 12  1  0
M  CHG  2   8   1   9  -1
M  END
>  <rName>  (2573) 
Nle_N3

>  <PQ_SYMBOL>  (2573) 
Nle_N3

>  <FULL_NAME>  (2573) 
6-Azido-L-Norleucine (azido-L-Lysine)

>  <IUPAC_CONDENSED>  (2573) 
Nle(N3)

>  <IUPAC>  (2573) 
(2S)-2-amino-6-azidohexanoic acid

>  <TYPE>  (2573) 
Backbone

>  <CLASS>  (2573) 
alpha

>  <ANALOG>  (2573) 
Lys

>  <MOL_WT>  (2573) 
172.18800000000002

>  <LOGP>  (2573) 
0.8788999999999998

>  <TPSA>  (2573) 
112.08

>  <POPULARITY>  (2573) 
12.2

>  <PROTECTED>  (2573) 
TRUE

>  <SMILES>  (2573) 
N[C@@H](CCCCN=[N+]=[N-])C(=O)O

>  <INCHIKEY>  (2573) 
HTFFMYRVHHNNBE-YFKPBYRVSA-N

$$$$
Nle_OH
     RDKit          2D

 10  9  0  0  0  0  0  0  0  0999 V2000
   -1.4166    1.8843    0.0000 N   0  0  0  0  0  0  0  0  0  0  0  0
   -1.4265    0.3844    0.0000 C   0  0  0  0  0  0  0  0  0  0  0  0
   -0.1324   -0.3741    0.0000 C   0  0  0  0  0  0  0  0  0  0  0  0
    1.1716    0.3673    0.0000 C   0  0  0  0  0  0  0  0  0  0  0  0
    2.4657   -0.3912    0.0000 C   0  0  0  0  0  0  0  0  0  0  0  0
    3.7696    0.3503    0.0000 C   0  0  0  0  0  0  0  0  0  0  0  0
    5.0637   -0.4082    0.0000 O   0  0  0  0  0  0  0  0  0  0  0  0
   -2.7304   -0.3571    0.0000 C   0  0  0  0  0  0  0  0  0  0  0  0
   -2.7402   -1.8571    0.0000 O   0  0  0  0  0  0  0  0  0  0  0  0
   -4.0245    0.4014    0.0000 O   0  0  0  0  0  0  0  0  0  0  0  0
  2  1  1  1
  2  3  1  0
  3  4  1  0
  4  5  1  0
  5  6  1  0
  6  7  1  0
  2  8  1  0
  8  9  2  0
  8 10  1  0
M  END
>  <rName>  (2574) 
Nle_OH

>  <PQ_SYMBOL>  (2574) 
Nle_OH

>  <FULL_NAME>  (2574) 
6-Hydroxy-L-Norleucine

>  <IUPAC_CONDENSED>  (2574) 
Nle(OH)

>  <IUPAC>  (2574) 
(2S)-2-amino-6-hydroxyhexanoic acid

>  <TYPE>  (2574) 
Backbone

>  <CLASS>  (2574) 
alpha

>  <ANALOG>  (2574) 
X

>  <MOL_WT>  (2574) 
147.174

>  <LOGP>  (2574) 
-0.43910000000000055

>  <TPSA>  (2574) 
83.55

>  <POPULARITY>  (2574) 
13.8

>  <PROTECTED>  (2574) 
TRUE

>  <SMILES>  (2574) 
N[C@@H](CCCCO)C(=O)O

>  <INCHIKEY>  (2574) 
OLUWXTFAPJJWPL-YFKPBYRVSA-N

$$$$
Nle_ONH2
     RDKit          2D

 11 10  0  0  0  0  0  0  0  0999 V2000
   -1.9630    1.8884    0.0000 N   0  0  0  0  0  0  0  0  0  0  0  0
   -1.9989    0.3888    0.0000 C   0  0  0  0  0  0  0  0  0  0  0  0
   -0.7181   -0.3920    0.0000 C   0  0  0  0  0  0  0  0  0  0  0  0
    0.5985    0.3267    0.0000 C   0  0  0  0  0  0  0  0  0  0  0  0
    1.8792   -0.4541    0.0000 C   0  0  0  0  0  0  0  0  0  0  0  0
    3.1958    0.2646    0.0000 C   0  0  0  0  0  0  0  0  0  0  0  0
    4.4765   -0.5162    0.0000 O   0  0  0  0  0  0  0  0  0  0  0  0
    5.7931    0.2025    0.0000 N   0  0  0  0  0  0  0  0  0  0  0  0
   -3.3155   -0.3299    0.0000 C   0  0  0  0  0  0  0  0  0  0  0  0
   -3.3513   -1.8295    0.0000 O   0  0  0  0  0  0  0  0  0  0  0  0
   -4.5962    0.4509    0.0000 O   0  0  0  0  0  0  0  0  0  0  0  0
  2  1  1  1
  2  3  1  0
  3  4  1  0
  4  5  1  0
  5  6  1  0
  6  7  1  0
  7  8  1  0
  2  9  1  0
  9 10  2  0
  9 11  1  0
M  END
>  <rName>  (2575) 
Nle_ONH2

>  <PQ_SYMBOL>  (2575) 
Nle_ONH2

>  <FULL_NAME>  (2575) 
6-(Aminooxy)-L-norleucine

>  <IUPAC_CONDENSED>  (2575) 
Nle(ONH2)

>  <IUPAC>  (2575) 
(2S)-2-amino-6-aminooxyhexanoic acid

>  <TYPE>  (2575) 
Backbone

>  <CLASS>  (2575) 
alpha

>  <ANALOG>  (2575) 
X

>  <MOL_WT>  (2575) 
162.18900000000002

>  <LOGP>  (2575) 
-0.5410999999999997

>  <TPSA>  (2575) 
98.57000000000001

>  <POPULARITY>  (2575) 
3.5

>  <PROTECTED>  (2575) 
TRUE

>  <SMILES>  (2575) 
N[C@@H](CCCCON)C(=O)O

>  <INCHIKEY>  (2575) 
VRBDIZVKVNGGNE-YFKPBYRVSA-N

$$$$
Nle_Ph
     RDKit          2D

 15 15  0  0  0  0  0  0  0  0999 V2000
   -3.8892   -1.8424    0.0000 N   0  0  0  0  0  0  0  0  0  0  0  0
   -3.7074   -0.3535    0.0000 C   0  0  0  0  0  0  0  0  0  0  0  0
   -2.3271    0.2336    0.0000 C   0  0  0  0  0  0  0  0  0  0  0  0
   -1.1285   -0.6682    0.0000 C   0  0  0  0  0  0  0  0  0  0  0  0
    0.2518   -0.0811    0.0000 C   0  0  0  0  0  0  0  0  0  0  0  0
    1.4504   -0.9830    0.0000 C   0  0  0  0  0  0  0  0  0  0  0  0
    2.8308   -0.3959    0.0000 C   0  0  0  0  0  0  0  0  0  0  0  0
    3.0125    1.0931    0.0000 C   0  0  0  0  0  0  0  0  0  0  0  0
    4.3928    1.6802    0.0000 C   0  0  0  0  0  0  0  0  0  0  0  0
    5.5914    0.7783    0.0000 C   0  0  0  0  0  0  0  0  0  0  0  0
    5.4097   -0.7106    0.0000 C   0  0  0  0  0  0  0  0  0  0  0  0
    4.0294   -1.2977    0.0000 C   0  0  0  0  0  0  0  0  0  0  0  0
   -4.9060    0.5484    0.0000 C   0  0  0  0  0  0  0  0  0  0  0  0
   -4.7243    2.0373    0.0000 O   0  0  0  0  0  0  0  0  0  0  0  0
   -6.2864   -0.0387    0.0000 O   0  0  0  0  0  0  0  0  0  0  0  0
  2  1  1  6
  2  3  1  0
  3  4  1  0
  4  5  1  0
  5  6  1  0
  6  7  1  0
  7  8  2  0
  8  9  1  0
  9 10  2  0
 10 11  1  0
 11 12  2  0
  2 13  1  0
 13 14  2  0
 13 15  1  0
 12  7  1  0
M  END
>  <rName>  (2576) 
Nle_Ph

>  <PQ_SYMBOL>  (2576) 
Nle_Ph

>  <FULL_NAME>  (2576) 
(S)-2-amino-6-phenylhexanoic acid

>  <IUPAC_CONDENSED>  (2576) 
Nle(Ph)

>  <IUPAC>  (2576) 
(2S)-2-amino-6-phenylhexanoic acid

>  <TYPE>  (2576) 
Backbone

>  <CLASS>  (2576) 
alpha

>  <ANALOG>  (2576) 
X

>  <MOL_WT>  (2576) 
207.273

>  <LOGP>  (2576) 
1.8113000000000001

>  <TPSA>  (2576) 
63.32000000000001

>  <POPULARITY>  (2576) 
10.3

>  <PROTECTED>  (2576) 
TRUE

>  <SMILES>  (2576) 
N[C@@H](CCCCc1(ccccc1))C(=O)O

>  <INCHIKEY>  (2576) 
PZXDKILRPSNHBC-NSHDSACASA-N

$$$$
Nle_Ph_4F
     RDKit          2D

 16 16  0  0  0  0  0  0  0  0999 V2000
   -4.3874   -1.7808    0.0000 N   0  0  0  0  0  0  0  0  0  0  0  0
   -4.1556   -0.2988    0.0000 C   0  0  0  0  0  0  0  0  0  0  0  0
   -2.7563    0.2414    0.0000 C   0  0  0  0  0  0  0  0  0  0  0  0
   -1.5888   -0.7004    0.0000 C   0  0  0  0  0  0  0  0  0  0  0  0
   -0.1894   -0.1602    0.0000 C   0  0  0  0  0  0  0  0  0  0  0  0
    0.9781   -1.1019    0.0000 C   0  0  0  0  0  0  0  0  0  0  0  0
    2.3775   -0.5617    0.0000 C   0  0  0  0  0  0  0  0  0  0  0  0
    2.6093    0.9203    0.0000 C   0  0  0  0  0  0  0  0  0  0  0  0
    4.0086    1.4605    0.0000 C   0  0  0  0  0  0  0  0  0  0  0  0
    5.1761    0.5187    0.0000 C   0  0  0  0  0  0  0  0  0  0  0  0
    6.5755    1.0590    0.0000 F   0  0  0  0  0  0  0  0  0  0  0  0
    4.9443   -0.9632    0.0000 C   0  0  0  0  0  0  0  0  0  0  0  0
    3.5450   -1.5035    0.0000 C   0  0  0  0  0  0  0  0  0  0  0  0
   -5.3231    0.6429    0.0000 C   0  0  0  0  0  0  0  0  0  0  0  0
   -5.0913    2.1249    0.0000 O   0  0  0  0  0  0  0  0  0  0  0  0
   -6.7225    0.1027    0.0000 O   0  0  0  0  0  0  0  0  0  0  0  0
  2  1  1  6
  2  3  1  0
  3  4  1  0
  4  5  1  0
  5  6  1  0
  6  7  1  0
  7  8  1  0
  8  9  2  0
  9 10  1  0
 10 11  1  0
 10 12  2  0
 12 13  1  0
  2 14  1  0
 14 15  2  0
 14 16  1  0
 13  7  2  0
M  END
>  <rName>  (2577) 
Nle_Ph_4F

>  <PQ_SYMBOL>  (2577) 
Nle_Ph_4F

>  <FULL_NAME>  (2577) 
Nle(Ph(4-F))

>  <IUPAC_CONDENSED>  (2577) 
Nle(Ph(4-F))

>  <IUPAC>  (2577) 
(2S)-2-amino-6-(4-fluorophenyl)hexanoic acid

>  <TYPE>  (2577) 
Backbone

>  <CLASS>  (2577) 
alpha

>  <ANALOG>  (2577) 
X

>  <MOL_WT>  (2577) 
225.26299999999998

>  <LOGP>  (2577) 
1.9504

>  <TPSA>  (2577) 
63.32000000000001

>  <POPULARITY>  (2577) 
2.2

>  <PROTECTED>  (2577) 
TRUE

>  <SMILES>  (2577) 
N[C@@H](CCCCc1(ccc(F)cc1))C(=O)O

>  <INCHIKEY>  (2577) 
FZZCQRPGKURJHO-NSHDSACASA-N

$$$$
Nle_Pr
     RDKit          2D

 12 11  0  0  0  0  0  0  0  0999 V2000
    2.5981    1.8750    0.0000 N   0  0  0  0  0  0  0  0  0  0  0  0
    2.5981    0.3750    0.0000 C   0  0  0  0  0  0  0  0  0  0  0  0
    1.2990   -0.3750    0.0000 C   0  0  0  0  0  0  0  0  0  0  0  0
    0.0000    0.3750    0.0000 C   0  0  0  0  0  0  0  0  0  0  0  0
   -1.2990   -0.3750    0.0000 C   0  0  0  0  0  0  0  0  0  0  0  0
   -2.5981    0.3750    0.0000 C   0  0  0  0  0  0  0  0  0  0  0  0
   -3.8971   -0.3750    0.0000 C   0  0  0  0  0  0  0  0  0  0  0  0
   -5.1962    0.3750    0.0000 C   0  0  0  0  0  0  0  0  0  0  0  0
   -6.4952   -0.3750    0.0000 C   0  0  0  0  0  0  0  0  0  0  0  0
    3.8971   -0.3750    0.0000 C   0  0  0  0  0  0  0  0  0  0  0  0
    3.8971   -1.8750    0.0000 O   0  0  0  0  0  0  0  0  0  0  0  0
    5.1962    0.3750    0.0000 O   0  0  0  0  0  0  0  0  0  0  0  0
  2  1  1  6
  2  3  1  0
  3  4  1  0
  4  5  1  0
  5  6  1  0
  6  7  1  0
  7  8  1  0
  8  9  1  0
  2 10  1  0
 10 11  2  0
 10 12  1  0
M  END
>  <rName>  (2578) 
Nle_Pr

>  <PQ_SYMBOL>  (2578) 
Nle_Pr

>  <FULL_NAME>  (2578) 
(2S)-2-aminononanoic acid

>  <IUPAC_CONDENSED>  (2578) 
Nle(Pr)

>  <IUPAC>  (2578) 
(2S)-2-aminononanoic acid

>  <TYPE>  (2578) 
Backbone

>  <CLASS>  (2578) 
alpha

>  <ANALOG>  (2578) 
X

>  <MOL_WT>  (2578) 
173.256

>  <LOGP>  (2578) 
1.7588

>  <TPSA>  (2578) 
63.32000000000001

>  <POPULARITY>  (2578) 
20.0

>  <PROTECTED>  (2578) 
TRUE

>  <SMILES>  (2578) 
N[C@@H](CCCCCCC)C(=O)O

>  <INCHIKEY>  (2578) 
JVPFOKXICYJJSC-QMMMGPOBSA-N

$$$$
Nle_PrNH2
     RDKit          2D

 13 12  0  0  0  0  0  0  0  0999 V2000
   -3.1740    1.8865    0.0000 N   0  0  0  0  0  0  0  0  0  0  0  0
   -3.1930    0.3866    0.0000 C   0  0  0  0  0  0  0  0  0  0  0  0
   -1.9036   -0.3798    0.0000 C   0  0  0  0  0  0  0  0  0  0  0  0
   -0.5951    0.3537    0.0000 C   0  0  0  0  0  0  0  0  0  0  0  0
    0.6943   -0.4127    0.0000 C   0  0  0  0  0  0  0  0  0  0  0  0
    2.0027    0.3208    0.0000 C   0  0  0  0  0  0  0  0  0  0  0  0
    3.2922   -0.4456    0.0000 C   0  0  0  0  0  0  0  0  0  0  0  0
    4.6006    0.2879    0.0000 C   0  0  0  0  0  0  0  0  0  0  0  0
    5.8900   -0.4785    0.0000 C   0  0  0  0  0  0  0  0  0  0  0  0
    7.1985    0.2550    0.0000 N   0  0  0  0  0  0  0  0  0  0  0  0
   -4.5014   -0.3468    0.0000 C   0  0  0  0  0  0  0  0  0  0  0  0
   -4.5204   -1.8467    0.0000 O   0  0  0  0  0  0  0  0  0  0  0  0
   -5.7909    0.4196    0.0000 O   0  0  0  0  0  0  0  0  0  0  0  0
  2  1  1  1
  2  3  1  0
  3  4  1  0
  4  5  1  0
  5  6  1  0
  6  7  1  0
  7  8  1  0
  8  9  1  0
  9 10  1  0
  2 11  1  0
 11 12  2  0
 11 13  1  0
M  END
>  <rName>  (2579) 
Nle_PrNH2

>  <PQ_SYMBOL>  (2579) 
Nle_PrNH2

>  <FULL_NAME>  (2579) 
(2S)-2,9-diaminononanoic acid

>  <IUPAC_CONDENSED>  (2579) 
Nle(PrNH2)

>  <IUPAC>  (2579) 
(2S)-2,9-diaminononanoic acid

>  <TYPE>  (2579) 
Backbone

>  <CLASS>  (2579) 
alpha

>  <ANALOG>  (2579) 
X

>  <MOL_WT>  (2579) 
188.271

>  <LOGP>  (2579) 
0.6976000000000002

>  <TPSA>  (2579) 
89.34

>  <POPULARITY>  (2579) 
7.3

>  <PROTECTED>  (2579) 
TRUE

>  <SMILES>  (2579) 
N[C@@H](CCCCCCCN)C(=O)O

>  <INCHIKEY>  (2579) 
KEBGMMXWUKWKGB-QMMMGPOBSA-N

$$$$
Nle_SH
     RDKit          2D

 10  9  0  0  0  0  0  0  0  0999 V2000
   -1.4166    1.8843    0.0000 N   0  0  0  0  0  0  0  0  0  0  0  0
   -1.4265    0.3844    0.0000 C   0  0  0  0  0  0  0  0  0  0  0  0
   -0.1324   -0.3741    0.0000 C   0  0  0  0  0  0  0  0  0  0  0  0
    1.1716    0.3673    0.0000 C   0  0  0  0  0  0  0  0  0  0  0  0
    2.4657   -0.3912    0.0000 C   0  0  0  0  0  0  0  0  0  0  0  0
    3.7696    0.3503    0.0000 C   0  0  0  0  0  0  0  0  0  0  0  0
    5.0637   -0.4082    0.0000 S   0  0  0  0  0  0  0  0  0  0  0  0
   -2.7304   -0.3571    0.0000 C   0  0  0  0  0  0  0  0  0  0  0  0
   -2.7402   -1.8571    0.0000 O   0  0  0  0  0  0  0  0  0  0  0  0
   -4.0245    0.4014    0.0000 O   0  0  0  0  0  0  0  0  0  0  0  0
  2  1  1  1
  2  3  1  0
  3  4  1  0
  4  5  1  0
  5  6  1  0
  6  7  1  0
  2  8  1  0
  8  9  2  0
  8 10  1  0
M  END
>  <rName>  (2580) 
Nle_SH

>  <PQ_SYMBOL>  (2580) 
Nle_SH

>  <FULL_NAME>  (2580) 
6-Sulfanyl-L-norleucine

>  <IUPAC_CONDENSED>  (2580) 
Nle(SH)

>  <IUPAC>  (2580) 
(2S)-2-amino-6-sulfanylhexanoic acid

>  <TYPE>  (2580) 
Backbone

>  <CLASS>  (2580) 
alpha

>  <ANALOG>  (2580) 
X

>  <MOL_WT>  (2580) 
163.24200000000002

>  <LOGP>  (2580) 
0.49839999999999995

>  <TPSA>  (2580) 
63.32000000000001

>  <POPULARITY>  (2580) 
16.1

>  <PROTECTED>  (2580) 
TRUE

>  <SMILES>  (2580) 
N[C@@H](CCCCS)C(=O)O

>  <INCHIKEY>  (2580) 
HBMWPJLCTYKAGL-YFKPBYRVSA-N

$$$$
Nle_allyl
     RDKit          2D

 12 11  0  0  0  0  0  0  0  0999 V2000
    2.5981    1.8750    0.0000 N   0  0  0  0  0  0  0  0  0  0  0  0
    2.5981    0.3750    0.0000 C   0  0  0  0  0  0  0  0  0  0  0  0
    1.2990   -0.3750    0.0000 C   0  0  0  0  0  0  0  0  0  0  0  0
    0.0000    0.3750    0.0000 C   0  0  0  0  0  0  0  0  0  0  0  0
   -1.2990   -0.3750    0.0000 C   0  0  0  0  0  0  0  0  0  0  0  0
   -2.5981    0.3750    0.0000 C   0  0  0  0  0  0  0  0  0  0  0  0
   -3.8971   -0.3750    0.0000 C   0  0  0  0  0  0  0  0  0  0  0  0
   -5.1962    0.3750    0.0000 C   0  0  0  0  0  0  0  0  0  0  0  0
   -6.4952   -0.3750    0.0000 C   0  0  0  0  0  0  0  0  0  0  0  0
    3.8971   -0.3750    0.0000 C   0  0  0  0  0  0  0  0  0  0  0  0
    3.8971   -1.8750    0.0000 O   0  0  0  0  0  0  0  0  0  0  0  0
    5.1962    0.3750    0.0000 O   0  0  0  0  0  0  0  0  0  0  0  0
  2  1  1  6
  2  3  1  0
  3  4  1  0
  4  5  1  0
  5  6  1  0
  6  7  1  0
  7  8  1  0
  8  9  2  0
  2 10  1  0
 10 11  2  0
 10 12  1  0
M  END
>  <rName>  (2581) 
Nle_allyl

>  <PQ_SYMBOL>  (2581) 
Nle_allyl

>  <FULL_NAME>  (2581) 
(2S)-2-aminonon-8-enoic acid

>  <IUPAC_CONDENSED>  (2581) 
Nle(allyl)

>  <IUPAC>  (2581) 
(2S)-2-aminonon-8-enoic acid

>  <TYPE>  (2581) 
Backbone

>  <CLASS>  (2581) 
alpha

>  <ANALOG>  (2581) 
X

>  <MOL_WT>  (2581) 
171.24

>  <LOGP>  (2581) 
1.5348

>  <TPSA>  (2581) 
63.32000000000001

>  <POPULARITY>  (2581) 
20.6

>  <PROTECTED>  (2581) 
TRUE

>  <SMILES>  (2581) 
N[C@@H](CCCCCC=C)C(=O)O

>  <INCHIKEY>  (2581) 
LKMSSWRWDBZUFC-QMMMGPOBSA-N

$$$$
Nle_but3enyl
     RDKit          2D

 13 12  0  0  0  0  0  0  0  0999 V2000
    3.1740   -1.8865    0.0000 N   0  0  0  0  0  0  0  0  0  0  0  0
    3.1930   -0.3866    0.0000 C   0  0  0  0  0  0  0  0  0  0  0  0
    1.9036    0.3798    0.0000 C   0  0  0  0  0  0  0  0  0  0  0  0
    0.5951   -0.3537    0.0000 C   0  0  0  0  0  0  0  0  0  0  0  0
   -0.6943    0.4127    0.0000 C   0  0  0  0  0  0  0  0  0  0  0  0
   -2.0027   -0.3208    0.0000 C   0  0  0  0  0  0  0  0  0  0  0  0
   -3.2922    0.4456    0.0000 C   0  0  0  0  0  0  0  0  0  0  0  0
   -4.6006   -0.2879    0.0000 C   0  0  0  0  0  0  0  0  0  0  0  0
   -5.8900    0.4785    0.0000 C   0  0  0  0  0  0  0  0  0  0  0  0
   -7.1985   -0.2550    0.0000 C   0  0  0  0  0  0  0  0  0  0  0  0
    4.5014    0.3468    0.0000 C   0  0  0  0  0  0  0  0  0  0  0  0
    4.5204    1.8467    0.0000 O   0  0  0  0  0  0  0  0  0  0  0  0
    5.7909   -0.4196    0.0000 O   0  0  0  0  0  0  0  0  0  0  0  0
  2  1  1  1
  2  3  1  0
  3  4  1  0
  4  5  1  0
  5  6  1  0
  6  7  1  0
  7  8  1  0
  8  9  1  0
  9 10  2  0
  2 11  1  0
 11 12  2  0
 11 13  1  0
M  END
>  <rName>  (2582) 
Nle_but3enyl

>  <PQ_SYMBOL>  (2582) 
Nle_but3enyl

>  <FULL_NAME>  (2582) 
(2S)-2-Amino-9-decenoic acid

>  <IUPAC_CONDENSED>  (2582) 
Nle(but-3-enyl)

>  <IUPAC>  (2582) 
(2S)-2-aminodec-9-enoic acid

>  <TYPE>  (2582) 
Backbone

>  <CLASS>  (2582) 
alpha

>  <ANALOG>  (2582) 
X

>  <MOL_WT>  (2582) 
185.267

>  <LOGP>  (2582) 
1.9248999999999998

>  <TPSA>  (2582) 
63.32000000000001

>  <POPULARITY>  (2582) 
12.8

>  <PROTECTED>  (2582) 
TRUE

>  <SMILES>  (2582) 
N[C@@H](CCCCCCC=C)C(=O)O

>  <INCHIKEY>  (2582) 
XDHWDJVNBSJHRY-VIFPVBQESA-N

$$$$
Nle_but3ynyl
     RDKit          2D

 13 12  0  0  0  0  0  0  0  0999 V2000
   -3.2701    1.8382    0.0000 N   0  0  0  0  0  0  0  0  0  0  0  0
   -3.2129    0.3393    0.0000 C   0  0  0  0  0  0  0  0  0  0  0  0
   -1.8862   -0.3606    0.0000 C   0  0  0  0  0  0  0  0  0  0  0  0
   -0.6167    0.4383    0.0000 C   0  0  0  0  0  0  0  0  0  0  0  0
    0.7100   -0.2616    0.0000 C   0  0  0  0  0  0  0  0  0  0  0  0
    1.9795    0.5374    0.0000 C   0  0  0  0  0  0  0  0  0  0  0  0
    3.3062   -0.1625    0.0000 C   0  0  0  0  0  0  0  0  0  0  0  0
    4.5757    0.6364    0.0000 C   0  0  0  0  0  0  0  0  0  0  0  0
    5.9023   -0.0635    0.0000 C   0  0  0  0  0  0  0  0  0  0  0  0
    7.2290   -0.7634    0.0000 C   0  0  0  0  0  0  0  0  0  0  0  0
   -4.4824   -0.4597    0.0000 C   0  0  0  0  0  0  0  0  0  0  0  0
   -4.4252   -1.9586    0.0000 O   0  0  0  0  0  0  0  0  0  0  0  0
   -5.8091    0.2402    0.0000 O   0  0  0  0  0  0  0  0  0  0  0  0
  2  1  1  1
  2  3  1  0
  3  4  1  0
  4  5  1  0
  5  6  1  0
  6  7  1  0
  7  8  1  0
  8  9  1  0
  9 10  3  0
  2 11  1  0
 11 12  2  0
 11 13  1  0
M  END
>  <rName>  (2583) 
Nle_but3ynyl

>  <PQ_SYMBOL>  (2583) 
Nle_but3ynyl

>  <FULL_NAME>  (2583) 
Nle(but-3-ynyl)

>  <IUPAC_CONDENSED>  (2583) 
Nle(but-3-ynyl)

>  <IUPAC>  (2583) 
(2S)-2-aminodec-9-ynoic acid

>  <TYPE>  (2583) 
Backbone

>  <CLASS>  (2583) 
alpha

>  <ANALOG>  (2583) 
X

>  <MOL_WT>  (2583) 
183.251

>  <LOGP>  (2583) 
1.3720999999999997

>  <TPSA>  (2583) 
63.32000000000001

>  <POPULARITY>  (2583) 
2.2

>  <PROTECTED>  (2583) 
TRUE

>  <SMILES>  (2583) 
N[C@@H](CCCCCCC#C)C(=O)O

>  <INCHIKEY>  (2583) 
ITXSQKATSJJCAY-VIFPVBQESA-N

$$$$
Nle_decyl
     RDKit          2D

 19 18  0  0  0  0  0  0  0  0999 V2000
    6.8990   -1.8789    0.0000 N   0  0  0  0  0  0  0  0  0  0  0  0
    6.9042   -0.3789    0.0000 C   0  0  0  0  0  0  0  0  0  0  0  0
    5.6077    0.3755    0.0000 C   0  0  0  0  0  0  0  0  0  0  0  0
    4.3061   -0.3700    0.0000 C   0  0  0  0  0  0  0  0  0  0  0  0
    3.0096    0.3844    0.0000 C   0  0  0  0  0  0  0  0  0  0  0  0
    1.7080   -0.3611    0.0000 C   0  0  0  0  0  0  0  0  0  0  0  0
    0.4116    0.3933    0.0000 C   0  0  0  0  0  0  0  0  0  0  0  0
   -0.8900   -0.3522    0.0000 C   0  0  0  0  0  0  0  0  0  0  0  0
   -2.1865    0.4022    0.0000 C   0  0  0  0  0  0  0  0  0  0  0  0
   -3.4881   -0.3433    0.0000 C   0  0  0  0  0  0  0  0  0  0  0  0
   -4.7845    0.4111    0.0000 C   0  0  0  0  0  0  0  0  0  0  0  0
   -6.0862   -0.3344    0.0000 C   0  0  0  0  0  0  0  0  0  0  0  0
   -7.3826    0.4201    0.0000 C   0  0  0  0  0  0  0  0  0  0  0  0
   -8.6842   -0.3255    0.0000 C   0  0  0  0  0  0  0  0  0  0  0  0
   -9.9807    0.4290    0.0000 C   0  0  0  0  0  0  0  0  0  0  0  0
  -11.2823   -0.3166    0.0000 C   0  0  0  0  0  0  0  0  0  0  0  0
    8.2058    0.3666    0.0000 C   0  0  0  0  0  0  0  0  0  0  0  0
    8.2109    1.8666    0.0000 O   0  0  0  0  0  0  0  0  0  0  0  0
    9.5022   -0.3878    0.0000 O   0  0  0  0  0  0  0  0  0  0  0  0
  2  1  1  1
  2  3  1  0
  3  4  1  0
  4  5  1  0
  5  6  1  0
  6  7  1  0
  7  8  1  0
  8  9  1  0
  9 10  1  0
 10 11  1  0
 11 12  1  0
 12 13  1  0
 13 14  1  0
 14 15  1  0
 15 16  1  0
  2 17  1  0
 17 18  2  0
 17 19  1  0
M  END
>  <rName>  (2584) 
Nle_decyl

>  <PQ_SYMBOL>  (2584) 
Nle_decyl

>  <FULL_NAME>  (2584) 
2S-aminohexadecanoic acid

>  <IUPAC_CONDENSED>  (2584) 
Nle(decyl)

>  <IUPAC>  (2584) 
(2S)-2-aminohexadecanoic acid

>  <TYPE>  (2584) 
Backbone

>  <CLASS>  (2584) 
alpha

>  <ANALOG>  (2584) 
X

>  <MOL_WT>  (2584) 
271.44499999999994

>  <LOGP>  (2584) 
4.489500000000004

>  <TPSA>  (2584) 
63.32000000000001

>  <POPULARITY>  (2584) 
2.2

>  <PROTECTED>  (2584) 
TRUE

>  <SMILES>  (2584) 
N[C@@H](CCCCCCCCCCCCCC)C(=O)O

>  <INCHIKEY>  (2584) 
XELWBYCKQCNAGY-HNNXBMFYSA-N

$$$$
Nle_ethynyl
     RDKit          2D

 11 10  0  0  0  0  0  0  0  0999 V2000
   -2.1124    1.8649    0.0000 N   0  0  0  0  0  0  0  0  0  0  0  0
   -2.0306    0.3672    0.0000 C   0  0  0  0  0  0  0  0  0  0  0  0
   -0.6927   -0.3109    0.0000 C   0  0  0  0  0  0  0  0  0  0  0  0
    0.5636    0.5087    0.0000 C   0  0  0  0  0  0  0  0  0  0  0  0
    1.9016   -0.1694    0.0000 C   0  0  0  0  0  0  0  0  0  0  0  0
    3.1578    0.6503    0.0000 C   0  0  0  0  0  0  0  0  0  0  0  0
    4.4958   -0.0278    0.0000 C   0  0  0  0  0  0  0  0  0  0  0  0
    5.8338   -0.7059    0.0000 C   0  0  0  0  0  0  0  0  0  0  0  0
   -3.2869   -0.4525    0.0000 C   0  0  0  0  0  0  0  0  0  0  0  0
   -3.2051   -1.9503    0.0000 O   0  0  0  0  0  0  0  0  0  0  0  0
   -4.6248    0.2256    0.0000 O   0  0  0  0  0  0  0  0  0  0  0  0
  2  1  1  1
  2  3  1  0
  3  4  1  0
  4  5  1  0
  5  6  1  0
  6  7  1  0
  7  8  3  0
  2  9  1  0
  9 10  2  0
  9 11  1  0
M  END
>  <rName>  (2585) 
Nle_ethynyl

>  <PQ_SYMBOL>  (2585) 
Nle_ethynyl

>  <FULL_NAME>  (2585) 
(S)-2-aminooct-7-ynoic acid

>  <IUPAC_CONDENSED>  (2585) 
Nle(ethynyl)

>  <IUPAC>  (2585) 
(2S)-2-aminooct-7-ynoic acid

>  <TYPE>  (2585) 
Backbone

>  <CLASS>  (2585) 
alpha

>  <ANALOG>  (2585) 
Leu

>  <MOL_WT>  (2585) 
155.197

>  <LOGP>  (2585) 
0.5918999999999999

>  <TPSA>  (2585) 
63.32000000000001

>  <POPULARITY>  (2585) 
5.2

>  <PROTECTED>  (2585) 
TRUE

>  <SMILES>  (2585) 
N[C@@H](CCCCC#C)C(=O)O

>  <INCHIKEY>  (2585) 
HYWGKAZTGORCAE-ZETCQYMHSA-N

$$$$
Nle_hexyl
     RDKit          2D

 15 14  0  0  0  0  0  0  0  0999 V2000
    4.4025   -1.8836    0.0000 N   0  0  0  0  0  0  0  0  0  0  0  0
    4.4139   -0.3836    0.0000 C   0  0  0  0  0  0  0  0  0  0  0  0
    3.1206    0.3763    0.0000 C   0  0  0  0  0  0  0  0  0  0  0  0
    1.8159   -0.3638    0.0000 C   0  0  0  0  0  0  0  0  0  0  0  0
    0.5226    0.3960    0.0000 C   0  0  0  0  0  0  0  0  0  0  0  0
   -0.7821   -0.3441    0.0000 C   0  0  0  0  0  0  0  0  0  0  0  0
   -2.0754    0.4158    0.0000 C   0  0  0  0  0  0  0  0  0  0  0  0
   -3.3801   -0.3243    0.0000 C   0  0  0  0  0  0  0  0  0  0  0  0
   -4.6734    0.4356    0.0000 C   0  0  0  0  0  0  0  0  0  0  0  0
   -5.9781   -0.3045    0.0000 C   0  0  0  0  0  0  0  0  0  0  0  0
   -7.2714    0.4554    0.0000 C   0  0  0  0  0  0  0  0  0  0  0  0
   -8.5761   -0.2847    0.0000 C   0  0  0  0  0  0  0  0  0  0  0  0
    5.7186    0.3565    0.0000 C   0  0  0  0  0  0  0  0  0  0  0  0
    5.7301    1.8564    0.0000 O   0  0  0  0  0  0  0  0  0  0  0  0
    7.0119   -0.4034    0.0000 O   0  0  0  0  0  0  0  0  0  0  0  0
  2  1  1  1
  2  3  1  0
  3  4  1  0
  4  5  1  0
  5  6  1  0
  6  7  1  0
  7  8  1  0
  8  9  1  0
  9 10  1  0
 10 11  1  0
 11 12  1  0
  2 13  1  0
 13 14  2  0
 13 15  1  0
M  END
>  <rName>  (2586) 
Nle_hexyl

>  <PQ_SYMBOL>  (2586) 
Nle_hexyl

>  <FULL_NAME>  (2586) 
(2S)-2-aminododecanoic acid

>  <IUPAC_CONDENSED>  (2586) 
Nle(hexyl)

>  <IUPAC>  (2586) 
(2S)-2-aminododecanoic acid

>  <TYPE>  (2586) 
Backbone

>  <CLASS>  (2586) 
alpha

>  <ANALOG>  (2586) 
X

>  <MOL_WT>  (2586) 
215.337

>  <LOGP>  (2586) 
2.929100000000001

>  <TPSA>  (2586) 
63.32000000000001

>  <POPULARITY>  (2586) 
16.6

>  <PROTECTED>  (2586) 
TRUE

>  <SMILES>  (2586) 
N[C@@H](CCCCCCCCCC)C(=O)O

>  <INCHIKEY>  (2586) 
QUBNFZFTFXTLKH-NSHDSACASA-N

$$$$
Nle_morpholino
     RDKit          2D

 15 15  0  0  0  0  0  0  0  0999 V2000
   -3.8892   -1.8424    0.0000 N   0  0  0  0  0  0  0  0  0  0  0  0
   -3.7074   -0.3535    0.0000 C   0  0  0  0  0  0  0  0  0  0  0  0
   -2.3271    0.2336    0.0000 C   0  0  0  0  0  0  0  0  0  0  0  0
   -1.1285   -0.6682    0.0000 C   0  0  0  0  0  0  0  0  0  0  0  0
    0.2518   -0.0811    0.0000 C   0  0  0  0  0  0  0  0  0  0  0  0
    1.4504   -0.9830    0.0000 C   0  0  0  0  0  0  0  0  0  0  0  0
    2.8308   -0.3959    0.0000 N   0  0  0  0  0  0  0  0  0  0  0  0
    3.0125    1.0931    0.0000 C   0  0  0  0  0  0  0  0  0  0  0  0
    4.3928    1.6802    0.0000 C   0  0  0  0  0  0  0  0  0  0  0  0
    5.5914    0.7783    0.0000 O   0  0  0  0  0  0  0  0  0  0  0  0
    5.4097   -0.7106    0.0000 C   0  0  0  0  0  0  0  0  0  0  0  0
    4.0294   -1.2977    0.0000 C   0  0  0  0  0  0  0  0  0  0  0  0
   -4.9060    0.5484    0.0000 C   0  0  0  0  0  0  0  0  0  0  0  0
   -4.7243    2.0373    0.0000 O   0  0  0  0  0  0  0  0  0  0  0  0
   -6.2864   -0.0387    0.0000 O   0  0  0  0  0  0  0  0  0  0  0  0
  2  1  1  6
  2  3  1  0
  3  4  1  0
  4  5  1  0
  5  6  1  0
  6  7  1  0
  7  8  1  0
  8  9  1  0
  9 10  1  0
 10 11  1  0
 11 12  1  0
  2 13  1  0
 13 14  2  0
 13 15  1  0
 12  7  1  0
M  END
>  <rName>  (2587) 
Nle_morpholino

>  <PQ_SYMBOL>  (2587) 
Nle_morpholino

>  <FULL_NAME>  (2587) 
(2S)-2-amino-6-morpholin-4-ylhexanoic acid

>  <IUPAC_CONDENSED>  (2587) 
Nle(morpholino)

>  <IUPAC>  (2587) 
(2S)-2-amino-6-morpholin-4-ylhexanoic acid

>  <TYPE>  (2587) 
Backbone

>  <CLASS>  (2587) 
alpha

>  <ANALOG>  (2587) 
Lys

>  <MOL_WT>  (2587) 
216.28099999999998

>  <LOGP>  (2587) 
-0.09920000000000023

>  <TPSA>  (2587) 
75.78999999999999

>  <POPULARITY>  (2587) 
2.2

>  <PROTECTED>  (2587) 
TRUE

>  <SMILES>  (2587) 
N[C@@H](CCCCN1(CCOCC1))C(=O)O

>  <INCHIKEY>  (2587) 
CROWIKLKABWJTF-VIFPVBQESA-N

$$$$
Nle_octyl
     RDKit          2D

 17 16  0  0  0  0  0  0  0  0999 V2000
    5.6454   -1.8810    0.0000 N   0  0  0  0  0  0  0  0  0  0  0  0
    5.6528   -0.3810    0.0000 C   0  0  0  0  0  0  0  0  0  0  0  0
    4.3575    0.3754    0.0000 C   0  0  0  0  0  0  0  0  0  0  0  0
    3.0548   -0.3681    0.0000 C   0  0  0  0  0  0  0  0  0  0  0  0
    1.7595    0.3883    0.0000 C   0  0  0  0  0  0  0  0  0  0  0  0
    0.4567   -0.3552    0.0000 C   0  0  0  0  0  0  0  0  0  0  0  0
   -0.8386    0.4012    0.0000 C   0  0  0  0  0  0  0  0  0  0  0  0
   -2.1413   -0.3423    0.0000 C   0  0  0  0  0  0  0  0  0  0  0  0
   -3.4366    0.4141    0.0000 C   0  0  0  0  0  0  0  0  0  0  0  0
   -4.7394   -0.3294    0.0000 C   0  0  0  0  0  0  0  0  0  0  0  0
   -6.0347    0.4270    0.0000 C   0  0  0  0  0  0  0  0  0  0  0  0
   -7.3374   -0.3165    0.0000 C   0  0  0  0  0  0  0  0  0  0  0  0
   -8.6327    0.4399    0.0000 C   0  0  0  0  0  0  0  0  0  0  0  0
   -9.9355   -0.3036    0.0000 C   0  0  0  0  0  0  0  0  0  0  0  0
    6.9556    0.3625    0.0000 C   0  0  0  0  0  0  0  0  0  0  0  0
    6.9630    1.8625    0.0000 O   0  0  0  0  0  0  0  0  0  0  0  0
    8.2509   -0.3939    0.0000 O   0  0  0  0  0  0  0  0  0  0  0  0
  2  1  1  1
  2  3  1  0
  3  4  1  0
  4  5  1  0
  5  6  1  0
  6  7  1  0
  7  8  1  0
  8  9  1  0
  9 10  1  0
 10 11  1  0
 11 12  1  0
 12 13  1  0
 13 14  1  0
  2 15  1  0
 15 16  2  0
 15 17  1  0
M  END
>  <rName>  (2588) 
Nle_octyl

>  <PQ_SYMBOL>  (2588) 
Nle_octyl

>  <FULL_NAME>  (2588) 
(S)-2-aminotetradecanoic acid

>  <IUPAC_CONDENSED>  (2588) 
Nle(octyl)

>  <IUPAC>  (2588) 
(2S)-2-aminotetradecanoic acid

>  <TYPE>  (2588) 
Backbone

>  <CLASS>  (2588) 
alpha

>  <ANALOG>  (2588) 
X

>  <MOL_WT>  (2588) 
243.39099999999996

>  <LOGP>  (2588) 
3.7093000000000025

>  <TPSA>  (2588) 
63.32000000000001

>  <POPULARITY>  (2588) 
10.5

>  <PROTECTED>  (2588) 
TRUE

>  <SMILES>  (2588) 
N[C@@H](CCCCCCCCCCCC)C(=O)O

>  <INCHIKEY>  (2588) 
BVXKPGXJOLWHFI-ZDUSSCGKSA-N

$$$$
Nle_pentyl
     RDKit          2D

 14 13  0  0  0  0  0  0  0  0999 V2000
    3.8076    1.8684    0.0000 N   0  0  0  0  0  0  0  0  0  0  0  0
    3.8050    0.3684    0.0000 C   0  0  0  0  0  0  0  0  0  0  0  0
    2.5046   -0.3794    0.0000 C   0  0  0  0  0  0  0  0  0  0  0  0
    1.2069    0.3729    0.0000 C   0  0  0  0  0  0  0  0  0  0  0  0
   -0.0934   -0.3748    0.0000 C   0  0  0  0  0  0  0  0  0  0  0  0
   -1.3912    0.3774    0.0000 C   0  0  0  0  0  0  0  0  0  0  0  0
   -2.6915   -0.3703    0.0000 C   0  0  0  0  0  0  0  0  0  0  0  0
   -3.9892    0.3819    0.0000 C   0  0  0  0  0  0  0  0  0  0  0  0
   -5.2896   -0.3658    0.0000 C   0  0  0  0  0  0  0  0  0  0  0  0
   -6.5873    0.3865    0.0000 C   0  0  0  0  0  0  0  0  0  0  0  0
   -7.8877   -0.3613    0.0000 C   0  0  0  0  0  0  0  0  0  0  0  0
    5.1027   -0.3839    0.0000 C   0  0  0  0  0  0  0  0  0  0  0  0
    5.1001   -1.8839    0.0000 O   0  0  0  0  0  0  0  0  0  0  0  0
    6.4030    0.3638    0.0000 O   0  0  0  0  0  0  0  0  0  0  0  0
  2  1  1  6
  2  3  1  0
  3  4  1  0
  4  5  1  0
  5  6  1  0
  6  7  1  0
  7  8  1  0
  8  9  1  0
  9 10  1  0
 10 11  1  0
  2 12  1  0
 12 13  2  0
 12 14  1  0
M  END
>  <rName>  (2589) 
Nle_pentyl

>  <PQ_SYMBOL>  (2589) 
Nle_pentyl

>  <FULL_NAME>  (2589) 
(2S)-2-aminoundecanoic acid

>  <IUPAC_CONDENSED>  (2589) 
Nle(pentyl)

>  <IUPAC>  (2589) 
(2S)-2-aminoundecanoic acid

>  <TYPE>  (2589) 
Backbone

>  <CLASS>  (2589) 
alpha

>  <ANALOG>  (2589) 
X

>  <MOL_WT>  (2589) 
201.31

>  <LOGP>  (2589) 
2.5390000000000006

>  <TPSA>  (2589) 
63.32000000000001

>  <POPULARITY>  (2589) 
16.0

>  <PROTECTED>  (2589) 
TRUE

>  <SMILES>  (2589) 
N[C@@H](CCCCCCCCC)C(=O)O

>  <INCHIKEY>  (2589) 
HASUJDLTAYUWCO-JTQLQIEISA-N

$$$$
Nle_phthalimido
     RDKit          2D

 20 21  0  0  0  0  0  0  0  0999 V2000
   -5.3986   -1.7593    0.0000 N   0  0  0  0  0  0  0  0  0  0  0  0
   -5.1385   -0.2820    0.0000 C   0  0  0  0  0  0  0  0  0  0  0  0
   -3.7292    0.2314    0.0000 C   0  0  0  0  0  0  0  0  0  0  0  0
   -2.5798   -0.7324    0.0000 C   0  0  0  0  0  0  0  0  0  0  0  0
   -1.1704   -0.2190    0.0000 C   0  0  0  0  0  0  0  0  0  0  0  0
   -0.0211   -1.1828    0.0000 C   0  0  0  0  0  0  0  0  0  0  0  0
    1.3883   -0.6694    0.0000 N   0  0  0  0  0  0  0  0  0  0  0  0
    2.6321   -1.5078    0.0000 C   0  0  0  0  0  0  0  0  0  0  0  0
    2.6849   -3.0069    0.0000 O   0  0  0  0  0  0  0  0  0  0  0  0
    3.8139   -0.5840    0.0000 C   0  0  0  0  0  0  0  0  0  0  0  0
    5.2912   -0.8440    0.0000 C   0  0  0  0  0  0  0  0  0  0  0  0
    6.2550    0.3053    0.0000 C   0  0  0  0  0  0  0  0  0  0  0  0
    5.7416    1.7147    0.0000 C   0  0  0  0  0  0  0  0  0  0  0  0
    4.2643    1.9748    0.0000 C   0  0  0  0  0  0  0  0  0  0  0  0
    3.3004    0.8254    0.0000 C   0  0  0  0  0  0  0  0  0  0  0  0
    1.8014    0.7726    0.0000 C   0  0  0  0  0  0  0  0  0  0  0  0
    0.8775    1.9544    0.0000 O   0  0  0  0  0  0  0  0  0  0  0  0
   -6.2879    0.6818    0.0000 C   0  0  0  0  0  0  0  0  0  0  0  0
   -6.0279    2.1591    0.0000 O   0  0  0  0  0  0  0  0  0  0  0  0
   -7.6973    0.1683    0.0000 O   0  0  0  0  0  0  0  0  0  0  0  0
  2  1  1  6
  2  3  1  0
  3  4  1  0
  4  5  1  0
  5  6  1  0
  6  7  1  0
  7  8  1  0
  8  9  2  0
  8 10  1  0
 10 11  2  0
 11 12  1  0
 12 13  2  0
 13 14  1  0
 14 15  2  0
 15 16  1  0
 16 17  2  0
  2 18  1  0
 18 19  2  0
 18 20  1  0
 15 10  1  0
 16  7  1  0
M  END
>  <rName>  (2590) 
Nle_phthalimido

>  <PQ_SYMBOL>  (2590) 
Nle_phthalimido

>  <FULL_NAME>  (2590) 
(S)-2-Amino-6-(1,3-dioxoisoindolin-2-yl)hexanoic Acid

>  <IUPAC_CONDENSED>  (2590) 
Nle(phthalimido)

>  <IUPAC>  (2590) 
(2S)-2-amino-6-(1,3-dioxoisoindol-2-yl)hexanoic acid

>  <TYPE>  (2590) 
Backbone

>  <CLASS>  (2590) 
alpha

>  <ANALOG>  (2590) 
Lys

>  <MOL_WT>  (2590) 
276.29200000000003

>  <LOGP>  (2590) 
0.8648

>  <TPSA>  (2590) 
100.7

>  <POPULARITY>  (2590) 
2.2

>  <PROTECTED>  (2590) 
TRUE

>  <SMILES>  (2590) 
N[C@@H](CCCCN2(C(=O)c1(ccccc1C2=O)))C(=O)O

>  <INCHIKEY>  (2590) 
WFKJLXBKVVZRLS-NSHDSACASA-N

$$$$
Nle_prop2ynyl
     RDKit          2D

 12 11  0  0  0  0  0  0  0  0999 V2000
   -2.4844   -1.9079    0.0000 N   0  0  0  0  0  0  0  0  0  0  0  0
   -2.5775   -0.4108    0.0000 C   0  0  0  0  0  0  0  0  0  0  0  0
   -1.3276    0.4184    0.0000 C   0  0  0  0  0  0  0  0  0  0  0  0
    0.0155   -0.2495    0.0000 C   0  0  0  0  0  0  0  0  0  0  0  0
    1.2655    0.5797    0.0000 C   0  0  0  0  0  0  0  0  0  0  0  0
    2.6086   -0.0882    0.0000 C   0  0  0  0  0  0  0  0  0  0  0  0
    3.8585    0.7410    0.0000 C   0  0  0  0  0  0  0  0  0  0  0  0
    5.2016    0.0731    0.0000 C   0  0  0  0  0  0  0  0  0  0  0  0
    6.5447   -0.5948    0.0000 C   0  0  0  0  0  0  0  0  0  0  0  0
   -3.9206    0.2571    0.0000 C   0  0  0  0  0  0  0  0  0  0  0  0
   -4.0138    1.7542    0.0000 O   0  0  0  0  0  0  0  0  0  0  0  0
   -5.1706   -0.5722    0.0000 O   0  0  0  0  0  0  0  0  0  0  0  0
  2  1  1  6
  2  3  1  0
  3  4  1  0
  4  5  1  0
  5  6  1  0
  6  7  1  0
  7  8  1  0
  8  9  3  0
  2 10  1  0
 10 11  2  0
 10 12  1  0
M  END
>  <rName>  (2591) 
Nle_prop2ynyl

>  <PQ_SYMBOL>  (2591) 
Nle_prop2ynyl

>  <FULL_NAME>  (2591) 
(2S)-2-aminonon-8-ynoic acid

>  <IUPAC_CONDENSED>  (2591) 
Nle(prop-2-ynyl)

>  <IUPAC>  (2591) 
(2S)-2-aminonon-8-ynoic acid

>  <TYPE>  (2591) 
Backbone

>  <CLASS>  (2591) 
alpha

>  <ANALOG>  (2591) 
X

>  <MOL_WT>  (2591) 
169.224

>  <LOGP>  (2591) 
0.9819999999999998

>  <TPSA>  (2591) 
63.32000000000001

>  <POPULARITY>  (2591) 
2.2

>  <PROTECTED>  (2591) 
TRUE

>  <SMILES>  (2591) 
N[C@@H](CCCCCC#C)C(=O)O

>  <INCHIKEY>  (2591) 
KKQVZTIXWUMMAP-QMMMGPOBSA-N

$$$$
Nle_vinyl
     RDKit          2D

 11 10  0  0  0  0  0  0  0  0999 V2000
    1.9630   -1.8884    0.0000 N   0  0  0  0  0  0  0  0  0  0  0  0
    1.9989   -0.3888    0.0000 C   0  0  0  0  0  0  0  0  0  0  0  0
    0.7181    0.3920    0.0000 C   0  0  0  0  0  0  0  0  0  0  0  0
   -0.5985   -0.3267    0.0000 C   0  0  0  0  0  0  0  0  0  0  0  0
   -1.8792    0.4541    0.0000 C   0  0  0  0  0  0  0  0  0  0  0  0
   -3.1958   -0.2646    0.0000 C   0  0  0  0  0  0  0  0  0  0  0  0
   -4.4765    0.5162    0.0000 C   0  0  0  0  0  0  0  0  0  0  0  0
   -5.7931   -0.2025    0.0000 C   0  0  0  0  0  0  0  0  0  0  0  0
    3.3155    0.3299    0.0000 C   0  0  0  0  0  0  0  0  0  0  0  0
    3.3513    1.8295    0.0000 O   0  0  0  0  0  0  0  0  0  0  0  0
    4.5962   -0.4509    0.0000 O   0  0  0  0  0  0  0  0  0  0  0  0
  2  1  1  1
  2  3  1  0
  3  4  1  0
  4  5  1  0
  5  6  1  0
  6  7  1  0
  7  8  2  0
  2  9  1  0
  9 10  2  0
  9 11  1  0
M  END
>  <rName>  (2592) 
Nle_vinyl

>  <PQ_SYMBOL>  (2592) 
Nle_vinyl

>  <FULL_NAME>  (2592) 
(S)-2-aminooct-7-enoic acid

>  <IUPAC_CONDENSED>  (2592) 
Nle(vinyl)

>  <IUPAC>  (2592) 
(2S)-2-aminooct-7-enoic acid

>  <TYPE>  (2592) 
Backbone

>  <CLASS>  (2592) 
alpha

>  <ANALOG>  (2592) 
Leu

>  <MOL_WT>  (2592) 
157.213

>  <LOGP>  (2592) 
1.1446999999999998

>  <TPSA>  (2592) 
63.32000000000001

>  <POPULARITY>  (2592) 
16.4

>  <PROTECTED>  (2592) 
TRUE

>  <SMILES>  (2592) 
N[C@@H](CCCCC=C)C(=O)O

>  <INCHIKEY>  (2592) 
VXVRWMRIUKRFMP-ZETCQYMHSA-N

$$$$
NmorpholinoEt-G
     RDKit          2D

 13 13  0  0  0  0  0  0  0  0999 V2000
   -2.0072   -0.3719    0.0000 N   0  0  0  0  0  0  0  0  0  0  0  0
   -0.5884    0.1150    0.0000 C   0  0  0  0  0  0  0  0  0  0  0  0
    0.5426   -0.8703    0.0000 C   0  0  0  0  0  0  0  0  0  0  0  0
    1.9614   -0.3834    0.0000 N   0  0  0  0  0  0  0  0  0  0  0  0
    2.2491    1.0888    0.0000 C   0  0  0  0  0  0  0  0  0  0  0  0
    3.6679    1.5757    0.0000 C   0  0  0  0  0  0  0  0  0  0  0  0
    4.7990    0.5904    0.0000 O   0  0  0  0  0  0  0  0  0  0  0  0
    4.5112   -0.8817    0.0000 C   0  0  0  0  0  0  0  0  0  0  0  0
    3.0925   -1.3686    0.0000 C   0  0  0  0  0  0  0  0  0  0  0  0
   -3.1382    0.6134    0.0000 C   0  0  0  0  0  0  0  0  0  0  0  0
   -4.5570    0.1265    0.0000 C   0  0  0  0  0  0  0  0  0  0  0  0
   -4.8448   -1.3456    0.0000 O   0  0  0  0  0  0  0  0  0  0  0  0
   -5.6881    1.1118    0.0000 O   0  0  0  0  0  0  0  0  0  0  0  0
  1  2  1  0
  2  3  1  0
  3  4  1  0
  4  5  1  0
  5  6  1  0
  6  7  1  0
  7  8  1  0
  8  9  1  0
  1 10  1  0
 10 11  1  0
 11 12  2  0
 11 13  1  0
  9  4  1  0
M  END
>  <rName>  (2593) 
NmorpholinoEt-G

>  <PQ_SYMBOL>  (2593) 
NmorpholinoEt-G

>  <FULL_NAME>  (2593) 
n-(2-morpholinoethyl)glycine

>  <IUPAC_CONDENSED>  (2593) 
morpholinoEt-Gly

>  <IUPAC>  (2593) 
2-((2-(morpholin-4-yl)ethyl)amino)acetic acid

>  <TYPE>  (2593) 
Backbone

>  <CLASS>  (2593) 
alpha

>  <ANALOG>  (2593) 
Gly

>  <MOL_WT>  (2593) 
188.22699999999998

>  <LOGP>  (2593) 
-1.0071999999999988

>  <TPSA>  (2593) 
61.8

>  <POPULARITY>  (2593) 
9.7

>  <PROTECTED>  (2593) 
TRUE

>  <SMILES>  (2593) 
N(CCN1(CCOCC1))CC(=O)O

>  <INCHIKEY>  (2593) 
OXUYRKQXXRBONI-UHFFFAOYSA-N

$$$$
Nnaphth1yl-G
     RDKit          2D

 15 16  0  0  0  0  0  0  0  0999 V2000
   -1.4643    0.2929    0.0000 N   0  0  0  0  0  0  0  0  0  0  0  0
   -0.1877   -0.4947    0.0000 C   0  0  0  0  0  0  0  0  0  0  0  0
   -0.2316   -1.9941    0.0000 C   0  0  0  0  0  0  0  0  0  0  0  0
    1.0450   -2.7817    0.0000 C   0  0  0  0  0  0  0  0  0  0  0  0
    2.3654   -2.0700    0.0000 C   0  0  0  0  0  0  0  0  0  0  0  0
    2.4092   -0.5706    0.0000 C   0  0  0  0  0  0  0  0  0  0  0  0
    3.7296    0.1411    0.0000 C   0  0  0  0  0  0  0  0  0  0  0  0
    3.7735    1.6404    0.0000 C   0  0  0  0  0  0  0  0  0  0  0  0
    2.4969    2.4281    0.0000 C   0  0  0  0  0  0  0  0  0  0  0  0
    1.1765    1.7164    0.0000 C   0  0  0  0  0  0  0  0  0  0  0  0
    1.1327    0.2170    0.0000 C   0  0  0  0  0  0  0  0  0  0  0  0
   -2.7847   -0.4188    0.0000 C   0  0  0  0  0  0  0  0  0  0  0  0
   -4.0613    0.3688    0.0000 C   0  0  0  0  0  0  0  0  0  0  0  0
   -4.0174    1.8682    0.0000 O   0  0  0  0  0  0  0  0  0  0  0  0
   -5.3817   -0.3429    0.0000 O   0  0  0  0  0  0  0  0  0  0  0  0
  1  2  1  0
  2  3  2  0
  3  4  1  0
  4  5  2  0
  5  6  1  0
  6  7  2  0
  7  8  1  0
  8  9  2  0
  9 10  1  0
 10 11  2  0
  1 12  1  0
 12 13  1  0
 13 14  2  0
 13 15  1  0
 11  2  1  0
 11  6  1  0
M  END
>  <rName>  (2594) 
Nnaphth1yl-G

>  <PQ_SYMBOL>  (2594) 
Nnaphth1yl-G

>  <FULL_NAME>  (2594) 
2-(naphthalen-1-ylamino)acetic acid

>  <IUPAC_CONDENSED>  (2594) 
N-naphth-1-yl-Gly

>  <IUPAC>  (2594) 
2-((naphthalen-1-yl)amino)acetic acid

>  <TYPE>  (2594) 
N-term cap

>  <CLASS>  (2594) 
n_cap

>  <ANALOG>  (2594) 
X

>  <MOL_WT>  (2594) 
201.22499999999997

>  <LOGP>  (2594) 
2.3362999999999996

>  <TPSA>  (2594) 
49.33

>  <POPULARITY>  (2594) 
10.3

>  <PROTECTED>  (2594) 
TRUE

>  <SMILES>  (2594) 
N(c1(cccc2(ccccc12)))CC(=O)O

>  <INCHIKEY>  (2594) 
SIVZFLKJXSKCGT-UHFFFAOYSA-N

$$$$
Nnaphth1ylmethyl-G
     RDKit          2D

 16 17  0  0  0  0  0  0  0  0999 V2000
   -2.2906   -0.0108    0.0000 N   0  0  0  0  0  0  0  0  0  0  0  0
   -0.9121    0.5805    0.0000 C   0  0  0  0  0  0  0  0  0  0  0  0
    0.2893   -0.3176    0.0000 C   0  0  0  0  0  0  0  0  0  0  0  0
    0.1121   -1.8071    0.0000 C   0  0  0  0  0  0  0  0  0  0  0  0
    1.3135   -2.7053    0.0000 C   0  0  0  0  0  0  0  0  0  0  0  0
    2.6920   -2.1140    0.0000 C   0  0  0  0  0  0  0  0  0  0  0  0
    2.8692   -0.6245    0.0000 C   0  0  0  0  0  0  0  0  0  0  0  0
    4.2477   -0.0331    0.0000 C   0  0  0  0  0  0  0  0  0  0  0  0
    4.4248    1.4564    0.0000 C   0  0  0  0  0  0  0  0  0  0  0  0
    3.2235    2.3545    0.0000 C   0  0  0  0  0  0  0  0  0  0  0  0
    1.8449    1.7632    0.0000 C   0  0  0  0  0  0  0  0  0  0  0  0
    1.6678    0.2737    0.0000 C   0  0  0  0  0  0  0  0  0  0  0  0
   -3.4920    0.8874    0.0000 C   0  0  0  0  0  0  0  0  0  0  0  0
   -4.8705    0.2960    0.0000 C   0  0  0  0  0  0  0  0  0  0  0  0
   -5.0477   -1.1935    0.0000 O   0  0  0  0  0  0  0  0  0  0  0  0
   -6.0719    1.1942    0.0000 O   0  0  0  0  0  0  0  0  0  0  0  0
  1  2  1  0
  2  3  1  0
  3  4  2  0
  4  5  1  0
  5  6  2  0
  6  7  1  0
  7  8  2  0
  8  9  1  0
  9 10  2  0
 10 11  1  0
 11 12  2  0
  1 13  1  0
 13 14  1  0
 14 15  2  0
 14 16  1  0
 12  3  1  0
 12  7  1  0
M  END
>  <rName>  (2595) 
Nnaphth1ylmethyl-G

>  <PQ_SYMBOL>  (2595) 
Nnaphth1ylmethyl-G

>  <FULL_NAME>  (2595) 
N-(1-naphthylmethyl)glycine

>  <IUPAC_CONDENSED>  (2595) 
naphth-1-ylmethyl-Gly

>  <IUPAC>  (2595) 
2-((naphthalen-1-ylmethyl)amino)acetic acid

>  <TYPE>  (2595) 
Backbone

>  <CLASS>  (2595) 
alpha

>  <ANALOG>  (2595) 
Gly

>  <MOL_WT>  (2595) 
215.25199999999995

>  <LOGP>  (2595) 
2.014

>  <TPSA>  (2595) 
49.33

>  <POPULARITY>  (2595) 
10.2

>  <PROTECTED>  (2595) 
TRUE

>  <SMILES>  (2595) 
N(Cc1(cccc2(ccccc12)))CC(=O)O

>  <INCHIKEY>  (2595) 
SJMGAVPYTBYRIZ-UHFFFAOYSA-N

$$$$
Npent4enyl-G
     RDKit          2D

 10  9  0  0  0  0  0  0  0  0999 V2000
    0.9213    0.1695    0.0000 N   0  0  0  0  0  0  0  0  0  0  0  0
   -0.4208   -0.5004    0.0000 C   0  0  0  0  0  0  0  0  0  0  0  0
   -1.6720    0.3269    0.0000 C   0  0  0  0  0  0  0  0  0  0  0  0
   -3.0141   -0.3430    0.0000 C   0  0  0  0  0  0  0  0  0  0  0  0
   -4.2653    0.4843    0.0000 C   0  0  0  0  0  0  0  0  0  0  0  0
   -5.6074   -0.1857    0.0000 C   0  0  0  0  0  0  0  0  0  0  0  0
    2.1725   -0.6578    0.0000 C   0  0  0  0  0  0  0  0  0  0  0  0
    3.5146    0.0121    0.0000 C   0  0  0  0  0  0  0  0  0  0  0  0
    3.6055    1.5094    0.0000 O   0  0  0  0  0  0  0  0  0  0  0  0
    4.7658   -0.8152    0.0000 O   0  0  0  0  0  0  0  0  0  0  0  0
  1  2  1  0
  2  3  1  0
  3  4  1  0
  4  5  1  0
  5  6  2  0
  1  7  1  0
  7  8  1  0
  8  9  2  0
  8 10  1  0
M  END
>  <rName>  (2596) 
Npent4enyl-G

>  <PQ_SYMBOL>  (2596) 
Npent4enyl-G

>  <FULL_NAME>  (2596) 
2-(pent-4-enylamino)acetic acid

>  <IUPAC_CONDENSED>  (2596) 
pent-4-enyl-Gly

>  <IUPAC>  (2596) 
2-((pent-4-en-1-yl)amino)acetic acid

>  <TYPE>  (2596) 
Backbone

>  <CLASS>  (2596) 
alpha

>  <ANALOG>  (2596) 
Gly

>  <MOL_WT>  (2596) 
143.186

>  <LOGP>  (2596) 
0.6268

>  <TPSA>  (2596) 
49.33

>  <POPULARITY>  (2596) 
15.3

>  <PROTECTED>  (2596) 
TRUE

>  <SMILES>  (2596) 
N(CCCC=C)CC(=O)O

>  <INCHIKEY>  (2596) 
XZKUCGZMKKPYGX-UHFFFAOYSA-N

$$$$
Npentan3yl-G
     RDKit          2D

 10  9  0  0  0  0  0  0  0  0999 V2000
    0.2411    0.4603    0.0000 N   0  0  0  0  0  0  0  0  0  0  0  0
    1.5699   -0.2356    0.0000 C   0  0  0  0  0  0  0  0  0  0  0  0
    2.8370    0.5672    0.0000 C   0  0  0  0  0  0  0  0  0  0  0  0
    2.7753    2.0659    0.0000 C   0  0  0  0  0  0  0  0  0  0  0  0
    1.6316   -1.7344    0.0000 C   0  0  0  0  0  0  0  0  0  0  0  0
    0.3645   -2.5372    0.0000 C   0  0  0  0  0  0  0  0  0  0  0  0
   -1.0260   -0.3425    0.0000 C   0  0  0  0  0  0  0  0  0  0  0  0
   -2.3548    0.3534    0.0000 C   0  0  0  0  0  0  0  0  0  0  0  0
   -2.4165    1.8522    0.0000 O   0  0  0  0  0  0  0  0  0  0  0  0
   -3.6219   -0.4494    0.0000 O   0  0  0  0  0  0  0  0  0  0  0  0
  1  2  1  0
  2  3  1  0
  3  4  1  0
  2  5  1  0
  5  6  1  0
  1  7  1  0
  7  8  1  0
  8  9  2  0
  8 10  1  0
M  END
>  <rName>  (2597) 
Npentan3yl-G

>  <PQ_SYMBOL>  (2597) 
Npentan3yl-G

>  <FULL_NAME>  (2597) 
Pentan-3-ylglycine

>  <IUPAC_CONDENSED>  (2597) 
pentan-3-yl-Gly

>  <IUPAC>  (2597) 
2-(pentan-3-ylamino)acetic acid

>  <TYPE>  (2597) 
Backbone

>  <CLASS>  (2597) 
alpha

>  <ANALOG>  (2597) 
Gly

>  <MOL_WT>  (2597) 
145.202

>  <LOGP>  (2597) 
0.8492

>  <TPSA>  (2597) 
49.33

>  <POPULARITY>  (2597) 
2.2

>  <PROTECTED>  (2597) 
TRUE

>  <SMILES>  (2597) 
N(C(CC)CC)CC(=O)O

>  <INCHIKEY>  (2597) 
OBISJXQRFPCTDF-UHFFFAOYSA-N

$$$$
Npentyl-G
     RDKit          2D

 10  9  0  0  0  0  0  0  0  0999 V2000
    0.9213    0.1695    0.0000 N   0  0  0  0  0  0  0  0  0  0  0  0
   -0.4208   -0.5004    0.0000 C   0  0  0  0  0  0  0  0  0  0  0  0
   -1.6720    0.3269    0.0000 C   0  0  0  0  0  0  0  0  0  0  0  0
   -3.0141   -0.3430    0.0000 C   0  0  0  0  0  0  0  0  0  0  0  0
   -4.2653    0.4843    0.0000 C   0  0  0  0  0  0  0  0  0  0  0  0
   -5.6074   -0.1857    0.0000 C   0  0  0  0  0  0  0  0  0  0  0  0
    2.1725   -0.6578    0.0000 C   0  0  0  0  0  0  0  0  0  0  0  0
    3.5146    0.0121    0.0000 C   0  0  0  0  0  0  0  0  0  0  0  0
    3.6055    1.5094    0.0000 O   0  0  0  0  0  0  0  0  0  0  0  0
    4.7658   -0.8152    0.0000 O   0  0  0  0  0  0  0  0  0  0  0  0
  1  2  1  0
  2  3  1  0
  3  4  1  0
  4  5  1  0
  5  6  1  0
  1  7  1  0
  7  8  1  0
  8  9  2  0
  8 10  1  0
M  END
>  <rName>  (2598) 
Npentyl-G

>  <PQ_SYMBOL>  (2598) 
Npentyl-G

>  <FULL_NAME>  (2598) 
2-(pentylamino)acetic acid

>  <IUPAC_CONDENSED>  (2598) 
pentyl-Gly

>  <IUPAC>  (2598) 
2-(pentylamino)acetic acid

>  <TYPE>  (2598) 
Backbone

>  <CLASS>  (2598) 
alpha

>  <ANALOG>  (2598) 
Gly

>  <MOL_WT>  (2598) 
145.202

>  <LOGP>  (2598) 
0.8507999999999998

>  <TPSA>  (2598) 
49.33

>  <POPULARITY>  (2598) 
21.4

>  <PROTECTED>  (2598) 
TRUE

>  <SMILES>  (2598) 
N(CCCCC)CC(=O)O

>  <INCHIKEY>  (2598) 
AHLFJIALFLSDAQ-UHFFFAOYSA-N

$$$$
Npiperidin4ylmethyl-G
     RDKit          2D

 12 12  0  0  0  0  0  0  0  0999 V2000
   -1.2194   -0.1693    0.0000 N   0  0  0  0  0  0  0  0  0  0  0  0
   -0.0183   -1.0678    0.0000 C   0  0  0  0  0  0  0  0  0  0  0  0
    1.3604   -0.4769    0.0000 C   0  0  0  0  0  0  0  0  0  0  0  0
    1.5380    1.0126    0.0000 C   0  0  0  0  0  0  0  0  0  0  0  0
    2.9167    1.6035    0.0000 C   0  0  0  0  0  0  0  0  0  0  0  0
    4.1178    0.7050    0.0000 N   0  0  0  0  0  0  0  0  0  0  0  0
    3.9402   -0.7845    0.0000 C   0  0  0  0  0  0  0  0  0  0  0  0
    2.5615   -1.3754    0.0000 C   0  0  0  0  0  0  0  0  0  0  0  0
   -2.5981   -0.7603    0.0000 C   0  0  0  0  0  0  0  0  0  0  0  0
   -3.7992    0.1382    0.0000 C   0  0  0  0  0  0  0  0  0  0  0  0
   -3.6216    1.6277    0.0000 O   0  0  0  0  0  0  0  0  0  0  0  0
   -5.1779   -0.4527    0.0000 O   0  0  0  0  0  0  0  0  0  0  0  0
  1  2  1  0
  2  3  1  0
  3  4  1  0
  4  5  1  0
  5  6  1  0
  6  7  1  0
  7  8  1  0
  1  9  1  0
  9 10  1  0
 10 11  2  0
 10 12  1  0
  8  3  1  0
M  END
>  <rName>  (2599) 
Npiperidin4ylmethyl-G

>  <PQ_SYMBOL>  (2599) 
Npiperidin4ylmethyl-G

>  <FULL_NAME>  (2599) 
N-(4-piperidinylmethyl)Glycine

>  <IUPAC_CONDENSED>  (2599) 
piperidin-4-ylmethyl-Gly

>  <IUPAC>  (2599) 
2-(piperidin-4-ylmethylamino)acetic acid

>  <TYPE>  (2599) 
Backbone

>  <CLASS>  (2599) 
alpha

>  <ANALOG>  (2599) 
Gly

>  <MOL_WT>  (2599) 
172.228

>  <LOGP>  (2599) 
-0.33979999999999994

>  <TPSA>  (2599) 
61.36

>  <POPULARITY>  (2599) 
2.2

>  <PROTECTED>  (2599) 
TRUE

>  <SMILES>  (2599) 
N(CC1(CCNCC1))CC(=O)O

>  <INCHIKEY>  (2599) 
JWGGNKLSISJJES-UHFFFAOYSA-N

$$$$
Nprop2ynyl-G
     RDKit          2D

  8  7  0  0  0  0  0  0  0  0999 V2000
    0.3245    0.0130    0.0000 N   0  0  0  0  0  0  0  0  0  0  0  0
    1.5925    0.8143    0.0000 C   0  0  0  0  0  0  0  0  0  0  0  0
    2.9205    0.1168    0.0000 C   0  0  0  0  0  0  0  0  0  0  0  0
    4.2485   -0.5807    0.0000 C   0  0  0  0  0  0  0  0  0  0  0  0
   -1.0035    0.7105    0.0000 C   0  0  0  0  0  0  0  0  0  0  0  0
   -2.2715   -0.0908    0.0000 C   0  0  0  0  0  0  0  0  0  0  0  0
   -2.2116   -1.5896    0.0000 O   0  0  0  0  0  0  0  0  0  0  0  0
   -3.5995    0.6067    0.0000 O   0  0  0  0  0  0  0  0  0  0  0  0
  1  2  1  0
  2  3  1  0
  3  4  3  0
  1  5  1  0
  5  6  1  0
  6  7  2  0
  6  8  1  0
M  END
>  <rName>  (2600) 
Nprop2ynyl-G

>  <PQ_SYMBOL>  (2600) 
Nprop2ynyl-G

>  <FULL_NAME>  (2600) 
N-(propargyl)glycine

>  <IUPAC_CONDENSED>  (2600) 
prop-2-ynyl-Gly

>  <IUPAC>  (2600) 
2-((prop-2-yn-1-yl)amino)acetic acid

>  <TYPE>  (2600) 
Backbone

>  <CLASS>  (2600) 
alpha

>  <ANALOG>  (2600) 
Gly

>  <MOL_WT>  (2600) 
113.11599999999999

>  <LOGP>  (2600) 
-0.7062000000000002

>  <TPSA>  (2600) 
49.33

>  <POPULARITY>  (2600) 
9.9

>  <PROTECTED>  (2600) 
TRUE

>  <SMILES>  (2600) 
N(CC#C)CC(=O)O

>  <INCHIKEY>  (2600) 
XSJLQGMTIHCDSS-UHFFFAOYSA-N

$$$$
Npyrid2ylmethyl-G
     RDKit          2D

 12 12  0  0  0  0  0  0  0  0999 V2000
   -1.2194   -0.1693    0.0000 N   0  0  0  0  0  0  0  0  0  0  0  0
   -0.0183   -1.0678    0.0000 C   0  0  0  0  0  0  0  0  0  0  0  0
    1.3604   -0.4769    0.0000 C   0  0  0  0  0  0  0  0  0  0  0  0
    1.5380    1.0126    0.0000 C   0  0  0  0  0  0  0  0  0  0  0  0
    2.9167    1.6035    0.0000 C   0  0  0  0  0  0  0  0  0  0  0  0
    4.1178    0.7050    0.0000 C   0  0  0  0  0  0  0  0  0  0  0  0
    3.9402   -0.7845    0.0000 C   0  0  0  0  0  0  0  0  0  0  0  0
    2.5615   -1.3754    0.0000 N   0  0  0  0  0  0  0  0  0  0  0  0
   -2.5981   -0.7603    0.0000 C   0  0  0  0  0  0  0  0  0  0  0  0
   -3.7992    0.1382    0.0000 C   0  0  0  0  0  0  0  0  0  0  0  0
   -3.6216    1.6277    0.0000 O   0  0  0  0  0  0  0  0  0  0  0  0
   -5.1779   -0.4527    0.0000 O   0  0  0  0  0  0  0  0  0  0  0  0
  1  2  1  0
  2  3  1  0
  3  4  2  0
  4  5  1  0
  5  6  2  0
  6  7  1  0
  7  8  2  0
  1  9  1  0
  9 10  1  0
 10 11  2  0
 10 12  1  0
  8  3  1  0
M  END
>  <rName>  (2601) 
Npyrid2ylmethyl-G

>  <PQ_SYMBOL>  (2601) 
Npyrid2ylmethyl-G

>  <FULL_NAME>  (2601) 
N-pyrid-2-ylmethyl-glycine

>  <IUPAC_CONDENSED>  (2601) 
pyrid-2-ylmethyl-Gly

>  <IUPAC>  (2601) 
2-(((pyridin-2-yl)methyl)amino)acetic acid

>  <TYPE>  (2601) 
Backbone

>  <CLASS>  (2601) 
alpha

>  <ANALOG>  (2601) 
Gly

>  <MOL_WT>  (2601) 
166.17999999999998

>  <LOGP>  (2601) 
0.25579999999999975

>  <TPSA>  (2601) 
62.22

>  <POPULARITY>  (2601) 
13.0

>  <PROTECTED>  (2601) 
TRUE

>  <SMILES>  (2601) 
N(Cc1(ccccn1))CC(=O)O

>  <INCHIKEY>  (2601) 
MDMCWJVDDJDEGI-UHFFFAOYSA-N

$$$$
Npyrid3ylmethyl-G
     RDKit          2D

 12 12  0  0  0  0  0  0  0  0999 V2000
   -1.2194   -0.1693    0.0000 N   0  0  0  0  0  0  0  0  0  0  0  0
   -0.0183   -1.0678    0.0000 C   0  0  0  0  0  0  0  0  0  0  0  0
    1.3604   -0.4769    0.0000 C   0  0  0  0  0  0  0  0  0  0  0  0
    1.5380    1.0126    0.0000 C   0  0  0  0  0  0  0  0  0  0  0  0
    2.9167    1.6035    0.0000 C   0  0  0  0  0  0  0  0  0  0  0  0
    4.1178    0.7050    0.0000 C   0  0  0  0  0  0  0  0  0  0  0  0
    3.9402   -0.7845    0.0000 N   0  0  0  0  0  0  0  0  0  0  0  0
    2.5615   -1.3754    0.0000 C   0  0  0  0  0  0  0  0  0  0  0  0
   -2.5981   -0.7603    0.0000 C   0  0  0  0  0  0  0  0  0  0  0  0
   -3.7992    0.1382    0.0000 C   0  0  0  0  0  0  0  0  0  0  0  0
   -3.6216    1.6277    0.0000 O   0  0  0  0  0  0  0  0  0  0  0  0
   -5.1779   -0.4527    0.0000 O   0  0  0  0  0  0  0  0  0  0  0  0
  1  2  1  0
  2  3  1  0
  3  4  2  0
  4  5  1  0
  5  6  2  0
  6  7  1  0
  7  8  2  0
  1  9  1  0
  9 10  1  0
 10 11  2  0
 10 12  1  0
  8  3  1  0
M  END
>  <rName>  (2602) 
Npyrid3ylmethyl-G

>  <PQ_SYMBOL>  (2602) 
Npyrid3ylmethyl-G

>  <FULL_NAME>  (2602) 
(pyridin-3-ylmethyl)glycine

>  <IUPAC_CONDENSED>  (2602) 
pyrid-3-ylmethyl-Gly

>  <IUPAC>  (2602) 
2-(((pyridin-3-yl)methyl)amino)acetic acid

>  <TYPE>  (2602) 
Backbone

>  <CLASS>  (2602) 
alpha

>  <ANALOG>  (2602) 
Gly

>  <MOL_WT>  (2602) 
166.17999999999998

>  <LOGP>  (2602) 
0.25579999999999975

>  <TPSA>  (2602) 
62.22

>  <POPULARITY>  (2602) 
14.5

>  <PROTECTED>  (2602) 
TRUE

>  <SMILES>  (2602) 
N(Cc1(cccnc1))CC(=O)O

>  <INCHIKEY>  (2602) 
FCJPXSDDZZUPQJ-UHFFFAOYSA-N

$$$$
Npyrid4ylmethyl-G
     RDKit          2D

 12 12  0  0  0  0  0  0  0  0999 V2000
   -1.2194   -0.1693    0.0000 N   0  0  0  0  0  0  0  0  0  0  0  0
   -0.0183   -1.0678    0.0000 C   0  0  0  0  0  0  0  0  0  0  0  0
    1.3604   -0.4769    0.0000 C   0  0  0  0  0  0  0  0  0  0  0  0
    1.5380    1.0126    0.0000 C   0  0  0  0  0  0  0  0  0  0  0  0
    2.9167    1.6035    0.0000 C   0  0  0  0  0  0  0  0  0  0  0  0
    4.1178    0.7050    0.0000 N   0  0  0  0  0  0  0  0  0  0  0  0
    3.9402   -0.7845    0.0000 C   0  0  0  0  0  0  0  0  0  0  0  0
    2.5615   -1.3754    0.0000 C   0  0  0  0  0  0  0  0  0  0  0  0
   -2.5981   -0.7603    0.0000 C   0  0  0  0  0  0  0  0  0  0  0  0
   -3.7992    0.1382    0.0000 C   0  0  0  0  0  0  0  0  0  0  0  0
   -3.6216    1.6277    0.0000 O   0  0  0  0  0  0  0  0  0  0  0  0
   -5.1779   -0.4527    0.0000 O   0  0  0  0  0  0  0  0  0  0  0  0
  1  2  1  0
  2  3  1  0
  3  4  1  0
  4  5  2  0
  5  6  1  0
  6  7  2  0
  7  8  1  0
  1  9  1  0
  9 10  1  0
 10 11  2  0
 10 12  1  0
  8  3  2  0
M  END
>  <rName>  (2603) 
Npyrid4ylmethyl-G

>  <PQ_SYMBOL>  (2603) 
Npyrid4ylmethyl-G

>  <FULL_NAME>  (2603) 
(pyridin-4-ylmethyl)glycine

>  <IUPAC_CONDENSED>  (2603) 
pyrid-4-ylmethyl-Gly

>  <IUPAC>  (2603) 
2-(((pyridin-4-yl)methyl)amino)acetic acid

>  <TYPE>  (2603) 
Backbone

>  <CLASS>  (2603) 
alpha

>  <ANALOG>  (2603) 
Gly

>  <MOL_WT>  (2603) 
166.17999999999998

>  <LOGP>  (2603) 
0.25579999999999975

>  <TPSA>  (2603) 
62.22

>  <POPULARITY>  (2603) 
11.0

>  <PROTECTED>  (2603) 
TRUE

>  <SMILES>  (2603) 
N(Cc1(ccncc1))CC(=O)O

>  <INCHIKEY>  (2603) 
VGXJOVFCVXOPPA-UHFFFAOYSA-N

$$$$
Npyrrolidin2ylmethyl-G
     RDKit          2D

 11 11  0  0  0  0  0  0  0  0999 V2000
   -0.8743   -0.1360    0.0000 N   0  0  0  0  0  0  0  0  0  0  0  0
    0.3442   -1.0108    0.0000 C   0  0  0  0  0  0  0  0  0  0  0  0
    1.7110   -0.3930    0.0000 C   0  0  0  0  0  0  0  0  0  0  0  0
    3.0143   -1.1357    0.0000 C   0  0  0  0  0  0  0  0  0  0  0  0
    4.1233   -0.1257    0.0000 C   0  0  0  0  0  0  0  0  0  0  0  0
    3.5055    1.2411    0.0000 C   0  0  0  0  0  0  0  0  0  0  0  0
    2.0146    1.0759    0.0000 N   0  0  0  0  0  0  0  0  0  0  0  0
   -2.2412   -0.7538    0.0000 C   0  0  0  0  0  0  0  0  0  0  0  0
   -3.4596    0.1211    0.0000 C   0  0  0  0  0  0  0  0  0  0  0  0
   -3.3112    1.6137    0.0000 O   0  0  0  0  0  0  0  0  0  0  0  0
   -4.8265   -0.4968    0.0000 O   0  0  0  0  0  0  0  0  0  0  0  0
  1  2  1  0
  2  3  1  0
  3  4  1  0
  4  5  1  0
  5  6  1  0
  6  7  1  0
  1  8  1  0
  8  9  1  0
  9 10  2  0
  9 11  1  0
  7  3  1  0
M  END
>  <rName>  (2604) 
Npyrrolidin2ylmethyl-G

>  <PQ_SYMBOL>  (2604) 
Npyrrolidin2ylmethyl-G

>  <FULL_NAME>  (2604) 
(pyrrolidin-2-ylmethyl)glycine

>  <IUPAC_CONDENSED>  (2604) 
pyrrolidin-2-ylmethyl-Gly

>  <IUPAC>  (2604) 
2-(((pyrrolidin-2-yl)methyl)amino)acetic acid

>  <TYPE>  (2604) 
Backbone

>  <CLASS>  (2604) 
alpha

>  <ANALOG>  (2604) 
Gly

>  <MOL_WT>  (2604) 
158.20100000000002

>  <LOGP>  (2604) 
-0.5873999999999997

>  <TPSA>  (2604) 
61.36

>  <POPULARITY>  (2604) 
16.6

>  <PROTECTED>  (2604) 
TRUE

>  <SMILES>  (2604) 
N(CC1(CCCN1))CC(=O)O

>  <INCHIKEY>  (2604) 
CKPDOOMUKAZOKR-UHFFFAOYSA-N

$$$$
NtBu-G
     RDKit          2D

  9  8  0  0  0  0  0  0  0  0999 V2000
   -0.3465    0.4910    0.0000 N   0  0  0  0  0  0  0  0  0  0  0  0
   -1.7638   -0.0000    0.0000 C   0  0  0  0  0  0  0  0  0  0  0  0
   -2.2548    1.4174    0.0000 C   0  0  0  0  0  0  0  0  0  0  0  0
   -1.2728   -1.4174    0.0000 C   0  0  0  0  0  0  0  0  0  0  0  0
   -3.1812   -0.4910    0.0000 C   0  0  0  0  0  0  0  0  0  0  0  0
    0.7874   -0.4910    0.0000 C   0  0  0  0  0  0  0  0  0  0  0  0
    2.2048   -0.0000    0.0000 C   0  0  0  0  0  0  0  0  0  0  0  0
    2.4883    1.4730    0.0000 O   0  0  0  0  0  0  0  0  0  0  0  0
    3.3387   -0.9820    0.0000 O   0  0  0  0  0  0  0  0  0  0  0  0
  1  2  1  0
  2  3  1  0
  2  4  1  0
  2  5  1  0
  1  6  1  0
  6  7  1  0
  7  8  2  0
  7  9  1  0
M  END
>  <rName>  (2605) 
NtBu-G

>  <PQ_SYMBOL>  (2605) 
NtBu-G

>  <FULL_NAME>  (2605) 
N-(tert-butyl)glycine

>  <IUPAC_CONDENSED>  (2605) 
tBu-Gly

>  <IUPAC>  (2605) 
2-((tert-butyl)amino)acetic acid

>  <TYPE>  (2605) 
Backbone

>  <CLASS>  (2605) 
alpha

>  <ANALOG>  (2605) 
Gly

>  <MOL_WT>  (2605) 
131.175

>  <LOGP>  (2605) 
0.4591

>  <TPSA>  (2605) 
49.33

>  <POPULARITY>  (2605) 
13.5

>  <PROTECTED>  (2605) 
TRUE

>  <SMILES>  (2605) 
N(C(C)(C)C)CC(=O)O

>  <INCHIKEY>  (2605) 
TXHAHOVNFDVCCC-UHFFFAOYSA-N

$$$$
NtBuCH2-G
     RDKit          2D

 10  9  0  0  0  0  0  0  0  0999 V2000
    0.2598   -0.0000    0.0000 N   0  0  0  0  0  0  0  0  0  0  0  0
   -1.0392    0.7500    0.0000 C   0  0  0  0  0  0  0  0  0  0  0  0
   -2.3383   -0.0000    0.0000 C   0  0  0  0  0  0  0  0  0  0  0  0
   -3.0883    1.2990    0.0000 C   0  0  0  0  0  0  0  0  0  0  0  0
   -1.5883   -1.2990    0.0000 C   0  0  0  0  0  0  0  0  0  0  0  0
   -3.6373   -0.7500    0.0000 C   0  0  0  0  0  0  0  0  0  0  0  0
    1.5588    0.7500    0.0000 C   0  0  0  0  0  0  0  0  0  0  0  0
    2.8579   -0.0000    0.0000 C   0  0  0  0  0  0  0  0  0  0  0  0
    2.8579   -1.5000    0.0000 O   0  0  0  0  0  0  0  0  0  0  0  0
    4.1569    0.7500    0.0000 O   0  0  0  0  0  0  0  0  0  0  0  0
  1  2  1  0
  2  3  1  0
  3  4  1  0
  3  5  1  0
  3  6  1  0
  1  7  1  0
  7  8  1  0
  8  9  2  0
  8 10  1  0
M  END
>  <rName>  (2606) 
NtBuCH2-G

>  <PQ_SYMBOL>  (2606) 
NtBuCH2-G

>  <FULL_NAME>  (2606) 
neopentylglycine

>  <IUPAC_CONDENSED>  (2606) 
tBuCH2-Gly

>  <IUPAC>  (2606) 
2-((2,2-dimethylpropyl)amino)acetic acid

>  <TYPE>  (2606) 
Backbone

>  <CLASS>  (2606) 
alpha

>  <ANALOG>  (2606) 
Gly

>  <MOL_WT>  (2606) 
145.202

>  <LOGP>  (2606) 
0.7066999999999999

>  <TPSA>  (2606) 
49.33

>  <POPULARITY>  (2606) 
15.1

>  <PROTECTED>  (2606) 
TRUE

>  <SMILES>  (2606) 
N(CC(C)(C)C)CC(=O)O

>  <INCHIKEY>  (2606) 
ITYQPPZZOYSACT-UHFFFAOYSA-N

$$$$
Ntetrahydropyran4yl-G
     RDKit          2D

 11 11  0  0  0  0  0  0  0  0999 V2000
   -0.6853   -0.6503    0.0000 N   0  0  0  0  0  0  0  0  0  0  0  0
    0.7732   -0.3002    0.0000 C   0  0  0  0  0  0  0  0  0  0  0  0
    1.1993    1.1380    0.0000 C   0  0  0  0  0  0  0  0  0  0  0  0
    2.6579    1.4881    0.0000 C   0  0  0  0  0  0  0  0  0  0  0  0
    3.6904    0.4000    0.0000 O   0  0  0  0  0  0  0  0  0  0  0  0
    3.2643   -1.0382    0.0000 C   0  0  0  0  0  0  0  0  0  0  0  0
    1.8057   -1.3883    0.0000 C   0  0  0  0  0  0  0  0  0  0  0  0
   -1.7178    0.4378    0.0000 C   0  0  0  0  0  0  0  0  0  0  0  0
   -3.1764    0.0877    0.0000 C   0  0  0  0  0  0  0  0  0  0  0  0
   -3.6025   -1.3505    0.0000 O   0  0  0  0  0  0  0  0  0  0  0  0
   -4.2089    1.1758    0.0000 O   0  0  0  0  0  0  0  0  0  0  0  0
  1  2  1  0
  2  3  1  0
  3  4  1  0
  4  5  1  0
  5  6  1  0
  6  7  1  0
  1  8  1  0
  8  9  1  0
  9 10  2  0
  9 11  1  0
  7  2  1  0
M  END
>  <rName>  (2607) 
Ntetrahydropyran4yl-G

>  <PQ_SYMBOL>  (2607) 
Ntetrahydropyran4yl-G

>  <FULL_NAME>  (2607) 
N-(Tetrahydro-2H-pyran-4-yl)glycine

>  <IUPAC_CONDENSED>  (2607) 
tetrahydropyran-4-yl-Gly

>  <IUPAC>  (2607) 
2-((oxan-4-yl)amino)acetic acid

>  <TYPE>  (2607) 
Backbone

>  <CLASS>  (2607) 
alpha

>  <ANALOG>  (2607) 
Gly

>  <MOL_WT>  (2607) 
159.185

>  <LOGP>  (2607) 
-0.16040000000000038

>  <TPSA>  (2607) 
58.56

>  <POPULARITY>  (2607) 
6.6

>  <PROTECTED>  (2607) 
TRUE

>  <SMILES>  (2607) 
N(C1(CCOCC1))CC(=O)O

>  <INCHIKEY>  (2607) 
JQNGUUYRCQQTSF-UHFFFAOYSA-N

$$$$
Nthien2ylmethyl5Cl-G
     RDKit          2D

 12 12  0  0  0  0  0  0  0  0999 V2000
   -1.2566   -0.2258    0.0000 N   0  0  0  0  0  0  0  0  0  0  0  0
   -0.1298   -1.2160    0.0000 C   0  0  0  0  0  0  0  0  0  0  0  0
    1.2911   -0.7353    0.0000 C   0  0  0  0  0  0  0  0  0  0  0  0
    2.5151   -1.6023    0.0000 C   0  0  0  0  0  0  0  0  0  0  0  0
    3.7179   -0.7061    0.0000 C   0  0  0  0  0  0  0  0  0  0  0  0
    3.2373    0.7148    0.0000 C   0  0  0  0  0  0  0  0  0  0  0  0
    4.1043    1.9388    0.0000 Cl  0  0  0  0  0  0  0  0  0  0  0  0
    1.7374    0.6967    0.0000 S   0  0  0  0  0  0  0  0  0  0  0  0
   -2.6775   -0.7064    0.0000 C   0  0  0  0  0  0  0  0  0  0  0  0
   -3.8042    0.2838    0.0000 C   0  0  0  0  0  0  0  0  0  0  0  0
   -3.5100    1.7547    0.0000 O   0  0  0  0  0  0  0  0  0  0  0  0
   -5.2251   -0.1968    0.0000 O   0  0  0  0  0  0  0  0  0  0  0  0
  1  2  1  0
  2  3  1  0
  3  4  2  0
  4  5  1  0
  5  6  2  0
  6  7  1  0
  6  8  1  0
  1  9  1  0
  9 10  1  0
 10 11  2  0
 10 12  1  0
  8  3  1  0
M  END
>  <rName>  (2608) 
Nthien2ylmethyl5Cl-G

>  <PQ_SYMBOL>  (2608) 
Nthien2ylmethyl5Cl-G

>  <FULL_NAME>  (2608) 
2-{[(5-Chlorothiophen-2-yl)methyl]amino}acetic acid

>  <IUPAC_CONDENSED>  (2608) 
thien-2-ylmethyl(5-Cl)-Gly

>  <IUPAC>  (2608) 
2-(((5-chlorothiophen-2-yl)methyl)amino)acetic acid

>  <TYPE>  (2608) 
Backbone

>  <CLASS>  (2608) 
alpha

>  <ANALOG>  (2608) 
Gly

>  <MOL_WT>  (2608) 
205.66599999999997

>  <LOGP>  (2608) 
1.5757

>  <TPSA>  (2608) 
49.33

>  <POPULARITY>  (2608) 
6.1

>  <PROTECTED>  (2608) 
TRUE

>  <SMILES>  (2608) 
N(Cc1(ccc(Cl)s1))CC(=O)O

>  <INCHIKEY>  (2608) 
XSNKGANEZDFBKX-UHFFFAOYSA-N

$$$$
Nthiolane11dioxide3yl-G
     RDKit          2D

 12 12  0  0  0  0  0  0  0  0999 V2000
   -1.1113   -0.7939    0.0000 N   0  0  0  0  0  0  0  0  0  0  0  0
    0.3797   -0.6294    0.0000 C   0  0  0  0  0  0  0  0  0  0  0  0
    1.3892   -1.7388    0.0000 C   0  0  0  0  0  0  0  0  0  0  0  0
    2.7563   -1.1216    0.0000 C   0  0  0  0  0  0  0  0  0  0  0  0
    2.5917    0.3693    0.0000 S   0  0  0  0  0  0  0  0  0  0  0  0
    2.7407    1.8619    0.0000 O   0  0  0  0  0  0  0  0  0  0  0  0
    4.0917    0.3772    0.0000 O   0  0  0  0  0  0  0  0  0  0  0  0
    1.1229    0.6736    0.0000 C   0  0  0  0  0  0  0  0  0  0  0  0
   -1.9993    0.4150    0.0000 C   0  0  0  0  0  0  0  0  0  0  0  0
   -3.4902    0.2504    0.0000 C   0  0  0  0  0  0  0  0  0  0  0  0
   -4.0932   -1.1230    0.0000 O   0  0  0  0  0  0  0  0  0  0  0  0
   -4.3782    1.4593    0.0000 O   0  0  0  0  0  0  0  0  0  0  0  0
  1  2  1  0
  2  3  1  0
  3  4  1  0
  4  5  1  0
  5  6  2  0
  5  7  2  0
  5  8  1  0
  1  9  1  0
  9 10  1  0
 10 11  2  0
 10 12  1  0
  8  2  1  0
M  END
>  <rName>  (2609) 
Nthiolane11dioxide3yl-G

>  <PQ_SYMBOL>  (2609) 
Nthiolane11dioxide3yl-G

>  <FULL_NAME>  (2609) 
N-(Tetrahydro-1,1-dioxido-3-thienyl)glycine

>  <IUPAC_CONDENSED>  (2609) 
N-thiolane-1,1-dioxide-3-yl-Gly

>  <IUPAC>  (2609) 
2-((1,1-dioxothiolan-3-yl)amino)acetic acid

>  <TYPE>  (2609) 
Backbone

>  <CLASS>  (2609) 
alpha

>  <ANALOG>  (2609) 
Gly

>  <MOL_WT>  (2609) 
193.22399999999996

>  <LOGP>  (2609) 
-1.1522999999999997

>  <TPSA>  (2609) 
83.47

>  <POPULARITY>  (2609) 
6.3

>  <PROTECTED>  (2609) 
TRUE

>  <SMILES>  (2609) 
N(C1(CCS(=O)(=O)C1))CC(=O)O

>  <INCHIKEY>  (2609) 
NLJKAAYXSDTMSI-UHFFFAOYSA-N

$$$$
Nva
     RDKit          2D

  8  7  0  0  0  0  0  0  0  0999 V2000
   -0.2517   -1.8862    0.0000 N   0  0  0  0  0  0  0  0  0  0  0  0
   -0.3100   -0.3873    0.0000 C   0  0  0  0  0  0  0  0  0  0  0  0
    0.9590    0.4126    0.0000 C   0  0  0  0  0  0  0  0  0  0  0  0
    2.2862   -0.2864    0.0000 C   0  0  0  0  0  0  0  0  0  0  0  0
    3.5551    0.5134    0.0000 C   0  0  0  0  0  0  0  0  0  0  0  0
   -1.6371    0.3117    0.0000 C   0  0  0  0  0  0  0  0  0  0  0  0
   -1.6954    1.8105    0.0000 O   0  0  0  0  0  0  0  0  0  0  0  0
   -2.9061   -0.4882    0.0000 O   0  0  0  0  0  0  0  0  0  0  0  0
  2  1  1  6
  2  3  1  0
  3  4  1  0
  4  5  1  0
  2  6  1  0
  6  7  2  0
  6  8  1  0
M  END
>  <rName>  (2610) 
Nva

>  <PQ_SYMBOL>  (2610) 
Nva

>  <FULL_NAME>  (2610) 
L-Norvaline

>  <IUPAC_CONDENSED>  (2610) 
Nva

>  <IUPAC>  (2610) 
(2S)-2-aminopentanoic acid

>  <TYPE>  (2610) 
Backbone

>  <CLASS>  (2610) 
alpha

>  <ANALOG>  (2610) 
Val

>  <MOL_WT>  (2610) 
117.14799999999998

>  <LOGP>  (2610) 
0.19839999999999985

>  <TPSA>  (2610) 
63.32000000000001

>  <POPULARITY>  (2610) 
48.5

>  <PROTECTED>  (2610) 
TRUE

>  <SMILES>  (2610) 
N[C@@H](CCC)C(=O)O

>  <INCHIKEY>  (2610) 
SNDPXSYFESPGGJ-BYPYZUCNSA-N

$$$$
Nva_3Et
     RDKit          2D

 10  9  0  0  0  0  0  0  0  0999 V2000
    0.9030    1.9137    0.0000 N   0  0  0  0  0  0  0  0  0  0  0  0
    0.1012    0.6460    0.0000 C   0  0  0  0  0  0  0  0  0  0  0  0
    0.7981   -0.6823    0.0000 C   0  0  0  0  0  0  0  0  0  0  0  0
    2.2969   -0.7428    0.0000 C   0  0  0  0  0  0  0  0  0  0  0  0
    3.0987    0.5249    0.0000 C   0  0  0  0  0  0  0  0  0  0  0  0
   -0.0037   -1.9500    0.0000 C   0  0  0  0  0  0  0  0  0  0  0  0
   -1.5025   -1.8894    0.0000 C   0  0  0  0  0  0  0  0  0  0  0  0
   -1.3976    0.7065    0.0000 C   0  0  0  0  0  0  0  0  0  0  0  0
   -2.1994   -0.5612    0.0000 O   0  0  0  0  0  0  0  0  0  0  0  0
   -2.0946    2.0348    0.0000 O   0  0  0  0  0  0  0  0  0  0  0  0
  2  1  1  1
  2  3  1  0
  3  4  1  0
  4  5  1  0
  3  6  1  0
  6  7  1  0
  2  8  1  0
  8  9  2  0
  8 10  1  0
M  END
>  <rName>  (2611) 
Nva_3Et

>  <PQ_SYMBOL>  (2611) 
Nva_3Et

>  <FULL_NAME>  (2611) 
3-Ethyl-L-Norvaline

>  <IUPAC_CONDENSED>  (2611) 
Nva(3-Et)

>  <IUPAC>  (2611) 
(2S)-2-amino-3-ethylpentanoic acid

>  <TYPE>  (2611) 
Backbone

>  <CLASS>  (2611) 
alpha

>  <ANALOG>  (2611) 
Leu

>  <MOL_WT>  (2611) 
145.202

>  <LOGP>  (2611) 
0.8344999999999998

>  <TPSA>  (2611) 
63.32000000000001

>  <POPULARITY>  (2611) 
15.0

>  <PROTECTED>  (2611) 
TRUE

>  <SMILES>  (2611) 
N[C@@H](C(CC)CC)C(=O)O

>  <INCHIKEY>  (2611) 
IXLUUORVBOXZGB-LURJTMIESA-N

$$$$
Nva_45dehydro_5Ph
     RDKit          2D

 14 14  0  0  0  0  0  0  0  0999 V2000
   -2.7125    1.8435    0.0000 N   0  0  0  0  0  0  0  0  0  0  0  0
   -2.9490    0.3623    0.0000 C   0  0  0  0  0  0  0  0  0  0  0  0
   -1.7844   -0.5831    0.0000 C   0  0  0  0  0  0  0  0  0  0  0  0
   -0.3834   -0.0473    0.0000 C   0  0  0  0  0  0  0  0  0  0  0  0
    0.7812   -0.9927    0.0000 C   0  0  0  0  0  0  0  0  0  0  0  0
    2.1822   -0.4569    0.0000 C   0  0  0  0  0  0  0  0  0  0  0  0
    2.4187    1.0244    0.0000 C   0  0  0  0  0  0  0  0  0  0  0  0
    3.8197    1.5602    0.0000 C   0  0  0  0  0  0  0  0  0  0  0  0
    4.9842    0.6148    0.0000 C   0  0  0  0  0  0  0  0  0  0  0  0
    4.7478   -0.8664    0.0000 C   0  0  0  0  0  0  0  0  0  0  0  0
    3.3467   -1.4023    0.0000 C   0  0  0  0  0  0  0  0  0  0  0  0
   -4.3500   -0.1735    0.0000 C   0  0  0  0  0  0  0  0  0  0  0  0
   -4.5865   -1.6548    0.0000 O   0  0  0  0  0  0  0  0  0  0  0  0
   -5.5146    0.7719    0.0000 O   0  0  0  0  0  0  0  0  0  0  0  0
  2  1  1  1
  2  3  1  0
  3  4  1  0
  4  5  2  3
  5  6  1  0
  6  7  2  0
  7  8  1  0
  8  9  2  0
  9 10  1  0
 10 11  2  0
  2 12  1  0
 12 13  2  0
 12 14  1  0
 11  6  1  0
M  END
>  <rName>  (2612) 
Nva_45dehydro_5Ph

>  <PQ_SYMBOL>  (2612) 
Nva_45dehydro_5Ph

>  <FULL_NAME>  (2612) 
3-Styryl-L-Alanine

>  <IUPAC_CONDENSED>  (2612) 
Nva(4,5-dehydro,5-Ph)

>  <IUPAC>  (2612) 
(2S)-2-amino-5-phenylpent-4-enoic acid

>  <TYPE>  (2612) 
Backbone

>  <CLASS>  (2612) 
alpha

>  <ANALOG>  (2612) 
X

>  <MOL_WT>  (2612) 
191.23

>  <LOGP>  (2612) 
1.5018

>  <TPSA>  (2612) 
63.32000000000001

>  <POPULARITY>  (2612) 
10.9

>  <PROTECTED>  (2612) 
TRUE

>  <SMILES>  (2612) 
N[C@@H](CC=Cc1(ccccc1))C(=O)O

>  <INCHIKEY>  (2612) 
MCGSKGBMVBECNS-JTQLQIEISA-N

$$$$
Nva_45dehydro_E_5Ph
     RDKit          2D

 14 14  0  0  0  0  0  0  0  0999 V2000
   -2.7125    1.8435    0.0000 N   0  0  0  0  0  0  0  0  0  0  0  0
   -2.9490    0.3623    0.0000 C   0  0  0  0  0  0  0  0  0  0  0  0
   -1.7844   -0.5831    0.0000 C   0  0  0  0  0  0  0  0  0  0  0  0
   -0.3834   -0.0473    0.0000 C   0  0  0  0  0  0  0  0  0  0  0  0
    0.7812   -0.9927    0.0000 C   0  0  0  0  0  0  0  0  0  0  0  0
    2.1822   -0.4569    0.0000 C   0  0  0  0  0  0  0  0  0  0  0  0
    2.4187    1.0244    0.0000 C   0  0  0  0  0  0  0  0  0  0  0  0
    3.8197    1.5602    0.0000 C   0  0  0  0  0  0  0  0  0  0  0  0
    4.9842    0.6148    0.0000 C   0  0  0  0  0  0  0  0  0  0  0  0
    4.7478   -0.8664    0.0000 C   0  0  0  0  0  0  0  0  0  0  0  0
    3.3467   -1.4023    0.0000 C   0  0  0  0  0  0  0  0  0  0  0  0
   -4.3500   -0.1735    0.0000 C   0  0  0  0  0  0  0  0  0  0  0  0
   -4.5865   -1.6548    0.0000 O   0  0  0  0  0  0  0  0  0  0  0  0
   -5.5146    0.7719    0.0000 O   0  0  0  0  0  0  0  0  0  0  0  0
  2  1  1  1
  2  3  1  0
  3  4  1  0
  4  5  2  0
  5  6  1  0
  6  7  2  0
  7  8  1  0
  8  9  2  0
  9 10  1  0
 10 11  2  0
  2 12  1  0
 12 13  2  0
 12 14  1  0
 11  6  1  0
M  END
>  <rName>  (2613) 
Nva_45dehydro_E_5Ph

>  <PQ_SYMBOL>  (2613) 
Nva_45dehydro_E_5Ph

>  <FULL_NAME>  (2613) 
(S,E)-2-amino-5-phenylpent-4-enoic acid

>  <IUPAC_CONDENSED>  (2613) 
Nva(4,5-dehydro,E,5-Ph)

>  <IUPAC>  (2613) 
(2S,4E)-2-amino-5-phenylpent-4-enoic acid

>  <TYPE>  (2613) 
Backbone

>  <CLASS>  (2613) 
alpha

>  <ANALOG>  (2613) 
X

>  <MOL_WT>  (2613) 
191.23

>  <LOGP>  (2613) 
1.5018

>  <TPSA>  (2613) 
63.32000000000001

>  <POPULARITY>  (2613) 
6.2

>  <PROTECTED>  (2613) 
TRUE

>  <SMILES>  (2613) 
N[C@@H](C/C=C/c1ccccc1)C(=O)O

>  <INCHIKEY>  (2613) 
MCGSKGBMVBECNS-QBBOHKLWSA-N

$$$$
Nva_4CH2OHimidazol2yl
     RDKit          2D

 15 15  0  0  0  0  0  0  0  0999 V2000
   -3.4042    1.7797    0.0000 N   0  0  0  0  0  0  0  0  0  0  0  0
   -3.5113    0.2835    0.0000 C   0  0  0  0  0  0  0  0  0  0  0  0
   -2.2690   -0.5572    0.0000 C   0  0  0  0  0  0  0  0  0  0  0  0
   -0.9198    0.0982    0.0000 C   0  0  0  0  0  0  0  0  0  0  0  0
    0.3224   -0.7426    0.0000 C   0  0  0  0  0  0  0  0  0  0  0  0
    1.6717   -0.0872    0.0000 C   0  0  0  0  0  0  0  0  0  0  0  0
    2.9950   -0.7935    0.0000 N   0  0  0  0  0  0  0  0  0  0  0  0
    4.0756    0.2468    0.0000 C   0  0  0  0  0  0  0  0  0  0  0  0
    3.4202    1.5960    0.0000 C   0  0  0  0  0  0  0  0  0  0  0  0
    1.9345    1.3896    0.0000 N   0  0  0  0  0  0  0  0  0  0  0  0
    5.5524   -0.0160    0.0000 C   0  0  0  0  0  0  0  0  0  0  0  0
    6.0632   -1.4264    0.0000 O   0  0  0  0  0  0  0  0  0  0  0  0
   -4.8605   -0.3719    0.0000 C   0  0  0  0  0  0  0  0  0  0  0  0
   -4.9675   -1.8681    0.0000 O   0  0  0  0  0  0  0  0  0  0  0  0
   -6.1027    0.4689    0.0000 O   0  0  0  0  0  0  0  0  0  0  0  0
  2  1  1  1
  2  3  1  0
  3  4  1  0
  4  5  1  0
  5  6  1  0
  6  7  2  0
  7  8  1  0
  8  9  2  0
  9 10  1  0
  8 11  1  0
 11 12  1  0
  2 13  1  0
 13 14  2  0
 13 15  1  0
 10  6  1  0
M  END
>  <rName>  (2614) 
Nva_4CH2OHimidazol2yl

>  <PQ_SYMBOL>  (2614) 
Nva_4CH2OHimidazol2yl

>  <FULL_NAME>  (2614) 
5-[5-(hydroxymethyl)-1H-imidazol-2-yl]-L-norvaline

>  <IUPAC_CONDENSED>  (2614) 
Nva(4-CH2OH-imidazol-2-yl)

>  <IUPAC>  (2614) 
(2S)-2-amino-5-(4-(hydroxymethyl)-1H-imidazol-2-yl)pentanoic acid

>  <TYPE>  (2614) 
N-term cap

>  <CLASS>  (2614) 
n_cap

>  <ANALOG>  (2614) 
X

>  <MOL_WT>  (2614) 
213.237

>  <LOGP>  (2614) 
-0.36340000000000044

>  <TPSA>  (2614) 
112.23

>  <POPULARITY>  (2614) 
0.0

>  <PROTECTED>  (2614) 
FALSE

>  <SMILES>  (2614) 
N[C@@H](CCCc1(nc(c[nH]1)CO))C(=O)O

>  <INCHIKEY>  (2614) 
LQZCDDAMPJTCPF-ZETCQYMHSA-N

$$$$
Nva_52F
     RDKit          2D

 10  9  0  0  0  0  0  0  0  0999 V2000
    1.2717   -1.9622    0.0000 N   0  0  0  0  0  0  0  0  0  0  0  0
    1.1946   -0.4642    0.0000 C   0  0  0  0  0  0  0  0  0  0  0  0
   -0.1413    0.2180    0.0000 C   0  0  0  0  0  0  0  0  0  0  0  0
   -1.4001   -0.5978    0.0000 C   0  0  0  0  0  0  0  0  0  0  0  0
   -2.7359    0.0845    0.0000 C   0  0  0  0  0  0  0  0  0  0  0  0
   -3.9947   -0.7313    0.0000 F   0  0  0  0  0  0  0  0  0  0  0  0
   -2.8131    1.5825    0.0000 F   0  0  0  0  0  0  0  0  0  0  0  0
    2.4533    0.3516    0.0000 C   0  0  0  0  0  0  0  0  0  0  0  0
    2.3762    1.8496    0.0000 O   0  0  0  0  0  0  0  0  0  0  0  0
    3.7892   -0.3306    0.0000 O   0  0  0  0  0  0  0  0  0  0  0  0
  2  1  1  1
  2  3  1  0
  3  4  1  0
  4  5  1  0
  5  6  1  0
  5  7  1  0
  2  8  1  0
  8  9  2  0
  8 10  1  0
M  END
>  <rName>  (2615) 
Nva_52F

>  <PQ_SYMBOL>  (2615) 
Nva_52F

>  <FULL_NAME>  (2615) 
(2S)-2-amino-5,5-difluoropentanoic acid

>  <IUPAC_CONDENSED>  (2615) 
Nva(5-2F)

>  <IUPAC>  (2615) 
(2S)-2-amino-5,5-difluoropentanoic acid

>  <TYPE>  (2615) 
Backbone

>  <CLASS>  (2615) 
alpha

>  <ANALOG>  (2615) 
X

>  <MOL_WT>  (2615) 
153.12800000000001

>  <LOGP>  (2615) 
0.44359999999999994

>  <TPSA>  (2615) 
63.32000000000001

>  <POPULARITY>  (2615) 
8.3

>  <PROTECTED>  (2615) 
TRUE

>  <SMILES>  (2615) 
N[C@@H](CCC(F)F)C(=O)O

>  <INCHIKEY>  (2615) 
QMLIDBCIUPMCQZ-VKHMYHEASA-N

$$$$
Nva_CF3
     RDKit          2D

 12 11  0  0  0  0  0  0  0  0999 V2000
   -1.9172    1.8446    0.0000 N   0  0  0  0  0  0  0  0  0  0  0  0
   -2.0356    0.3492    0.0000 C   0  0  0  0  0  0  0  0  0  0  0  0
   -0.7998   -0.5009    0.0000 C   0  0  0  0  0  0  0  0  0  0  0  0
    0.5544    0.1442    0.0000 C   0  0  0  0  0  0  0  0  0  0  0  0
    1.7902   -0.7060    0.0000 C   0  0  0  0  0  0  0  0  0  0  0  0
    3.1443   -0.0608    0.0000 C   0  0  0  0  0  0  0  0  0  0  0  0
    4.4985    0.5843    0.0000 F   0  0  0  0  0  0  0  0  0  0  0  0
    3.7895   -1.4150    0.0000 F   0  0  0  0  0  0  0  0  0  0  0  0
    2.4992    1.2933    0.0000 F   0  0  0  0  0  0  0  0  0  0  0  0
   -3.3898   -0.2959    0.0000 C   0  0  0  0  0  0  0  0  0  0  0  0
   -3.5082   -1.7912    0.0000 O   0  0  0  0  0  0  0  0  0  0  0  0
   -4.6256    0.5543    0.0000 O   0  0  0  0  0  0  0  0  0  0  0  0
  2  1  1  1
  2  3  1  0
  3  4  1  0
  4  5  1  0
  5  6  1  0
  6  7  1  0
  6  8  1  0
  6  9  1  0
  2 10  1  0
 10 11  2  0
 10 12  1  0
M  END
>  <rName>  (2616) 
Nva_CF3

>  <PQ_SYMBOL>  (2616) 
Nva_CF3

>  <FULL_NAME>  (2616) 
(S)-2-Amino-6,6,6-trifluorohexanoic acid

>  <IUPAC_CONDENSED>  (2616) 
Nva(CF3)

>  <IUPAC>  (2616) 
(2S)-2-amino-6,6,6-trifluorohexanoic acid

>  <TYPE>  (2616) 
Backbone

>  <CLASS>  (2616) 
alpha

>  <ANALOG>  (2616) 
X

>  <MOL_WT>  (2616) 
185.145

>  <LOGP>  (2616) 
1.1309

>  <TPSA>  (2616) 
63.32000000000001

>  <POPULARITY>  (2616) 
8.7

>  <PROTECTED>  (2616) 
TRUE

>  <SMILES>  (2616) 
N[C@@H](CCCC(F)(F)F)C(=O)O

>  <INCHIKEY>  (2616) 
RUEWGWBXZIDRJY-BYPYZUCNSA-N

$$$$
Nva_N3
     RDKit          2D

 11 10  0  0  0  0  0  0  0  0999 V2000
    2.1124   -1.8649    0.0000 N   0  0  0  0  0  0  0  0  0  0  0  0
    2.0306   -0.3672    0.0000 C   0  0  0  0  0  0  0  0  0  0  0  0
    0.6927    0.3109    0.0000 C   0  0  0  0  0  0  0  0  0  0  0  0
   -0.5636   -0.5087    0.0000 C   0  0  0  0  0  0  0  0  0  0  0  0
   -1.9016    0.1694    0.0000 C   0  0  0  0  0  0  0  0  0  0  0  0
   -3.1578   -0.6503    0.0000 N   0  0  0  0  0  0  0  0  0  0  0  0
   -4.4958    0.0278    0.0000 N   0  0  0  0  0  0  0  0  0  0  0  0
   -5.8338    0.7059    0.0000 N   0  0  0  0  0  0  0  0  0  0  0  0
    3.2869    0.4525    0.0000 C   0  0  0  0  0  0  0  0  0  0  0  0
    3.2051    1.9503    0.0000 O   0  0  0  0  0  0  0  0  0  0  0  0
    4.6248   -0.2256    0.0000 O   0  0  0  0  0  0  0  0  0  0  0  0
  2  1  1  1
  2  3  1  0
  3  4  1  0
  4  5  1  0
  5  6  1  0
  6  7  2  0
  7  8  2  0
  2  9  1  0
  9 10  2  0
  9 11  1  0
M  CHG  2   7   1   8  -1
M  END
>  <rName>  (2617) 
Nva_N3

>  <PQ_SYMBOL>  (2617) 
Nva_N3

>  <FULL_NAME>  (2617) 
(S)-2-amino-5-azidopentanoic acid

>  <IUPAC_CONDENSED>  (2617) 
Nva(N3)

>  <IUPAC>  (2617) 
(2S)-2-amino-5-azidopentanoic acid

>  <TYPE>  (2617) 
Backbone

>  <CLASS>  (2617) 
alpha

>  <ANALOG>  (2617) 
Lys

>  <MOL_WT>  (2617) 
158.16100000000003

>  <LOGP>  (2617) 
0.4887999999999996

>  <TPSA>  (2617) 
112.08

>  <POPULARITY>  (2617) 
7.4

>  <PROTECTED>  (2617) 
TRUE

>  <SMILES>  (2617) 
N[C@@H](CCCN=[N+]=[N-])C(=O)O

>  <INCHIKEY>  (2617) 
AUARUCAREKTRCL-BYPYZUCNSA-N

$$$$
Nva_OH
     RDKit          2D

  9  8  0  0  0  0  0  0  0  0999 V2000
   -0.7616    1.8791    0.0000 N   0  0  0  0  0  0  0  0  0  0  0  0
   -0.8459    0.3815    0.0000 C   0  0  0  0  0  0  0  0  0  0  0  0
    0.4089   -0.4403    0.0000 C   0  0  0  0  0  0  0  0  0  0  0  0
    1.7480    0.2354    0.0000 C   0  0  0  0  0  0  0  0  0  0  0  0
    3.0029   -0.5864    0.0000 C   0  0  0  0  0  0  0  0  0  0  0  0
    4.3420    0.0894    0.0000 O   0  0  0  0  0  0  0  0  0  0  0  0
   -2.1851   -0.2943    0.0000 C   0  0  0  0  0  0  0  0  0  0  0  0
   -2.2694   -1.7919    0.0000 O   0  0  0  0  0  0  0  0  0  0  0  0
   -3.4399    0.5275    0.0000 O   0  0  0  0  0  0  0  0  0  0  0  0
  2  1  1  1
  2  3  1  0
  3  4  1  0
  4  5  1  0
  5  6  1  0
  2  7  1  0
  7  8  2  0
  7  9  1  0
M  END
>  <rName>  (2618) 
Nva_OH

>  <PQ_SYMBOL>  (2618) 
Nva_OH

>  <FULL_NAME>  (2618) 
Pentahomo-L-Serine

>  <IUPAC_CONDENSED>  (2618) 
Nva(OH)

>  <IUPAC>  (2618) 
(2S)-2-amino-5-hydroxypentanoic acid

>  <TYPE>  (2618) 
Backbone

>  <CLASS>  (2618) 
alpha

>  <ANALOG>  (2618) 
X

>  <MOL_WT>  (2618) 
133.147

>  <LOGP>  (2618) 
-0.8292000000000004

>  <TPSA>  (2618) 
83.55

>  <POPULARITY>  (2618) 
21.8

>  <PROTECTED>  (2618) 
TRUE

>  <SMILES>  (2618) 
N[C@@H](CCCO)C(=O)O

>  <INCHIKEY>  (2618) 
CZWARROQQFCFJB-BYPYZUCNSA-N

$$$$
Nva_OMe
     RDKit          2D

 10  9  0  0  0  0  0  0  0  0999 V2000
   -1.4166   -1.8843    0.0000 N   0  0  0  0  0  0  0  0  0  0  0  0
   -1.4265   -0.3844    0.0000 C   0  0  0  0  0  0  0  0  0  0  0  0
   -0.1324    0.3741    0.0000 C   0  0  0  0  0  0  0  0  0  0  0  0
    1.1716   -0.3673    0.0000 C   0  0  0  0  0  0  0  0  0  0  0  0
    2.4657    0.3912    0.0000 C   0  0  0  0  0  0  0  0  0  0  0  0
    3.7696   -0.3503    0.0000 O   0  0  0  0  0  0  0  0  0  0  0  0
    5.0637    0.4082    0.0000 C   0  0  0  0  0  0  0  0  0  0  0  0
   -2.7304    0.3571    0.0000 C   0  0  0  0  0  0  0  0  0  0  0  0
   -2.7402    1.8571    0.0000 O   0  0  0  0  0  0  0  0  0  0  0  0
   -4.0245   -0.4014    0.0000 O   0  0  0  0  0  0  0  0  0  0  0  0
  2  1  1  6
  2  3  1  0
  3  4  1  0
  4  5  1  0
  5  6  1  0
  6  7  1  0
  2  8  1  0
  8  9  2  0
  8 10  1  0
M  END
>  <rName>  (2619) 
Nva_OMe

>  <PQ_SYMBOL>  (2619) 
Nva_OMe

>  <FULL_NAME>  (2619) 
(S)-2-amino-5-methoxypentanoic acid

>  <IUPAC_CONDENSED>  (2619) 
Nva(OMe)

>  <IUPAC>  (2619) 
(2S)-2-amino-5-methoxypentanoic acid

>  <TYPE>  (2619) 
Backbone

>  <CLASS>  (2619) 
alpha

>  <ANALOG>  (2619) 
X

>  <MOL_WT>  (2619) 
147.174

>  <LOGP>  (2619) 
-0.1751000000000001

>  <TPSA>  (2619) 
72.55

>  <POPULARITY>  (2619) 
10.3

>  <PROTECTED>  (2619) 
TRUE

>  <SMILES>  (2619) 
N[C@@H](CCCOC)C(=O)O

>  <INCHIKEY>  (2619) 
HBSSLDFHKZLODB-YFKPBYRVSA-N

$$$$
Nva_ONH2
     RDKit          2D

 10  9  0  0  0  0  0  0  0  0999 V2000
   -1.4166    1.8843    0.0000 N   0  0  0  0  0  0  0  0  0  0  0  0
   -1.4265    0.3844    0.0000 C   0  0  0  0  0  0  0  0  0  0  0  0
   -0.1324   -0.3741    0.0000 C   0  0  0  0  0  0  0  0  0  0  0  0
    1.1716    0.3673    0.0000 C   0  0  0  0  0  0  0  0  0  0  0  0
    2.4657   -0.3912    0.0000 C   0  0  0  0  0  0  0  0  0  0  0  0
    3.7696    0.3503    0.0000 O   0  0  0  0  0  0  0  0  0  0  0  0
    5.0637   -0.4082    0.0000 N   0  0  0  0  0  0  0  0  0  0  0  0
   -2.7304   -0.3571    0.0000 C   0  0  0  0  0  0  0  0  0  0  0  0
   -2.7402   -1.8571    0.0000 O   0  0  0  0  0  0  0  0  0  0  0  0
   -4.0245    0.4014    0.0000 O   0  0  0  0  0  0  0  0  0  0  0  0
  2  1  1  1
  2  3  1  0
  3  4  1  0
  4  5  1  0
  5  6  1  0
  6  7  1  0
  2  8  1  0
  8  9  2  0
  8 10  1  0
M  END
>  <rName>  (2620) 
Nva_ONH2

>  <PQ_SYMBOL>  (2620) 
Nva_ONH2

>  <FULL_NAME>  (2620) 
(2S)-2-amino-5-aminooxypentanoic acid

>  <IUPAC_CONDENSED>  (2620) 
Nva(ONH2)

>  <IUPAC>  (2620) 
(2S)-2-amino-5-(aminooxy)pentanoic acid

>  <TYPE>  (2620) 
Backbone

>  <CLASS>  (2620) 
alpha

>  <ANALOG>  (2620) 
X

>  <MOL_WT>  (2620) 
148.162

>  <LOGP>  (2620) 
-0.9311999999999994

>  <TPSA>  (2620) 
98.57000000000001

>  <POPULARITY>  (2620) 
13.7

>  <PROTECTED>  (2620) 
TRUE

>  <SMILES>  (2620) 
N[C@@H](CCCON)C(=O)O

>  <INCHIKEY>  (2620) 
GFOZTGXHZSBIOB-BYPYZUCNSA-N

$$$$
Nva_Ph
     RDKit          2D

 14 14  0  0  0  0  0  0  0  0999 V2000
   -2.7125    1.8435    0.0000 N   0  0  0  0  0  0  0  0  0  0  0  0
   -2.9490    0.3623    0.0000 C   0  0  0  0  0  0  0  0  0  0  0  0
   -1.7844   -0.5831    0.0000 C   0  0  0  0  0  0  0  0  0  0  0  0
   -0.3834   -0.0473    0.0000 C   0  0  0  0  0  0  0  0  0  0  0  0
    0.7812   -0.9927    0.0000 C   0  0  0  0  0  0  0  0  0  0  0  0
    2.1822   -0.4569    0.0000 C   0  0  0  0  0  0  0  0  0  0  0  0
    2.4187    1.0244    0.0000 C   0  0  0  0  0  0  0  0  0  0  0  0
    3.8197    1.5602    0.0000 C   0  0  0  0  0  0  0  0  0  0  0  0
    4.9842    0.6148    0.0000 C   0  0  0  0  0  0  0  0  0  0  0  0
    4.7478   -0.8664    0.0000 C   0  0  0  0  0  0  0  0  0  0  0  0
    3.3467   -1.4023    0.0000 C   0  0  0  0  0  0  0  0  0  0  0  0
   -4.3500   -0.1735    0.0000 C   0  0  0  0  0  0  0  0  0  0  0  0
   -4.5865   -1.6548    0.0000 O   0  0  0  0  0  0  0  0  0  0  0  0
   -5.5146    0.7719    0.0000 O   0  0  0  0  0  0  0  0  0  0  0  0
  2  1  1  1
  2  3  1  0
  3  4  1  0
  4  5  1  0
  5  6  1  0
  6  7  2  0
  7  8  1  0
  8  9  2  0
  9 10  1  0
 10 11  2  0
  2 12  1  0
 12 13  2  0
 12 14  1  0
 11  6  1  0
M  END
>  <rName>  (2621) 
Nva_Ph

>  <PQ_SYMBOL>  (2621) 
Nva_Ph

>  <FULL_NAME>  (2621) 
5-Phenyl-L-Norvaline

>  <IUPAC_CONDENSED>  (2621) 
Nva(Ph)

>  <IUPAC>  (2621) 
(2S)-2-amino-5-phenylpentanoic acid

>  <TYPE>  (2621) 
Backbone

>  <CLASS>  (2621) 
alpha

>  <ANALOG>  (2621) 
X

>  <MOL_WT>  (2621) 
193.24599999999998

>  <LOGP>  (2621) 
1.4212

>  <TPSA>  (2621) 
63.32000000000001

>  <POPULARITY>  (2621) 
31.7

>  <PROTECTED>  (2621) 
TRUE

>  <SMILES>  (2621) 
N[C@@H](CCCc1(ccccc1))C(=O)O

>  <INCHIKEY>  (2621) 
XOQZTHUXZWQXOK-JTQLQIEISA-N

$$$$
Nva_Ph_23diF
     RDKit          2D

 16 16  0  0  0  0  0  0  0  0999 V2000
   -3.4542    1.8359    0.0000 N   0  0  0  0  0  0  0  0  0  0  0  0
   -3.5574    0.3394    0.0000 C   0  0  0  0  0  0  0  0  0  0  0  0
   -2.3131   -0.4982    0.0000 C   0  0  0  0  0  0  0  0  0  0  0  0
   -0.9655    0.1606    0.0000 C   0  0  0  0  0  0  0  0  0  0  0  0
    0.2788   -0.6770    0.0000 C   0  0  0  0  0  0  0  0  0  0  0  0
    1.6264   -0.0183    0.0000 C   0  0  0  0  0  0  0  0  0  0  0  0
    1.7297    1.4782    0.0000 C   0  0  0  0  0  0  0  0  0  0  0  0
    3.0772    2.1370    0.0000 C   0  0  0  0  0  0  0  0  0  0  0  0
    4.3216    1.2993    0.0000 C   0  0  0  0  0  0  0  0  0  0  0  0
    4.2183   -0.1971    0.0000 C   0  0  0  0  0  0  0  0  0  0  0  0
    5.4626   -1.0348    0.0000 F   0  0  0  0  0  0  0  0  0  0  0  0
    2.8707   -0.8559    0.0000 C   0  0  0  0  0  0  0  0  0  0  0  0
    2.7675   -2.3523    0.0000 F   0  0  0  0  0  0  0  0  0  0  0  0
   -4.9050   -0.3193    0.0000 C   0  0  0  0  0  0  0  0  0  0  0  0
   -5.0083   -1.8158    0.0000 O   0  0  0  0  0  0  0  0  0  0  0  0
   -6.1493    0.5183    0.0000 O   0  0  0  0  0  0  0  0  0  0  0  0
  2  1  1  1
  2  3  1  0
  3  4  1  0
  4  5  1  0
  5  6  1  0
  6  7  2  0
  7  8  1  0
  8  9  2  0
  9 10  1  0
 10 11  1  0
 10 12  2  0
 12 13  1  0
  2 14  1  0
 14 15  2  0
 14 16  1  0
 12  6  1  0
M  END
>  <rName>  (2622) 
Nva_Ph_23diF

>  <PQ_SYMBOL>  (2622) 
Nva_Ph_23diF

>  <FULL_NAME>  (2622) 
(2S)-2-amino-5-(2,3-difluorophenyl)pentanoic acid

>  <IUPAC_CONDENSED>  (2622) 
Nva(Ph(2,3-diF))

>  <IUPAC>  (2622) 
(2S)-2-amino-5-(2,3-difluorophenyl)pentanoic acid

>  <TYPE>  (2622) 
Backbone

>  <CLASS>  (2622) 
alpha

>  <ANALOG>  (2622) 
X

>  <MOL_WT>  (2622) 
229.22599999999994

>  <LOGP>  (2622) 
1.6994

>  <TPSA>  (2622) 
63.32000000000001

>  <POPULARITY>  (2622) 
2.2

>  <PROTECTED>  (2622) 
TRUE

>  <SMILES>  (2622) 
N[C@@H](CCCc1(cccc(F)c1F))C(=O)O

>  <INCHIKEY>  (2622) 
XKSVFIUCEZJSMX-VIFPVBQESA-N

$$$$
Nva_Ph_24diCl
     RDKit          2D

 16 16  0  0  0  0  0  0  0  0999 V2000
   -3.3119    1.9417    0.0000 N   0  0  0  0  0  0  0  0  0  0  0  0
   -3.5439    0.4598    0.0000 C   0  0  0  0  0  0  0  0  0  0  0  0
   -2.3764   -0.4821    0.0000 C   0  0  0  0  0  0  0  0  0  0  0  0
   -0.9771    0.0580    0.0000 C   0  0  0  0  0  0  0  0  0  0  0  0
    0.1904   -0.8838    0.0000 C   0  0  0  0  0  0  0  0  0  0  0  0
    1.5898   -0.3437    0.0000 C   0  0  0  0  0  0  0  0  0  0  0  0
    1.8217    1.1382    0.0000 C   0  0  0  0  0  0  0  0  0  0  0  0
    3.2211    1.6783    0.0000 C   0  0  0  0  0  0  0  0  0  0  0  0
    4.3885    0.7365    0.0000 C   0  0  0  0  0  0  0  0  0  0  0  0
    5.7879    1.2766    0.0000 Cl  0  0  0  0  0  0  0  0  0  0  0  0
    4.1566   -0.7455    0.0000 C   0  0  0  0  0  0  0  0  0  0  0  0
    2.7572   -1.2856    0.0000 C   0  0  0  0  0  0  0  0  0  0  0  0
    2.5253   -2.7675    0.0000 Cl  0  0  0  0  0  0  0  0  0  0  0  0
   -4.9433   -0.0803    0.0000 C   0  0  0  0  0  0  0  0  0  0  0  0
   -5.1752   -1.5623    0.0000 O   0  0  0  0  0  0  0  0  0  0  0  0
   -6.1107    0.8615    0.0000 O   0  0  0  0  0  0  0  0  0  0  0  0
  2  1  1  1
  2  3  1  0
  3  4  1  0
  4  5  1  0
  5  6  1  0
  6  7  1  0
  7  8  2  0
  8  9  1  0
  9 10  1  0
  9 11  2  0
 11 12  1  0
 12 13  1  0
  2 14  1  0
 14 15  2  0
 14 16  1  0
 12  6  2  0
M  END
>  <rName>  (2623) 
Nva_Ph_24diCl

>  <PQ_SYMBOL>  (2623) 
Nva_Ph_24diCl

>  <FULL_NAME>  (2623) 
Nva(Ph(2,4-diCl))

>  <IUPAC_CONDENSED>  (2623) 
Nva(Ph(2,4-diCl))

>  <IUPAC>  (2623) 
(2S)-2-amino-5-(2,4-dichlorophenyl)pentanoic acid

>  <TYPE>  (2623) 
Backbone

>  <CLASS>  (2623) 
alpha

>  <ANALOG>  (2623) 
X

>  <MOL_WT>  (2623) 
262.13599999999997

>  <LOGP>  (2623) 
2.7280000000000006

>  <TPSA>  (2623) 
63.32000000000001

>  <POPULARITY>  (2623) 
2.2

>  <PROTECTED>  (2623) 
TRUE

>  <SMILES>  (2623) 
N[C@@H](CCCc1(ccc(Cl)cc1Cl))C(=O)O

>  <INCHIKEY>  (2623) 
DVMDWHDVNBOROZ-JTQLQIEISA-N

$$$$
Nva_Ph_25diF
     RDKit          2D

 16 16  0  0  0  0  0  0  0  0999 V2000
   -3.1231    1.8966    0.0000 N   0  0  0  0  0  0  0  0  0  0  0  0
   -3.3892    0.4204    0.0000 C   0  0  0  0  0  0  0  0  0  0  0  0
   -2.2438   -0.5482    0.0000 C   0  0  0  0  0  0  0  0  0  0  0  0
   -0.8323   -0.0405    0.0000 C   0  0  0  0  0  0  0  0  0  0  0  0
    0.3131   -1.0090    0.0000 C   0  0  0  0  0  0  0  0  0  0  0  0
    1.7246   -0.5014    0.0000 C   0  0  0  0  0  0  0  0  0  0  0  0
    1.9907    0.9748    0.0000 C   0  0  0  0  0  0  0  0  0  0  0  0
    3.4022    1.4825    0.0000 C   0  0  0  0  0  0  0  0  0  0  0  0
    3.6683    2.9587    0.0000 F   0  0  0  0  0  0  0  0  0  0  0  0
    4.5476    0.5139    0.0000 C   0  0  0  0  0  0  0  0  0  0  0  0
    4.2815   -0.9623    0.0000 C   0  0  0  0  0  0  0  0  0  0  0  0
    2.8700   -1.4699    0.0000 C   0  0  0  0  0  0  0  0  0  0  0  0
    2.6039   -2.9461    0.0000 F   0  0  0  0  0  0  0  0  0  0  0  0
   -4.8006   -0.0873    0.0000 C   0  0  0  0  0  0  0  0  0  0  0  0
   -5.0667   -1.5635    0.0000 O   0  0  0  0  0  0  0  0  0  0  0  0
   -5.9460    0.8813    0.0000 O   0  0  0  0  0  0  0  0  0  0  0  0
  2  1  1  1
  2  3  1  0
  3  4  1  0
  4  5  1  0
  5  6  1  0
  6  7  1  0
  7  8  2  0
  8  9  1  0
  8 10  1  0
 10 11  2  0
 11 12  1  0
 12 13  1  0
  2 14  1  0
 14 15  2  0
 14 16  1  0
 12  6  2  0
M  END
>  <rName>  (2624) 
Nva_Ph_25diF

>  <PQ_SYMBOL>  (2624) 
Nva_Ph_25diF

>  <FULL_NAME>  (2624) 
Nva(Ph(2,5-diF))

>  <IUPAC_CONDENSED>  (2624) 
Nva(Ph(2,5-diF))

>  <IUPAC>  (2624) 
(2S)-2-amino-5-(2,5-difluorophenyl)pentanoic acid

>  <TYPE>  (2624) 
Backbone

>  <CLASS>  (2624) 
alpha

>  <ANALOG>  (2624) 
X

>  <MOL_WT>  (2624) 
229.226

>  <LOGP>  (2624) 
1.6994

>  <TPSA>  (2624) 
63.32000000000001

>  <POPULARITY>  (2624) 
2.2

>  <PROTECTED>  (2624) 
TRUE

>  <SMILES>  (2624) 
N[C@@H](CCCc1(cc(F)ccc1F))C(=O)O

>  <INCHIKEY>  (2624) 
SJLUMGBUCCCQOY-JTQLQIEISA-N

$$$$
Nva_Ph_25diMe
     RDKit          2D

 16 16  0  0  0  0  0  0  0  0999 V2000
   -3.1231    1.8966    0.0000 N   0  0  0  0  0  0  0  0  0  0  0  0
   -3.3892    0.4204    0.0000 C   0  0  0  0  0  0  0  0  0  0  0  0
   -2.2438   -0.5482    0.0000 C   0  0  0  0  0  0  0  0  0  0  0  0
   -0.8323   -0.0405    0.0000 C   0  0  0  0  0  0  0  0  0  0  0  0
    0.3131   -1.0090    0.0000 C   0  0  0  0  0  0  0  0  0  0  0  0
    1.7246   -0.5014    0.0000 C   0  0  0  0  0  0  0  0  0  0  0  0
    1.9907    0.9748    0.0000 C   0  0  0  0  0  0  0  0  0  0  0  0
    3.4022    1.4825    0.0000 C   0  0  0  0  0  0  0  0  0  0  0  0
    3.6683    2.9587    0.0000 C   0  0  0  0  0  0  0  0  0  0  0  0
    4.5476    0.5139    0.0000 C   0  0  0  0  0  0  0  0  0  0  0  0
    4.2815   -0.9623    0.0000 C   0  0  0  0  0  0  0  0  0  0  0  0
    2.8700   -1.4699    0.0000 C   0  0  0  0  0  0  0  0  0  0  0  0
    2.6039   -2.9461    0.0000 C   0  0  0  0  0  0  0  0  0  0  0  0
   -4.8006   -0.0873    0.0000 C   0  0  0  0  0  0  0  0  0  0  0  0
   -5.0667   -1.5635    0.0000 O   0  0  0  0  0  0  0  0  0  0  0  0
   -5.9460    0.8813    0.0000 O   0  0  0  0  0  0  0  0  0  0  0  0
  2  1  1  1
  2  3  1  0
  3  4  1  0
  4  5  1  0
  5  6  1  0
  6  7  1  0
  7  8  2  0
  8  9  1  0
  8 10  1  0
 10 11  2  0
 11 12  1  0
 12 13  1  0
  2 14  1  0
 14 15  2  0
 14 16  1  0
 12  6  2  0
M  END
>  <rName>  (2625) 
Nva_Ph_25diMe

>  <PQ_SYMBOL>  (2625) 
Nva_Ph_25diMe

>  <FULL_NAME>  (2625) 
Nva(Ph(2,5-diMe))

>  <IUPAC_CONDENSED>  (2625) 
Nva(Ph(2,5-diMe))

>  <IUPAC>  (2625) 
(2S)-2-amino-5-(2,5-dimethylphenyl)pentanoic acid

>  <TYPE>  (2625) 
Backbone

>  <CLASS>  (2625) 
alpha

>  <ANALOG>  (2625) 
X

>  <MOL_WT>  (2625) 
221.29999999999998

>  <LOGP>  (2625) 
2.03804

>  <TPSA>  (2625) 
63.32000000000001

>  <POPULARITY>  (2625) 
2.2

>  <PROTECTED>  (2625) 
TRUE

>  <SMILES>  (2625) 
N[C@@H](CCCc1(cc(C)ccc1C))C(=O)O

>  <INCHIKEY>  (2625) 
TYHHVHUKERQPRL-LBPRGKRZSA-N

$$$$
Nva_Ph_26diCl
     RDKit          2D

 16 16  0  0  0  0  0  0  0  0999 V2000
   -3.0584    1.7806    0.0000 N   0  0  0  0  0  0  0  0  0  0  0  0
   -3.2359    0.2912    0.0000 C   0  0  0  0  0  0  0  0  0  0  0  0
   -2.0347   -0.6073    0.0000 C   0  0  0  0  0  0  0  0  0  0  0  0
   -0.6560   -0.0162    0.0000 C   0  0  0  0  0  0  0  0  0  0  0  0
    0.5451   -0.9147    0.0000 C   0  0  0  0  0  0  0  0  0  0  0  0
    1.9238   -0.3237    0.0000 C   0  0  0  0  0  0  0  0  0  0  0  0
    2.1013    1.1658    0.0000 C   0  0  0  0  0  0  0  0  0  0  0  0
    0.9001    2.0642    0.0000 Cl  0  0  0  0  0  0  0  0  0  0  0  0
    3.4799    1.7568    0.0000 C   0  0  0  0  0  0  0  0  0  0  0  0
    4.6811    0.8584    0.0000 C   0  0  0  0  0  0  0  0  0  0  0  0
    4.5036   -0.6311    0.0000 C   0  0  0  0  0  0  0  0  0  0  0  0
    3.1249   -1.2221    0.0000 C   0  0  0  0  0  0  0  0  0  0  0  0
    2.9475   -2.7116    0.0000 Cl  0  0  0  0  0  0  0  0  0  0  0  0
   -4.6145   -0.2998    0.0000 C   0  0  0  0  0  0  0  0  0  0  0  0
   -4.7920   -1.7893    0.0000 O   0  0  0  0  0  0  0  0  0  0  0  0
   -5.8157    0.5986    0.0000 O   0  0  0  0  0  0  0  0  0  0  0  0
  2  1  1  1
  2  3  1  0
  3  4  1  0
  4  5  1  0
  5  6  1  0
  6  7  2  0
  7  8  1  0
  7  9  1  0
  9 10  2  0
 10 11  1  0
 11 12  2  0
 12 13  1  0
  2 14  1  0
 14 15  2  0
 14 16  1  0
 12  6  1  0
M  END
>  <rName>  (2626) 
Nva_Ph_26diCl

>  <PQ_SYMBOL>  (2626) 
Nva_Ph_26diCl

>  <FULL_NAME>  (2626) 
Nva(Ph(2,6-diCl))

>  <IUPAC_CONDENSED>  (2626) 
Nva(Ph(2,6-diCl))

>  <IUPAC>  (2626) 
(2S)-2-amino-5-(2,6-dichlorophenyl)pentanoic acid

>  <TYPE>  (2626) 
Backbone

>  <CLASS>  (2626) 
alpha

>  <ANALOG>  (2626) 
X

>  <MOL_WT>  (2626) 
262.136

>  <LOGP>  (2626) 
2.7280000000000006

>  <TPSA>  (2626) 
63.32000000000001

>  <POPULARITY>  (2626) 
2.2

>  <PROTECTED>  (2626) 
TRUE

>  <SMILES>  (2626) 
N[C@@H](CCCc1(c(Cl)cccc1Cl))C(=O)O

>  <INCHIKEY>  (2626) 
PYBBKMHYDIMVIQ-JTQLQIEISA-N

$$$$
Nva_Ph_26diF
     RDKit          2D

 16 16  0  0  0  0  0  0  0  0999 V2000
   -3.0584    1.7806    0.0000 N   0  0  0  0  0  0  0  0  0  0  0  0
   -3.2359    0.2912    0.0000 C   0  0  0  0  0  0  0  0  0  0  0  0
   -2.0347   -0.6073    0.0000 C   0  0  0  0  0  0  0  0  0  0  0  0
   -0.6560   -0.0162    0.0000 C   0  0  0  0  0  0  0  0  0  0  0  0
    0.5451   -0.9147    0.0000 C   0  0  0  0  0  0  0  0  0  0  0  0
    1.9238   -0.3237    0.0000 C   0  0  0  0  0  0  0  0  0  0  0  0
    2.1013    1.1658    0.0000 C   0  0  0  0  0  0  0  0  0  0  0  0
    0.9001    2.0642    0.0000 F   0  0  0  0  0  0  0  0  0  0  0  0
    3.4799    1.7568    0.0000 C   0  0  0  0  0  0  0  0  0  0  0  0
    4.6811    0.8584    0.0000 C   0  0  0  0  0  0  0  0  0  0  0  0
    4.5036   -0.6311    0.0000 C   0  0  0  0  0  0  0  0  0  0  0  0
    3.1249   -1.2221    0.0000 C   0  0  0  0  0  0  0  0  0  0  0  0
    2.9475   -2.7116    0.0000 F   0  0  0  0  0  0  0  0  0  0  0  0
   -4.6145   -0.2998    0.0000 C   0  0  0  0  0  0  0  0  0  0  0  0
   -4.7920   -1.7893    0.0000 O   0  0  0  0  0  0  0  0  0  0  0  0
   -5.8157    0.5986    0.0000 O   0  0  0  0  0  0  0  0  0  0  0  0
  2  1  1  1
  2  3  1  0
  3  4  1  0
  4  5  1  0
  5  6  1  0
  6  7  2  0
  7  8  1  0
  7  9  1  0
  9 10  2  0
 10 11  1  0
 11 12  2  0
 12 13  1  0
  2 14  1  0
 14 15  2  0
 14 16  1  0
 12  6  1  0
M  END
>  <rName>  (2627) 
Nva_Ph_26diF

>  <PQ_SYMBOL>  (2627) 
Nva_Ph_26diF

>  <FULL_NAME>  (2627) 
Nva(Ph(2,6-diF))

>  <IUPAC_CONDENSED>  (2627) 
Nva(Ph(2,6-diF))

>  <IUPAC>  (2627) 
(2S)-2-amino-5-(2,6-difluorophenyl)pentanoic acid

>  <TYPE>  (2627) 
Backbone

>  <CLASS>  (2627) 
alpha

>  <ANALOG>  (2627) 
X

>  <MOL_WT>  (2627) 
229.226

>  <LOGP>  (2627) 
1.6994

>  <TPSA>  (2627) 
63.32000000000001

>  <POPULARITY>  (2627) 
2.2

>  <PROTECTED>  (2627) 
TRUE

>  <SMILES>  (2627) 
N[C@@H](CCCc1(c(F)cccc1F))C(=O)O

>  <INCHIKEY>  (2627) 
RHQZPFHSDRFDET-JTQLQIEISA-N

$$$$
Nva_Ph_2Br
     RDKit          2D

 15 15  0  0  0  0  0  0  0  0999 V2000
   -3.0217    1.8813    0.0000 N   0  0  0  0  0  0  0  0  0  0  0  0
   -3.1809    0.3897    0.0000 C   0  0  0  0  0  0  0  0  0  0  0  0
   -1.9688   -0.4939    0.0000 C   0  0  0  0  0  0  0  0  0  0  0  0
   -0.5975    0.1140    0.0000 C   0  0  0  0  0  0  0  0  0  0  0  0
    0.6146   -0.7696    0.0000 C   0  0  0  0  0  0  0  0  0  0  0  0
    1.9859   -0.1616    0.0000 C   0  0  0  0  0  0  0  0  0  0  0  0
    2.1451    1.3299    0.0000 C   0  0  0  0  0  0  0  0  0  0  0  0
    3.5164    1.9378    0.0000 C   0  0  0  0  0  0  0  0  0  0  0  0
    4.7285    1.0542    0.0000 C   0  0  0  0  0  0  0  0  0  0  0  0
    4.5693   -0.4373    0.0000 C   0  0  0  0  0  0  0  0  0  0  0  0
    3.1980   -1.0453    0.0000 C   0  0  0  0  0  0  0  0  0  0  0  0
    3.0389   -2.5368    0.0000 Br  0  0  0  0  0  0  0  0  0  0  0  0
   -4.5522   -0.2182    0.0000 C   0  0  0  0  0  0  0  0  0  0  0  0
   -4.7114   -1.7097    0.0000 O   0  0  0  0  0  0  0  0  0  0  0  0
   -5.7643    0.6654    0.0000 O   0  0  0  0  0  0  0  0  0  0  0  0
  2  1  1  1
  2  3  1  0
  3  4  1  0
  4  5  1  0
  5  6  1  0
  6  7  2  0
  7  8  1  0
  8  9  2  0
  9 10  1  0
 10 11  2  0
 11 12  1  0
  2 13  1  0
 13 14  2  0
 13 15  1  0
 11  6  1  0
M  END
>  <rName>  (2628) 
Nva_Ph_2Br

>  <PQ_SYMBOL>  (2628) 
Nva_Ph_2Br

>  <FULL_NAME>  (2628) 
Nva(Ph(2-Br))

>  <IUPAC_CONDENSED>  (2628) 
Nva(Ph(2-Br))

>  <IUPAC>  (2628) 
(2S)-2-amino-5-(2-bromophenyl)pentanoic acid

>  <TYPE>  (2628) 
Backbone

>  <CLASS>  (2628) 
alpha

>  <ANALOG>  (2628) 
X

>  <MOL_WT>  (2628) 
272.14199999999994

>  <LOGP>  (2628) 
2.1837

>  <TPSA>  (2628) 
63.32000000000001

>  <POPULARITY>  (2628) 
2.2

>  <PROTECTED>  (2628) 
TRUE

>  <SMILES>  (2628) 
N[C@@H](CCCc1(ccccc1Br))C(=O)O

>  <INCHIKEY>  (2628) 
PYBULZANFCGDAW-JTQLQIEISA-N

$$$$
Nva_Ph_2CF3
     RDKit          2D

 18 18  0  0  0  0  0  0  0  0999 V2000
   -3.8122    1.8842    0.0000 N   0  0  0  0  0  0  0  0  0  0  0  0
   -3.7663    0.3849    0.0000 C   0  0  0  0  0  0  0  0  0  0  0  0
   -2.4449   -0.3250    0.0000 C   0  0  0  0  0  0  0  0  0  0  0  0
   -1.1695    0.4644    0.0000 C   0  0  0  0  0  0  0  0  0  0  0  0
    0.1519   -0.2455    0.0000 C   0  0  0  0  0  0  0  0  0  0  0  0
    1.4274    0.5440    0.0000 C   0  0  0  0  0  0  0  0  0  0  0  0
    1.3815    2.0432    0.0000 C   0  0  0  0  0  0  0  0  0  0  0  0
    2.6569    2.8327    0.0000 C   0  0  0  0  0  0  0  0  0  0  0  0
    3.9783    2.1228    0.0000 C   0  0  0  0  0  0  0  0  0  0  0  0
    4.0243    0.6235    0.0000 C   0  0  0  0  0  0  0  0  0  0  0  0
    2.7488   -0.1659    0.0000 C   0  0  0  0  0  0  0  0  0  0  0  0
    2.7947   -1.6652    0.0000 C   0  0  0  0  0  0  0  0  0  0  0  0
    2.8406   -3.1645    0.0000 F   0  0  0  0  0  0  0  0  0  0  0  0
    4.2940   -1.6193    0.0000 F   0  0  0  0  0  0  0  0  0  0  0  0
    1.2954   -1.7111    0.0000 F   0  0  0  0  0  0  0  0  0  0  0  0
   -5.0418   -0.4045    0.0000 C   0  0  0  0  0  0  0  0  0  0  0  0
   -4.9959   -1.9038    0.0000 O   0  0  0  0  0  0  0  0  0  0  0  0
   -6.3632    0.3053    0.0000 O   0  0  0  0  0  0  0  0  0  0  0  0
  2  1  1  1
  2  3  1  0
  3  4  1  0
  4  5  1  0
  5  6  1  0
  6  7  2  0
  7  8  1  0
  8  9  2  0
  9 10  1  0
 10 11  2  0
 11 12  1  0
 12 13  1  0
 12 14  1  0
 12 15  1  0
  2 16  1  0
 16 17  2  0
 16 18  1  0
 11  6  1  0
M  END
>  <rName>  (2629) 
Nva_Ph_2CF3

>  <PQ_SYMBOL>  (2629) 
Nva_Ph_2CF3

>  <FULL_NAME>  (2629) 
Nva(Ph(2-CF3))

>  <IUPAC_CONDENSED>  (2629) 
Nva(Ph(2-CF3))

>  <IUPAC>  (2629) 
(2S)-2-amino-5-(2-(trifluoromethyl)phenyl)pentanoic acid

>  <TYPE>  (2629) 
Backbone

>  <CLASS>  (2629) 
alpha

>  <ANALOG>  (2629) 
X

>  <MOL_WT>  (2629) 
261.24299999999994

>  <LOGP>  (2629) 
2.4400000000000004

>  <TPSA>  (2629) 
63.32000000000001

>  <POPULARITY>  (2629) 
2.2

>  <PROTECTED>  (2629) 
TRUE

>  <SMILES>  (2629) 
N[C@@H](CCCc1(ccccc1C(F)(F)F))C(=O)O

>  <INCHIKEY>  (2629) 
JIUGRCWUHYDNNI-JTQLQIEISA-N

$$$$
Nva_Ph_2Cl
     RDKit          2D

 15 15  0  0  0  0  0  0  0  0999 V2000
   -3.0217    1.8813    0.0000 N   0  0  0  0  0  0  0  0  0  0  0  0
   -3.1809    0.3897    0.0000 C   0  0  0  0  0  0  0  0  0  0  0  0
   -1.9688   -0.4939    0.0000 C   0  0  0  0  0  0  0  0  0  0  0  0
   -0.5975    0.1140    0.0000 C   0  0  0  0  0  0  0  0  0  0  0  0
    0.6146   -0.7696    0.0000 C   0  0  0  0  0  0  0  0  0  0  0  0
    1.9859   -0.1616    0.0000 C   0  0  0  0  0  0  0  0  0  0  0  0
    2.1451    1.3299    0.0000 C   0  0  0  0  0  0  0  0  0  0  0  0
    3.5164    1.9378    0.0000 C   0  0  0  0  0  0  0  0  0  0  0  0
    4.7285    1.0542    0.0000 C   0  0  0  0  0  0  0  0  0  0  0  0
    4.5693   -0.4373    0.0000 C   0  0  0  0  0  0  0  0  0  0  0  0
    3.1980   -1.0453    0.0000 C   0  0  0  0  0  0  0  0  0  0  0  0
    3.0389   -2.5368    0.0000 Cl  0  0  0  0  0  0  0  0  0  0  0  0
   -4.5522   -0.2182    0.0000 C   0  0  0  0  0  0  0  0  0  0  0  0
   -4.7114   -1.7097    0.0000 O   0  0  0  0  0  0  0  0  0  0  0  0
   -5.7643    0.6654    0.0000 O   0  0  0  0  0  0  0  0  0  0  0  0
  2  1  1  1
  2  3  1  0
  3  4  1  0
  4  5  1  0
  5  6  1  0
  6  7  2  0
  7  8  1  0
  8  9  2  0
  9 10  1  0
 10 11  2  0
 11 12  1  0
  2 13  1  0
 13 14  2  0
 13 15  1  0
 11  6  1  0
M  END
>  <rName>  (2630) 
Nva_Ph_2Cl

>  <PQ_SYMBOL>  (2630) 
Nva_Ph_2Cl

>  <FULL_NAME>  (2630) 
(S)-2-Amino-5-(2-chlorophenyl)pentanoic Acid

>  <IUPAC_CONDENSED>  (2630) 
Nva(Ph(2-Cl))

>  <IUPAC>  (2630) 
(2S)-2-amino-5-(2-chlorophenyl)pentanoic acid

>  <TYPE>  (2630) 
Backbone

>  <CLASS>  (2630) 
alpha

>  <ANALOG>  (2630) 
X

>  <MOL_WT>  (2630) 
227.69099999999997

>  <LOGP>  (2630) 
2.0745999999999998

>  <TPSA>  (2630) 
63.32000000000001

>  <POPULARITY>  (2630) 
2.2

>  <PROTECTED>  (2630) 
TRUE

>  <SMILES>  (2630) 
N[C@@H](CCCc1(ccccc1Cl))C(=O)O

>  <INCHIKEY>  (2630) 
XUBKLGHSOGOPEH-JTQLQIEISA-N

$$$$
Nva_Ph_2F
     RDKit          2D

 15 15  0  0  0  0  0  0  0  0999 V2000
   -3.0217    1.8813    0.0000 N   0  0  0  0  0  0  0  0  0  0  0  0
   -3.1809    0.3897    0.0000 C   0  0  0  0  0  0  0  0  0  0  0  0
   -1.9688   -0.4939    0.0000 C   0  0  0  0  0  0  0  0  0  0  0  0
   -0.5975    0.1140    0.0000 C   0  0  0  0  0  0  0  0  0  0  0  0
    0.6146   -0.7696    0.0000 C   0  0  0  0  0  0  0  0  0  0  0  0
    1.9859   -0.1616    0.0000 C   0  0  0  0  0  0  0  0  0  0  0  0
    2.1451    1.3299    0.0000 C   0  0  0  0  0  0  0  0  0  0  0  0
    3.5164    1.9378    0.0000 C   0  0  0  0  0  0  0  0  0  0  0  0
    4.7285    1.0542    0.0000 C   0  0  0  0  0  0  0  0  0  0  0  0
    4.5693   -0.4373    0.0000 C   0  0  0  0  0  0  0  0  0  0  0  0
    3.1980   -1.0453    0.0000 C   0  0  0  0  0  0  0  0  0  0  0  0
    3.0389   -2.5368    0.0000 F   0  0  0  0  0  0  0  0  0  0  0  0
   -4.5522   -0.2182    0.0000 C   0  0  0  0  0  0  0  0  0  0  0  0
   -4.7114   -1.7097    0.0000 O   0  0  0  0  0  0  0  0  0  0  0  0
   -5.7643    0.6654    0.0000 O   0  0  0  0  0  0  0  0  0  0  0  0
  2  1  1  1
  2  3  1  0
  3  4  1  0
  4  5  1  0
  5  6  1  0
  6  7  2  0
  7  8  1  0
  8  9  2  0
  9 10  1  0
 10 11  2  0
 11 12  1  0
  2 13  1  0
 13 14  2  0
 13 15  1  0
 11  6  1  0
M  END
>  <rName>  (2631) 
Nva_Ph_2F

>  <PQ_SYMBOL>  (2631) 
Nva_Ph_2F

>  <FULL_NAME>  (2631) 
Nva(Ph(2-F))

>  <IUPAC_CONDENSED>  (2631) 
Nva(Ph(2-F))

>  <IUPAC>  (2631) 
(2S)-2-amino-5-(2-fluorophenyl)pentanoic acid

>  <TYPE>  (2631) 
Backbone

>  <CLASS>  (2631) 
alpha

>  <ANALOG>  (2631) 
X

>  <MOL_WT>  (2631) 
211.23599999999996

>  <LOGP>  (2631) 
1.5603

>  <TPSA>  (2631) 
63.32000000000001

>  <POPULARITY>  (2631) 
2.2

>  <PROTECTED>  (2631) 
TRUE

>  <SMILES>  (2631) 
N[C@@H](CCCc1(ccccc1F))C(=O)O

>  <INCHIKEY>  (2631) 
USIREQZZXTVAJR-JTQLQIEISA-N

$$$$
Nva_Ph_2I
     RDKit          2D

 15 15  0  0  0  0  0  0  0  0999 V2000
   -3.0217    1.8813    0.0000 N   0  0  0  0  0  0  0  0  0  0  0  0
   -3.1809    0.3897    0.0000 C   0  0  0  0  0  0  0  0  0  0  0  0
   -1.9688   -0.4939    0.0000 C   0  0  0  0  0  0  0  0  0  0  0  0
   -0.5975    0.1140    0.0000 C   0  0  0  0  0  0  0  0  0  0  0  0
    0.6146   -0.7696    0.0000 C   0  0  0  0  0  0  0  0  0  0  0  0
    1.9859   -0.1616    0.0000 C   0  0  0  0  0  0  0  0  0  0  0  0
    2.1451    1.3299    0.0000 C   0  0  0  0  0  0  0  0  0  0  0  0
    3.5164    1.9378    0.0000 C   0  0  0  0  0  0  0  0  0  0  0  0
    4.7285    1.0542    0.0000 C   0  0  0  0  0  0  0  0  0  0  0  0
    4.5693   -0.4373    0.0000 C   0  0  0  0  0  0  0  0  0  0  0  0
    3.1980   -1.0453    0.0000 C   0  0  0  0  0  0  0  0  0  0  0  0
    3.0389   -2.5368    0.0000 I   0  0  0  0  0  0  0  0  0  0  0  0
   -4.5522   -0.2182    0.0000 C   0  0  0  0  0  0  0  0  0  0  0  0
   -4.7114   -1.7097    0.0000 O   0  0  0  0  0  0  0  0  0  0  0  0
   -5.7643    0.6654    0.0000 O   0  0  0  0  0  0  0  0  0  0  0  0
  2  1  1  1
  2  3  1  0
  3  4  1  0
  4  5  1  0
  5  6  1  0
  6  7  2  0
  7  8  1  0
  8  9  2  0
  9 10  1  0
 10 11  2  0
 11 12  1  0
  2 13  1  0
 13 14  2  0
 13 15  1  0
 11  6  1  0
M  END
>  <rName>  (2632) 
Nva_Ph_2I

>  <PQ_SYMBOL>  (2632) 
Nva_Ph_2I

>  <FULL_NAME>  (2632) 
Nva(Ph(2-I))

>  <IUPAC_CONDENSED>  (2632) 
Nva(Ph(2-I))

>  <IUPAC>  (2632) 
(2S)-2-amino-5-(2-iodophenyl)pentanoic acid

>  <TYPE>  (2632) 
Backbone

>  <CLASS>  (2632) 
alpha

>  <ANALOG>  (2632) 
X

>  <MOL_WT>  (2632) 
319.14200000000005

>  <LOGP>  (2632) 
2.0258

>  <TPSA>  (2632) 
63.32000000000001

>  <POPULARITY>  (2632) 
2.2

>  <PROTECTED>  (2632) 
TRUE

>  <SMILES>  (2632) 
N[C@@H](CCCc1(ccccc1I))C(=O)O

>  <INCHIKEY>  (2632) 
OOQQHNJLQYOIDI-JTQLQIEISA-N

$$$$
Nva_Ph_2Me
     RDKit          2D

 15 15  0  0  0  0  0  0  0  0999 V2000
   -3.0217    1.8813    0.0000 N   0  0  0  0  0  0  0  0  0  0  0  0
   -3.1809    0.3897    0.0000 C   0  0  0  0  0  0  0  0  0  0  0  0
   -1.9688   -0.4939    0.0000 C   0  0  0  0  0  0  0  0  0  0  0  0
   -0.5975    0.1140    0.0000 C   0  0  0  0  0  0  0  0  0  0  0  0
    0.6146   -0.7696    0.0000 C   0  0  0  0  0  0  0  0  0  0  0  0
    1.9859   -0.1616    0.0000 C   0  0  0  0  0  0  0  0  0  0  0  0
    2.1451    1.3299    0.0000 C   0  0  0  0  0  0  0  0  0  0  0  0
    3.5164    1.9378    0.0000 C   0  0  0  0  0  0  0  0  0  0  0  0
    4.7285    1.0542    0.0000 C   0  0  0  0  0  0  0  0  0  0  0  0
    4.5693   -0.4373    0.0000 C   0  0  0  0  0  0  0  0  0  0  0  0
    3.1980   -1.0453    0.0000 C   0  0  0  0  0  0  0  0  0  0  0  0
    3.0389   -2.5368    0.0000 C   0  0  0  0  0  0  0  0  0  0  0  0
   -4.5522   -0.2182    0.0000 C   0  0  0  0  0  0  0  0  0  0  0  0
   -4.7114   -1.7097    0.0000 O   0  0  0  0  0  0  0  0  0  0  0  0
   -5.7643    0.6654    0.0000 O   0  0  0  0  0  0  0  0  0  0  0  0
  2  1  1  1
  2  3  1  0
  3  4  1  0
  4  5  1  0
  5  6  1  0
  6  7  2  0
  7  8  1  0
  8  9  2  0
  9 10  1  0
 10 11  2  0
 11 12  1  0
  2 13  1  0
 13 14  2  0
 13 15  1  0
 11  6  1  0
M  END
>  <rName>  (2633) 
Nva_Ph_2Me

>  <PQ_SYMBOL>  (2633) 
Nva_Ph_2Me

>  <FULL_NAME>  (2633) 
(2S)-2-amino-5-(2-methylphenyl)pentanoic acid

>  <IUPAC_CONDENSED>  (2633) 
Nva(Ph(2-Me))

>  <IUPAC>  (2633) 
(2S)-2-amino-5-(2-methylphenyl)pentanoic acid

>  <TYPE>  (2633) 
Backbone

>  <CLASS>  (2633) 
alpha

>  <ANALOG>  (2633) 
X

>  <MOL_WT>  (2633) 
207.27299999999997

>  <LOGP>  (2633) 
1.72962

>  <TPSA>  (2633) 
63.32000000000001

>  <POPULARITY>  (2633) 
2.2

>  <PROTECTED>  (2633) 
TRUE

>  <SMILES>  (2633) 
N[C@@H](CCCc1(ccccc1C))C(=O)O

>  <INCHIKEY>  (2633) 
PZMHBFICRGDBNW-NSHDSACASA-N

$$$$
Nva_Ph_34diCl
     RDKit          2D

 16 16  0  0  0  0  0  0  0  0999 V2000
   -3.5052    1.8397    0.0000 N   0  0  0  0  0  0  0  0  0  0  0  0
   -3.7225    0.3555    0.0000 C   0  0  0  0  0  0  0  0  0  0  0  0
   -2.5458   -0.5748    0.0000 C   0  0  0  0  0  0  0  0  0  0  0  0
   -1.1518   -0.0209    0.0000 C   0  0  0  0  0  0  0  0  0  0  0  0
    0.0249   -0.9511    0.0000 C   0  0  0  0  0  0  0  0  0  0  0  0
    1.4188   -0.3972    0.0000 C   0  0  0  0  0  0  0  0  0  0  0  0
    1.6361    1.0870    0.0000 C   0  0  0  0  0  0  0  0  0  0  0  0
    3.0301    1.6409    0.0000 C   0  0  0  0  0  0  0  0  0  0  0  0
    4.2068    0.7106    0.0000 C   0  0  0  0  0  0  0  0  0  0  0  0
    5.6008    1.2645    0.0000 Cl  0  0  0  0  0  0  0  0  0  0  0  0
    3.9895   -0.7736    0.0000 C   0  0  0  0  0  0  0  0  0  0  0  0
    5.1662   -1.7039    0.0000 Cl  0  0  0  0  0  0  0  0  0  0  0  0
    2.5955   -1.3275    0.0000 C   0  0  0  0  0  0  0  0  0  0  0  0
   -5.1165   -0.1984    0.0000 C   0  0  0  0  0  0  0  0  0  0  0  0
   -5.3338   -1.6826    0.0000 O   0  0  0  0  0  0  0  0  0  0  0  0
   -6.2932    0.7319    0.0000 O   0  0  0  0  0  0  0  0  0  0  0  0
  2  1  1  1
  2  3  1  0
  3  4  1  0
  4  5  1  0
  5  6  1  0
  6  7  1  0
  7  8  2  0
  8  9  1  0
  9 10  1  0
  9 11  2  0
 11 12  1  0
 11 13  1  0
  2 14  1  0
 14 15  2  0
 14 16  1  0
 13  6  2  0
M  END
>  <rName>  (2634) 
Nva_Ph_34diCl

>  <PQ_SYMBOL>  (2634) 
Nva_Ph_34diCl

>  <FULL_NAME>  (2634) 
(2S)-2-amino-5-(3,4-dichlorophenyl)pentanoic acid

>  <IUPAC_CONDENSED>  (2634) 
Nva(Ph(3,4-diCl))

>  <IUPAC>  (2634) 
(2S)-2-amino-5-(3,4-dichlorophenyl)pentanoic acid

>  <TYPE>  (2634) 
Backbone

>  <CLASS>  (2634) 
alpha

>  <ANALOG>  (2634) 
X

>  <MOL_WT>  (2634) 
262.13599999999997

>  <LOGP>  (2634) 
2.7280000000000006

>  <TPSA>  (2634) 
63.32000000000001

>  <POPULARITY>  (2634) 
2.2

>  <PROTECTED>  (2634) 
TRUE

>  <SMILES>  (2634) 
N[C@@H](CCCc1(ccc(Cl)c(Cl)c1))C(=O)O

>  <INCHIKEY>  (2634) 
SXIPKFDKEYBTOW-JTQLQIEISA-N

$$$$
Nva_Ph_34diF
     RDKit          2D

 16 16  0  0  0  0  0  0  0  0999 V2000
   -3.5052    1.8397    0.0000 N   0  0  0  0  0  0  0  0  0  0  0  0
   -3.7225    0.3555    0.0000 C   0  0  0  0  0  0  0  0  0  0  0  0
   -2.5458   -0.5748    0.0000 C   0  0  0  0  0  0  0  0  0  0  0  0
   -1.1518   -0.0209    0.0000 C   0  0  0  0  0  0  0  0  0  0  0  0
    0.0249   -0.9511    0.0000 C   0  0  0  0  0  0  0  0  0  0  0  0
    1.4188   -0.3972    0.0000 C   0  0  0  0  0  0  0  0  0  0  0  0
    1.6361    1.0870    0.0000 C   0  0  0  0  0  0  0  0  0  0  0  0
    3.0301    1.6409    0.0000 C   0  0  0  0  0  0  0  0  0  0  0  0
    4.2068    0.7106    0.0000 C   0  0  0  0  0  0  0  0  0  0  0  0
    5.6008    1.2645    0.0000 F   0  0  0  0  0  0  0  0  0  0  0  0
    3.9895   -0.7736    0.0000 C   0  0  0  0  0  0  0  0  0  0  0  0
    5.1662   -1.7039    0.0000 F   0  0  0  0  0  0  0  0  0  0  0  0
    2.5955   -1.3275    0.0000 C   0  0  0  0  0  0  0  0  0  0  0  0
   -5.1165   -0.1984    0.0000 C   0  0  0  0  0  0  0  0  0  0  0  0
   -5.3338   -1.6826    0.0000 O   0  0  0  0  0  0  0  0  0  0  0  0
   -6.2932    0.7319    0.0000 O   0  0  0  0  0  0  0  0  0  0  0  0
  2  1  1  1
  2  3  1  0
  3  4  1  0
  4  5  1  0
  5  6  1  0
  6  7  1  0
  7  8  2  0
  8  9  1  0
  9 10  1  0
  9 11  2  0
 11 12  1  0
 11 13  1  0
  2 14  1  0
 14 15  2  0
 14 16  1  0
 13  6  2  0
M  END
>  <rName>  (2635) 
Nva_Ph_34diF

>  <PQ_SYMBOL>  (2635) 
Nva_Ph_34diF

>  <FULL_NAME>  (2635) 
Nva(Ph(3,4-diF))

>  <IUPAC_CONDENSED>  (2635) 
Nva(Ph(3,4-diF))

>  <IUPAC>  (2635) 
(2S)-2-amino-5-(3,4-difluorophenyl)pentanoic acid

>  <TYPE>  (2635) 
Backbone

>  <CLASS>  (2635) 
alpha

>  <ANALOG>  (2635) 
X

>  <MOL_WT>  (2635) 
229.22599999999997

>  <LOGP>  (2635) 
1.6994

>  <TPSA>  (2635) 
63.32000000000001

>  <POPULARITY>  (2635) 
2.2

>  <PROTECTED>  (2635) 
TRUE

>  <SMILES>  (2635) 
N[C@@H](CCCc1(ccc(F)c(F)c1))C(=O)O

>  <INCHIKEY>  (2635) 
ROKRFYTWAGHQGD-JTQLQIEISA-N

$$$$
Nva_Ph_35diF
     RDKit          2D

 16 16  0  0  0  0  0  0  0  0999 V2000
   -3.3276    1.7816    0.0000 N   0  0  0  0  0  0  0  0  0  0  0  0
   -3.5707    0.3014    0.0000 C   0  0  0  0  0  0  0  0  0  0  0  0
   -2.4104   -0.6492    0.0000 C   0  0  0  0  0  0  0  0  0  0  0  0
   -1.0070   -0.1196    0.0000 C   0  0  0  0  0  0  0  0  0  0  0  0
    0.1533   -1.0702    0.0000 C   0  0  0  0  0  0  0  0  0  0  0  0
    1.5568   -0.5407    0.0000 C   0  0  0  0  0  0  0  0  0  0  0  0
    1.7998    0.9395    0.0000 C   0  0  0  0  0  0  0  0  0  0  0  0
    3.2033    1.4690    0.0000 C   0  0  0  0  0  0  0  0  0  0  0  0
    3.4463    2.9492    0.0000 F   0  0  0  0  0  0  0  0  0  0  0  0
    4.3636    0.5184    0.0000 C   0  0  0  0  0  0  0  0  0  0  0  0
    4.1205   -0.9617    0.0000 C   0  0  0  0  0  0  0  0  0  0  0  0
    5.2808   -1.9123    0.0000 F   0  0  0  0  0  0  0  0  0  0  0  0
    2.7171   -1.4913    0.0000 C   0  0  0  0  0  0  0  0  0  0  0  0
   -4.9741   -0.2282    0.0000 C   0  0  0  0  0  0  0  0  0  0  0  0
   -5.2172   -1.7083    0.0000 O   0  0  0  0  0  0  0  0  0  0  0  0
   -6.1344    0.7225    0.0000 O   0  0  0  0  0  0  0  0  0  0  0  0
  2  1  1  1
  2  3  1  0
  3  4  1  0
  4  5  1  0
  5  6  1  0
  6  7  2  0
  7  8  1  0
  8  9  1  0
  8 10  2  0
 10 11  1  0
 11 12  1  0
 11 13  2  0
  2 14  1  0
 14 15  2  0
 14 16  1  0
 13  6  1  0
M  END
>  <rName>  (2636) 
Nva_Ph_35diF

>  <PQ_SYMBOL>  (2636) 
Nva_Ph_35diF

>  <FULL_NAME>  (2636) 
(S)-2-amino-5-(3,5-difluorophenyl)pentanoic acid

>  <IUPAC_CONDENSED>  (2636) 
Nva(Ph(3,5-diF))

>  <IUPAC>  (2636) 
(2S)-2-amino-5-(3,5-difluorophenyl)pentanoic acid

>  <TYPE>  (2636) 
Backbone

>  <CLASS>  (2636) 
alpha

>  <ANALOG>  (2636) 
X

>  <MOL_WT>  (2636) 
229.226

>  <LOGP>  (2636) 
1.6994

>  <TPSA>  (2636) 
63.32000000000001

>  <POPULARITY>  (2636) 
5.2

>  <PROTECTED>  (2636) 
TRUE

>  <SMILES>  (2636) 
N[C@@H](CCCc1(cc(F)cc(F)c1))C(=O)O

>  <INCHIKEY>  (2636) 
LIQASHMIOKGFMY-JTQLQIEISA-N

$$$$
Nva_Ph_35diMe
     RDKit          2D

 16 16  0  0  0  0  0  0  0  0999 V2000
   -3.3276    1.7816    0.0000 N   0  0  0  0  0  0  0  0  0  0  0  0
   -3.5707    0.3014    0.0000 C   0  0  0  0  0  0  0  0  0  0  0  0
   -2.4104   -0.6492    0.0000 C   0  0  0  0  0  0  0  0  0  0  0  0
   -1.0070   -0.1196    0.0000 C   0  0  0  0  0  0  0  0  0  0  0  0
    0.1533   -1.0702    0.0000 C   0  0  0  0  0  0  0  0  0  0  0  0
    1.5568   -0.5407    0.0000 C   0  0  0  0  0  0  0  0  0  0  0  0
    1.7998    0.9395    0.0000 C   0  0  0  0  0  0  0  0  0  0  0  0
    3.2033    1.4690    0.0000 C   0  0  0  0  0  0  0  0  0  0  0  0
    3.4463    2.9492    0.0000 C   0  0  0  0  0  0  0  0  0  0  0  0
    4.3636    0.5184    0.0000 C   0  0  0  0  0  0  0  0  0  0  0  0
    4.1205   -0.9617    0.0000 C   0  0  0  0  0  0  0  0  0  0  0  0
    5.2808   -1.9123    0.0000 C   0  0  0  0  0  0  0  0  0  0  0  0
    2.7171   -1.4913    0.0000 C   0  0  0  0  0  0  0  0  0  0  0  0
   -4.9741   -0.2282    0.0000 C   0  0  0  0  0  0  0  0  0  0  0  0
   -5.2172   -1.7083    0.0000 O   0  0  0  0  0  0  0  0  0  0  0  0
   -6.1344    0.7225    0.0000 O   0  0  0  0  0  0  0  0  0  0  0  0
  2  1  1  1
  2  3  1  0
  3  4  1  0
  4  5  1  0
  5  6  1  0
  6  7  2  0
  7  8  1  0
  8  9  1  0
  8 10  2  0
 10 11  1  0
 11 12  1  0
 11 13  2  0
  2 14  1  0
 14 15  2  0
 14 16  1  0
 13  6  1  0
M  END
>  <rName>  (2637) 
Nva_Ph_35diMe

>  <PQ_SYMBOL>  (2637) 
Nva_Ph_35diMe

>  <FULL_NAME>  (2637) 
(2S)-2-amino-5-(3,5-dimethylphenyl)pentanoic acid

>  <IUPAC_CONDENSED>  (2637) 
Nva(Ph(3,5-diMe))

>  <IUPAC>  (2637) 
(2S)-2-amino-5-(3,5-dimethylphenyl)pentanoic acid

>  <TYPE>  (2637) 
Backbone

>  <CLASS>  (2637) 
alpha

>  <ANALOG>  (2637) 
X

>  <MOL_WT>  (2637) 
221.29999999999998

>  <LOGP>  (2637) 
2.03804

>  <TPSA>  (2637) 
63.32000000000001

>  <POPULARITY>  (2637) 
2.2

>  <PROTECTED>  (2637) 
TRUE

>  <SMILES>  (2637) 
N[C@@H](CCCc1(cc(C)cc(C)c1))C(=O)O

>  <INCHIKEY>  (2637) 
RILYWZVIHCQXNI-LBPRGKRZSA-N

$$$$
Nva_Ph_3Br
     RDKit          2D

 15 15  0  0  0  0  0  0  0  0999 V2000
   -3.2060    1.7977    0.0000 N   0  0  0  0  0  0  0  0  0  0  0  0
   -3.3640    0.3060    0.0000 C   0  0  0  0  0  0  0  0  0  0  0  0
   -2.1512   -0.5766    0.0000 C   0  0  0  0  0  0  0  0  0  0  0  0
   -0.7804    0.0324    0.0000 C   0  0  0  0  0  0  0  0  0  0  0  0
    0.4325   -0.8503    0.0000 C   0  0  0  0  0  0  0  0  0  0  0  0
    1.8033   -0.2413    0.0000 C   0  0  0  0  0  0  0  0  0  0  0  0
    1.9613    1.2504    0.0000 C   0  0  0  0  0  0  0  0  0  0  0  0
    3.3321    1.8594    0.0000 C   0  0  0  0  0  0  0  0  0  0  0  0
    4.5449    0.9767    0.0000 C   0  0  0  0  0  0  0  0  0  0  0  0
    4.3869   -0.5149    0.0000 C   0  0  0  0  0  0  0  0  0  0  0  0
    5.5997   -1.3976    0.0000 Br  0  0  0  0  0  0  0  0  0  0  0  0
    3.0161   -1.1239    0.0000 C   0  0  0  0  0  0  0  0  0  0  0  0
   -4.7348   -0.3030    0.0000 C   0  0  0  0  0  0  0  0  0  0  0  0
   -4.8928   -1.7947    0.0000 O   0  0  0  0  0  0  0  0  0  0  0  0
   -5.9476    0.5797    0.0000 O   0  0  0  0  0  0  0  0  0  0  0  0
  2  1  1  1
  2  3  1  0
  3  4  1  0
  4  5  1  0
  5  6  1  0
  6  7  2  0
  7  8  1  0
  8  9  2  0
  9 10  1  0
 10 11  1  0
 10 12  2  0
  2 13  1  0
 13 14  2  0
 13 15  1  0
 12  6  1  0
M  END
>  <rName>  (2638) 
Nva_Ph_3Br

>  <PQ_SYMBOL>  (2638) 
Nva_Ph_3Br

>  <FULL_NAME>  (2638) 
Nva(Ph(3-Br))

>  <IUPAC_CONDENSED>  (2638) 
Nva(Ph(3-Br))

>  <IUPAC>  (2638) 
(2S)-2-amino-5-(3-bromophenyl)pentanoic acid

>  <TYPE>  (2638) 
Backbone

>  <CLASS>  (2638) 
alpha

>  <ANALOG>  (2638) 
X

>  <MOL_WT>  (2638) 
272.14199999999994

>  <LOGP>  (2638) 
2.1837

>  <TPSA>  (2638) 
63.32000000000001

>  <POPULARITY>  (2638) 
2.2

>  <PROTECTED>  (2638) 
TRUE

>  <SMILES>  (2638) 
N[C@@H](CCCc1(cccc(Br)c1))C(=O)O

>  <INCHIKEY>  (2638) 
ICAKTZIRBBZMQD-JTQLQIEISA-N

$$$$
Nva_Ph_3CF3
     RDKit          2D

 18 18  0  0  0  0  0  0  0  0999 V2000
   -4.3719    1.7050    0.0000 N   0  0  0  0  0  0  0  0  0  0  0  0
   -4.3993    0.2053    0.0000 C   0  0  0  0  0  0  0  0  0  0  0  0
   -3.1141   -0.5683    0.0000 C   0  0  0  0  0  0  0  0  0  0  0  0
   -1.8016    0.1579    0.0000 C   0  0  0  0  0  0  0  0  0  0  0  0
   -0.5165   -0.6157    0.0000 C   0  0  0  0  0  0  0  0  0  0  0  0
    0.7960    0.1105    0.0000 C   0  0  0  0  0  0  0  0  0  0  0  0
    0.8234    1.6102    0.0000 C   0  0  0  0  0  0  0  0  0  0  0  0
    2.1359    2.3364    0.0000 C   0  0  0  0  0  0  0  0  0  0  0  0
    3.4210    1.5629    0.0000 C   0  0  0  0  0  0  0  0  0  0  0  0
    3.3936    0.0631    0.0000 C   0  0  0  0  0  0  0  0  0  0  0  0
    2.0811   -0.6631    0.0000 C   0  0  0  0  0  0  0  0  0  0  0  0
    4.6788   -0.7105    0.0000 C   0  0  0  0  0  0  0  0  0  0  0  0
    5.9639   -1.4840    0.0000 F   0  0  0  0  0  0  0  0  0  0  0  0
    3.9052   -1.9956    0.0000 F   0  0  0  0  0  0  0  0  0  0  0  0
    5.4524    0.5747    0.0000 F   0  0  0  0  0  0  0  0  0  0  0  0
   -5.7118   -0.5209    0.0000 C   0  0  0  0  0  0  0  0  0  0  0  0
   -5.7391   -2.0206    0.0000 O   0  0  0  0  0  0  0  0  0  0  0  0
   -6.9969    0.2527    0.0000 O   0  0  0  0  0  0  0  0  0  0  0  0
  2  1  1  1
  2  3  1  0
  3  4  1  0
  4  5  1  0
  5  6  1  0
  6  7  1  0
  7  8  2  0
  8  9  1  0
  9 10  2  0
 10 11  1  0
 10 12  1  0
 12 13  1  0
 12 14  1  0
 12 15  1  0
  2 16  1  0
 16 17  2  0
 16 18  1  0
 11  6  2  0
M  END
>  <rName>  (2639) 
Nva_Ph_3CF3

>  <PQ_SYMBOL>  (2639) 
Nva_Ph_3CF3

>  <FULL_NAME>  (2639) 
Nva(Ph(3-CF3))

>  <IUPAC_CONDENSED>  (2639) 
Nva(Ph(3-CF3))

>  <IUPAC>  (2639) 
(2S)-2-amino-5-(3-(trifluoromethyl)phenyl)pentanoic acid

>  <TYPE>  (2639) 
Backbone

>  <CLASS>  (2639) 
alpha

>  <ANALOG>  (2639) 
X

>  <MOL_WT>  (2639) 
261.24299999999994

>  <LOGP>  (2639) 
2.4400000000000004

>  <TPSA>  (2639) 
63.32000000000001

>  <POPULARITY>  (2639) 
2.2

>  <PROTECTED>  (2639) 
TRUE

>  <SMILES>  (2639) 
N[C@@H](CCCc1(cccc(c1)C(F)(F)F))C(=O)O

>  <INCHIKEY>  (2639) 
VBVGOGFVUNHNCH-JTQLQIEISA-N

$$$$
Nva_Ph_3Cl
     RDKit          2D

 15 15  0  0  0  0  0  0  0  0999 V2000
   -3.2060    1.7977    0.0000 N   0  0  0  0  0  0  0  0  0  0  0  0
   -3.3640    0.3060    0.0000 C   0  0  0  0  0  0  0  0  0  0  0  0
   -2.1512   -0.5766    0.0000 C   0  0  0  0  0  0  0  0  0  0  0  0
   -0.7804    0.0324    0.0000 C   0  0  0  0  0  0  0  0  0  0  0  0
    0.4325   -0.8503    0.0000 C   0  0  0  0  0  0  0  0  0  0  0  0
    1.8033   -0.2413    0.0000 C   0  0  0  0  0  0  0  0  0  0  0  0
    1.9613    1.2504    0.0000 C   0  0  0  0  0  0  0  0  0  0  0  0
    3.3321    1.8594    0.0000 C   0  0  0  0  0  0  0  0  0  0  0  0
    4.5449    0.9767    0.0000 C   0  0  0  0  0  0  0  0  0  0  0  0
    4.3869   -0.5149    0.0000 C   0  0  0  0  0  0  0  0  0  0  0  0
    5.5997   -1.3976    0.0000 Cl  0  0  0  0  0  0  0  0  0  0  0  0
    3.0161   -1.1239    0.0000 C   0  0  0  0  0  0  0  0  0  0  0  0
   -4.7348   -0.3030    0.0000 C   0  0  0  0  0  0  0  0  0  0  0  0
   -4.8928   -1.7947    0.0000 O   0  0  0  0  0  0  0  0  0  0  0  0
   -5.9476    0.5797    0.0000 O   0  0  0  0  0  0  0  0  0  0  0  0
  2  1  1  1
  2  3  1  0
  3  4  1  0
  4  5  1  0
  5  6  1  0
  6  7  2  0
  7  8  1  0
  8  9  2  0
  9 10  1  0
 10 11  1  0
 10 12  2  0
  2 13  1  0
 13 14  2  0
 13 15  1  0
 12  6  1  0
M  END
>  <rName>  (2640) 
Nva_Ph_3Cl

>  <PQ_SYMBOL>  (2640) 
Nva_Ph_3Cl

>  <FULL_NAME>  (2640) 
(S)-2-Amino-5-(3-chlorophenyl)pentanoic acid

>  <IUPAC_CONDENSED>  (2640) 
Nva(Ph(3-Cl))

>  <IUPAC>  (2640) 
(2S)-2-amino-5-(3-chlorophenyl)pentanoic acid

>  <TYPE>  (2640) 
Backbone

>  <CLASS>  (2640) 
alpha

>  <ANALOG>  (2640) 
X

>  <MOL_WT>  (2640) 
227.69099999999997

>  <LOGP>  (2640) 
2.0745999999999998

>  <TPSA>  (2640) 
63.32000000000001

>  <POPULARITY>  (2640) 
2.2

>  <PROTECTED>  (2640) 
TRUE

>  <SMILES>  (2640) 
N[C@@H](CCCc1(cccc(Cl)c1))C(=O)O

>  <INCHIKEY>  (2640) 
NNNSZPXZQHBEAY-JTQLQIEISA-N

$$$$
Nva_Ph_3F
     RDKit          2D

 15 15  0  0  0  0  0  0  0  0999 V2000
   -3.2060    1.7977    0.0000 N   0  0  0  0  0  0  0  0  0  0  0  0
   -3.3640    0.3060    0.0000 C   0  0  0  0  0  0  0  0  0  0  0  0
   -2.1512   -0.5766    0.0000 C   0  0  0  0  0  0  0  0  0  0  0  0
   -0.7804    0.0324    0.0000 C   0  0  0  0  0  0  0  0  0  0  0  0
    0.4325   -0.8503    0.0000 C   0  0  0  0  0  0  0  0  0  0  0  0
    1.8033   -0.2413    0.0000 C   0  0  0  0  0  0  0  0  0  0  0  0
    1.9613    1.2504    0.0000 C   0  0  0  0  0  0  0  0  0  0  0  0
    3.3321    1.8594    0.0000 C   0  0  0  0  0  0  0  0  0  0  0  0
    4.5449    0.9767    0.0000 C   0  0  0  0  0  0  0  0  0  0  0  0
    4.3869   -0.5149    0.0000 C   0  0  0  0  0  0  0  0  0  0  0  0
    5.5997   -1.3976    0.0000 F   0  0  0  0  0  0  0  0  0  0  0  0
    3.0161   -1.1239    0.0000 C   0  0  0  0  0  0  0  0  0  0  0  0
   -4.7348   -0.3030    0.0000 C   0  0  0  0  0  0  0  0  0  0  0  0
   -4.8928   -1.7947    0.0000 O   0  0  0  0  0  0  0  0  0  0  0  0
   -5.9476    0.5797    0.0000 O   0  0  0  0  0  0  0  0  0  0  0  0
  2  1  1  1
  2  3  1  0
  3  4  1  0
  4  5  1  0
  5  6  1  0
  6  7  2  0
  7  8  1  0
  8  9  2  0
  9 10  1  0
 10 11  1  0
 10 12  2  0
  2 13  1  0
 13 14  2  0
 13 15  1  0
 12  6  1  0
M  END
>  <rName>  (2641) 
Nva_Ph_3F

>  <PQ_SYMBOL>  (2641) 
Nva_Ph_3F

>  <FULL_NAME>  (2641) 
(2S)-2-amino-5-(3-fluorophenyl)pentanoic acid

>  <IUPAC_CONDENSED>  (2641) 
Nva(Ph(3-F))

>  <IUPAC>  (2641) 
(2S)-2-amino-5-(3-fluorophenyl)pentanoic acid

>  <TYPE>  (2641) 
Backbone

>  <CLASS>  (2641) 
alpha

>  <ANALOG>  (2641) 
X

>  <MOL_WT>  (2641) 
211.23599999999996

>  <LOGP>  (2641) 
1.5603

>  <TPSA>  (2641) 
63.32000000000001

>  <POPULARITY>  (2641) 
2.2

>  <PROTECTED>  (2641) 
TRUE

>  <SMILES>  (2641) 
N[C@@H](CCCc1(cccc(F)c1))C(=O)O

>  <INCHIKEY>  (2641) 
AVVWEQFVEFZORX-JTQLQIEISA-N

$$$$
Nva_Ph_3I
     RDKit          2D

 15 15  0  0  0  0  0  0  0  0999 V2000
   -3.2060    1.7977    0.0000 N   0  0  0  0  0  0  0  0  0  0  0  0
   -3.3640    0.3060    0.0000 C   0  0  0  0  0  0  0  0  0  0  0  0
   -2.1512   -0.5766    0.0000 C   0  0  0  0  0  0  0  0  0  0  0  0
   -0.7804    0.0324    0.0000 C   0  0  0  0  0  0  0  0  0  0  0  0
    0.4325   -0.8503    0.0000 C   0  0  0  0  0  0  0  0  0  0  0  0
    1.8033   -0.2413    0.0000 C   0  0  0  0  0  0  0  0  0  0  0  0
    1.9613    1.2504    0.0000 C   0  0  0  0  0  0  0  0  0  0  0  0
    3.3321    1.8594    0.0000 C   0  0  0  0  0  0  0  0  0  0  0  0
    4.5449    0.9767    0.0000 C   0  0  0  0  0  0  0  0  0  0  0  0
    4.3869   -0.5149    0.0000 C   0  0  0  0  0  0  0  0  0  0  0  0
    5.5997   -1.3976    0.0000 I   0  0  0  0  0  0  0  0  0  0  0  0
    3.0161   -1.1239    0.0000 C   0  0  0  0  0  0  0  0  0  0  0  0
   -4.7348   -0.3030    0.0000 C   0  0  0  0  0  0  0  0  0  0  0  0
   -4.8928   -1.7947    0.0000 O   0  0  0  0  0  0  0  0  0  0  0  0
   -5.9476    0.5797    0.0000 O   0  0  0  0  0  0  0  0  0  0  0  0
  2  1  1  1
  2  3  1  0
  3  4  1  0
  4  5  1  0
  5  6  1  0
  6  7  2  0
  7  8  1  0
  8  9  2  0
  9 10  1  0
 10 11  1  0
 10 12  2  0
  2 13  1  0
 13 14  2  0
 13 15  1  0
 12  6  1  0
M  END
>  <rName>  (2642) 
Nva_Ph_3I

>  <PQ_SYMBOL>  (2642) 
Nva_Ph_3I

>  <FULL_NAME>  (2642) 
Nva(Ph(3-I))

>  <IUPAC_CONDENSED>  (2642) 
Nva(Ph(3-I))

>  <IUPAC>  (2642) 
(2S)-2-amino-5-(3-iodophenyl)pentanoic acid

>  <TYPE>  (2642) 
Backbone

>  <CLASS>  (2642) 
alpha

>  <ANALOG>  (2642) 
X

>  <MOL_WT>  (2642) 
319.14200000000005

>  <LOGP>  (2642) 
2.0258

>  <TPSA>  (2642) 
63.32000000000001

>  <POPULARITY>  (2642) 
2.2

>  <PROTECTED>  (2642) 
TRUE

>  <SMILES>  (2642) 
N[C@@H](CCCc1(cccc(I)c1))C(=O)O

>  <INCHIKEY>  (2642) 
MHJPTUZHQVPEGQ-JTQLQIEISA-N

$$$$
Nva_Ph_3Me
     RDKit          2D

 15 15  0  0  0  0  0  0  0  0999 V2000
   -3.2060    1.7977    0.0000 N   0  0  0  0  0  0  0  0  0  0  0  0
   -3.3640    0.3060    0.0000 C   0  0  0  0  0  0  0  0  0  0  0  0
   -2.1512   -0.5766    0.0000 C   0  0  0  0  0  0  0  0  0  0  0  0
   -0.7804    0.0324    0.0000 C   0  0  0  0  0  0  0  0  0  0  0  0
    0.4325   -0.8503    0.0000 C   0  0  0  0  0  0  0  0  0  0  0  0
    1.8033   -0.2413    0.0000 C   0  0  0  0  0  0  0  0  0  0  0  0
    1.9613    1.2504    0.0000 C   0  0  0  0  0  0  0  0  0  0  0  0
    3.3321    1.8594    0.0000 C   0  0  0  0  0  0  0  0  0  0  0  0
    4.5449    0.9767    0.0000 C   0  0  0  0  0  0  0  0  0  0  0  0
    4.3869   -0.5149    0.0000 C   0  0  0  0  0  0  0  0  0  0  0  0
    5.5997   -1.3976    0.0000 C   0  0  0  0  0  0  0  0  0  0  0  0
    3.0161   -1.1239    0.0000 C   0  0  0  0  0  0  0  0  0  0  0  0
   -4.7348   -0.3030    0.0000 C   0  0  0  0  0  0  0  0  0  0  0  0
   -4.8928   -1.7947    0.0000 O   0  0  0  0  0  0  0  0  0  0  0  0
   -5.9476    0.5797    0.0000 O   0  0  0  0  0  0  0  0  0  0  0  0
  2  1  1  1
  2  3  1  0
  3  4  1  0
  4  5  1  0
  5  6  1  0
  6  7  2  0
  7  8  1  0
  8  9  2  0
  9 10  1  0
 10 11  1  0
 10 12  2  0
  2 13  1  0
 13 14  2  0
 13 15  1  0
 12  6  1  0
M  END
>  <rName>  (2643) 
Nva_Ph_3Me

>  <PQ_SYMBOL>  (2643) 
Nva_Ph_3Me

>  <FULL_NAME>  (2643) 
(2S)-2-amino-5-(3-methylphenyl)pentanoic acid

>  <IUPAC_CONDENSED>  (2643) 
Nva(Ph(3-Me))

>  <IUPAC>  (2643) 
(2S)-2-amino-5-(3-methylphenyl)pentanoic acid

>  <TYPE>  (2643) 
Backbone

>  <CLASS>  (2643) 
alpha

>  <ANALOG>  (2643) 
X

>  <MOL_WT>  (2643) 
207.27299999999997

>  <LOGP>  (2643) 
1.72962

>  <TPSA>  (2643) 
63.32000000000001

>  <POPULARITY>  (2643) 
2.2

>  <PROTECTED>  (2643) 
TRUE

>  <SMILES>  (2643) 
N[C@@H](CCCc1(cccc(C)c1))C(=O)O

>  <INCHIKEY>  (2643) 
GWKPQPNDWDPPQD-NSHDSACASA-N

$$$$
Nva_Ph_3OMe
     RDKit          2D

 16 16  0  0  0  0  0  0  0  0999 V2000
   -3.6755    1.7260    0.0000 N   0  0  0  0  0  0  0  0  0  0  0  0
   -3.7290    0.2269    0.0000 C   0  0  0  0  0  0  0  0  0  0  0  0
   -2.4576   -0.5689    0.0000 C   0  0  0  0  0  0  0  0  0  0  0  0
   -1.1326    0.1342    0.0000 C   0  0  0  0  0  0  0  0  0  0  0  0
    0.1389   -0.6616    0.0000 C   0  0  0  0  0  0  0  0  0  0  0  0
    1.4638    0.0415    0.0000 C   0  0  0  0  0  0  0  0  0  0  0  0
    1.5174    1.5406    0.0000 C   0  0  0  0  0  0  0  0  0  0  0  0
    2.8423    2.2438    0.0000 C   0  0  0  0  0  0  0  0  0  0  0  0
    4.1138    1.4479    0.0000 C   0  0  0  0  0  0  0  0  0  0  0  0
    4.0603   -0.0512    0.0000 C   0  0  0  0  0  0  0  0  0  0  0  0
    5.3317   -0.8470    0.0000 O   0  0  0  0  0  0  0  0  0  0  0  0
    5.2782   -2.3461    0.0000 C   0  0  0  0  0  0  0  0  0  0  0  0
    2.7353   -0.7543    0.0000 C   0  0  0  0  0  0  0  0  0  0  0  0
   -5.0540   -0.4762    0.0000 C   0  0  0  0  0  0  0  0  0  0  0  0
   -5.1075   -1.9753    0.0000 O   0  0  0  0  0  0  0  0  0  0  0  0
   -6.3254    0.3196    0.0000 O   0  0  0  0  0  0  0  0  0  0  0  0
  2  1  1  1
  2  3  1  0
  3  4  1  0
  4  5  1  0
  5  6  1  0
  6  7  1  0
  7  8  2  0
  8  9  1  0
  9 10  2  0
 10 11  1  0
 11 12  1  0
 10 13  1  0
  2 14  1  0
 14 15  2  0
 14 16  1  0
 13  6  2  0
M  END
>  <rName>  (2644) 
Nva_Ph_3OMe

>  <PQ_SYMBOL>  (2644) 
Nva_Ph_3OMe

>  <FULL_NAME>  (2644) 
Nva(Ph(3-OMe))

>  <IUPAC_CONDENSED>  (2644) 
Nva(Ph(3-OMe))

>  <IUPAC>  (2644) 
(2S)-2-amino-5-(3-methoxyphenyl)pentanoic acid

>  <TYPE>  (2644) 
Backbone

>  <CLASS>  (2644) 
alpha

>  <ANALOG>  (2644) 
X

>  <MOL_WT>  (2644) 
223.27199999999996

>  <LOGP>  (2644) 
1.4297999999999997

>  <TPSA>  (2644) 
72.55

>  <POPULARITY>  (2644) 
2.2

>  <PROTECTED>  (2644) 
TRUE

>  <SMILES>  (2644) 
N[C@@H](CCCc1(cccc(OC)c1))C(=O)O

>  <INCHIKEY>  (2644) 
YWXFADRRQYVPGP-NSHDSACASA-N

$$$$
Nva_Ph_4Br
     RDKit          2D

 15 15  0  0  0  0  0  0  0  0999 V2000
   -3.0746    1.8754    0.0000 N   0  0  0  0  0  0  0  0  0  0  0  0
   -3.3626    0.4033    0.0000 C   0  0  0  0  0  0  0  0  0  0  0  0
   -2.2318   -0.5822    0.0000 C   0  0  0  0  0  0  0  0  0  0  0  0
   -0.8129   -0.0957    0.0000 C   0  0  0  0  0  0  0  0  0  0  0  0
    0.3179   -1.0812    0.0000 C   0  0  0  0  0  0  0  0  0  0  0  0
    1.7368   -0.5946    0.0000 C   0  0  0  0  0  0  0  0  0  0  0  0
    2.0249    0.8775    0.0000 C   0  0  0  0  0  0  0  0  0  0  0  0
    3.4437    1.3640    0.0000 C   0  0  0  0  0  0  0  0  0  0  0  0
    4.5746    0.3785    0.0000 C   0  0  0  0  0  0  0  0  0  0  0  0
    5.9935    0.8651    0.0000 Br  0  0  0  0  0  0  0  0  0  0  0  0
    4.2865   -1.0935    0.0000 C   0  0  0  0  0  0  0  0  0  0  0  0
    2.8676   -1.5801    0.0000 C   0  0  0  0  0  0  0  0  0  0  0  0
   -4.7815   -0.0833    0.0000 C   0  0  0  0  0  0  0  0  0  0  0  0
   -5.0696   -1.5554    0.0000 O   0  0  0  0  0  0  0  0  0  0  0  0
   -5.9124    0.9022    0.0000 O   0  0  0  0  0  0  0  0  0  0  0  0
  2  1  1  1
  2  3  1  0
  3  4  1  0
  4  5  1  0
  5  6  1  0
  6  7  1  0
  7  8  2  0
  8  9  1  0
  9 10  1  0
  9 11  2  0
 11 12  1  0
  2 13  1  0
 13 14  2  0
 13 15  1  0
 12  6  2  0
M  END
>  <rName>  (2645) 
Nva_Ph_4Br

>  <PQ_SYMBOL>  (2645) 
Nva_Ph_4Br

>  <FULL_NAME>  (2645) 
(2S)-2-amino-5-(4-bromophenyl)pentanoic acid

>  <IUPAC_CONDENSED>  (2645) 
Nva(Ph(4-Br))

>  <IUPAC>  (2645) 
(2S)-2-amino-5-(4-bromophenyl)pentanoic acid

>  <TYPE>  (2645) 
Backbone

>  <CLASS>  (2645) 
alpha

>  <ANALOG>  (2645) 
X

>  <MOL_WT>  (2645) 
272.142

>  <LOGP>  (2645) 
2.1837

>  <TPSA>  (2645) 
63.32000000000001

>  <POPULARITY>  (2645) 
2.2

>  <PROTECTED>  (2645) 
TRUE

>  <SMILES>  (2645) 
N[C@@H](CCCc1(ccc(Br)cc1))C(=O)O

>  <INCHIKEY>  (2645) 
HZFZXYLDUAIEHE-JTQLQIEISA-N

$$$$
Nva_Ph_4CF3
     RDKit          2D

 18 18  0  0  0  0  0  0  0  0999 V2000
   -4.0566    1.9209    0.0000 N   0  0  0  0  0  0  0  0  0  0  0  0
   -4.4219    0.4661    0.0000 C   0  0  0  0  0  0  0  0  0  0  0  0
   -3.3447   -0.5777    0.0000 C   0  0  0  0  0  0  0  0  0  0  0  0
   -1.9021   -0.1667    0.0000 C   0  0  0  0  0  0  0  0  0  0  0  0
   -0.8249   -1.2105    0.0000 C   0  0  0  0  0  0  0  0  0  0  0  0
    0.6177   -0.7995    0.0000 C   0  0  0  0  0  0  0  0  0  0  0  0
    0.9831    0.6553    0.0000 C   0  0  0  0  0  0  0  0  0  0  0  0
    2.4257    1.0663    0.0000 C   0  0  0  0  0  0  0  0  0  0  0  0
    3.5029    0.0225    0.0000 C   0  0  0  0  0  0  0  0  0  0  0  0
    3.1375   -1.4324    0.0000 C   0  0  0  0  0  0  0  0  0  0  0  0
    1.6950   -1.8434    0.0000 C   0  0  0  0  0  0  0  0  0  0  0  0
    4.9455    0.4335    0.0000 C   0  0  0  0  0  0  0  0  0  0  0  0
    6.3881    0.8445    0.0000 F   0  0  0  0  0  0  0  0  0  0  0  0
    5.3565   -1.0091    0.0000 F   0  0  0  0  0  0  0  0  0  0  0  0
    4.5345    1.8761    0.0000 F   0  0  0  0  0  0  0  0  0  0  0  0
   -5.8645    0.0551    0.0000 C   0  0  0  0  0  0  0  0  0  0  0  0
   -6.2299   -1.3997    0.0000 O   0  0  0  0  0  0  0  0  0  0  0  0
   -6.9418    1.0989    0.0000 O   0  0  0  0  0  0  0  0  0  0  0  0
  2  1  1  1
  2  3  1  0
  3  4  1  0
  4  5  1  0
  5  6  1  0
  6  7  1  0
  7  8  2  0
  8  9  1  0
  9 10  2  0
 10 11  1  0
  9 12  1  0
 12 13  1  0
 12 14  1  0
 12 15  1  0
  2 16  1  0
 16 17  2  0
 16 18  1  0
 11  6  2  0
M  END
>  <rName>  (2646) 
Nva_Ph_4CF3

>  <PQ_SYMBOL>  (2646) 
Nva_Ph_4CF3

>  <FULL_NAME>  (2646) 
(2S)-2-amino-5-[4-(trifluoromethyl)phenyl]pentanoic acid

>  <IUPAC_CONDENSED>  (2646) 
Nva(Ph(4-CF3))

>  <IUPAC>  (2646) 
(2S)-2-amino-5-[4-(trifluoromethyl)phenyl]pentanoic acid

>  <TYPE>  (2646) 
Backbone

>  <CLASS>  (2646) 
alpha

>  <ANALOG>  (2646) 
X

>  <MOL_WT>  (2646) 
261.24299999999994

>  <LOGP>  (2646) 
2.4400000000000004

>  <TPSA>  (2646) 
63.32000000000001

>  <POPULARITY>  (2646) 
2.2

>  <PROTECTED>  (2646) 
TRUE

>  <SMILES>  (2646) 
N[C@@H](CCCc1(ccc(cc1)C(F)(F)F))C(=O)O

>  <INCHIKEY>  (2646) 
HUIVMQGNHAVUAN-JTQLQIEISA-N

$$$$
Nva_Ph_4Cl
     RDKit          2D

 15 15  0  0  0  0  0  0  0  0999 V2000
   -3.0746    1.8754    0.0000 N   0  0  0  0  0  0  0  0  0  0  0  0
   -3.3626    0.4033    0.0000 C   0  0  0  0  0  0  0  0  0  0  0  0
   -2.2318   -0.5822    0.0000 C   0  0  0  0  0  0  0  0  0  0  0  0
   -0.8129   -0.0957    0.0000 C   0  0  0  0  0  0  0  0  0  0  0  0
    0.3179   -1.0812    0.0000 C   0  0  0  0  0  0  0  0  0  0  0  0
    1.7368   -0.5946    0.0000 C   0  0  0  0  0  0  0  0  0  0  0  0
    2.0249    0.8775    0.0000 C   0  0  0  0  0  0  0  0  0  0  0  0
    3.4437    1.3640    0.0000 C   0  0  0  0  0  0  0  0  0  0  0  0
    4.5746    0.3785    0.0000 C   0  0  0  0  0  0  0  0  0  0  0  0
    5.9935    0.8651    0.0000 Cl  0  0  0  0  0  0  0  0  0  0  0  0
    4.2865   -1.0935    0.0000 C   0  0  0  0  0  0  0  0  0  0  0  0
    2.8676   -1.5801    0.0000 C   0  0  0  0  0  0  0  0  0  0  0  0
   -4.7815   -0.0833    0.0000 C   0  0  0  0  0  0  0  0  0  0  0  0
   -5.0696   -1.5554    0.0000 O   0  0  0  0  0  0  0  0  0  0  0  0
   -5.9124    0.9022    0.0000 O   0  0  0  0  0  0  0  0  0  0  0  0
  2  1  1  1
  2  3  1  0
  3  4  1  0
  4  5  1  0
  5  6  1  0
  6  7  1  0
  7  8  2  0
  8  9  1  0
  9 10  1  0
  9 11  2  0
 11 12  1  0
  2 13  1  0
 13 14  2  0
 13 15  1  0
 12  6  2  0
M  END
>  <rName>  (2647) 
Nva_Ph_4Cl

>  <PQ_SYMBOL>  (2647) 
Nva_Ph_4Cl

>  <FULL_NAME>  (2647) 
(S)-2-amino-5-(4-chlorophenyl)pentanoic acid

>  <IUPAC_CONDENSED>  (2647) 
Nva(Ph(4-Cl))

>  <IUPAC>  (2647) 
(2S)-2-amino-5-(4-chlorophenyl)pentanoic acid

>  <TYPE>  (2647) 
Backbone

>  <CLASS>  (2647) 
alpha

>  <ANALOG>  (2647) 
X

>  <MOL_WT>  (2647) 
227.69099999999997

>  <LOGP>  (2647) 
2.0745999999999998

>  <TPSA>  (2647) 
63.32000000000001

>  <POPULARITY>  (2647) 
2.2

>  <PROTECTED>  (2647) 
TRUE

>  <SMILES>  (2647) 
N[C@@H](CCCc1(ccc(Cl)cc1))C(=O)O

>  <INCHIKEY>  (2647) 
JWFHIBQJYLHPGI-JTQLQIEISA-N

$$$$
Nva_Ph_4F
     RDKit          2D

 15 15  0  0  0  0  0  0  0  0999 V2000
   -3.0746    1.8754    0.0000 N   0  0  0  0  0  0  0  0  0  0  0  0
   -3.3626    0.4033    0.0000 C   0  0  0  0  0  0  0  0  0  0  0  0
   -2.2318   -0.5822    0.0000 C   0  0  0  0  0  0  0  0  0  0  0  0
   -0.8129   -0.0957    0.0000 C   0  0  0  0  0  0  0  0  0  0  0  0
    0.3179   -1.0812    0.0000 C   0  0  0  0  0  0  0  0  0  0  0  0
    1.7368   -0.5946    0.0000 C   0  0  0  0  0  0  0  0  0  0  0  0
    2.0249    0.8775    0.0000 C   0  0  0  0  0  0  0  0  0  0  0  0
    3.4437    1.3640    0.0000 C   0  0  0  0  0  0  0  0  0  0  0  0
    4.5746    0.3785    0.0000 C   0  0  0  0  0  0  0  0  0  0  0  0
    5.9935    0.8651    0.0000 F   0  0  0  0  0  0  0  0  0  0  0  0
    4.2865   -1.0935    0.0000 C   0  0  0  0  0  0  0  0  0  0  0  0
    2.8676   -1.5801    0.0000 C   0  0  0  0  0  0  0  0  0  0  0  0
   -4.7815   -0.0833    0.0000 C   0  0  0  0  0  0  0  0  0  0  0  0
   -5.0696   -1.5554    0.0000 O   0  0  0  0  0  0  0  0  0  0  0  0
   -5.9124    0.9022    0.0000 O   0  0  0  0  0  0  0  0  0  0  0  0
  2  1  1  1
  2  3  1  0
  3  4  1  0
  4  5  1  0
  5  6  1  0
  6  7  1  0
  7  8  2  0
  8  9  1  0
  9 10  1  0
  9 11  2  0
 11 12  1  0
  2 13  1  0
 13 14  2  0
 13 15  1  0
 12  6  2  0
M  END
>  <rName>  (2648) 
Nva_Ph_4F

>  <PQ_SYMBOL>  (2648) 
Nva_Ph_4F

>  <FULL_NAME>  (2648) 
(S)-2-Amino-5-(4-fluorophenyl)pentanoic acid

>  <IUPAC_CONDENSED>  (2648) 
Nva(Ph(4-F))

>  <IUPAC>  (2648) 
(2S)-2-amino-5-(4-fluorophenyl)pentanoic acid

>  <TYPE>  (2648) 
Backbone

>  <CLASS>  (2648) 
alpha

>  <ANALOG>  (2648) 
X

>  <MOL_WT>  (2648) 
211.236

>  <LOGP>  (2648) 
1.5603

>  <TPSA>  (2648) 
63.32000000000001

>  <POPULARITY>  (2648) 
2.2

>  <PROTECTED>  (2648) 
TRUE

>  <SMILES>  (2648) 
N[C@@H](CCCc1(ccc(F)cc1))C(=O)O

>  <INCHIKEY>  (2648) 
DKLQJCHDBKOFHL-JTQLQIEISA-N

$$$$
Nva_Ph_4I
     RDKit          2D

 15 15  0  0  0  0  0  0  0  0999 V2000
   -3.0746    1.8754    0.0000 N   0  0  0  0  0  0  0  0  0  0  0  0
   -3.3626    0.4033    0.0000 C   0  0  0  0  0  0  0  0  0  0  0  0
   -2.2318   -0.5822    0.0000 C   0  0  0  0  0  0  0  0  0  0  0  0
   -0.8129   -0.0957    0.0000 C   0  0  0  0  0  0  0  0  0  0  0  0
    0.3179   -1.0812    0.0000 C   0  0  0  0  0  0  0  0  0  0  0  0
    1.7368   -0.5946    0.0000 C   0  0  0  0  0  0  0  0  0  0  0  0
    2.0249    0.8775    0.0000 C   0  0  0  0  0  0  0  0  0  0  0  0
    3.4437    1.3640    0.0000 C   0  0  0  0  0  0  0  0  0  0  0  0
    4.5746    0.3785    0.0000 C   0  0  0  0  0  0  0  0  0  0  0  0
    5.9935    0.8651    0.0000 I   0  0  0  0  0  0  0  0  0  0  0  0
    4.2865   -1.0935    0.0000 C   0  0  0  0  0  0  0  0  0  0  0  0
    2.8676   -1.5801    0.0000 C   0  0  0  0  0  0  0  0  0  0  0  0
   -4.7815   -0.0833    0.0000 C   0  0  0  0  0  0  0  0  0  0  0  0
   -5.0696   -1.5554    0.0000 O   0  0  0  0  0  0  0  0  0  0  0  0
   -5.9124    0.9022    0.0000 O   0  0  0  0  0  0  0  0  0  0  0  0
  2  1  1  1
  2  3  1  0
  3  4  1  0
  4  5  1  0
  5  6  1  0
  6  7  1  0
  7  8  2  0
  8  9  1  0
  9 10  1  0
  9 11  2  0
 11 12  1  0
  2 13  1  0
 13 14  2  0
 13 15  1  0
 12  6  2  0
M  END
>  <rName>  (2649) 
Nva_Ph_4I

>  <PQ_SYMBOL>  (2649) 
Nva_Ph_4I

>  <FULL_NAME>  (2649) 
Nva(Ph(4-I))

>  <IUPAC_CONDENSED>  (2649) 
Nva(Ph(4-I))

>  <IUPAC>  (2649) 
(2S)-2-amino-5-(4-iodophenyl)pentanoic acid

>  <TYPE>  (2649) 
Backbone

>  <CLASS>  (2649) 
alpha

>  <ANALOG>  (2649) 
X

>  <MOL_WT>  (2649) 
319.14200000000005

>  <LOGP>  (2649) 
2.0258

>  <TPSA>  (2649) 
63.32000000000001

>  <POPULARITY>  (2649) 
2.2

>  <PROTECTED>  (2649) 
TRUE

>  <SMILES>  (2649) 
N[C@@H](CCCc1(ccc(I)cc1))C(=O)O

>  <INCHIKEY>  (2649) 
GFDWQBQQUXQZDW-JTQLQIEISA-N

$$$$
Nva_Ph_4Me
     RDKit          2D

 15 15  0  0  0  0  0  0  0  0999 V2000
   -3.0746    1.8754    0.0000 N   0  0  0  0  0  0  0  0  0  0  0  0
   -3.3626    0.4033    0.0000 C   0  0  0  0  0  0  0  0  0  0  0  0
   -2.2318   -0.5822    0.0000 C   0  0  0  0  0  0  0  0  0  0  0  0
   -0.8129   -0.0957    0.0000 C   0  0  0  0  0  0  0  0  0  0  0  0
    0.3179   -1.0812    0.0000 C   0  0  0  0  0  0  0  0  0  0  0  0
    1.7368   -0.5946    0.0000 C   0  0  0  0  0  0  0  0  0  0  0  0
    2.0249    0.8775    0.0000 C   0  0  0  0  0  0  0  0  0  0  0  0
    3.4437    1.3640    0.0000 C   0  0  0  0  0  0  0  0  0  0  0  0
    4.5746    0.3785    0.0000 C   0  0  0  0  0  0  0  0  0  0  0  0
    5.9935    0.8651    0.0000 C   0  0  0  0  0  0  0  0  0  0  0  0
    4.2865   -1.0935    0.0000 C   0  0  0  0  0  0  0  0  0  0  0  0
    2.8676   -1.5801    0.0000 C   0  0  0  0  0  0  0  0  0  0  0  0
   -4.7815   -0.0833    0.0000 C   0  0  0  0  0  0  0  0  0  0  0  0
   -5.0696   -1.5554    0.0000 O   0  0  0  0  0  0  0  0  0  0  0  0
   -5.9124    0.9022    0.0000 O   0  0  0  0  0  0  0  0  0  0  0  0
  2  1  1  1
  2  3  1  0
  3  4  1  0
  4  5  1  0
  5  6  1  0
  6  7  1  0
  7  8  2  0
  8  9  1  0
  9 10  1  0
  9 11  2  0
 11 12  1  0
  2 13  1  0
 13 14  2  0
 13 15  1  0
 12  6  2  0
M  END
>  <rName>  (2650) 
Nva_Ph_4Me

>  <PQ_SYMBOL>  (2650) 
Nva_Ph_4Me

>  <FULL_NAME>  (2650) 
(2S)-2-amino-5-(4-methylphenyl)pentanoic acid

>  <IUPAC_CONDENSED>  (2650) 
Nva(Ph(4-Me))

>  <IUPAC>  (2650) 
(2S)-2-amino-5-(4-methylphenyl)pentanoic acid

>  <TYPE>  (2650) 
Backbone

>  <CLASS>  (2650) 
alpha

>  <ANALOG>  (2650) 
X

>  <MOL_WT>  (2650) 
207.273

>  <LOGP>  (2650) 
1.72962

>  <TPSA>  (2650) 
63.32000000000001

>  <POPULARITY>  (2650) 
2.2

>  <PROTECTED>  (2650) 
TRUE

>  <SMILES>  (2650) 
N[C@@H](CCCc1(ccc(C)cc1))C(=O)O

>  <INCHIKEY>  (2650) 
KBMWMVOZROZVSC-NSHDSACASA-N

$$$$
Nva_Ph_4OH
     RDKit          2D

 15 15  0  0  0  0  0  0  0  0999 V2000
   -3.0746    1.8754    0.0000 N   0  0  0  0  0  0  0  0  0  0  0  0
   -3.3626    0.4033    0.0000 C   0  0  0  0  0  0  0  0  0  0  0  0
   -2.2318   -0.5822    0.0000 C   0  0  0  0  0  0  0  0  0  0  0  0
   -0.8129   -0.0957    0.0000 C   0  0  0  0  0  0  0  0  0  0  0  0
    0.3179   -1.0812    0.0000 C   0  0  0  0  0  0  0  0  0  0  0  0
    1.7368   -0.5946    0.0000 C   0  0  0  0  0  0  0  0  0  0  0  0
    2.0249    0.8775    0.0000 C   0  0  0  0  0  0  0  0  0  0  0  0
    3.4437    1.3640    0.0000 C   0  0  0  0  0  0  0  0  0  0  0  0
    4.5746    0.3785    0.0000 C   0  0  0  0  0  0  0  0  0  0  0  0
    5.9935    0.8651    0.0000 O   0  0  0  0  0  0  0  0  0  0  0  0
    4.2865   -1.0935    0.0000 C   0  0  0  0  0  0  0  0  0  0  0  0
    2.8676   -1.5801    0.0000 C   0  0  0  0  0  0  0  0  0  0  0  0
   -4.7815   -0.0833    0.0000 C   0  0  0  0  0  0  0  0  0  0  0  0
   -5.0696   -1.5554    0.0000 O   0  0  0  0  0  0  0  0  0  0  0  0
   -5.9124    0.9022    0.0000 O   0  0  0  0  0  0  0  0  0  0  0  0
  2  1  1  1
  2  3  1  0
  3  4  1  0
  4  5  1  0
  5  6  1  0
  6  7  1  0
  7  8  2  0
  8  9  1  0
  9 10  1  0
  9 11  2  0
 11 12  1  0
  2 13  1  0
 13 14  2  0
 13 15  1  0
 12  6  2  0
M  END
>  <rName>  (2651) 
Nva_Ph_4OH

>  <PQ_SYMBOL>  (2651) 
Nva_Ph_4OH

>  <FULL_NAME>  (2651) 
(2S)-2-amino-5-(4-hydroxyphenyl)pentanoic acid

>  <IUPAC_CONDENSED>  (2651) 
Nva(Ph(4-OH))

>  <IUPAC>  (2651) 
(2S)-2-amino-5-(4-hydroxyphenyl)pentanoic acid

>  <TYPE>  (2651) 
Backbone

>  <CLASS>  (2651) 
alpha

>  <ANALOG>  (2651) 
X

>  <MOL_WT>  (2651) 
209.245

>  <LOGP>  (2651) 
1.1268

>  <TPSA>  (2651) 
83.55

>  <POPULARITY>  (2651) 
2.2

>  <PROTECTED>  (2651) 
TRUE

>  <SMILES>  (2651) 
N[C@@H](CCCc1(ccc(O)cc1))C(=O)O

>  <INCHIKEY>  (2651) 
NSKXEEPHKSRBOS-JTQLQIEISA-N

$$$$
Nva_Ph_4OMe
     RDKit          2D

 16 16  0  0  0  0  0  0  0  0999 V2000
   -3.5260    1.8713    0.0000 N   0  0  0  0  0  0  0  0  0  0  0  0
   -3.8092    0.3983    0.0000 C   0  0  0  0  0  0  0  0  0  0  0  0
   -2.6752   -0.5835    0.0000 C   0  0  0  0  0  0  0  0  0  0  0  0
   -1.2579   -0.0923    0.0000 C   0  0  0  0  0  0  0  0  0  0  0  0
   -0.1238   -1.0741    0.0000 C   0  0  0  0  0  0  0  0  0  0  0  0
    1.2935   -0.5828    0.0000 C   0  0  0  0  0  0  0  0  0  0  0  0
    1.5767    0.8902    0.0000 C   0  0  0  0  0  0  0  0  0  0  0  0
    2.9939    1.3814    0.0000 C   0  0  0  0  0  0  0  0  0  0  0  0
    4.1280    0.3997    0.0000 C   0  0  0  0  0  0  0  0  0  0  0  0
    5.5453    0.8909    0.0000 O   0  0  0  0  0  0  0  0  0  0  0  0
    6.6794   -0.0909    0.0000 C   0  0  0  0  0  0  0  0  0  0  0  0
    3.8448   -1.0734    0.0000 C   0  0  0  0  0  0  0  0  0  0  0  0
    2.4275   -1.5646    0.0000 C   0  0  0  0  0  0  0  0  0  0  0  0
   -5.2265   -0.0930    0.0000 C   0  0  0  0  0  0  0  0  0  0  0  0
   -5.5097   -1.5660    0.0000 O   0  0  0  0  0  0  0  0  0  0  0  0
   -6.3606    0.8888    0.0000 O   0  0  0  0  0  0  0  0  0  0  0  0
  2  1  1  1
  2  3  1  0
  3  4  1  0
  4  5  1  0
  5  6  1  0
  6  7  1  0
  7  8  2  0
  8  9  1  0
  9 10  1  0
 10 11  1  0
  9 12  2  0
 12 13  1  0
  2 14  1  0
 14 15  2  0
 14 16  1  0
 13  6  2  0
M  END
>  <rName>  (2652) 
Nva_Ph_4OMe

>  <PQ_SYMBOL>  (2652) 
Nva_Ph_4OMe

>  <FULL_NAME>  (2652) 
(S)-2-Amino-5-(4-methoxyphenyl)pentanoic acid

>  <IUPAC_CONDENSED>  (2652) 
Nva(Ph(4-OMe))

>  <IUPAC>  (2652) 
(2S)-2-amino-5-(4-methoxyphenyl)pentanoic acid

>  <TYPE>  (2652) 
Backbone

>  <CLASS>  (2652) 
alpha

>  <ANALOG>  (2652) 
X

>  <MOL_WT>  (2652) 
223.272

>  <LOGP>  (2652) 
1.4297999999999997

>  <TPSA>  (2652) 
72.55

>  <POPULARITY>  (2652) 
2.2

>  <PROTECTED>  (2652) 
TRUE

>  <SMILES>  (2652) 
N[C@@H](CCCc1(ccc(OC)cc1))C(=O)O

>  <INCHIKEY>  (2652) 
FCSJBORCTWILJP-NSHDSACASA-N

$$$$
Nva_SH
     RDKit          2D

  9  8  0  0  0  0  0  0  0  0999 V2000
   -0.7616    1.8791    0.0000 N   0  0  0  0  0  0  0  0  0  0  0  0
   -0.8459    0.3815    0.0000 C   0  0  0  0  0  0  0  0  0  0  0  0
    0.4089   -0.4403    0.0000 C   0  0  0  0  0  0  0  0  0  0  0  0
    1.7480    0.2354    0.0000 C   0  0  0  0  0  0  0  0  0  0  0  0
    3.0029   -0.5864    0.0000 C   0  0  0  0  0  0  0  0  0  0  0  0
    4.3420    0.0894    0.0000 S   0  0  0  0  0  0  0  0  0  0  0  0
   -2.1851   -0.2943    0.0000 C   0  0  0  0  0  0  0  0  0  0  0  0
   -2.2694   -1.7919    0.0000 O   0  0  0  0  0  0  0  0  0  0  0  0
   -3.4399    0.5275    0.0000 O   0  0  0  0  0  0  0  0  0  0  0  0
  2  1  1  1
  2  3  1  0
  3  4  1  0
  4  5  1  0
  5  6  1  0
  2  7  1  0
  7  8  2  0
  7  9  1  0
M  END
>  <rName>  (2653) 
Nva_SH

>  <PQ_SYMBOL>  (2653) 
Nva_SH

>  <FULL_NAME>  (2653) 
5-Mercapto-norvaline

>  <IUPAC_CONDENSED>  (2653) 
Nva(SH)

>  <IUPAC>  (2653) 
(2S)-2-amino-5-sulfanylpentanoic acid

>  <TYPE>  (2653) 
Backbone

>  <CLASS>  (2653) 
alpha

>  <ANALOG>  (2653) 
X

>  <MOL_WT>  (2653) 
149.215

>  <LOGP>  (2653) 
0.10830000000000006

>  <TPSA>  (2653) 
63.32000000000001

>  <POPULARITY>  (2653) 
13.6

>  <PROTECTED>  (2653) 
TRUE

>  <SMILES>  (2653) 
N[C@@H](CCCS)C(=O)O

>  <INCHIKEY>  (2653) 
TUMGFDAVJXBHMU-BYPYZUCNSA-N

$$$$
Nva_cHex
     RDKit          2D

 14 14  0  0  0  0  0  0  0  0999 V2000
   -2.7125    1.8435    0.0000 N   0  0  0  0  0  0  0  0  0  0  0  0
   -2.9490    0.3623    0.0000 C   0  0  0  0  0  0  0  0  0  0  0  0
   -1.7844   -0.5831    0.0000 C   0  0  0  0  0  0  0  0  0  0  0  0
   -0.3834   -0.0473    0.0000 C   0  0  0  0  0  0  0  0  0  0  0  0
    0.7812   -0.9927    0.0000 C   0  0  0  0  0  0  0  0  0  0  0  0
    2.1822   -0.4569    0.0000 C   0  0  0  0  0  0  0  0  0  0  0  0
    2.4187    1.0244    0.0000 C   0  0  0  0  0  0  0  0  0  0  0  0
    3.8197    1.5602    0.0000 C   0  0  0  0  0  0  0  0  0  0  0  0
    4.9842    0.6148    0.0000 C   0  0  0  0  0  0  0  0  0  0  0  0
    4.7478   -0.8664    0.0000 C   0  0  0  0  0  0  0  0  0  0  0  0
    3.3467   -1.4023    0.0000 C   0  0  0  0  0  0  0  0  0  0  0  0
   -4.3500   -0.1735    0.0000 C   0  0  0  0  0  0  0  0  0  0  0  0
   -4.5865   -1.6548    0.0000 O   0  0  0  0  0  0  0  0  0  0  0  0
   -5.5146    0.7719    0.0000 O   0  0  0  0  0  0  0  0  0  0  0  0
  2  1  1  1
  2  3  1  0
  3  4  1  0
  4  5  1  0
  5  6  1  0
  6  7  1  0
  7  8  1  0
  8  9  1  0
  9 10  1  0
 10 11  1  0
  2 12  1  0
 12 13  2  0
 12 14  1  0
 11  6  1  0
M  END
>  <rName>  (2654) 
Nva_cHex

>  <PQ_SYMBOL>  (2654) 
Nva_cHex

>  <FULL_NAME>  (2654) 
(s)-2-Amino-5-cyclohexylpentanoic acid

>  <IUPAC_CONDENSED>  (2654) 
Nva(cHex)

>  <IUPAC>  (2654) 
(2S)-2-amino-5-cyclohexylpentanoic acid

>  <TYPE>  (2654) 
Backbone

>  <CLASS>  (2654) 
alpha

>  <ANALOG>  (2654) 
Ala

>  <MOL_WT>  (2654) 
199.29399999999998

>  <LOGP>  (2654) 
2.1489

>  <TPSA>  (2654) 
63.32000000000001

>  <POPULARITY>  (2654) 
2.2

>  <PROTECTED>  (2654) 
TRUE

>  <SMILES>  (2654) 
N[C@@H](CCCC1(CCCCC1))C(=O)O

>  <INCHIKEY>  (2654) 
LGIVZSMPEFXNLH-JTQLQIEISA-N

$$$$
Nva_cPent
     RDKit          2D

 13 13  0  0  0  0  0  0  0  0999 V2000
   -2.3820    1.8479    0.0000 N   0  0  0  0  0  0  0  0  0  0  0  0
   -2.5981    0.3635    0.0000 C   0  0  0  0  0  0  0  0  0  0  0  0
   -1.4207   -0.5658    0.0000 C   0  0  0  0  0  0  0  0  0  0  0  0
   -0.0271   -0.0108    0.0000 C   0  0  0  0  0  0  0  0  0  0  0  0
    1.1503   -0.9402    0.0000 C   0  0  0  0  0  0  0  0  0  0  0  0
    2.5438   -0.3851    0.0000 C   0  0  0  0  0  0  0  0  0  0  0  0
    3.8119   -1.1863    0.0000 C   0  0  0  0  0  0  0  0  0  0  0  0
    4.9658   -0.2279    0.0000 C   0  0  0  0  0  0  0  0  0  0  0  0
    4.4108    1.1657    0.0000 C   0  0  0  0  0  0  0  0  0  0  0  0
    2.9139    1.0685    0.0000 C   0  0  0  0  0  0  0  0  0  0  0  0
   -3.9917   -0.1915    0.0000 C   0  0  0  0  0  0  0  0  0  0  0  0
   -4.2078   -1.6758    0.0000 O   0  0  0  0  0  0  0  0  0  0  0  0
   -5.1691    0.7379    0.0000 O   0  0  0  0  0  0  0  0  0  0  0  0
  2  1  1  1
  2  3  1  0
  3  4  1  0
  4  5  1  0
  5  6  1  0
  6  7  1  0
  7  8  1  0
  8  9  1  0
  9 10  1  0
  2 11  1  0
 11 12  2  0
 11 13  1  0
 10  6  1  0
M  END
>  <rName>  (2655) 
Nva_cPent

>  <PQ_SYMBOL>  (2655) 
Nva_cPent

>  <FULL_NAME>  (2655) 
(2S)-2-amino-5-cyclopentylpentanoic acid

>  <IUPAC_CONDENSED>  (2655) 
Nva(cPent)

>  <IUPAC>  (2655) 
(2S)-2-amino-5-cyclopentylpentanoic acid

>  <TYPE>  (2655) 
Backbone

>  <CLASS>  (2655) 
alpha

>  <ANALOG>  (2655) 
Ala

>  <MOL_WT>  (2655) 
185.267

>  <LOGP>  (2655) 
1.7588

>  <TPSA>  (2655) 
63.32000000000001

>  <POPULARITY>  (2655) 
2.2

>  <PROTECTED>  (2655) 
TRUE

>  <SMILES>  (2655) 
N[C@@H](CCCC1(CCCC1))C(=O)O

>  <INCHIKEY>  (2655) 
YCUIVRCODIZNQZ-VIFPVBQESA-N

$$$$
Nva_carbonyl_piperidino
     RDKit          2D

 15 15  0  0  0  0  0  0  0  0999 V2000
   -2.7652    1.9859    0.0000 N   0  0  0  0  0  0  0  0  0  0  0  0
   -2.9895    0.5028    0.0000 C   0  0  0  0  0  0  0  0  0  0  0  0
   -1.8173   -0.4331    0.0000 C   0  0  0  0  0  0  0  0  0  0  0  0
   -0.4207    0.1142    0.0000 C   0  0  0  0  0  0  0  0  0  0  0  0
    0.7516   -0.8217    0.0000 C   0  0  0  0  0  0  0  0  0  0  0  0
    0.5272   -2.3048    0.0000 O   0  0  0  0  0  0  0  0  0  0  0  0
    2.1482   -0.2744    0.0000 N   0  0  0  0  0  0  0  0  0  0  0  0
    2.3725    1.2088    0.0000 C   0  0  0  0  0  0  0  0  0  0  0  0
    3.7691    1.7560    0.0000 C   0  0  0  0  0  0  0  0  0  0  0  0
    4.9414    0.8202    0.0000 C   0  0  0  0  0  0  0  0  0  0  0  0
    4.7170   -0.6629    0.0000 C   0  0  0  0  0  0  0  0  0  0  0  0
    3.3204   -1.2102    0.0000 C   0  0  0  0  0  0  0  0  0  0  0  0
   -4.3861   -0.0445    0.0000 C   0  0  0  0  0  0  0  0  0  0  0  0
   -4.6105   -1.5276    0.0000 O   0  0  0  0  0  0  0  0  0  0  0  0
   -5.5584    0.8913    0.0000 O   0  0  0  0  0  0  0  0  0  0  0  0
  2  1  1  1
  2  3  1  0
  3  4  1  0
  4  5  1  0
  5  6  2  0
  5  7  1  0
  7  8  1  0
  8  9  1  0
  9 10  1  0
 10 11  1  0
 11 12  1  0
  2 13  1  0
 13 14  2  0
 13 15  1  0
 12  7  1  0
M  END
>  <rName>  (2656) 
Nva_carbonyl_piperidino

>  <PQ_SYMBOL>  (2656) 
Nva_carbonyl_piperidino

>  <FULL_NAME>  (2656) 
(2S)-2-amino-5-oxo-5-piperidin-1-ylpentanoic acid

>  <IUPAC_CONDENSED>  (2656) 
Nva(carbonyl,piperidino)

>  <IUPAC>  (2656) 
(2S)-2-amino-5-oxo-5-piperidin-1-ylpentanoic acid

>  <TYPE>  (2656) 
Backbone

>  <CLASS>  (2656) 
alpha

>  <ANALOG>  (2656) 
Lys

>  <MOL_WT>  (2656) 
214.26499999999996

>  <LOGP>  (2656) 
0.191

>  <TPSA>  (2656) 
83.63000000000001

>  <POPULARITY>  (2656) 
2.2

>  <PROTECTED>  (2656) 
TRUE

>  <SMILES>  (2656) 
N[C@@H](CCC(=O)N1(CCCCC1))C(=O)O

>  <INCHIKEY>  (2656) 
XASPJULDCSDRGK-QMMMGPOBSA-N

$$$$
Nva_dioxolan2yl
     RDKit          2D

 13 13  0  0  0  0  0  0  0  0999 V2000
   -2.3820    1.8479    0.0000 N   0  0  0  0  0  0  0  0  0  0  0  0
   -2.5981    0.3635    0.0000 C   0  0  0  0  0  0  0  0  0  0  0  0
   -1.4207   -0.5658    0.0000 C   0  0  0  0  0  0  0  0  0  0  0  0
   -0.0271   -0.0108    0.0000 C   0  0  0  0  0  0  0  0  0  0  0  0
    1.1503   -0.9402    0.0000 C   0  0  0  0  0  0  0  0  0  0  0  0
    2.5438   -0.3851    0.0000 C   0  0  0  0  0  0  0  0  0  0  0  0
    3.8119   -1.1863    0.0000 O   0  0  0  0  0  0  0  0  0  0  0  0
    4.9658   -0.2279    0.0000 C   0  0  0  0  0  0  0  0  0  0  0  0
    4.4108    1.1657    0.0000 C   0  0  0  0  0  0  0  0  0  0  0  0
    2.9139    1.0685    0.0000 O   0  0  0  0  0  0  0  0  0  0  0  0
   -3.9917   -0.1915    0.0000 C   0  0  0  0  0  0  0  0  0  0  0  0
   -4.2078   -1.6758    0.0000 O   0  0  0  0  0  0  0  0  0  0  0  0
   -5.1691    0.7379    0.0000 O   0  0  0  0  0  0  0  0  0  0  0  0
  2  1  1  1
  2  3  1  0
  3  4  1  0
  4  5  1  0
  5  6  1  0
  6  7  1  0
  7  8  1  0
  8  9  1  0
  9 10  1  0
  2 11  1  0
 11 12  2  0
 11 13  1  0
 10  6  1  0
M  END
>  <rName>  (2657) 
Nva_dioxolan2yl

>  <PQ_SYMBOL>  (2657) 
Nva_dioxolan2yl

>  <FULL_NAME>  (2657) 
Allysine ethylene acetal

>  <IUPAC_CONDENSED>  (2657) 
Nva(dioxolan-2-yl)

>  <IUPAC>  (2657) 
(2S)-2-amino-5-(1,3-dioxolan-2-yl)pentanoic acid

>  <TYPE>  (2657) 
Backbone

>  <CLASS>  (2657) 
alpha

>  <ANALOG>  (2657) 
X

>  <MOL_WT>  (2657) 
189.21099999999998

>  <LOGP>  (2657) 
-0.058500000000000496

>  <TPSA>  (2657) 
81.78

>  <POPULARITY>  (2657) 
2.2

>  <PROTECTED>  (2657) 
TRUE

>  <SMILES>  (2657) 
N[C@@H](CCCC1(OCCO1))C(=O)O

>  <INCHIKEY>  (2657) 
RQULWPSGQYZREI-LURJTMIESA-N

$$$$
Nva_dioxolan2yl_2Me
     RDKit          2D

 14 14  0  0  0  0  0  0  0  0999 V2000
   -2.2993    1.8325    0.0000 N   0  0  0  0  0  0  0  0  0  0  0  0
   -2.5750    0.3580    0.0000 C   0  0  0  0  0  0  0  0  0  0  0  0
   -1.4359   -0.6179    0.0000 C   0  0  0  0  0  0  0  0  0  0  0  0
   -0.0211   -0.1194    0.0000 C   0  0  0  0  0  0  0  0  0  0  0  0
    1.1180   -1.0953    0.0000 C   0  0  0  0  0  0  0  0  0  0  0  0
    2.5327   -0.5968    0.0000 C   0  0  0  0  0  0  0  0  0  0  0  0
    4.0202   -0.4033    0.0000 O   0  0  0  0  0  0  0  0  0  0  0  0
    4.2958    1.0711    0.0000 C   0  0  0  0  0  0  0  0  0  0  0  0
    2.9787    1.7889    0.0000 C   0  0  0  0  0  0  0  0  0  0  0  0
    1.8890    0.7581    0.0000 O   0  0  0  0  0  0  0  0  0  0  0  0
    2.8806   -2.0559    0.0000 C   0  0  0  0  0  0  0  0  0  0  0  0
   -3.9897   -0.1405    0.0000 C   0  0  0  0  0  0  0  0  0  0  0  0
   -4.2653   -1.6149    0.0000 O   0  0  0  0  0  0  0  0  0  0  0  0
   -5.1288    0.8355    0.0000 O   0  0  0  0  0  0  0  0  0  0  0  0
  2  1  1  1
  2  3  1  0
  3  4  1  0
  4  5  1  0
  5  6  1  0
  6  7  1  0
  7  8  1  0
  8  9  1  0
  9 10  1  0
  6 11  1  0
  2 12  1  0
 12 13  2  0
 12 14  1  0
 10  6  1  0
M  END
>  <rName>  (2658) 
Nva_dioxolan2yl_2Me

>  <PQ_SYMBOL>  (2658) 
Nva_dioxolan2yl_2Me

>  <FULL_NAME>  (2658) 
Nva(dioxolan-2-yl(2-Me))

>  <IUPAC_CONDENSED>  (2658) 
Nva(dioxolan-2-yl(2-Me))

>  <IUPAC>  (2658) 
(2S)-2-amino-5-(2-methyl-1,3-dioxolan-2-yl)pentanoic acid

>  <TYPE>  (2658) 
Backbone

>  <CLASS>  (2658) 
alpha

>  <ANALOG>  (2658) 
X

>  <MOL_WT>  (2658) 
203.238

>  <LOGP>  (2658) 
0.3315999999999994

>  <TPSA>  (2658) 
81.78

>  <POPULARITY>  (2658) 
2.2

>  <PROTECTED>  (2658) 
TRUE

>  <SMILES>  (2658) 
N[C@@H](CCCC1(OCCO1)C)C(=O)O

>  <INCHIKEY>  (2658) 
NJNSQMWEFZFAGT-ZETCQYMHSA-N

$$$$
Nva_ethynyl
     RDKit          2D

 10  9  0  0  0  0  0  0  0  0999 V2000
   -1.2340   -1.8694    0.0000 N   0  0  0  0  0  0  0  0  0  0  0  0
   -1.3962   -0.3782    0.0000 C   0  0  0  0  0  0  0  0  0  0  0  0
   -0.1859    0.5079    0.0000 C   0  0  0  0  0  0  0  0  0  0  0  0
    1.1866   -0.0973    0.0000 C   0  0  0  0  0  0  0  0  0  0  0  0
    2.3969    0.7888    0.0000 C   0  0  0  0  0  0  0  0  0  0  0  0
    3.7695    0.1837    0.0000 C   0  0  0  0  0  0  0  0  0  0  0  0
    5.1420   -0.4214    0.0000 C   0  0  0  0  0  0  0  0  0  0  0  0
   -2.7688    0.2269    0.0000 C   0  0  0  0  0  0  0  0  0  0  0  0
   -2.9310    1.7181    0.0000 O   0  0  0  0  0  0  0  0  0  0  0  0
   -3.9791   -0.6591    0.0000 O   0  0  0  0  0  0  0  0  0  0  0  0
  2  1  1  6
  2  3  1  0
  3  4  1  0
  4  5  1  0
  5  6  1  0
  6  7  3  0
  2  8  1  0
  8  9  2  0
  8 10  1  0
M  END
>  <rName>  (2659) 
Nva_ethynyl

>  <PQ_SYMBOL>  (2659) 
Nva_ethynyl

>  <FULL_NAME>  (2659) 
(S)-2-aminohept-6-ynoic acid

>  <IUPAC_CONDENSED>  (2659) 
Nva(ethynyl)

>  <IUPAC>  (2659) 
(2S)-2-aminohept-6-ynoic acid

>  <TYPE>  (2659) 
Backbone

>  <CLASS>  (2659) 
alpha

>  <ANALOG>  (2659) 
Leu

>  <MOL_WT>  (2659) 
141.17

>  <LOGP>  (2659) 
0.20179999999999992

>  <TPSA>  (2659) 
63.32000000000001

>  <POPULARITY>  (2659) 
7.8

>  <PROTECTED>  (2659) 
TRUE

>  <SMILES>  (2659) 
N[C@@H](CCCC#C)C(=O)O

>  <INCHIKEY>  (2659) 
IJQLLGJUHGAQIC-LURJTMIESA-N

$$$$
Nva_g_gdiF
     RDKit          2D

 10  9  0  0  0  0  0  0  0  0999 V2000
    0.5029    1.7542    0.0000 N   0  0  0  0  0  0  0  0  0  0  0  0
    0.7450    0.2738    0.0000 C   0  0  0  0  0  0  0  0  0  0  0  0
   -0.4160   -0.6760    0.0000 C   0  0  0  0  0  0  0  0  0  0  0  0
   -1.8190   -0.1455    0.0000 C   0  0  0  0  0  0  0  0  0  0  0  0
   -3.2221    0.3850    0.0000 C   0  0  0  0  0  0  0  0  0  0  0  0
   -2.3495   -1.5485    0.0000 F   0  0  0  0  0  0  0  0  0  0  0  0
   -1.2885    1.2576    0.0000 F   0  0  0  0  0  0  0  0  0  0  0  0
    2.1480   -0.2567    0.0000 C   0  0  0  0  0  0  0  0  0  0  0  0
    2.3901   -1.7370    0.0000 O   0  0  0  0  0  0  0  0  0  0  0  0
    3.3090    0.6932    0.0000 O   0  0  0  0  0  0  0  0  0  0  0  0
  2  1  1  6
  2  3  1  0
  3  4  1  0
  4  5  1  0
  4  6  1  0
  4  7  1  0
  2  8  1  0
  8  9  2  0
  8 10  1  0
M  END
>  <rName>  (2660) 
Nva_g_gdiF

>  <PQ_SYMBOL>  (2660) 
Nva_g_gdiF

>  <FULL_NAME>  (2660) 
(S)-2-amino-4,4-difluoropentanoic acid

>  <IUPAC_CONDENSED>  (2660) 
Nva(g,g-diF)

>  <IUPAC>  (2660) 
(2S)-2-amino-4,4-difluoropentanoic acid

>  <TYPE>  (2660) 
Backbone

>  <CLASS>  (2660) 
alpha

>  <ANALOG>  (2660) 
X

>  <MOL_WT>  (2660) 
153.12800000000001

>  <LOGP>  (2660) 
0.44359999999999994

>  <TPSA>  (2660) 
63.32000000000001

>  <POPULARITY>  (2660) 
8.8

>  <PROTECTED>  (2660) 
TRUE

>  <SMILES>  (2660) 
N[C@@H](CC(C)(F)F)C(=O)O

>  <INCHIKEY>  (2660) 
HNZGXYVBLJPLTD-VKHMYHEASA-N

$$$$
Nva_morpholino
     RDKit          2D

 14 14  0  0  0  0  0  0  0  0999 V2000
   -2.7125    1.8435    0.0000 N   0  0  0  0  0  0  0  0  0  0  0  0
   -2.9490    0.3623    0.0000 C   0  0  0  0  0  0  0  0  0  0  0  0
   -1.7844   -0.5831    0.0000 C   0  0  0  0  0  0  0  0  0  0  0  0
   -0.3834   -0.0473    0.0000 C   0  0  0  0  0  0  0  0  0  0  0  0
    0.7812   -0.9927    0.0000 C   0  0  0  0  0  0  0  0  0  0  0  0
    2.1822   -0.4569    0.0000 N   0  0  0  0  0  0  0  0  0  0  0  0
    2.4187    1.0244    0.0000 C   0  0  0  0  0  0  0  0  0  0  0  0
    3.8197    1.5602    0.0000 C   0  0  0  0  0  0  0  0  0  0  0  0
    4.9842    0.6148    0.0000 O   0  0  0  0  0  0  0  0  0  0  0  0
    4.7478   -0.8664    0.0000 C   0  0  0  0  0  0  0  0  0  0  0  0
    3.3467   -1.4023    0.0000 C   0  0  0  0  0  0  0  0  0  0  0  0
   -4.3500   -0.1735    0.0000 C   0  0  0  0  0  0  0  0  0  0  0  0
   -4.5865   -1.6548    0.0000 O   0  0  0  0  0  0  0  0  0  0  0  0
   -5.5146    0.7719    0.0000 O   0  0  0  0  0  0  0  0  0  0  0  0
  2  1  1  1
  2  3  1  0
  3  4  1  0
  4  5  1  0
  5  6  1  0
  6  7  1  0
  7  8  1  0
  8  9  1  0
  9 10  1  0
 10 11  1  0
  2 12  1  0
 12 13  2  0
 12 14  1  0
 11  6  1  0
M  END
>  <rName>  (2661) 
Nva_morpholino

>  <PQ_SYMBOL>  (2661) 
Nva_morpholino

>  <FULL_NAME>  (2661) 
(2S)-2-amino-5-morpholin-4-ylpentanoic acid

>  <IUPAC_CONDENSED>  (2661) 
Nva(morpholino)

>  <IUPAC>  (2661) 
(2S)-2-amino-5-morpholin-4-ylpentanoic acid

>  <TYPE>  (2661) 
Backbone

>  <CLASS>  (2661) 
alpha

>  <ANALOG>  (2661) 
Lys

>  <MOL_WT>  (2661) 
202.254

>  <LOGP>  (2661) 
-0.4892999999999997

>  <TPSA>  (2661) 
75.78999999999999

>  <POPULARITY>  (2661) 
2.2

>  <PROTECTED>  (2661) 
TRUE

>  <SMILES>  (2661) 
N[C@@H](CCCN1(CCOCC1))C(=O)O

>  <INCHIKEY>  (2661) 
KATPPSBXITXCFT-QMMMGPOBSA-N

$$$$
Nva_naphth1yl
     RDKit          2D

 18 19  0  0  0  0  0  0  0  0999 V2000
   -4.1808   -1.7199    0.0000 N   0  0  0  0  0  0  0  0  0  0  0  0
   -4.1248   -0.2210    0.0000 C   0  0  0  0  0  0  0  0  0  0  0  0
   -2.7986    0.4800    0.0000 C   0  0  0  0  0  0  0  0  0  0  0  0
   -1.5285   -0.3181    0.0000 C   0  0  0  0  0  0  0  0  0  0  0  0
   -0.2023    0.3828    0.0000 C   0  0  0  0  0  0  0  0  0  0  0  0
    1.0678   -0.4152    0.0000 C   0  0  0  0  0  0  0  0  0  0  0  0
    1.0117   -1.9142    0.0000 C   0  0  0  0  0  0  0  0  0  0  0  0
    2.2818   -2.7122    0.0000 C   0  0  0  0  0  0  0  0  0  0  0  0
    3.6079   -2.0113    0.0000 C   0  0  0  0  0  0  0  0  0  0  0  0
    3.6640   -0.5123    0.0000 C   0  0  0  0  0  0  0  0  0  0  0  0
    4.9902    0.1886    0.0000 C   0  0  0  0  0  0  0  0  0  0  0  0
    5.0463    1.6875    0.0000 C   0  0  0  0  0  0  0  0  0  0  0  0
    3.7762    2.4856    0.0000 C   0  0  0  0  0  0  0  0  0  0  0  0
    2.4500    1.7847    0.0000 C   0  0  0  0  0  0  0  0  0  0  0  0
    2.3939    0.2857    0.0000 C   0  0  0  0  0  0  0  0  0  0  0  0
   -5.3949    0.5771    0.0000 C   0  0  0  0  0  0  0  0  0  0  0  0
   -5.3388    2.0760    0.0000 O   0  0  0  0  0  0  0  0  0  0  0  0
   -6.7210   -0.1238    0.0000 O   0  0  0  0  0  0  0  0  0  0  0  0
  2  1  1  6
  2  3  1  0
  3  4  1  0
  4  5  1  0
  5  6  1  0
  6  7  2  0
  7  8  1  0
  8  9  2  0
  9 10  1  0
 10 11  2  0
 11 12  1  0
 12 13  2  0
 13 14  1  0
 14 15  2  0
  2 16  1  0
 16 17  2  0
 16 18  1  0
 15  6  1  0
 15 10  1  0
M  END
>  <rName>  (2662) 
Nva_naphth1yl

>  <PQ_SYMBOL>  (2662) 
Nva_naphth1yl

>  <FULL_NAME>  (2662) 
N[C@@H](CCCc1cccc2ccccc12)C(=O)O

>  <IUPAC_CONDENSED>  (2662) 
Nva(naphth-1-yl)

>  <IUPAC>  (2662) 
(2S)-2-amino-5-(naphthalen-1-yl)pentanoic acid

>  <TYPE>  (2662) 
Backbone

>  <CLASS>  (2662) 
alpha

>  <ANALOG>  (2662) 
X

>  <MOL_WT>  (2662) 
243.30599999999998

>  <LOGP>  (2662) 
2.5744000000000007

>  <TPSA>  (2662) 
63.32000000000001

>  <POPULARITY>  (2662) 
4.3

>  <PROTECTED>  (2662) 
TRUE

>  <SMILES>  (2662) 
N[C@@H](CCCc1(cccc2(ccccc12)))C(=O)O

>  <INCHIKEY>  (2662) 
VPSUHGWUZRGRTF-AWEZNQCLSA-N

$$$$
Nva_pyrid3yl
     RDKit          2D

 14 14  0  0  0  0  0  0  0  0999 V2000
   -2.7125    1.8435    0.0000 N   0  0  0  0  0  0  0  0  0  0  0  0
   -2.9490    0.3623    0.0000 C   0  0  0  0  0  0  0  0  0  0  0  0
   -1.7844   -0.5831    0.0000 C   0  0  0  0  0  0  0  0  0  0  0  0
   -0.3834   -0.0473    0.0000 C   0  0  0  0  0  0  0  0  0  0  0  0
    0.7812   -0.9927    0.0000 C   0  0  0  0  0  0  0  0  0  0  0  0
    2.1822   -0.4569    0.0000 C   0  0  0  0  0  0  0  0  0  0  0  0
    2.4187    1.0244    0.0000 C   0  0  0  0  0  0  0  0  0  0  0  0
    3.8197    1.5602    0.0000 C   0  0  0  0  0  0  0  0  0  0  0  0
    4.9842    0.6148    0.0000 C   0  0  0  0  0  0  0  0  0  0  0  0
    4.7478   -0.8664    0.0000 N   0  0  0  0  0  0  0  0  0  0  0  0
    3.3467   -1.4023    0.0000 C   0  0  0  0  0  0  0  0  0  0  0  0
   -4.3500   -0.1735    0.0000 C   0  0  0  0  0  0  0  0  0  0  0  0
   -4.5865   -1.6548    0.0000 O   0  0  0  0  0  0  0  0  0  0  0  0
   -5.5146    0.7719    0.0000 O   0  0  0  0  0  0  0  0  0  0  0  0
  2  1  1  1
  2  3  1  0
  3  4  1  0
  4  5  1  0
  5  6  1  0
  6  7  2  0
  7  8  1  0
  8  9  2  0
  9 10  1  0
 10 11  2  0
  2 12  1  0
 12 13  2  0
 12 14  1  0
 11  6  1  0
M  END
>  <rName>  (2663) 
Nva_pyrid3yl

>  <PQ_SYMBOL>  (2663) 
Nva_pyrid3yl

>  <FULL_NAME>  (2663) 
(S)-2-amino-5-(pyridin-3-yl)pentanoic acid

>  <IUPAC_CONDENSED>  (2663) 
Nva(pyrid-3-yl)

>  <IUPAC>  (2663) 
(2S)-2-amino-5-(pyridin-3-yl)pentanoic acid

>  <TYPE>  (2663) 
Backbone

>  <CLASS>  (2663) 
alpha

>  <ANALOG>  (2663) 
X

>  <MOL_WT>  (2663) 
194.23399999999998

>  <LOGP>  (2663) 
0.8162

>  <TPSA>  (2663) 
76.21

>  <POPULARITY>  (2663) 
6.6

>  <PROTECTED>  (2663) 
TRUE

>  <SMILES>  (2663) 
N[C@@H](CCCc1(cccnc1))C(=O)O

>  <INCHIKEY>  (2663) 
SLPIROZVMARVRX-VIFPVBQESA-N

$$$$
Nva_vinyl
     RDKit          2D

 10  9  0  0  0  0  0  0  0  0999 V2000
   -1.4166   -1.8843    0.0000 N   0  0  0  0  0  0  0  0  0  0  0  0
   -1.4265   -0.3844    0.0000 C   0  0  0  0  0  0  0  0  0  0  0  0
   -0.1324    0.3741    0.0000 C   0  0  0  0  0  0  0  0  0  0  0  0
    1.1716   -0.3673    0.0000 C   0  0  0  0  0  0  0  0  0  0  0  0
    2.4657    0.3912    0.0000 C   0  0  0  0  0  0  0  0  0  0  0  0
    3.7696   -0.3503    0.0000 C   0  0  0  0  0  0  0  0  0  0  0  0
    5.0637    0.4082    0.0000 C   0  0  0  0  0  0  0  0  0  0  0  0
   -2.7304    0.3571    0.0000 C   0  0  0  0  0  0  0  0  0  0  0  0
   -2.7402    1.8571    0.0000 O   0  0  0  0  0  0  0  0  0  0  0  0
   -4.0245   -0.4014    0.0000 O   0  0  0  0  0  0  0  0  0  0  0  0
  2  1  1  6
  2  3  1  0
  3  4  1  0
  4  5  1  0
  5  6  1  0
  6  7  2  0
  2  8  1  0
  8  9  2  0
  8 10  1  0
M  END
>  <rName>  (2664) 
Nva_vinyl

>  <PQ_SYMBOL>  (2664) 
Nva_vinyl

>  <FULL_NAME>  (2664) 
(2S)-2-aminohept-6-enoic acid

>  <IUPAC_CONDENSED>  (2664) 
Nva(vinyl)

>  <IUPAC>  (2664) 
(2S)-2-aminohept-6-enoic acid

>  <TYPE>  (2664) 
Backbone

>  <CLASS>  (2664) 
alpha

>  <ANALOG>  (2664) 
Leu

>  <MOL_WT>  (2664) 
143.186

>  <LOGP>  (2664) 
0.7545999999999999

>  <TPSA>  (2664) 
63.32000000000001

>  <POPULARITY>  (2664) 
18.5

>  <PROTECTED>  (2664) 
TRUE

>  <SMILES>  (2664) 
N[C@@H](CCCC=C)C(=O)O

>  <INCHIKEY>  (2664) 
OOOVDVSHGOKTNT-LURJTMIESA-N

$$$$
Nvinyl-G
     RDKit          2D

  7  6  0  0  0  0  0  0  0  0999 V2000
    0.9202    0.1603    0.0000 N   0  0  0  0  0  0  0  0  0  0  0  0
    2.2602   -0.5139    0.0000 C   0  0  0  0  0  0  0  0  0  0  0  0
    3.5140    0.3095    0.0000 C   0  0  0  0  0  0  0  0  0  0  0  0
   -0.3336   -0.6631    0.0000 C   0  0  0  0  0  0  0  0  0  0  0  0
   -1.6736    0.0110    0.0000 C   0  0  0  0  0  0  0  0  0  0  0  0
   -1.7598    1.5085    0.0000 O   0  0  0  0  0  0  0  0  0  0  0  0
   -2.9274   -0.8124    0.0000 O   0  0  0  0  0  0  0  0  0  0  0  0
  1  2  1  0
  2  3  2  0
  1  4  1  0
  4  5  1  0
  5  6  2  0
  5  7  1  0
M  END
>  <rName>  (2665) 
Nvinyl-G

>  <PQ_SYMBOL>  (2665) 
Nvinyl-G

>  <FULL_NAME>  (2665) 
N-vinylglycine

>  <IUPAC_CONDENSED>  (2665) 
vinyl-Gly

>  <IUPAC>  (2665) 
2-(ethenylamino)acetic acid

>  <TYPE>  (2665) 
Backbone

>  <CLASS>  (2665) 
alpha

>  <ANALOG>  (2665) 
Gly

>  <MOL_WT>  (2665) 
101.10499999999999

>  <LOGP>  (2665) 
-0.19590000000000024

>  <TPSA>  (2665) 
49.33

>  <POPULARITY>  (2665) 
10.4

>  <PROTECTED>  (2665) 
TRUE

>  <SMILES>  (2665) 
N(C=C)CC(=O)O

>  <INCHIKEY>  (2665) 
CUHFCSMYBZBTIT-UHFFFAOYSA-N

$$$$
OBn-
     RDKit          2D

  9  9  0  0  0  0  0  0  0  0999 V2000
   -2.8217   -0.3860    0.0000 C   0  0  0  0  0  0  0  0  0  0  0  0
   -2.3984    1.0531    0.0000 C   0  0  0  0  0  0  0  0  0  0  0  0
   -0.9405    1.4059    0.0000 C   0  0  0  0  0  0  0  0  0  0  0  0
    0.0941    0.3198    0.0000 C   0  0  0  0  0  0  0  0  0  0  0  0
   -0.3293   -1.1192    0.0000 C   0  0  0  0  0  0  0  0  0  0  0  0
   -1.7872   -1.4721    0.0000 C   0  0  0  0  0  0  0  0  0  0  0  0
    1.5520    0.6727    0.0000 C   0  0  0  0  0  0  0  0  0  0  0  0
    2.5865   -0.4135    0.0000 O   0  0  0  0  0  0  0  0  0  0  0  0
    4.0444   -0.0606    0.0000 O   0  0  0  0  0  0  0  0  0  0  0  0
  1  2  2  0
  2  3  1  0
  3  4  2  0
  4  5  1  0
  5  6  2  0
  4  7  1  0
  7  8  1  0
  8  9  1  0
  6  1  1  0
M  END
>  <rName>  (2666) 
OBn-

>  <PQ_SYMBOL>  (2666) 
OBn-

>  <FULL_NAME>  (2666) 
N-Terminal phenylmethanol

>  <IUPAC_CONDENSED>  (2666) 
OBn-

>  <IUPAC>  (2666) 
(hydroperoxymethyl)benzene

>  <TYPE>  (2666) 
N-term cap

>  <CLASS>  (2666) 
n_cap

>  <ANALOG>  (2666) 
X

>  <MOL_WT>  (2666) 
124.13899999999997

>  <LOGP>  (2666) 
1.6762

>  <TPSA>  (2666) 
29.46

>  <POPULARITY>  (2666) 
14.8

>  <PROTECTED>  (2666) 
FALSE

>  <SMILES>  (2666) 
c1ccc(cc1)COO

>  <INCHIKEY>  (2666) 
YVJRCWCFDJYONJ-UHFFFAOYSA-N

$$$$
OEt
     RDKit          2D

  3  2  0  0  0  0  0  0  0  0999 V2000
   -1.2990   -0.2500    0.0000 C   0  0  0  0  0  0  0  0  0  0  0  0
    0.0000    0.5000    0.0000 C   0  0  0  0  0  0  0  0  0  0  0  0
    1.2990   -0.2500    0.0000 O   0  0  0  0  0  0  0  0  0  0  0  0
  1  2  1  0
  2  3  1  0
M  END
>  <rName>  (2667) 
OEt

>  <PQ_SYMBOL>  (2667) 
OEt

>  <FULL_NAME>  (2667) 
Ethanol

>  <IUPAC_CONDENSED>  (2667) 
OEt

>  <IUPAC>  (2667) 
ethanol

>  <TYPE>  (2667) 
C-term cap

>  <CLASS>  (2667) 
c_cap

>  <ANALOG>  (2667) 
X

>  <MOL_WT>  (2667) 
46.069

>  <LOGP>  (2667) 
-0.0014000000000000123

>  <TPSA>  (2667) 
20.23

>  <POPULARITY>  (2667) 
2.0

>  <PROTECTED>  (2667) 
FALSE

>  <SMILES>  (2667) 
CCO

>  <INCHIKEY>  (2667) 
LFQSCWFLJHTTHZ-UHFFFAOYSA-N

$$$$
OH-Gaba
     RDKit          2D

  8  7  0  0  0  0  0  0  0  0999 V2000
   -2.8948    0.4455    0.0000 N   0  0  0  0  0  0  0  0  0  0  0  0
   -4.2551   -0.1865    0.0000 O   0  0  0  0  0  0  0  0  0  0  0  0
   -1.6672   -0.4165    0.0000 C   0  0  0  0  0  0  0  0  0  0  0  0
   -0.3069    0.2155    0.0000 C   0  0  0  0  0  0  0  0  0  0  0  0
    0.9207   -0.6465    0.0000 C   0  0  0  0  0  0  0  0  0  0  0  0
    2.2810   -0.0145    0.0000 C   0  0  0  0  0  0  0  0  0  0  0  0
    2.4138    1.4796    0.0000 O   0  0  0  0  0  0  0  0  0  0  0  0
    3.5085   -0.8766    0.0000 O   0  0  0  0  0  0  0  0  0  0  0  0
  1  2  1  0
  1  3  1  0
  3  4  1  0
  4  5  1  0
  5  6  1  0
  6  7  2  0
  6  8  1  0
M  END
>  <rName>  (2668) 
OH-Gaba

>  <PQ_SYMBOL>  (2668) 
OH-Gaba

>  <FULL_NAME>  (2668) 
4-(hydroxyamino)butanoic Acid

>  <IUPAC_CONDENSED>  (2668) 
OH-Gaba

>  <IUPAC>  (2668) 
4-(hydroxyamino)butanoic acid

>  <TYPE>  (2668) 
Backbone

>  <CLASS>  (2668) 
gamma

>  <ANALOG>  (2668) 
Gly

>  <MOL_WT>  (2668) 
119.11999999999999

>  <LOGP>  (2668) 
-0.16999999999999998

>  <TPSA>  (2668) 
69.56

>  <POPULARITY>  (2668) 
2.2

>  <PROTECTED>  (2668) 
TRUE

>  <SMILES>  (2668) 
N(O)CCCC(=O)O

>  <INCHIKEY>  (2668) 
JOKBUWBIEABYKP-UHFFFAOYSA-N

$$$$
OMe-
     RDKit          2D

  3  2  0  0  0  0  0  0  0  0999 V2000
   -1.2990   -0.2500    0.0000 C   0  0  0  0  0  0  0  0  0  0  0  0
    0.0000    0.5000    0.0000 O   0  0  0  0  0  0  0  0  0  0  0  0
    1.2990   -0.2500    0.0000 O   0  0  0  0  0  0  0  0  0  0  0  0
  1  2  1  0
  2  3  1  0
M  END
>  <rName>  (2669) 
OMe-

>  <PQ_SYMBOL>  (2669) 
OMe-

>  <FULL_NAME>  (2669) 
N-Terminal methanol

>  <IUPAC_CONDENSED>  (2669) 
OMe-

>  <IUPAC>  (2669) 
hydroperoxymethane

>  <TYPE>  (2669) 
N-term cap

>  <CLASS>  (2669) 
n_cap

>  <ANALOG>  (2669) 
X

>  <MOL_WT>  (2669) 
48.041000000000004

>  <LOGP>  (2669) 
0.10580000000000006

>  <TPSA>  (2669) 
29.46

>  <POPULARITY>  (2669) 
2.0

>  <PROTECTED>  (2669) 
FALSE

>  <SMILES>  (2669) 
COO

>  <INCHIKEY>  (2669) 
MEUKEBNAABNAEX-UHFFFAOYSA-N

$$$$
Oic
     RDKit          2D

 12 13  0  0  0  0  0  0  0  0999 V2000
   -0.5689    1.2135    0.0000 N   0  0  0  0  0  0  0  0  0  0  0  0
   -1.4506   -0.0000    0.0000 C   0  0  0  0  0  0  0  0  0  0  0  0
   -0.5689   -1.2135    0.0000 C   0  0  0  0  0  0  0  0  0  0  0  0
    0.8577   -0.7500    0.0000 C   0  0  0  0  0  0  0  0  0  0  0  0
    2.1567   -1.5000    0.0000 C   0  0  0  0  0  0  0  0  0  0  0  0
    3.4557   -0.7500    0.0000 C   0  0  0  0  0  0  0  0  0  0  0  0
    3.4557    0.7500    0.0000 C   0  0  0  0  0  0  0  0  0  0  0  0
    2.1567    1.5000    0.0000 C   0  0  0  0  0  0  0  0  0  0  0  0
    0.8577    0.7500    0.0000 C   0  0  0  0  0  0  0  0  0  0  0  0
   -2.9506   -0.0000    0.0000 C   0  0  0  0  0  0  0  0  0  0  0  0
   -3.7006   -1.2990    0.0000 O   0  0  0  0  0  0  0  0  0  0  0  0
   -3.7006    1.2990    0.0000 O   0  0  0  0  0  0  0  0  0  0  0  0
  1  2  1  0
  2  3  1  0
  4  3  1  1
  4  5  1  0
  5  6  1  0
  6  7  1  0
  7  8  1  0
  9  8  1  1
  2 10  1  1
 10 11  2  0
 10 12  1  0
  9  1  1  0
  9  4  1  0
M  END
>  <rName>  (2670) 
Oic

>  <PQ_SYMBOL>  (2670) 
Oic

>  <FULL_NAME>  (2670) 
L-octahydroindole-2-carboxylic acid

>  <IUPAC_CONDENSED>  (2670) 
Oic

>  <IUPAC>  (2670) 
(1S,6S,8S)-7-azabicyclo[4.3.0]nonane-8-carboxylic acid

>  <TYPE>  (2670) 
Backbone

>  <CLASS>  (2670) 
alpha

>  <ANALOG>  (2670) 
Pro

>  <MOL_WT>  (2670) 
169.22400000000002

>  <LOGP>  (2670) 
0.9917

>  <TPSA>  (2670) 
49.33

>  <POPULARITY>  (2670) 
28.7

>  <PROTECTED>  (2670) 
TRUE

>  <SMILES>  (2670) 
N1[C@@H](C[C@@H]2(CCCC[C@H]12))C(=O)O

>  <INCHIKEY>  (2670) 
CQYBNXGHMBNGCG-FXQIFTODSA-N

$$$$
Oic_3aR_7aS
     RDKit          2D

 12 13  0  0  0  0  0  0  0  0999 V2000
   -0.5689    1.2135    0.0000 N   0  0  0  0  0  0  0  0  0  0  0  0
   -1.4506   -0.0000    0.0000 C   0  0  0  0  0  0  0  0  0  0  0  0
   -0.5689   -1.2135    0.0000 C   0  0  0  0  0  0  0  0  0  0  0  0
    0.8577   -0.7500    0.0000 C   0  0  0  0  0  0  0  0  0  0  0  0
    2.1567   -1.5000    0.0000 C   0  0  0  0  0  0  0  0  0  0  0  0
    3.4557   -0.7500    0.0000 C   0  0  0  0  0  0  0  0  0  0  0  0
    3.4557    0.7500    0.0000 C   0  0  0  0  0  0  0  0  0  0  0  0
    2.1567    1.5000    0.0000 C   0  0  0  0  0  0  0  0  0  0  0  0
    0.8577    0.7500    0.0000 C   0  0  0  0  0  0  0  0  0  0  0  0
   -2.9506   -0.0000    0.0000 C   0  0  0  0  0  0  0  0  0  0  0  0
   -3.7006   -1.2990    0.0000 O   0  0  0  0  0  0  0  0  0  0  0  0
   -3.7006    1.2990    0.0000 O   0  0  0  0  0  0  0  0  0  0  0  0
  1  2  1  0
  2  3  1  0
  4  3  1  6
  4  5  1  0
  5  6  1  0
  6  7  1  0
  7  8  1  0
  9  8  1  1
  2 10  1  1
 10 11  2  0
 10 12  1  0
  9  1  1  0
  9  4  1  0
M  END
>  <rName>  (2671) 
Oic_3aR_7aS

>  <PQ_SYMBOL>  (2671) 
Oic_3aR_7aS

>  <FULL_NAME>  (2671) 
(2S,3aR,7aS)-octahydro-1H-indole-2-carboxylic acid

>  <IUPAC_CONDENSED>  (2671) 
Oic(3aR,7aS)

>  <IUPAC>  (2671) 
(1R,6S,8S)-7-azabicyclo[4.3.0]nonane-8-carboxylic acid

>  <TYPE>  (2671) 
Backbone

>  <CLASS>  (2671) 
alpha

>  <ANALOG>  (2671) 
Pro

>  <MOL_WT>  (2671) 
169.22400000000002

>  <LOGP>  (2671) 
0.9917

>  <TPSA>  (2671) 
49.33

>  <POPULARITY>  (2671) 
6.4

>  <PROTECTED>  (2671) 
TRUE

>  <SMILES>  (2671) 
N1[C@@H](C[C@H]2(CCCC[C@H]12))C(=O)O

>  <INCHIKEY>  (2671) 
CQYBNXGHMBNGCG-CSMHCCOUSA-N

$$$$
Oic_3axi_7axi
     RDKit          2D

 12 13  0  0  0  0  0  0  0  0999 V2000
   -0.5689    1.2135    0.0000 N   0  0  0  0  0  0  0  0  0  0  0  0
   -1.4506   -0.0000    0.0000 C   0  0  0  0  0  0  0  0  0  0  0  0
   -0.5689   -1.2135    0.0000 C   0  0  0  0  0  0  0  0  0  0  0  0
    0.8577   -0.7500    0.0000 C   0  0  0  0  0  0  0  0  0  0  0  0
    2.1567   -1.5000    0.0000 C   0  0  0  0  0  0  0  0  0  0  0  0
    3.4557   -0.7500    0.0000 C   0  0  0  0  0  0  0  0  0  0  0  0
    3.4557    0.7500    0.0000 C   0  0  0  0  0  0  0  0  0  0  0  0
    2.1567    1.5000    0.0000 C   0  0  0  0  0  0  0  0  0  0  0  0
    0.8577    0.7500    0.0000 C   0  0  0  0  0  0  0  0  0  0  0  0
   -2.9506   -0.0000    0.0000 C   0  0  0  0  0  0  0  0  0  0  0  0
   -3.7006   -1.2990    0.0000 O   0  0  0  0  0  0  0  0  0  0  0  0
   -3.7006    1.2990    0.0000 O   0  0  0  0  0  0  0  0  0  0  0  0
  1  2  1  0
  2  3  1  0
  3  4  1  0
  4  5  1  0
  5  6  1  0
  6  7  1  0
  7  8  1  0
  8  9  1  0
  2 10  1  1
 10 11  2  0
 10 12  1  0
  9  4  1  0
  9  1  1  0
M  END
>  <rName>  (2672) 
Oic_3axi_7axi

>  <PQ_SYMBOL>  (2672) 
Oic_3axi_7axi

>  <FULL_NAME>  (2672) 
(2S)-Octahydroindole-2-carboxylic acid

>  <IUPAC_CONDENSED>  (2672) 
Oic(3axi,7axi)

>  <IUPAC>  (2672) 
(8S)-7-azabicyclo[4.3.0]nonane-8-carboxylic acid

>  <TYPE>  (2672) 
Backbone

>  <CLASS>  (2672) 
alpha

>  <ANALOG>  (2672) 
Pro

>  <MOL_WT>  (2672) 
169.22400000000002

>  <LOGP>  (2672) 
0.9917

>  <TPSA>  (2672) 
49.33

>  <POPULARITY>  (2672) 
9.9

>  <PROTECTED>  (2672) 
TRUE

>  <SMILES>  (2672) 
N2[C@@H](CC1(CCCCC12))C(=O)O

>  <INCHIKEY>  (2672) 
CQYBNXGHMBNGCG-RRQHEKLDSA-N

$$$$
Orn
     RDKit          2D

  9  8  0  0  0  0  0  0  0  0999 V2000
   -0.7616    1.8791    0.0000 N   0  0  0  0  0  0  0  0  0  0  0  0
   -0.8459    0.3815    0.0000 C   0  0  0  0  0  0  0  0  0  0  0  0
    0.4089   -0.4403    0.0000 C   0  0  0  0  0  0  0  0  0  0  0  0
    1.7480    0.2354    0.0000 C   0  0  0  0  0  0  0  0  0  0  0  0
    3.0029   -0.5864    0.0000 C   0  0  0  0  0  0  0  0  0  0  0  0
    4.3420    0.0894    0.0000 N   0  0  0  0  0  0  0  0  0  0  0  0
   -2.1851   -0.2943    0.0000 C   0  0  0  0  0  0  0  0  0  0  0  0
   -2.2694   -1.7919    0.0000 O   0  0  0  0  0  0  0  0  0  0  0  0
   -3.4399    0.5275    0.0000 O   0  0  0  0  0  0  0  0  0  0  0  0
  2  1  1  1
  2  3  1  0
  3  4  1  0
  4  5  1  0
  5  6  1  0
  2  7  1  0
  7  8  2  0
  7  9  1  0
M  END
>  <rName>  (2673) 
Orn

>  <PQ_SYMBOL>  (2673) 
Orn

>  <FULL_NAME>  (2673) 
L-Ornithine

>  <IUPAC_CONDENSED>  (2673) 
Orn

>  <IUPAC>  (2673) 
(2S)-2,5-diaminopentanoic acid

>  <TYPE>  (2673) 
Backbone

>  <CLASS>  (2673) 
alpha

>  <ANALOG>  (2673) 
Lys

>  <MOL_WT>  (2673) 
132.163

>  <LOGP>  (2673) 
-0.8628

>  <TPSA>  (2673) 
89.34

>  <POPULARITY>  (2673) 
58.3

>  <PROTECTED>  (2673) 
TRUE

>  <SMILES>  (2673) 
N[C@@H](CCCN)C(=O)O

>  <INCHIKEY>  (2673) 
AHLPHDHHMVZTML-BYPYZUCNSA-N

$$$$
Orn_Bz_3I
     RDKit          2D

 18 18  0  0  0  0  0  0  0  0999 V2000
   -4.7117    1.9547    0.0000 N   0  0  0  0  0  0  0  0  0  0  0  0
   -4.8152    0.4583    0.0000 C   0  0  0  0  0  0  0  0  0  0  0  0
   -3.5710   -0.3795    0.0000 C   0  0  0  0  0  0  0  0  0  0  0  0
   -2.2233    0.2791    0.0000 C   0  0  0  0  0  0  0  0  0  0  0  0
   -0.9791   -0.5588    0.0000 C   0  0  0  0  0  0  0  0  0  0  0  0
    0.3686    0.0998    0.0000 N   0  0  0  0  0  0  0  0  0  0  0  0
    1.6128   -0.7380    0.0000 C   0  0  0  0  0  0  0  0  0  0  0  0
    1.5093   -2.2345    0.0000 O   0  0  0  0  0  0  0  0  0  0  0  0
    2.9605   -0.0795    0.0000 C   0  0  0  0  0  0  0  0  0  0  0  0
    3.0640    1.4170    0.0000 C   0  0  0  0  0  0  0  0  0  0  0  0
    4.4117    2.0756    0.0000 C   0  0  0  0  0  0  0  0  0  0  0  0
    5.6559    1.2377    0.0000 C   0  0  0  0  0  0  0  0  0  0  0  0
    5.5524   -0.2587    0.0000 C   0  0  0  0  0  0  0  0  0  0  0  0
    6.7966   -1.0965    0.0000 I   0  0  0  0  0  0  0  0  0  0  0  0
    4.2047   -0.9173    0.0000 C   0  0  0  0  0  0  0  0  0  0  0  0
   -6.1629   -0.2003    0.0000 C   0  0  0  0  0  0  0  0  0  0  0  0
   -6.2663   -1.6967    0.0000 O   0  0  0  0  0  0  0  0  0  0  0  0
   -7.4070    0.6376    0.0000 O   0  0  0  0  0  0  0  0  0  0  0  0
  2  1  1  1
  2  3  1  0
  3  4  1  0
  4  5  1  0
  5  6  1  0
  6  7  1  0
  7  8  2  0
  7  9  1  0
  9 10  2  0
 10 11  1  0
 11 12  2  0
 12 13  1  0
 13 14  1  0
 13 15  2  0
  2 16  1  0
 16 17  2  0
 16 18  1  0
 15  9  1  0
M  END
>  <rName>  (2674) 
Orn_Bz_3I

>  <PQ_SYMBOL>  (2674) 
Orn_Bz_3I

>  <FULL_NAME>  (2674) 
N~5~-(3-iodobenzoyl)-L-ornithine

>  <IUPAC_CONDENSED>  (2674) 
Orn(Bz(3-I))

>  <IUPAC>  (2674) 
(2S)-2-amino-5-(3-iodophenylcarbonylamino)pentanoic acid

>  <TYPE>  (2674) 
N-term cap

>  <CLASS>  (2674) 
n_cap

>  <ANALOG>  (2674) 
X

>  <MOL_WT>  (2674) 
362.16700000000003

>  <LOGP>  (2674) 
1.2130999999999996

>  <TPSA>  (2674) 
92.42

>  <POPULARITY>  (2674) 
0.5

>  <PROTECTED>  (2674) 
FALSE

>  <SMILES>  (2674) 
N[C@@H](CCCNC(=O)c1(cccc(I)c1))C(=O)O

>  <INCHIKEY>  (2674) 
ZXXSCSOQVZWLAM-JTQLQIEISA-N

$$$$
Orn_Me
     RDKit          2D

 10  9  0  0  0  0  0  0  0  0999 V2000
   -1.4166   -1.8843    0.0000 N   0  0  0  0  0  0  0  0  0  0  0  0
   -1.4265   -0.3844    0.0000 C   0  0  0  0  0  0  0  0  0  0  0  0
   -0.1324    0.3741    0.0000 C   0  0  0  0  0  0  0  0  0  0  0  0
    1.1716   -0.3673    0.0000 C   0  0  0  0  0  0  0  0  0  0  0  0
    2.4657    0.3912    0.0000 C   0  0  0  0  0  0  0  0  0  0  0  0
    3.7696   -0.3503    0.0000 N   0  0  0  0  0  0  0  0  0  0  0  0
    5.0637    0.4082    0.0000 C   0  0  0  0  0  0  0  0  0  0  0  0
   -2.7304    0.3571    0.0000 C   0  0  0  0  0  0  0  0  0  0  0  0
   -2.7402    1.8571    0.0000 O   0  0  0  0  0  0  0  0  0  0  0  0
   -4.0245   -0.4014    0.0000 O   0  0  0  0  0  0  0  0  0  0  0  0
  2  1  1  6
  2  3  1  0
  3  4  1  0
  4  5  1  0
  5  6  1  0
  6  7  1  0
  2  8  1  0
  8  9  2  0
  8 10  1  0
M  END
>  <rName>  (2675) 
Orn_Me

>  <PQ_SYMBOL>  (2675) 
Orn_Me

>  <FULL_NAME>  (2675) 
(2S)-2-amino-5-(methylamino)pentanoic acid

>  <IUPAC_CONDENSED>  (2675) 
Orn(Me)

>  <IUPAC>  (2675) 
(2S)-2-amino-5-(methylamino)pentanoic acid

>  <TYPE>  (2675) 
Backbone

>  <CLASS>  (2675) 
alpha

>  <ANALOG>  (2675) 
Lys

>  <MOL_WT>  (2675) 
146.19

>  <LOGP>  (2675) 
-0.6021000000000001

>  <TPSA>  (2675) 
75.35

>  <POPULARITY>  (2675) 
20.2

>  <PROTECTED>  (2675) 
TRUE

>  <SMILES>  (2675) 
N[C@@H](CCCNC)C(=O)O

>  <INCHIKEY>  (2675) 
HZVXTZMGAFEVFQ-YFKPBYRVSA-N

$$$$
Orn_NH2
     RDKit          2D

 10  9  0  0  0  0  0  0  0  0999 V2000
   -1.4166    1.8843    0.0000 N   0  0  0  0  0  0  0  0  0  0  0  0
   -1.4265    0.3844    0.0000 C   0  0  0  0  0  0  0  0  0  0  0  0
   -0.1324   -0.3741    0.0000 C   0  0  0  0  0  0  0  0  0  0  0  0
    1.1716    0.3673    0.0000 C   0  0  0  0  0  0  0  0  0  0  0  0
    2.4657   -0.3912    0.0000 C   0  0  0  0  0  0  0  0  0  0  0  0
    3.7696    0.3503    0.0000 N   0  0  0  0  0  0  0  0  0  0  0  0
    5.0637   -0.4082    0.0000 N   0  0  0  0  0  0  0  0  0  0  0  0
   -2.7304   -0.3571    0.0000 C   0  0  0  0  0  0  0  0  0  0  0  0
   -2.7402   -1.8571    0.0000 O   0  0  0  0  0  0  0  0  0  0  0  0
   -4.0245    0.4014    0.0000 O   0  0  0  0  0  0  0  0  0  0  0  0
  2  1  1  1
  2  3  1  0
  3  4  1  0
  4  5  1  0
  5  6  1  0
  6  7  1  0
  2  8  1  0
  8  9  2  0
  8 10  1  0
M  END
>  <rName>  (2676) 
Orn_NH2

>  <PQ_SYMBOL>  (2676) 
Orn_NH2

>  <FULL_NAME>  (2676) 
(2S)-2-amino-5-hydrazinylpentanoic acid

>  <IUPAC_CONDENSED>  (2676) 
Orn(NH2)

>  <IUPAC>  (2676) 
(2S)-2-amino-5-hydrazinylpentanoic acid

>  <TYPE>  (2676) 
Backbone

>  <CLASS>  (2676) 
alpha

>  <ANALOG>  (2676) 
Lys

>  <MOL_WT>  (2676) 
147.17800000000003

>  <LOGP>  (2676) 
-1.3581999999999992

>  <TPSA>  (2676) 
101.36999999999999

>  <POPULARITY>  (2676) 
7.9

>  <PROTECTED>  (2676) 
TRUE

>  <SMILES>  (2676) 
N[C@@H](CCCNN)C(=O)O

>  <INCHIKEY>  (2676) 
ZPZGJLNXFKKQPI-BYPYZUCNSA-N

$$$$
Orn_OH_Ac
     RDKit          2D

 13 12  0  0  0  0  0  0  0  0999 V2000
    2.5981   -1.8462    0.0000 N   0  0  0  0  0  0  0  0  0  0  0  0
    2.5981   -0.3462    0.0000 C   0  0  0  0  0  0  0  0  0  0  0  0
    1.2990    0.4038    0.0000 C   0  0  0  0  0  0  0  0  0  0  0  0
    0.0000   -0.3462    0.0000 C   0  0  0  0  0  0  0  0  0  0  0  0
   -1.2990    0.4038    0.0000 C   0  0  0  0  0  0  0  0  0  0  0  0
   -2.5981   -0.3462    0.0000 N   0  0  0  0  0  0  0  0  0  0  0  0
   -2.5981   -1.8462    0.0000 O   0  0  0  0  0  0  0  0  0  0  0  0
   -3.8971    0.4038    0.0000 C   0  0  0  0  0  0  0  0  0  0  0  0
   -3.8971    1.9038    0.0000 O   0  0  0  0  0  0  0  0  0  0  0  0
   -5.1962   -0.3462    0.0000 C   0  0  0  0  0  0  0  0  0  0  0  0
    3.8971    0.4038    0.0000 C   0  0  0  0  0  0  0  0  0  0  0  0
    3.8971    1.9038    0.0000 O   0  0  0  0  0  0  0  0  0  0  0  0
    5.1962   -0.3462    0.0000 O   0  0  0  0  0  0  0  0  0  0  0  0
  2  1  1  1
  2  3  1  0
  3  4  1  0
  4  5  1  0
  5  6  1  0
  6  7  1  0
  6  8  1  0
  8  9  2  0
  8 10  1  0
  2 11  1  0
 11 12  2  0
 11 13  1  0
M  END
>  <rName>  (2677) 
Orn_OH_Ac

>  <PQ_SYMBOL>  (2677) 
Orn_OH_Ac

>  <FULL_NAME>  (2677) 
N-ACETYL-N-HYDROXY-L-ORNITHINE

>  <IUPAC_CONDENSED>  (2677) 
Orn(OH,Ac)

>  <IUPAC>  (2677) 
(2S)-2-amino-5-((hydroxy)(acetyl)amino)pentanoic acid

>  <TYPE>  (2677) 
Backbone

>  <CLASS>  (2677) 
alpha

>  <ANALOG>  (2677) 
Lys

>  <MOL_WT>  (2677) 
190.19899999999998

>  <LOGP>  (2677) 
-0.5838000000000001

>  <TPSA>  (2677) 
103.86

>  <POPULARITY>  (2677) 
11.6

>  <PROTECTED>  (2677) 
TRUE

>  <SMILES>  (2677) 
N[C@@H](CCCN(O)C(=O)C)C(=O)O

>  <INCHIKEY>  (2677) 
LUZHSHCYVQASCO-LURJTMIESA-N

$$$$
Orn_OH_For
     RDKit          2D

 12 11  0  0  0  0  0  0  0  0999 V2000
   -2.1532    1.8383    0.0000 N   0  0  0  0  0  0  0  0  0  0  0  0
   -2.2553    0.3418    0.0000 C   0  0  0  0  0  0  0  0  0  0  0  0
   -1.0103   -0.4949    0.0000 C   0  0  0  0  0  0  0  0  0  0  0  0
    0.3368    0.1650    0.0000 C   0  0  0  0  0  0  0  0  0  0  0  0
    1.5818   -0.6717    0.0000 C   0  0  0  0  0  0  0  0  0  0  0  0
    2.9288   -0.0119    0.0000 N   0  0  0  0  0  0  0  0  0  0  0  0
    3.0309    1.4847    0.0000 O   0  0  0  0  0  0  0  0  0  0  0  0
    4.1738   -0.8485    0.0000 C   0  0  0  0  0  0  0  0  0  0  0  0
    5.5209   -0.1887    0.0000 O   0  0  0  0  0  0  0  0  0  0  0  0
   -3.6024   -0.3181    0.0000 C   0  0  0  0  0  0  0  0  0  0  0  0
   -3.7044   -1.8146    0.0000 O   0  0  0  0  0  0  0  0  0  0  0  0
   -4.8473    0.5186    0.0000 O   0  0  0  0  0  0  0  0  0  0  0  0
  2  1  1  1
  2  3  1  0
  3  4  1  0
  4  5  1  0
  5  6  1  0
  6  7  1  0
  6  8  1  0
  8  9  2  0
  2 10  1  0
 10 11  2  0
 10 12  1  0
M  END
>  <rName>  (2678) 
Orn_OH_For

>  <PQ_SYMBOL>  (2678) 
Orn_OH_For

>  <FULL_NAME>  (2678) 
N^5^-FORMYL-N^5^-HYDROXY-L-ORNITHINE

>  <IUPAC_CONDENSED>  (2678) 
Orn(OH,For)

>  <IUPAC>  (2678) 
(2S)-2-amino-5-((formyl)(hydroxy)amino)pentanoic acid

>  <TYPE>  (2678) 
Backbone

>  <CLASS>  (2678) 
alpha

>  <ANALOG>  (2678) 
Lys

>  <MOL_WT>  (2678) 
176.172

>  <LOGP>  (2678) 
-0.9738999999999998

>  <TPSA>  (2678) 
103.86

>  <POPULARITY>  (2678) 
18.6

>  <PROTECTED>  (2678) 
TRUE

>  <SMILES>  (2678) 
N[C@@H](CCCN(O)C=O)C(=O)O

>  <INCHIKEY>  (2678) 
KORLZEIJSHHTDW-YFKPBYRVSA-N

$$$$
Orn_acetyl
     RDKit          2D

 12 11  0  0  0  0  0  0  0  0999 V2000
   -2.4617    1.9005    0.0000 N   0  0  0  0  0  0  0  0  0  0  0  0
   -2.4001    0.4018    0.0000 C   0  0  0  0  0  0  0  0  0  0  0  0
   -1.0713   -0.2943    0.0000 C   0  0  0  0  0  0  0  0  0  0  0  0
    0.1958    0.5085    0.0000 C   0  0  0  0  0  0  0  0  0  0  0  0
    1.5245   -0.1875    0.0000 C   0  0  0  0  0  0  0  0  0  0  0  0
    2.7917    0.6152    0.0000 N   0  0  0  0  0  0  0  0  0  0  0  0
    4.1204   -0.0808    0.0000 C   0  0  0  0  0  0  0  0  0  0  0  0
    4.1820   -1.5796    0.0000 O   0  0  0  0  0  0  0  0  0  0  0  0
    5.3876    0.7219    0.0000 C   0  0  0  0  0  0  0  0  0  0  0  0
   -3.6672   -0.4010    0.0000 C   0  0  0  0  0  0  0  0  0  0  0  0
   -3.6056   -1.8997    0.0000 O   0  0  0  0  0  0  0  0  0  0  0  0
   -4.9960    0.2950    0.0000 O   0  0  0  0  0  0  0  0  0  0  0  0
  2  1  1  1
  2  3  1  0
  3  4  1  0
  4  5  1  0
  5  6  1  0
  6  7  1  0
  7  8  2  0
  7  9  1  0
  2 10  1  0
 10 11  2  0
 10 12  1  0
M  END
>  <rName>  (2679) 
Orn_acetyl

>  <PQ_SYMBOL>  (2679) 
Orn_acetyl

>  <FULL_NAME>  (2679) 
N5-acetyl-L-ornithine

>  <IUPAC_CONDENSED>  (2679) 
Orn(Ac)

>  <IUPAC>  (2679) 
(2S)-2-amino-5-methylcarbonylaminopentanoic acid

>  <TYPE>  (2679) 
Backbone

>  <CLASS>  (2679) 
alpha

>  <ANALOG>  (2679) 
Lys

>  <MOL_WT>  (2679) 
174.2

>  <LOGP>  (2679) 
-0.6854000000000002

>  <TPSA>  (2679) 
92.42

>  <POPULARITY>  (2679) 
18.6

>  <PROTECTED>  (2679) 
TRUE

>  <SMILES>  (2679) 
N[C@@H](CCCNC(=O)C)C(=O)O

>  <INCHIKEY>  (2679) 
SRXKAYJJGAAOBP-LURJTMIESA-N

$$$$
Orn_b_bdiMe
     RDKit          2D

 11 10  0  0  0  0  0  0  0  0999 V2000
    1.9787    1.8164    0.0000 N   0  0  0  0  0  0  0  0  0  0  0  0
    1.1805    0.5465    0.0000 C   0  0  0  0  0  0  0  0  0  0  0  0
   -0.3185    0.6029    0.0000 C   0  0  0  0  0  0  0  0  0  0  0  0
   -0.2621    2.1018    0.0000 C   0  0  0  0  0  0  0  0  0  0  0  0
   -0.3748   -0.8961    0.0000 C   0  0  0  0  0  0  0  0  0  0  0  0
   -1.8174    0.6592    0.0000 C   0  0  0  0  0  0  0  0  0  0  0  0
   -2.6157   -0.6107    0.0000 C   0  0  0  0  0  0  0  0  0  0  0  0
   -4.1146   -0.5544    0.0000 N   0  0  0  0  0  0  0  0  0  0  0  0
    1.8811   -0.7798    0.0000 C   0  0  0  0  0  0  0  0  0  0  0  0
    1.0828   -2.0497    0.0000 O   0  0  0  0  0  0  0  0  0  0  0  0
    3.3801   -0.8362    0.0000 O   0  0  0  0  0  0  0  0  0  0  0  0
  2  1  1  6
  2  3  1  0
  3  4  1  0
  3  5  1  0
  3  6  1  0
  6  7  1  0
  7  8  1  0
  2  9  1  0
  9 10  2  0
  9 11  1  0
M  END
>  <rName>  (2680) 
Orn_b_bdiMe

>  <PQ_SYMBOL>  (2680) 
Orn_b_bdiMe

>  <FULL_NAME>  (2680) 
(2S)-2,5-diamino-3,3-dimethylpentanoic acid

>  <IUPAC_CONDENSED>  (2680) 
Orn(b,b-diMe)

>  <IUPAC>  (2680) 
(2S)-2,5-diamino-3,3-dimethylpentanoic acid

>  <TYPE>  (2680) 
Backbone

>  <CLASS>  (2680) 
alpha

>  <ANALOG>  (2680) 
Val

>  <MOL_WT>  (2680) 
160.217

>  <LOGP>  (2680) 
-0.2267000000000004

>  <TPSA>  (2680) 
89.34

>  <POPULARITY>  (2680) 
3.5

>  <PROTECTED>  (2680) 
TRUE

>  <SMILES>  (2680) 
N[C@@H](C(C)(C)CCN)C(=O)O

>  <INCHIKEY>  (2680) 
HQMDEPGMWSUDMC-RXMQYKEDSA-N

$$$$
Orn_diMe
     RDKit          2D

 11 10  0  0  0  0  0  0  0  0999 V2000
    1.6269   -1.8430    0.0000 N   0  0  0  0  0  0  0  0  0  0  0  0
    1.7489   -0.3480    0.0000 C   0  0  0  0  0  0  0  0  0  0  0  0
    0.5152    0.5052    0.0000 C   0  0  0  0  0  0  0  0  0  0  0  0
   -0.8406   -0.1366    0.0000 C   0  0  0  0  0  0  0  0  0  0  0  0
   -2.0743    0.7166    0.0000 C   0  0  0  0  0  0  0  0  0  0  0  0
   -3.4300    0.0748    0.0000 N   0  0  0  0  0  0  0  0  0  0  0  0
   -4.6637    0.9280    0.0000 C   0  0  0  0  0  0  0  0  0  0  0  0
   -3.5521   -1.4203    0.0000 C   0  0  0  0  0  0  0  0  0  0  0  0
    3.1047    0.2938    0.0000 C   0  0  0  0  0  0  0  0  0  0  0  0
    3.2267    1.7889    0.0000 O   0  0  0  0  0  0  0  0  0  0  0  0
    4.3384   -0.5594    0.0000 O   0  0  0  0  0  0  0  0  0  0  0  0
  2  1  1  1
  2  3  1  0
  3  4  1  0
  4  5  1  0
  5  6  1  0
  6  7  1  0
  6  8  1  0
  2  9  1  0
  9 10  2  0
  9 11  1  0
M  END
>  <rName>  (2681) 
Orn_diMe

>  <PQ_SYMBOL>  (2681) 
Orn_diMe

>  <FULL_NAME>  (2681) 
N5,N5-dimethyl-L-ornithine

>  <IUPAC_CONDENSED>  (2681) 
Orn(diMe)

>  <IUPAC>  (2681) 
(2S)-2-amino-5-(dimethylamino)pentanoic acid

>  <TYPE>  (2681) 
Backbone

>  <CLASS>  (2681) 
alpha

>  <ANALOG>  (2681) 
Lys

>  <MOL_WT>  (2681) 
160.217

>  <LOGP>  (2681) 
-0.2599000000000001

>  <TPSA>  (2681) 
66.56

>  <POPULARITY>  (2681) 
13.9

>  <PROTECTED>  (2681) 
TRUE

>  <SMILES>  (2681) 
N[C@@H](CCCN(C)C)C(=O)O

>  <INCHIKEY>  (2681) 
UGQZFFGZKJEVIY-LURJTMIESA-N

$$$$
Orn_iPr
     RDKit          2D

 12 11  0  0  0  0  0  0  0  0999 V2000
    2.4617    1.9005    0.0000 N   0  0  0  0  0  0  0  0  0  0  0  0
    2.4001    0.4018    0.0000 C   0  0  0  0  0  0  0  0  0  0  0  0
    1.0713   -0.2943    0.0000 C   0  0  0  0  0  0  0  0  0  0  0  0
   -0.1958    0.5085    0.0000 C   0  0  0  0  0  0  0  0  0  0  0  0
   -1.5245   -0.1875    0.0000 C   0  0  0  0  0  0  0  0  0  0  0  0
   -2.7917    0.6152    0.0000 N   0  0  0  0  0  0  0  0  0  0  0  0
   -4.1204   -0.0808    0.0000 C   0  0  0  0  0  0  0  0  0  0  0  0
   -5.3876    0.7219    0.0000 C   0  0  0  0  0  0  0  0  0  0  0  0
   -4.1820   -1.5796    0.0000 C   0  0  0  0  0  0  0  0  0  0  0  0
    3.6672   -0.4010    0.0000 C   0  0  0  0  0  0  0  0  0  0  0  0
    3.6056   -1.8997    0.0000 O   0  0  0  0  0  0  0  0  0  0  0  0
    4.9960    0.2950    0.0000 O   0  0  0  0  0  0  0  0  0  0  0  0
  2  1  1  6
  2  3  1  0
  3  4  1  0
  4  5  1  0
  5  6  1  0
  6  7  1  0
  7  8  1  0
  7  9  1  0
  2 10  1  0
 10 11  2  0
 10 12  1  0
M  END
>  <rName>  (2682) 
Orn_iPr

>  <PQ_SYMBOL>  (2682) 
Orn_iPr

>  <FULL_NAME>  (2682) 
(2S)-2-amino-5-(propan-2-ylamino)pentanoic acid

>  <IUPAC_CONDENSED>  (2682) 
Orn(iPr)

>  <IUPAC>  (2682) 
(2S)-2-amino-5-((propan-2-yl)amino)pentanoic acid

>  <TYPE>  (2682) 
Backbone

>  <CLASS>  (2682) 
alpha

>  <ANALOG>  (2682) 
Lys

>  <MOL_WT>  (2682) 
174.24399999999997

>  <LOGP>  (2682) 
0.17649999999999982

>  <TPSA>  (2682) 
75.35

>  <POPULARITY>  (2682) 
19.0

>  <PROTECTED>  (2682) 
TRUE

>  <SMILES>  (2682) 
N[C@@H](CCCNC(C)C)C(=O)O

>  <INCHIKEY>  (2682) 
KXBQTFLKZZFJMZ-ZETCQYMHSA-N

$$$$
Orn_palmitoyl
     RDKit          2D

 26 25  0  0  0  0  0  0  0  0999 V2000
   10.5319   -1.9880    0.0000 N   0  0  0  0  0  0  0  0  0  0  0  0
   10.5398   -0.4880    0.0000 C   0  0  0  0  0  0  0  0  0  0  0  0
    9.2447    0.2688    0.0000 C   0  0  0  0  0  0  0  0  0  0  0  0
    7.9417   -0.4744    0.0000 C   0  0  0  0  0  0  0  0  0  0  0  0
    6.6467    0.2824    0.0000 C   0  0  0  0  0  0  0  0  0  0  0  0
    5.3437   -0.4607    0.0000 N   0  0  0  0  0  0  0  0  0  0  0  0
    4.0486    0.2961    0.0000 C   0  0  0  0  0  0  0  0  0  0  0  0
    4.0565    1.7960    0.0000 O   0  0  0  0  0  0  0  0  0  0  0  0
    2.7457   -0.4471    0.0000 C   0  0  0  0  0  0  0  0  0  0  0  0
    1.4506    0.3097    0.0000 C   0  0  0  0  0  0  0  0  0  0  0  0
    0.1476   -0.4335    0.0000 C   0  0  0  0  0  0  0  0  0  0  0  0
   -1.1475    0.3233    0.0000 C   0  0  0  0  0  0  0  0  0  0  0  0
   -2.4504   -0.4198    0.0000 C   0  0  0  0  0  0  0  0  0  0  0  0
   -3.7455    0.3370    0.0000 C   0  0  0  0  0  0  0  0  0  0  0  0
   -5.0485   -0.4062    0.0000 C   0  0  0  0  0  0  0  0  0  0  0  0
   -6.3435    0.3506    0.0000 C   0  0  0  0  0  0  0  0  0  0  0  0
   -7.6465   -0.3926    0.0000 C   0  0  0  0  0  0  0  0  0  0  0  0
   -8.9416    0.3642    0.0000 C   0  0  0  0  0  0  0  0  0  0  0  0
  -10.2445   -0.3789    0.0000 C   0  0  0  0  0  0  0  0  0  0  0  0
  -11.5396    0.3779    0.0000 C   0  0  0  0  0  0  0  0  0  0  0  0
  -12.8426   -0.3653    0.0000 C   0  0  0  0  0  0  0  0  0  0  0  0
  -14.1377    0.3915    0.0000 C   0  0  0  0  0  0  0  0  0  0  0  0
  -15.4406   -0.3517    0.0000 C   0  0  0  0  0  0  0  0  0  0  0  0
   11.8427    0.2552    0.0000 C   0  0  0  0  0  0  0  0  0  0  0  0
   11.8506    1.7551    0.0000 O   0  0  0  0  0  0  0  0  0  0  0  0
   13.1378   -0.5016    0.0000 O   0  0  0  0  0  0  0  0  0  0  0  0
  2  1  1  1
  2  3  1  0
  3  4  1  0
  4  5  1  0
  5  6  1  0
  6  7  1  0
  7  8  2  0
  7  9  1  0
  9 10  1  0
 10 11  1  0
 11 12  1  0
 12 13  1  0
 13 14  1  0
 14 15  1  0
 15 16  1  0
 16 17  1  0
 17 18  1  0
 18 19  1  0
 19 20  1  0
 20 21  1  0
 21 22  1  0
 22 23  1  0
  2 24  1  0
 24 25  2  0
 24 26  1  0
M  END
>  <rName>  (2683) 
Orn_palmitoyl

>  <PQ_SYMBOL>  (2683) 
Orn_palmitoyl

>  <FULL_NAME>  (2683) 
(2S)-2-amino-5-(hexadecanoylamino)pentanoic acid

>  <IUPAC_CONDENSED>  (2683) 
Orn(palmitoyl)

>  <IUPAC>  (2683) 
(2S)-2-amino-5-(hexadecanoylamino)pentanoic acid

>  <TYPE>  (2683) 
Backbone

>  <CLASS>  (2683) 
alpha

>  <ANALOG>  (2683) 
Lys

>  <MOL_WT>  (2683) 
370.5780000000001

>  <LOGP>  (2683) 
4.776000000000003

>  <TPSA>  (2683) 
92.42

>  <POPULARITY>  (2683) 
3.5

>  <PROTECTED>  (2683) 
TRUE

>  <SMILES>  (2683) 
N[C@@H](CCCNC(=O)CCCCCCCCCCCCCCC)C(=O)O

>  <INCHIKEY>  (2683) 
WBINZUXJGSJGPL-IBGZPJMESA-N

$$$$
Orn_pyrazinoyl
     RDKit          2D

 17 17  0  0  0  0  0  0  0  0999 V2000
   -4.2597    2.0050    0.0000 N   0  0  0  0  0  0  0  0  0  0  0  0
   -4.4032    0.5119    0.0000 C   0  0  0  0  0  0  0  0  0  0  0  0
   -3.1819   -0.3590    0.0000 C   0  0  0  0  0  0  0  0  0  0  0  0
   -1.8171    0.2633    0.0000 C   0  0  0  0  0  0  0  0  0  0  0  0
   -0.5958   -0.6075    0.0000 C   0  0  0  0  0  0  0  0  0  0  0  0
    0.7691    0.0147    0.0000 N   0  0  0  0  0  0  0  0  0  0  0  0
    1.9904   -0.8561    0.0000 C   0  0  0  0  0  0  0  0  0  0  0  0
    1.8469   -2.3493    0.0000 O   0  0  0  0  0  0  0  0  0  0  0  0
    3.3552   -0.2339    0.0000 C   0  0  0  0  0  0  0  0  0  0  0  0
    3.4988    1.2593    0.0000 C   0  0  0  0  0  0  0  0  0  0  0  0
    4.8636    1.8815    0.0000 N   0  0  0  0  0  0  0  0  0  0  0  0
    6.0849    1.0107    0.0000 C   0  0  0  0  0  0  0  0  0  0  0  0
    5.9414   -0.4824    0.0000 C   0  0  0  0  0  0  0  0  0  0  0  0
    4.5766   -1.1047    0.0000 N   0  0  0  0  0  0  0  0  0  0  0  0
   -5.7681   -0.1104    0.0000 C   0  0  0  0  0  0  0  0  0  0  0  0
   -5.9116   -1.6035    0.0000 O   0  0  0  0  0  0  0  0  0  0  0  0
   -6.9894    0.7605    0.0000 O   0  0  0  0  0  0  0  0  0  0  0  0
  2  1  1  1
  2  3  1  0
  3  4  1  0
  4  5  1  0
  5  6  1  0
  6  7  1  0
  7  8  2  0
  7  9  1  0
  9 10  1  0
 10 11  2  0
 11 12  1  0
 12 13  2  0
 13 14  1  0
  2 15  1  0
 15 16  2  0
 15 17  1  0
 14  9  2  0
M  END
>  <rName>  (2684) 
Orn_pyrazinoyl

>  <PQ_SYMBOL>  (2684) 
Orn_pyrazinoyl

>  <FULL_NAME>  (2684) 
N~5~-(pyrazin-2-ylcarbonyl)-L-ornithine

>  <IUPAC_CONDENSED>  (2684) 
Orn(pyrazinoyl)

>  <IUPAC>  (2684) 
(2S)-2-amino-5-(pyrazin-2-ylcarbonylamino)pentanoic acid

>  <TYPE>  (2684) 
Backbone

>  <CLASS>  (2684) 
alpha

>  <ANALOG>  (2684) 
Lys

>  <MOL_WT>  (2684) 
238.247

>  <LOGP>  (2684) 
-0.6015000000000006

>  <TPSA>  (2684) 
118.2

>  <POPULARITY>  (2684) 
11.0

>  <PROTECTED>  (2684) 
TRUE

>  <SMILES>  (2684) 
N[C@@H](CCCNC(=O)c1(cnccn1))C(=O)O

>  <INCHIKEY>  (2684) 
GJGIGJGNECGMMN-ZETCQYMHSA-N

$$$$
Orn_pyrimid2yl_46diMe_5OH
     RDKit          2D

 18 18  0  0  0  0  0  0  0  0999 V2000
   -4.9640   -1.8345    0.0000 N   0  0  0  0  0  0  0  0  0  0  0  0
   -4.7310   -0.3527    0.0000 C   0  0  0  0  0  0  0  0  0  0  0  0
   -3.3312    0.1864    0.0000 C   0  0  0  0  0  0  0  0  0  0  0  0
   -2.1645   -0.7563    0.0000 C   0  0  0  0  0  0  0  0  0  0  0  0
   -0.7647   -0.2172    0.0000 C   0  0  0  0  0  0  0  0  0  0  0  0
    0.4021   -1.1599    0.0000 N   0  0  0  0  0  0  0  0  0  0  0  0
    1.8018   -0.6207    0.0000 C   0  0  0  0  0  0  0  0  0  0  0  0
    2.0348    0.8610    0.0000 N   0  0  0  0  0  0  0  0  0  0  0  0
    3.4346    1.4002    0.0000 C   0  0  0  0  0  0  0  0  0  0  0  0
    3.6676    2.8820    0.0000 C   0  0  0  0  0  0  0  0  0  0  0  0
    4.6014    0.4575    0.0000 C   0  0  0  0  0  0  0  0  0  0  0  0
    6.0011    0.9966    0.0000 O   0  0  0  0  0  0  0  0  0  0  0  0
    4.3684   -1.0243    0.0000 C   0  0  0  0  0  0  0  0  0  0  0  0
    5.5352   -1.9670    0.0000 C   0  0  0  0  0  0  0  0  0  0  0  0
    2.9686   -1.5634    0.0000 N   0  0  0  0  0  0  0  0  0  0  0  0
   -5.8978    0.5899    0.0000 C   0  0  0  0  0  0  0  0  0  0  0  0
   -5.6648    2.0717    0.0000 O   0  0  0  0  0  0  0  0  0  0  0  0
   -7.2976    0.0508    0.0000 O   0  0  0  0  0  0  0  0  0  0  0  0
  2  1  1  6
  2  3  1  0
  3  4  1  0
  4  5  1  0
  5  6  1  0
  6  7  1  0
  7  8  2  0
  8  9  1  0
  9 10  1  0
  9 11  2  0
 11 12  1  0
 11 13  1  0
 13 14  1  0
 13 15  2  0
  2 16  1  0
 16 17  2  0
 16 18  1  0
 15  7  1  0
M  END
>  <rName>  (2685) 
Orn_pyrimid2yl_46diMe_5OH

>  <PQ_SYMBOL>  (2685) 
Orn_pyrimid2yl_46diMe_5OH

>  <FULL_NAME>  (2685) 
Argpyrimidine

>  <IUPAC_CONDENSED>  (2685) 
Orn(pyrimid-2-yl(4,6-diMe,5-OH))

>  <IUPAC>  (2685) 
(2S)-2-amino-5-[(5-hydroxy-4,6-dimethylpyrimidin-2-yl)amino]pentanoic acid

>  <TYPE>  (2685) 
Backbone

>  <CLASS>  (2685) 
alpha

>  <ANALOG>  (2685) 
Lys

>  <MOL_WT>  (2685) 
254.29

>  <LOGP>  (2685) 
0.4030399999999997

>  <TPSA>  (2685) 
121.36

>  <POPULARITY>  (2685) 
2.2

>  <PROTECTED>  (2685) 
TRUE

>  <SMILES>  (2685) 
N[C@@H](CCCNc1(nc(C)c(O)c(C)n1))C(=O)O

>  <INCHIKEY>  (2685) 
DCPBQSFZQHFSMR-QMMMGPOBSA-N

$$$$
OtBu
     RDKit          2D

  5  4  0  0  0  0  0  0  0  0999 V2000
   -1.2990   -0.7500    0.0000 C   0  0  0  0  0  0  0  0  0  0  0  0
    0.0000   -0.0000    0.0000 C   0  0  0  0  0  0  0  0  0  0  0  0
    1.2990    0.7500    0.0000 C   0  0  0  0  0  0  0  0  0  0  0  0
    0.7500   -1.2990    0.0000 C   0  0  0  0  0  0  0  0  0  0  0  0
   -0.7500    1.2990    0.0000 O   0  0  0  0  0  0  0  0  0  0  0  0
  1  2  1  0
  2  3  1  0
  2  4  1  0
  2  5  1  0
M  END
>  <rName>  (2686) 
OtBu

>  <PQ_SYMBOL>  (2686) 
OtBu

>  <FULL_NAME>  (2686) 
O-tert-Butyl

>  <IUPAC_CONDENSED>  (2686) 
OtBu

>  <IUPAC>  (2686) 
2-methylpropan-2-ol

>  <TYPE>  (2686) 
C-term cap

>  <CLASS>  (2686) 
c_cap

>  <ANALOG>  (2686) 
X

>  <MOL_WT>  (2686) 
74.12299999999999

>  <LOGP>  (2686) 
0.7771999999999999

>  <TPSA>  (2686) 
20.23

>  <POPULARITY>  (2686) 
15.0

>  <PROTECTED>  (2686) 
FALSE

>  <SMILES>  (2686) 
CC(C)(C)O

>  <INCHIKEY>  (2686) 
DKGAVHZHDRPRBM-UHFFFAOYSA-N

$$$$
P
     RDKit          2D

  8  8  0  0  0  0  0  0  0  0999 V2000
   -0.8342   -1.2135    0.0000 N   0  0  0  0  0  0  0  0  0  0  0  0
    0.0475   -0.0000    0.0000 C   0  0  0  0  0  0  0  0  0  0  0  0
   -0.8342    1.2135    0.0000 C   0  0  0  0  0  0  0  0  0  0  0  0
   -2.2608    0.7500    0.0000 C   0  0  0  0  0  0  0  0  0  0  0  0
   -2.2608   -0.7500    0.0000 C   0  0  0  0  0  0  0  0  0  0  0  0
    1.5475    0.0000    0.0000 C   0  0  0  0  0  0  0  0  0  0  0  0
    2.2975    1.2990    0.0000 O   0  0  0  0  0  0  0  0  0  0  0  0
    2.2975   -1.2990    0.0000 O   0  0  0  0  0  0  0  0  0  0  0  0
  1  2  1  0
  2  3  1  0
  3  4  1  0
  4  5  1  0
  2  6  1  1
  6  7  2  0
  6  8  1  0
  5  1  1  0
M  END
>  <rName>  (2687) 
P

>  <PQ_SYMBOL>  (2687) 
P

>  <FULL_NAME>  (2687) 
L-Proline

>  <IUPAC_CONDENSED>  (2687) 
Pro

>  <IUPAC>  (2687) 
(2S)-pyrrolidine-2-carboxylic acid

>  <TYPE>  (2687) 
Backbone

>  <CLASS>  (2687) 
alpha

>  <ANALOG>  (2687) 
Pro

>  <MOL_WT>  (2687) 
115.13199999999999

>  <LOGP>  (2687) 
-0.17700000000000032

>  <TPSA>  (2687) 
49.33

>  <POPULARITY>  (2687) 
98.3

>  <PROTECTED>  (2687) 
TRUE

>  <SMILES>  (2687) 
N1[C@@H](CCC1)C(=O)O

>  <INCHIKEY>  (2687) 
ONIBWKKTOPOVIA-BYPYZUCNSA-N

$$$$
PLP-Ala
     RDKit          2D

 21 21  0  0  0  0  0  0  0  0999 V2000
   -2.7593   -2.2692    0.0000 O   0  0  0  0  0  0  0  0  0  0  0  0
   -4.0508   -1.5064    0.0000 P   0  0  0  0  0  0  0  0  0  0  0  0
   -5.3424   -0.7436    0.0000 O   0  0  0  0  0  0  0  0  0  0  0  0
   -4.8137   -2.7980    0.0000 O   0  0  0  0  0  0  0  0  0  0  0  0
   -3.2880   -0.2149    0.0000 O   0  0  0  0  0  0  0  0  0  0  0  0
   -1.7881   -0.2297    0.0000 C   0  0  0  0  0  0  0  0  0  0  0  0
   -1.0252    1.0618    0.0000 C   0  0  0  0  0  0  0  0  0  0  0  0
   -1.7623    2.3682    0.0000 C   0  0  0  0  0  0  0  0  0  0  0  0
   -0.9995    3.6598    0.0000 N   0  0  0  0  0  0  0  0  0  0  0  0
    0.5004    3.6449    0.0000 C   0  0  0  0  0  0  0  0  0  0  0  0
    1.2633    4.9364    0.0000 C   0  0  0  0  0  0  0  0  0  0  0  0
    1.2375    2.3385    0.0000 C   0  0  0  0  0  0  0  0  0  0  0  0
    2.7374    2.3236    0.0000 O   0  0  0  0  0  0  0  0  0  0  0  0
    0.4747    1.0470    0.0000 C   0  0  0  0  0  0  0  0  0  0  0  0
    1.2118   -0.2595    0.0000 C   0  0  0  0  0  0  0  0  0  0  0  0
    2.7117   -0.2743    0.0000 N   0  0  0  0  0  0  0  0  0  0  0  0
    3.4488   -1.5807    0.0000 C   0  0  0  0  0  0  0  0  0  0  0  0
    4.9487   -1.5956    0.0000 C   0  0  0  0  0  0  0  0  0  0  0  0
    2.6860   -2.8723    0.0000 C   0  0  0  0  0  0  0  0  0  0  0  0
    1.1860   -2.8574    0.0000 O   0  0  0  0  0  0  0  0  0  0  0  0
    3.4231   -4.1787    0.0000 O   0  0  0  0  0  0  0  0  0  0  0  0
  1  2  1  0
  2  3  2  0
  2  4  1  0
  2  5  1  0
  5  6  1  0
  6  7  1  0
  7  8  1  0
  8  9  2  0
  9 10  1  0
 10 11  1  0
 10 12  2  0
 12 13  1  0
 12 14  1  0
 14 15  1  0
 15 16  2  0
 16 17  1  0
 17 18  1  1
 17 19  1  0
 19 20  2  0
 19 21  1  0
 14  7  2  0
M  END
>  <rName>  (2688) 
PLP-Ala

>  <PQ_SYMBOL>  (2688) 
PLP-Ala

>  <FULL_NAME>  (2688) 
(E)-N-({3-hydroxy-2-methyl-5-[(phosphonooxy)methyl]pyridin-4-yl}methylidene)-L-alanine

>  <IUPAC_CONDENSED>  (2688) 
PLP-Ala

>  <IUPAC>  (2688) 
(5-hydroxy-4-((1E)-(((2S)-1-hydroxy-1-oxopropan-2-yl)imino)methyl)-6-methylpyridin-3-yl)methyl dihydrogen phosphate

>  <TYPE>  (2688) 
N-term cap

>  <CLASS>  (2688) 
n_cap

>  <ANALOG>  (2688) 
X

>  <MOL_WT>  (2688) 
318.2220000000001

>  <LOGP>  (2688) 
0.5969199999999999

>  <TPSA>  (2688) 
149.54

>  <POPULARITY>  (2688) 
8.6

>  <PROTECTED>  (2688) 
FALSE

>  <SMILES>  (2688) 
OP(=O)(O)OCc1cnc(C)c(O)c1/C=N/[C@@H](C)C(=O)O

>  <INCHIKEY>  (2688) 
UPOKXKNJCNHZTH-ASMSWWRESA-N

$$$$
PO3H2-Thr
     RDKit          2D

 12 11  0  0  0  0  0  0  0  0999 V2000
   -0.5701    1.0473    0.0000 N   0  0  0  0  0  0  0  0  0  0  0  0
   -1.9233    0.4001    0.0000 P   0  0  0  0  0  0  0  0  0  0  0  0
   -3.2766   -0.2470    0.0000 O   0  0  0  0  0  0  0  0  0  0  0  0
   -2.5705    1.7533    0.0000 O   0  0  0  0  0  0  0  0  0  0  0  0
   -1.2762   -0.9531    0.0000 O   0  0  0  0  0  0  0  0  0  0  0  0
    0.6669    0.1990    0.0000 C   0  0  0  0  0  0  0  0  0  0  0  0
    2.0201    0.8461    0.0000 C   0  0  0  0  0  0  0  0  0  0  0  0
    3.2572   -0.0022    0.0000 O   0  0  0  0  0  0  0  0  0  0  0  0
    2.1363    2.3416    0.0000 C   0  0  0  0  0  0  0  0  0  0  0  0
    0.5508   -1.2965    0.0000 C   0  0  0  0  0  0  0  0  0  0  0  0
    1.7878   -2.1449    0.0000 O   0  0  0  0  0  0  0  0  0  0  0  0
   -0.8024   -1.9437    0.0000 O   0  0  0  0  0  0  0  0  0  0  0  0
  1  2  1  0
  2  3  2  0
  2  4  1  0
  2  5  1  0
  6  1  1  1
  6  7  1  0
  7  8  1  0
  7  9  1  1
  6 10  1  0
 10 11  2  0
 10 12  1  0
M  END
>  <rName>  (2689) 
PO3H2-Thr

>  <PQ_SYMBOL>  (2689) 
PO3H2-Thr

>  <FULL_NAME>  (2689) 
(2S,3R)-3-hydroxy-2-(phosphonoamino)butanoic acid

>  <IUPAC_CONDENSED>  (2689) 
PO3H2-Thr

>  <IUPAC>  (2689) 
(2S,3R)-3-hydroxy-2-(phosphonoamino)butanoic acid

>  <TYPE>  (2689) 
Backbone

>  <CLASS>  (2689) 
alpha

>  <ANALOG>  (2689) 
Thr

>  <MOL_WT>  (2689) 
199.099

>  <LOGP>  (2689) 
-1.4973000000000005

>  <TPSA>  (2689) 
127.09000000000002

>  <POPULARITY>  (2689) 
2.2

>  <PROTECTED>  (2689) 
TRUE

>  <SMILES>  (2689) 
N(P(=O)(O)O)[C@@H]([C@H](O)C)C(=O)O

>  <INCHIKEY>  (2689) 
WOMRKRKLDNFOTH-GBXIJSLDSA-N

$$$$
Pen
     RDKit          2D

  9  8  0  0  0  0  0  0  0  0999 V2000
   -0.1862    2.0800    0.0000 N   0  0  0  0  0  0  0  0  0  0  0  0
   -0.1560    0.5803    0.0000 C   0  0  0  0  0  0  0  0  0  0  0  0
    1.1578   -0.1434    0.0000 C   0  0  0  0  0  0  0  0  0  0  0  0
    1.8815    1.1705    0.0000 C   0  0  0  0  0  0  0  0  0  0  0  0
    0.4341   -1.4573    0.0000 C   0  0  0  0  0  0  0  0  0  0  0  0
    2.4717   -0.8671    0.0000 S   0  0  0  0  0  0  0  0  0  0  0  0
   -1.4397   -0.1957    0.0000 C   0  0  0  0  0  0  0  0  0  0  0  0
   -1.4095   -1.6954    0.0000 O   0  0  0  0  0  0  0  0  0  0  0  0
   -2.7536    0.5280    0.0000 O   0  0  0  0  0  0  0  0  0  0  0  0
  2  1  1  1
  2  3  1  0
  3  4  1  0
  3  5  1  0
  3  6  1  0
  2  7  1  0
  7  8  2  0
  7  9  1  0
M  END
>  <rName>  (2690) 
Pen

>  <PQ_SYMBOL>  (2690) 
Pen

>  <FULL_NAME>  (2690) 
L-Penicillamine

>  <IUPAC_CONDENSED>  (2690) 
Pen

>  <IUPAC>  (2690) 
(2R)-2-amino-3-methyl-3-sulfanylbutanoic acid

>  <TYPE>  (2690) 
Backbone

>  <CLASS>  (2690) 
alpha

>  <ANALOG>  (2690) 
Val

>  <MOL_WT>  (2690) 
149.215

>  <LOGP>  (2690) 
0.1066999999999998

>  <TPSA>  (2690) 
63.32000000000001

>  <POPULARITY>  (2690) 
38.5

>  <PROTECTED>  (2690) 
TRUE

>  <SMILES>  (2690) 
N[C@@H](C(C)(C)S)C(=O)O

>  <INCHIKEY>  (2690) 
VVNCNSJFMMFHPL-GSVOUGTGSA-N

$$$$
Ph
     RDKit          2D

  6  6  0  0  0  0  0  0  0  0999 V2000
    1.5000    0.0000    0.0000 C   0  0  0  0  0  0  0  0  0  0  0  0
    0.7500   -1.2990    0.0000 C   0  0  0  0  0  0  0  0  0  0  0  0
   -0.7500   -1.2990    0.0000 C   0  0  0  0  0  0  0  0  0  0  0  0
   -1.5000    0.0000    0.0000 C   0  0  0  0  0  0  0  0  0  0  0  0
   -0.7500    1.2990    0.0000 C   0  0  0  0  0  0  0  0  0  0  0  0
    0.7500    1.2990    0.0000 C   0  0  0  0  0  0  0  0  0  0  0  0
  1  2  1  0
  2  3  2  0
  3  4  1  0
  4  5  2  0
  5  6  1  0
  6  1  2  0
M  END
>  <rName>  (2691) 
Ph

>  <PQ_SYMBOL>  (2691) 
Ph

>  <FULL_NAME>  (2691) 
Phenyl

>  <IUPAC_CONDENSED>  (2691) 
Ph

>  <IUPAC>  (2691) 
benzene

>  <TYPE>  (2691) 
C-term cap

>  <CLASS>  (2691) 
c_cap

>  <ANALOG>  (2691) 
X

>  <MOL_WT>  (2691) 
78.11399999999999

>  <LOGP>  (2691) 
1.6866

>  <TPSA>  (2691) 
0.0

>  <POPULARITY>  (2691) 
15.0

>  <PROTECTED>  (2691) 
FALSE

>  <SMILES>  (2691) 
c1ccccc1

>  <INCHIKEY>  (2691) 
UHOVQNZJYSORNB-UHFFFAOYSA-N

$$$$
Ph2-Me-bAla
     RDKit          2D

 13 13  0  0  0  0  0  0  0  0999 V2000
   -0.1485   -0.8584    0.0000 N   0  0  0  0  0  0  0  0  0  0  0  0
    1.1907   -0.1827    0.0000 C   0  0  0  0  0  0  0  0  0  0  0  0
    1.2751    1.3149    0.0000 C   0  0  0  0  0  0  0  0  0  0  0  0
    2.6143    1.9906    0.0000 C   0  0  0  0  0  0  0  0  0  0  0  0
    3.8691    1.1687    0.0000 C   0  0  0  0  0  0  0  0  0  0  0  0
    3.7847   -0.3289    0.0000 C   0  0  0  0  0  0  0  0  0  0  0  0
    2.4455   -1.0046    0.0000 C   0  0  0  0  0  0  0  0  0  0  0  0
    2.3611   -2.5022    0.0000 C   0  0  0  0  0  0  0  0  0  0  0  0
   -1.4032   -0.0365    0.0000 C   0  0  0  0  0  0  0  0  0  0  0  0
   -2.7424   -0.7122    0.0000 C   0  0  0  0  0  0  0  0  0  0  0  0
   -3.9972    0.1097    0.0000 C   0  0  0  0  0  0  0  0  0  0  0  0
   -3.9128    1.6074    0.0000 O   0  0  0  0  0  0  0  0  0  0  0  0
   -5.3364   -0.5660    0.0000 O   0  0  0  0  0  0  0  0  0  0  0  0
  1  2  1  0
  2  3  2  0
  3  4  1  0
  4  5  2  0
  5  6  1  0
  6  7  2  0
  7  8  1  0
  1  9  1  0
  9 10  1  0
 10 11  1  0
 11 12  2  0
 11 13  1  0
  7  2  1  0
M  END
>  <rName>  (2692) 
Ph2-Me-bAla

>  <PQ_SYMBOL>  (2692) 
Ph2-Me-bAla

>  <FULL_NAME>  (2692) 
3-[(2-Methylphenyl)amino]propanoic acid

>  <IUPAC_CONDENSED>  (2692) 
Ph(2-Me)-bAla

>  <IUPAC>  (2692) 
3-((2-methylphenyl)amino)propanoic acid

>  <TYPE>  (2692) 
Backbone

>  <CLASS>  (2692) 
beta

>  <ANALOG>  (2692) 
Gly

>  <MOL_WT>  (2692) 
179.21899999999997

>  <LOGP>  (2692) 
1.8816199999999998

>  <TPSA>  (2692) 
49.33

>  <POPULARITY>  (2692) 
13.3

>  <PROTECTED>  (2692) 
TRUE

>  <SMILES>  (2692) 
N(c1(ccccc1C))CCC(=O)O

>  <INCHIKEY>  (2692) 
HCXWJUKTMCSHFJ-UHFFFAOYSA-N

$$$$
Ph4-Me-bAla
     RDKit          2D

 13 13  0  0  0  0  0  0  0  0999 V2000
   -0.4997   -1.1437    0.0000 N   0  0  0  0  0  0  0  0  0  0  0  0
    0.9072   -0.6234    0.0000 C   0  0  0  0  0  0  0  0  0  0  0  0
    1.1600    0.8552    0.0000 C   0  0  0  0  0  0  0  0  0  0  0  0
    2.5669    1.3755    0.0000 C   0  0  0  0  0  0  0  0  0  0  0  0
    3.7209    0.4173    0.0000 C   0  0  0  0  0  0  0  0  0  0  0  0
    5.1278    0.9376    0.0000 C   0  0  0  0  0  0  0  0  0  0  0  0
    3.4681   -1.0612    0.0000 C   0  0  0  0  0  0  0  0  0  0  0  0
    2.0612   -1.5816    0.0000 C   0  0  0  0  0  0  0  0  0  0  0  0
   -1.6537   -0.1855    0.0000 C   0  0  0  0  0  0  0  0  0  0  0  0
   -3.0606   -0.7058    0.0000 C   0  0  0  0  0  0  0  0  0  0  0  0
   -4.2146    0.2524    0.0000 C   0  0  0  0  0  0  0  0  0  0  0  0
   -3.9618    1.7310    0.0000 O   0  0  0  0  0  0  0  0  0  0  0  0
   -5.6215   -0.2679    0.0000 O   0  0  0  0  0  0  0  0  0  0  0  0
  1  2  1  0
  2  3  1  0
  3  4  2  0
  4  5  1  0
  5  6  1  0
  5  7  2  0
  7  8  1  0
  1  9  1  0
  9 10  1  0
 10 11  1  0
 11 12  2  0
 11 13  1  0
  8  2  2  0
M  END
>  <rName>  (2693) 
Ph4-Me-bAla

>  <PQ_SYMBOL>  (2693) 
Ph4-Me-bAla

>  <FULL_NAME>  (2693) 
3-p-Tolylamino-propionic acid

>  <IUPAC_CONDENSED>  (2693) 
Ph(4-Me)-bAla

>  <IUPAC>  (2693) 
3-((4-methylphenyl)amino)propanoic acid

>  <TYPE>  (2693) 
Backbone

>  <CLASS>  (2693) 
beta

>  <ANALOG>  (2693) 
Gly

>  <MOL_WT>  (2693) 
179.21899999999997

>  <LOGP>  (2693) 
1.8816199999999998

>  <TPSA>  (2693) 
49.33

>  <POPULARITY>  (2693) 
12.7

>  <PROTECTED>  (2693) 
TRUE

>  <SMILES>  (2693) 
N(c1(ccc(C)cc1))CCC(=O)O

>  <INCHIKEY>  (2693) 
RPXQLBYEQLJBTB-UHFFFAOYSA-N

$$$$
PhNHCO-Val
     RDKit          2D

 17 17  0  0  0  0  0  0  0  0999 V2000
   -5.2667   -0.6190    0.0000 C   0  0  0  0  0  0  0  0  0  0  0  0
   -5.1408    0.8757    0.0000 C   0  0  0  0  0  0  0  0  0  0  0  0
   -3.7834    1.5140    0.0000 C   0  0  0  0  0  0  0  0  0  0  0  0
   -2.5519    0.6577    0.0000 C   0  0  0  0  0  0  0  0  0  0  0  0
   -2.6778   -0.8371    0.0000 C   0  0  0  0  0  0  0  0  0  0  0  0
   -4.0352   -1.4754    0.0000 C   0  0  0  0  0  0  0  0  0  0  0  0
   -1.1945    1.2960    0.0000 N   0  0  0  0  0  0  0  0  0  0  0  0
    0.0370    0.4396    0.0000 C   0  0  0  0  0  0  0  0  0  0  0  0
   -0.0889   -1.0551    0.0000 O   0  0  0  0  0  0  0  0  0  0  0  0
    1.3944    1.0780    0.0000 N   0  0  0  0  0  0  0  0  0  0  0  0
    2.6259    0.2216    0.0000 C   0  0  0  0  0  0  0  0  0  0  0  0
    3.9833    0.8599    0.0000 C   0  0  0  0  0  0  0  0  0  0  0  0
    5.2148    0.0035    0.0000 C   0  0  0  0  0  0  0  0  0  0  0  0
    4.1092    2.3546    0.0000 C   0  0  0  0  0  0  0  0  0  0  0  0
    2.5001   -1.2731    0.0000 C   0  0  0  0  0  0  0  0  0  0  0  0
    1.1427   -1.9115    0.0000 O   0  0  0  0  0  0  0  0  0  0  0  0
    3.7316   -2.1295    0.0000 O   0  0  0  0  0  0  0  0  0  0  0  0
  1  2  2  0
  2  3  1  0
  3  4  2  0
  4  5  1  0
  5  6  2  0
  4  7  1  0
  7  8  1  0
  8  9  2  0
  8 10  1  0
 11 10  1  1
 11 12  1  0
 12 13  1  0
 12 14  1  0
 11 15  1  0
 15 16  2  0
 15 17  1  0
  6  1  1  0
M  END
>  <rName>  (2694) 
PhNHCO-Val

>  <PQ_SYMBOL>  (2694) 
PhNHCO-Val

>  <FULL_NAME>  (2694) 
(2S)-3-methyl-2-(phenylcarbamoylamino)butanoic acid

>  <IUPAC_CONDENSED>  (2694) 
PhNHCO-Val

>  <IUPAC>  (2694) 
(2S)-3-methyl-2-(phenylcarbamoylamino)butanoic acid

>  <TYPE>  (2694) 
N-term cap

>  <CLASS>  (2694) 
n_cap

>  <ANALOG>  (2694) 
X

>  <MOL_WT>  (2694) 
236.271

>  <LOGP>  (2694) 
1.9172999999999998

>  <TPSA>  (2694) 
78.43

>  <POPULARITY>  (2694) 
8.8

>  <PROTECTED>  (2694) 
TRUE

>  <SMILES>  (2694) 
c1ccc(cc1)NC(=O)N[C@@H](C(C)C)C(=O)O

>  <INCHIKEY>  (2694) 
IIJAEFRNONKHQP-JTQLQIEISA-N

$$$$
PhOCO-Val
     RDKit          2D

 17 17  0  0  0  0  0  0  0  0999 V2000
   -5.2667   -0.6190    0.0000 C   0  0  0  0  0  0  0  0  0  0  0  0
   -5.1408    0.8757    0.0000 C   0  0  0  0  0  0  0  0  0  0  0  0
   -3.7834    1.5140    0.0000 C   0  0  0  0  0  0  0  0  0  0  0  0
   -2.5519    0.6577    0.0000 C   0  0  0  0  0  0  0  0  0  0  0  0
   -2.6778   -0.8371    0.0000 C   0  0  0  0  0  0  0  0  0  0  0  0
   -4.0352   -1.4754    0.0000 C   0  0  0  0  0  0  0  0  0  0  0  0
   -1.1945    1.2960    0.0000 O   0  0  0  0  0  0  0  0  0  0  0  0
    0.0370    0.4396    0.0000 C   0  0  0  0  0  0  0  0  0  0  0  0
   -0.0889   -1.0551    0.0000 O   0  0  0  0  0  0  0  0  0  0  0  0
    1.3944    1.0780    0.0000 N   0  0  0  0  0  0  0  0  0  0  0  0
    2.6259    0.2216    0.0000 C   0  0  0  0  0  0  0  0  0  0  0  0
    3.9833    0.8599    0.0000 C   0  0  0  0  0  0  0  0  0  0  0  0
    5.2148    0.0035    0.0000 C   0  0  0  0  0  0  0  0  0  0  0  0
    4.1092    2.3546    0.0000 C   0  0  0  0  0  0  0  0  0  0  0  0
    2.5001   -1.2731    0.0000 C   0  0  0  0  0  0  0  0  0  0  0  0
    1.1427   -1.9115    0.0000 O   0  0  0  0  0  0  0  0  0  0  0  0
    3.7316   -2.1295    0.0000 O   0  0  0  0  0  0  0  0  0  0  0  0
  1  2  2  0
  2  3  1  0
  3  4  2  0
  4  5  1  0
  5  6  2  0
  4  7  1  0
  7  8  1  0
  8  9  2  0
  8 10  1  0
 11 10  1  1
 11 12  1  0
 12 13  1  0
 12 14  1  0
 11 15  1  0
 15 16  2  0
 15 17  1  0
  6  1  1  0
M  END
>  <rName>  (2695) 
PhOCO-Val

>  <PQ_SYMBOL>  (2695) 
PhOCO-Val

>  <FULL_NAME>  (2695) 
(2S)-3-methyl-2-(phenoxycarbonylamino)butanoic acid

>  <IUPAC_CONDENSED>  (2695) 
PhOCO-Val

>  <IUPAC>  (2695) 
(2S)-3-methyl-2-phenoxycarbonylaminobutanoic acid

>  <TYPE>  (2695) 
N-term cap

>  <CLASS>  (2695) 
n_cap

>  <ANALOG>  (2695) 
X

>  <MOL_WT>  (2695) 
237.25499999999997

>  <LOGP>  (2695) 
1.8841999999999997

>  <TPSA>  (2695) 
75.63

>  <POPULARITY>  (2695) 
12.0

>  <PROTECTED>  (2695) 
TRUE

>  <SMILES>  (2695) 
c1ccc(cc1)OC(=O)N[C@@H](C(C)C)C(=O)O

>  <INCHIKEY>  (2695) 
HVJMEAOTIUMIBJ-JTQLQIEISA-N

$$$$
Phe-CH2Cl
     RDKit          2D

 13 13  0  0  0  0  0  0  0  0999 V2000
   -0.8522    1.6213    0.0000 N   0  0  0  0  0  0  0  0  0  0  0  0
   -1.1939    0.1607    0.0000 C   0  0  0  0  0  0  0  0  0  0  0  0
   -2.6296   -0.2737    0.0000 C   0  0  0  0  0  0  0  0  0  0  0  0
   -2.9712   -1.7343    0.0000 O   0  0  0  0  0  0  0  0  0  0  0  0
   -3.7237    0.7525    0.0000 C   0  0  0  0  0  0  0  0  0  0  0  0
   -5.1594    0.3180    0.0000 Cl  0  0  0  0  0  0  0  0  0  0  0  0
   -0.0998   -0.8654    0.0000 C   0  0  0  0  0  0  0  0  0  0  0  0
    1.3359   -0.4310    0.0000 C   0  0  0  0  0  0  0  0  0  0  0  0
    1.6775    1.0296    0.0000 C   0  0  0  0  0  0  0  0  0  0  0  0
    3.1133    1.4640    0.0000 C   0  0  0  0  0  0  0  0  0  0  0  0
    4.2073    0.4379    0.0000 C   0  0  0  0  0  0  0  0  0  0  0  0
    3.8657   -1.0227    0.0000 C   0  0  0  0  0  0  0  0  0  0  0  0
    2.4300   -1.4571    0.0000 C   0  0  0  0  0  0  0  0  0  0  0  0
  2  1  1  1
  2  3  1  0
  3  4  2  0
  3  5  1  0
  5  6  1  0
  2  7  1  0
  7  8  1  0
  8  9  2  0
  9 10  1  0
 10 11  2  0
 11 12  1  0
 12 13  2  0
 13  8  1  0
M  END
>  <rName>  (2696) 
Phe-CH2Cl

>  <PQ_SYMBOL>  (2696) 
Phe-CH2Cl

>  <FULL_NAME>  (2696) 
Phenylalanine chloromethyl

>  <IUPAC_CONDENSED>  (2696) 
Phe-CH2Cl

>  <IUPAC>  (2696) 
(3S)-3-amino-1-chloro-4-phenylbutan-2-one

>  <TYPE>  (2696) 
C-term cap

>  <CLASS>  (2696) 
c_cap

>  <ANALOG>  (2696) 
X

>  <MOL_WT>  (2696) 
197.66500000000005

>  <LOGP>  (2696) 
1.3643

>  <TPSA>  (2696) 
43.09

>  <POPULARITY>  (2696) 
16.9

>  <PROTECTED>  (2696) 
TRUE

>  <SMILES>  (2696) 
N[C@H](C(=O)CCl)Cc1ccccc1

>  <INCHIKEY>  (2696) 
CNNSBPMDYXZFTQ-VIFPVBQESA-N

$$$$
Phe-Gly
     RDKit          2D

 16 16  0  0  0  0  0  0  0  0999 V2000
   -2.5181    0.1167    0.0000 N   0  0  0  0  0  0  0  0  0  0  0  0
   -1.3023   -0.7618    0.0000 C   0  0  0  0  0  0  0  0  0  0  0  0
   -1.4552   -2.2540    0.0000 O   0  0  0  0  0  0  0  0  0  0  0  0
    0.0664   -0.1482    0.0000 C   0  0  0  0  0  0  0  0  0  0  0  0
    0.2193    1.3440    0.0000 N   0  0  0  0  0  0  0  0  0  0  0  0
    1.2823   -1.0267    0.0000 C   0  0  0  0  0  0  0  0  0  0  0  0
    2.6510   -0.4130    0.0000 C   0  0  0  0  0  0  0  0  0  0  0  0
    2.8039    1.0792    0.0000 C   0  0  0  0  0  0  0  0  0  0  0  0
    4.1726    1.6929    0.0000 C   0  0  0  0  0  0  0  0  0  0  0  0
    5.3884    0.8143    0.0000 C   0  0  0  0  0  0  0  0  0  0  0  0
    5.2355   -0.6778    0.0000 C   0  0  0  0  0  0  0  0  0  0  0  0
    3.8668   -1.2915    0.0000 C   0  0  0  0  0  0  0  0  0  0  0  0
   -3.8868   -0.4970    0.0000 C   0  0  0  0  0  0  0  0  0  0  0  0
   -5.1027    0.3815    0.0000 C   0  0  0  0  0  0  0  0  0  0  0  0
   -4.9498    1.8737    0.0000 O   0  0  0  0  0  0  0  0  0  0  0  0
   -6.4714   -0.2322    0.0000 O   0  0  0  0  0  0  0  0  0  0  0  0
  1  2  1  0
  2  3  2  0
  2  4  1  0
  4  5  1  1
  4  6  1  0
  6  7  1  0
  7  8  2  0
  8  9  1  0
  9 10  2  0
 10 11  1  0
 11 12  2  0
  1 13  1  0
 13 14  1  0
 14 15  2  0
 14 16  1  0
 12  7  1  0
M  END
>  <rName>  (2697) 
Phe-Gly

>  <PQ_SYMBOL>  (2697) 
Phe-Gly

>  <FULL_NAME>  (2697) 
L-phenylalanylglycine

>  <IUPAC_CONDENSED>  (2697) 
Phe-Gly

>  <IUPAC>  (2697) 
2-((1S)-1-amino-2-phenylethylcarbonylamino)acetic acid

>  <TYPE>  (2697) 
Backbone

>  <CLASS>  (2697) 
alpha

>  <ANALOG>  (2697) 
Gly

>  <MOL_WT>  (2697) 
222.244

>  <LOGP>  (2697) 
-0.24280000000000018

>  <TPSA>  (2697) 
92.42

>  <POPULARITY>  (2697) 
16.1

>  <PROTECTED>  (2697) 
TRUE

>  <SMILES>  (2697) 
N(C(=O)[C@@H](N)Cc1(ccccc1))CC(=O)O

>  <INCHIKEY>  (2697) 
GLUBLISJVJFHQS-VIFPVBQESA-N

$$$$
Phe-Gly-Gly
     RDKit          2D

 20 20  0  0  0  0  0  0  0  0999 V2000
   -4.6597   -0.2482    0.0000 N   0  0  0  0  0  0  0  0  0  0  0  0
   -3.2922    0.3683    0.0000 C   0  0  0  0  0  0  0  0  0  0  0  0
   -3.1424    1.8608    0.0000 O   0  0  0  0  0  0  0  0  0  0  0  0
   -2.0746   -0.5078    0.0000 C   0  0  0  0  0  0  0  0  0  0  0  0
   -0.7071    0.1087    0.0000 N   0  0  0  0  0  0  0  0  0  0  0  0
    0.5105   -0.7673    0.0000 C   0  0  0  0  0  0  0  0  0  0  0  0
    0.3606   -2.2598    0.0000 O   0  0  0  0  0  0  0  0  0  0  0  0
    1.8779   -0.1509    0.0000 C   0  0  0  0  0  0  0  0  0  0  0  0
    2.0278    1.3416    0.0000 N   0  0  0  0  0  0  0  0  0  0  0  0
    3.0955   -1.0269    0.0000 C   0  0  0  0  0  0  0  0  0  0  0  0
    4.4630   -0.4105    0.0000 C   0  0  0  0  0  0  0  0  0  0  0  0
    4.6129    1.0820    0.0000 C   0  0  0  0  0  0  0  0  0  0  0  0
    5.9803    1.6985    0.0000 C   0  0  0  0  0  0  0  0  0  0  0  0
    7.1979    0.8224    0.0000 C   0  0  0  0  0  0  0  0  0  0  0  0
    7.0481   -0.6701    0.0000 C   0  0  0  0  0  0  0  0  0  0  0  0
    5.6806   -1.2865    0.0000 C   0  0  0  0  0  0  0  0  0  0  0  0
   -5.8773    0.6279    0.0000 C   0  0  0  0  0  0  0  0  0  0  0  0
   -7.2448    0.0114    0.0000 C   0  0  0  0  0  0  0  0  0  0  0  0
   -7.3946   -1.4811    0.0000 O   0  0  0  0  0  0  0  0  0  0  0  0
   -8.4624    0.8875    0.0000 O   0  0  0  0  0  0  0  0  0  0  0  0
  1  2  1  0
  2  3  2  0
  2  4  1  0
  4  5  1  0
  5  6  1  0
  6  7  2  0
  6  8  1  0
  8  9  1  1
  8 10  1  0
 10 11  1  0
 11 12  2  0
 12 13  1  0
 13 14  2  0
 14 15  1  0
 15 16  2  0
  1 17  1  0
 17 18  1  0
 18 19  2  0
 18 20  1  0
 16 11  1  0
M  END
>  <rName>  (2698) 
Phe-Gly-Gly

>  <PQ_SYMBOL>  (2698) 
Phe-Gly-Gly

>  <FULL_NAME>  (2698) 
L-phenylalanylglycylglycine

>  <IUPAC_CONDENSED>  (2698) 
Phe-Gly-Gly

>  <IUPAC>  (2698) 
2-((1S)-1-amino-2-phenylethylcarbonylaminomethylcarbonylamino)acetic acid

>  <TYPE>  (2698) 
Backbone

>  <CLASS>  (2698) 
alpha

>  <ANALOG>  (2698) 
Gly

>  <MOL_WT>  (2698) 
279.296

>  <LOGP>  (2698) 
-1.1265999999999983

>  <TPSA>  (2698) 
121.52

>  <POPULARITY>  (2698) 
14.1

>  <PROTECTED>  (2698) 
TRUE

>  <SMILES>  (2698) 
N(C(=O)CNC(=O)[C@@H](N)Cc1(ccccc1))CC(=O)O

>  <INCHIKEY>  (2698) 
NAXPHWZXEXNDIW-JTQLQIEISA-N

$$$$
Phe-Me
     RDKit          2D

 12 12  0  0  0  0  0  0  0  0999 V2000
   -1.2391    1.6805    0.0000 N   0  0  0  0  0  0  0  0  0  0  0  0
   -1.6184    0.2292    0.0000 C   0  0  0  0  0  0  0  0  0  0  0  0
   -3.0649   -0.1679    0.0000 C   0  0  0  0  0  0  0  0  0  0  0  0
   -3.4442   -1.6191    0.0000 O   0  0  0  0  0  0  0  0  0  0  0  0
   -4.1321    0.8862    0.0000 C   0  0  0  0  0  0  0  0  0  0  0  0
   -0.5513   -0.8249    0.0000 C   0  0  0  0  0  0  0  0  0  0  0  0
    0.8952   -0.4278    0.0000 C   0  0  0  0  0  0  0  0  0  0  0  0
    1.2745    1.0235    0.0000 C   0  0  0  0  0  0  0  0  0  0  0  0
    2.7210    1.4206    0.0000 C   0  0  0  0  0  0  0  0  0  0  0  0
    3.7882    0.3665    0.0000 C   0  0  0  0  0  0  0  0  0  0  0  0
    3.4088   -1.0848    0.0000 C   0  0  0  0  0  0  0  0  0  0  0  0
    1.9624   -1.4819    0.0000 C   0  0  0  0  0  0  0  0  0  0  0  0
  2  1  1  1
  2  3  1  0
  3  4  2  0
  3  5  1  0
  2  6  1  0
  6  7  1  0
  7  8  2  0
  8  9  1  0
  9 10  2  0
 10 11  1  0
 11 12  2  0
 12  7  1  0
M  END
>  <rName>  (2699) 
Phe-Me

>  <PQ_SYMBOL>  (2699) 
Phe-Me

>  <FULL_NAME>  (2699) 
Phenylalanine methyl

>  <IUPAC_CONDENSED>  (2699) 
Phe-Me

>  <IUPAC>  (2699) 
(3S)-3-amino-4-phenylbutan-2-one

>  <TYPE>  (2699) 
C-term cap

>  <CLASS>  (2699) 
c_cap

>  <ANALOG>  (2699) 
X

>  <MOL_WT>  (2699) 
163.22

>  <LOGP>  (2699) 
1.1454

>  <TPSA>  (2699) 
43.09

>  <POPULARITY>  (2699) 
12.5

>  <PROTECTED>  (2699) 
TRUE

>  <SMILES>  (2699) 
N[C@H](C(=O)C)Cc1ccccc1

>  <INCHIKEY>  (2699) 
RTUDQBPZFFIRAD-JTQLQIEISA-N

$$$$
Phe-NH2
     RDKit          2D

 12 12  0  0  0  0  0  0  0  0999 V2000
   -1.2391    1.6805    0.0000 N   0  0  0  0  0  0  0  0  0  0  0  0
   -1.6184    0.2292    0.0000 C   0  0  0  0  0  0  0  0  0  0  0  0
   -3.0649   -0.1679    0.0000 C   0  0  0  0  0  0  0  0  0  0  0  0
   -3.4442   -1.6191    0.0000 O   0  0  0  0  0  0  0  0  0  0  0  0
   -4.1321    0.8862    0.0000 N   0  0  0  0  0  0  0  0  0  0  0  0
   -0.5513   -0.8249    0.0000 C   0  0  0  0  0  0  0  0  0  0  0  0
    0.8952   -0.4278    0.0000 C   0  0  0  0  0  0  0  0  0  0  0  0
    1.2745    1.0235    0.0000 C   0  0  0  0  0  0  0  0  0  0  0  0
    2.7210    1.4206    0.0000 C   0  0  0  0  0  0  0  0  0  0  0  0
    3.7882    0.3665    0.0000 C   0  0  0  0  0  0  0  0  0  0  0  0
    3.4088   -1.0848    0.0000 C   0  0  0  0  0  0  0  0  0  0  0  0
    1.9624   -1.4819    0.0000 C   0  0  0  0  0  0  0  0  0  0  0  0
  2  1  1  1
  2  3  1  0
  3  4  2  0
  3  5  1  0
  2  6  1  0
  6  7  1  0
  7  8  2  0
  8  9  1  0
  9 10  2  0
 10 11  1  0
 11 12  2  0
 12  7  1  0
M  END
>  <rName>  (2700) 
Phe-NH2

>  <PQ_SYMBOL>  (2700) 
Phe-NH2

>  <FULL_NAME>  (2700) 
PHENYLALANINE AMIDE

>  <IUPAC_CONDENSED>  (2700) 
Phe-NH2

>  <IUPAC>  (2700) 
(2S)-2-amino-3-phenylpropanamide

>  <TYPE>  (2700) 
C-term cap

>  <CLASS>  (2700) 
c_cap

>  <ANALOG>  (2700) 
X

>  <MOL_WT>  (2700) 
164.208

>  <LOGP>  (2700) 
0.04170000000000007

>  <TPSA>  (2700) 
69.11

>  <POPULARITY>  (2700) 
26.6

>  <PROTECTED>  (2700) 
FALSE

>  <SMILES>  (2700) 
N[C@H](C(=O)N)Cc1ccccc1

>  <INCHIKEY>  (2700) 
OBSIQMZKFXFYLV-QMMMGPOBSA-N

$$$$
Phe-OBn
     RDKit          2D

 19 20  0  0  0  0  0  0  0  0999 V2000
    1.2362    1.1784    0.0000 N   0  0  0  0  0  0  0  0  0  0  0  0
    1.2292   -0.3215    0.0000 C   0  0  0  0  0  0  0  0  0  0  0  0
    2.5247   -1.0776    0.0000 C   0  0  0  0  0  0  0  0  0  0  0  0
    3.8272   -0.3337    0.0000 C   0  0  0  0  0  0  0  0  0  0  0  0
    5.1227   -1.0898    0.0000 C   0  0  0  0  0  0  0  0  0  0  0  0
    6.4253   -0.3459    0.0000 C   0  0  0  0  0  0  0  0  0  0  0  0
    6.4323    1.1541    0.0000 C   0  0  0  0  0  0  0  0  0  0  0  0
    5.1368    1.9102    0.0000 C   0  0  0  0  0  0  0  0  0  0  0  0
    3.8342    1.1663    0.0000 C   0  0  0  0  0  0  0  0  0  0  0  0
   -0.0734   -1.0655    0.0000 C   0  0  0  0  0  0  0  0  0  0  0  0
   -0.0804   -2.5654    0.0000 O   0  0  0  0  0  0  0  0  0  0  0  0
   -1.3689   -0.3094    0.0000 O   0  0  0  0  0  0  0  0  0  0  0  0
   -2.6714   -1.0533    0.0000 C   0  0  0  0  0  0  0  0  0  0  0  0
   -3.9669   -0.2972    0.0000 C   0  0  0  0  0  0  0  0  0  0  0  0
   -3.9599    1.2028    0.0000 C   0  0  0  0  0  0  0  0  0  0  0  0
   -5.2554    1.9588    0.0000 C   0  0  0  0  0  0  0  0  0  0  0  0
   -6.5579    1.2149    0.0000 C   0  0  0  0  0  0  0  0  0  0  0  0
   -6.5650   -0.2851    0.0000 C   0  0  0  0  0  0  0  0  0  0  0  0
   -5.2695   -1.0411    0.0000 C   0  0  0  0  0  0  0  0  0  0  0  0
  2  1  1  1
  2  3  1  0
  3  4  1  0
  4  5  2  0
  5  6  1  0
  6  7  2  0
  7  8  1  0
  8  9  2  0
  2 10  1  0
 10 11  2  0
 10 12  1  0
 12 13  1  0
 13 14  1  0
 14 15  2  0
 15 16  1  0
 16 17  2  0
 17 18  1  0
 18 19  2  0
 19 14  1  0
  9  4  1  0
M  END
>  <rName>  (2701) 
Phe-OBn

>  <PQ_SYMBOL>  (2701) 
Phe-OBn

>  <FULL_NAME>  (2701) 
L-Phenylalanine benzyl ester

>  <IUPAC_CONDENSED>  (2701) 
Phe-OBn

>  <IUPAC>  (2701) 
benzyl (2S)-2-amino-3-phenylpropanoate

>  <TYPE>  (2701) 
C-term cap

>  <CLASS>  (2701) 
c_cap

>  <ANALOG>  (2701) 
X

>  <MOL_WT>  (2701) 
255.31699999999995

>  <LOGP>  (2701) 
2.2998000000000003

>  <TPSA>  (2701) 
52.32000000000001

>  <POPULARITY>  (2701) 
10.3

>  <PROTECTED>  (2701) 
TRUE

>  <SMILES>  (2701) 
N[C@@H](Cc2(ccccc2))C(=O)OCc1ccccc1

>  <INCHIKEY>  (2701) 
FPRSPUHXEPWUBZ-HNNXBMFYSA-N

$$$$
Phe-OEt
     RDKit          2D

 14 14  0  0  0  0  0  0  0  0999 V2000
   -0.4946    1.4988    0.0000 N   0  0  0  0  0  0  0  0  0  0  0  0
   -0.7497    0.0207    0.0000 C   0  0  0  0  0  0  0  0  0  0  0  0
   -2.1574   -0.4975    0.0000 C   0  0  0  0  0  0  0  0  0  0  0  0
   -2.4125   -1.9756    0.0000 O   0  0  0  0  0  0  0  0  0  0  0  0
   -3.3099    0.4625    0.0000 O   0  0  0  0  0  0  0  0  0  0  0  0
   -4.7176   -0.0557    0.0000 C   0  0  0  0  0  0  0  0  0  0  0  0
   -5.8702    0.9043    0.0000 C   0  0  0  0  0  0  0  0  0  0  0  0
    0.4029   -0.9393    0.0000 C   0  0  0  0  0  0  0  0  0  0  0  0
    1.8105   -0.4212    0.0000 C   0  0  0  0  0  0  0  0  0  0  0  0
    2.0656    1.0570    0.0000 C   0  0  0  0  0  0  0  0  0  0  0  0
    3.4733    1.5751    0.0000 C   0  0  0  0  0  0  0  0  0  0  0  0
    4.6258    0.6151    0.0000 C   0  0  0  0  0  0  0  0  0  0  0  0
    4.3707   -0.8630    0.0000 C   0  0  0  0  0  0  0  0  0  0  0  0
    2.9631   -1.3812    0.0000 C   0  0  0  0  0  0  0  0  0  0  0  0
  2  1  1  1
  2  3  1  0
  3  4  2  0
  3  5  1  0
  5  6  1  0
  6  7  1  0
  2  8  1  0
  8  9  1  0
  9 10  2  0
 10 11  1  0
 11 12  2  0
 12 13  1  0
 13 14  2  0
 14  9  1  0
M  END
>  <rName>  (2702) 
Phe-OEt

>  <PQ_SYMBOL>  (2702) 
Phe-OEt

>  <FULL_NAME>  (2702) 
ethyl (2S)-2-amino-3-phenylpropanoate

>  <IUPAC_CONDENSED>  (2702) 
Phe-OEt

>  <IUPAC>  (2702) 
ethyl (2S)-2-amino-3-phenylpropanoate

>  <TYPE>  (2702) 
C-term cap

>  <CLASS>  (2702) 
c_cap

>  <ANALOG>  (2702) 
X

>  <MOL_WT>  (2702) 
193.24600000000004

>  <LOGP>  (2702) 
1.1194999999999997

>  <TPSA>  (2702) 
52.32000000000001

>  <POPULARITY>  (2702) 
13.8

>  <PROTECTED>  (2702) 
TRUE

>  <SMILES>  (2702) 
N[C@H](C(=O)OCC)Cc1ccccc1

>  <INCHIKEY>  (2702) 
CJGXMNONHNZEQQ-JTQLQIEISA-N

$$$$
Phe-OMe
     RDKit          2D

 13 13  0  0  0  0  0  0  0  0999 V2000
   -0.8522    1.6213    0.0000 N   0  0  0  0  0  0  0  0  0  0  0  0
   -1.1939    0.1607    0.0000 C   0  0  0  0  0  0  0  0  0  0  0  0
   -2.6296   -0.2737    0.0000 C   0  0  0  0  0  0  0  0  0  0  0  0
   -2.9712   -1.7343    0.0000 O   0  0  0  0  0  0  0  0  0  0  0  0
   -3.7237    0.7525    0.0000 O   0  0  0  0  0  0  0  0  0  0  0  0
   -5.1594    0.3180    0.0000 C   0  0  0  0  0  0  0  0  0  0  0  0
   -0.0998   -0.8654    0.0000 C   0  0  0  0  0  0  0  0  0  0  0  0
    1.3359   -0.4310    0.0000 C   0  0  0  0  0  0  0  0  0  0  0  0
    1.6775    1.0296    0.0000 C   0  0  0  0  0  0  0  0  0  0  0  0
    3.1133    1.4640    0.0000 C   0  0  0  0  0  0  0  0  0  0  0  0
    4.2073    0.4379    0.0000 C   0  0  0  0  0  0  0  0  0  0  0  0
    3.8657   -1.0227    0.0000 C   0  0  0  0  0  0  0  0  0  0  0  0
    2.4300   -1.4571    0.0000 C   0  0  0  0  0  0  0  0  0  0  0  0
  2  1  1  1
  2  3  1  0
  3  4  2  0
  3  5  1  0
  5  6  1  0
  2  7  1  0
  7  8  1  0
  8  9  2  0
  9 10  1  0
 10 11  2  0
 11 12  1  0
 12 13  2  0
 13  8  1  0
M  END
>  <rName>  (2703) 
Phe-OMe

>  <PQ_SYMBOL>  (2703) 
Phe-OMe

>  <FULL_NAME>  (2703) 
L-Phenylalanine methyl ester

>  <IUPAC_CONDENSED>  (2703) 
Phe-OMe

>  <IUPAC>  (2703) 
methyl (2S)-2-amino-3-phenylpropanoate

>  <TYPE>  (2703) 
C-term cap

>  <CLASS>  (2703) 
c_cap

>  <ANALOG>  (2703) 
X

>  <MOL_WT>  (2703) 
179.21900000000002

>  <LOGP>  (2703) 
0.7293999999999992

>  <TPSA>  (2703) 
52.32000000000001

>  <POPULARITY>  (2703) 
30.5

>  <PROTECTED>  (2703) 
TRUE

>  <SMILES>  (2703) 
N[C@H](C(=O)OC)Cc1ccccc1

>  <INCHIKEY>  (2703) 
VSDUZFOSJDMAFZ-VIFPVBQESA-N

$$$$
Phe-Phe
     RDKit          2D

 23 24  0  0  0  0  0  0  0  0999 V2000
   -0.3560    0.7750    0.0000 N   0  0  0  0  0  0  0  0  0  0  0  0
    0.7602   -0.2271    0.0000 C   0  0  0  0  0  0  0  0  0  0  0  0
    0.4504   -1.6948    0.0000 O   0  0  0  0  0  0  0  0  0  0  0  0
    2.1861    0.2385    0.0000 C   0  0  0  0  0  0  0  0  0  0  0  0
    2.4959    1.7061    0.0000 N   0  0  0  0  0  0  0  0  0  0  0  0
    3.3023   -0.7636    0.0000 C   0  0  0  0  0  0  0  0  0  0  0  0
    4.7282   -0.2980    0.0000 C   0  0  0  0  0  0  0  0  0  0  0  0
    5.8444   -1.3001    0.0000 C   0  0  0  0  0  0  0  0  0  0  0  0
    7.2703   -0.8346    0.0000 C   0  0  0  0  0  0  0  0  0  0  0  0
    7.5800    0.6331    0.0000 C   0  0  0  0  0  0  0  0  0  0  0  0
    6.4639    1.6352    0.0000 C   0  0  0  0  0  0  0  0  0  0  0  0
    5.0380    1.1696    0.0000 C   0  0  0  0  0  0  0  0  0  0  0  0
   -1.7819    0.3094    0.0000 C   0  0  0  0  0  0  0  0  0  0  0  0
   -2.8980    1.3115    0.0000 C   0  0  0  0  0  0  0  0  0  0  0  0
   -4.3239    0.8459    0.0000 C   0  0  0  0  0  0  0  0  0  0  0  0
   -5.4401    1.8480    0.0000 C   0  0  0  0  0  0  0  0  0  0  0  0
   -6.8660    1.3825    0.0000 C   0  0  0  0  0  0  0  0  0  0  0  0
   -7.1758   -0.0852    0.0000 C   0  0  0  0  0  0  0  0  0  0  0  0
   -6.0596   -1.0873    0.0000 C   0  0  0  0  0  0  0  0  0  0  0  0
   -4.6337   -0.6217    0.0000 C   0  0  0  0  0  0  0  0  0  0  0  0
   -2.0916   -1.1583    0.0000 C   0  0  0  0  0  0  0  0  0  0  0  0
   -0.9755   -2.1603    0.0000 O   0  0  0  0  0  0  0  0  0  0  0  0
   -3.5175   -1.6238    0.0000 O   0  0  0  0  0  0  0  0  0  0  0  0
  1  2  1  0
  2  3  2  0
  2  4  1  0
  4  5  1  1
  4  6  1  0
  6  7  1  0
  7  8  2  0
  8  9  1  0
  9 10  2  0
 10 11  1  0
 11 12  2  0
  1 13  1  0
 13 14  1  6
 14 15  1  0
 15 16  2  0
 16 17  1  0
 17 18  2  0
 18 19  1  0
 19 20  2  0
 13 21  1  0
 21 22  2  0
 21 23  1  0
 12  7  1  0
 20 15  1  0
M  END
>  <rName>  (2704) 
Phe-Phe

>  <PQ_SYMBOL>  (2704) 
Phe-Phe

>  <FULL_NAME>  (2704) 
L-phenylalanyl-L-phenylalanine

>  <IUPAC_CONDENSED>  (2704) 
Phe-Phe

>  <IUPAC>  (2704) 
(2S)-2-((1S)-1-amino-2-phenylethylcarbonylamino)-3-phenylpropanoic acid

>  <TYPE>  (2704) 
Backbone

>  <CLASS>  (2704) 
alpha

>  <ANALOG>  (2704) 
Phe

>  <MOL_WT>  (2704) 
312.3690000000001

>  <LOGP>  (2704) 
1.3684999999999987

>  <TPSA>  (2704) 
92.42

>  <POPULARITY>  (2704) 
12.6

>  <PROTECTED>  (2704) 
TRUE

>  <SMILES>  (2704) 
N(C(=O)[C@@H](N)Cc1(ccccc1))[C@@H](Cc2(ccccc2))C(=O)O

>  <INCHIKEY>  (2704) 
GKZIWHRNKRBEOH-HOTGVXAUSA-N

$$$$
Phe-al
     RDKit          2D

 11 11  0  0  0  0  0  0  0  0999 V2000
   -1.7008    1.3667    0.0000 N   0  0  0  0  0  0  0  0  0  0  0  0
   -1.9298   -0.1157    0.0000 C   0  0  0  0  0  0  0  0  0  0  0  0
   -3.3282   -0.6586    0.0000 C   0  0  0  0  0  0  0  0  0  0  0  0
   -4.4974    0.2810    0.0000 O   0  0  0  0  0  0  0  0  0  0  0  0
   -0.7606   -1.0553    0.0000 C   0  0  0  0  0  0  0  0  0  0  0  0
    0.6378   -0.5125    0.0000 C   0  0  0  0  0  0  0  0  0  0  0  0
    0.8669    0.9699    0.0000 C   0  0  0  0  0  0  0  0  0  0  0  0
    2.2652    1.5127    0.0000 C   0  0  0  0  0  0  0  0  0  0  0  0
    3.4345    0.5731    0.0000 C   0  0  0  0  0  0  0  0  0  0  0  0
    3.2054   -0.9093    0.0000 C   0  0  0  0  0  0  0  0  0  0  0  0
    1.8070   -1.4521    0.0000 C   0  0  0  0  0  0  0  0  0  0  0  0
  2  1  1  1
  2  3  1  0
  3  4  2  0
  2  5  1  0
  5  6  1  0
  6  7  2  0
  7  8  1  0
  8  9  2  0
  9 10  1  0
 10 11  2  0
 11  6  1  0
M  END
>  <rName>  (2705) 
Phe-al

>  <PQ_SYMBOL>  (2705) 
Phe-al

>  <FULL_NAME>  (2705) 
(2S)-2-amino-3-phenylpropanal

>  <IUPAC_CONDENSED>  (2705) 
Phe-al

>  <IUPAC>  (2705) 
(2S)-2-amino-3-phenylpropanal

>  <TYPE>  (2705) 
C-term cap

>  <CLASS>  (2705) 
c_cap

>  <ANALOG>  (2705) 
X

>  <MOL_WT>  (2705) 
149.19299999999998

>  <LOGP>  (2705) 
0.7552999999999994

>  <TPSA>  (2705) 
43.09

>  <POPULARITY>  (2705) 
31.2

>  <PROTECTED>  (2705) 
FALSE

>  <SMILES>  (2705) 
N[C@H](C=O)Cc1ccccc1

>  <INCHIKEY>  (2705) 
CQIUZHAQYHXKRY-VIFPVBQESA-N

$$$$
Phe-ol
     RDKit          2D

 11 11  0  0  0  0  0  0  0  0999 V2000
   -1.7008    1.3667    0.0000 N   0  0  0  0  0  0  0  0  0  0  0  0
   -1.9298   -0.1157    0.0000 C   0  0  0  0  0  0  0  0  0  0  0  0
   -3.3282   -0.6586    0.0000 C   0  0  0  0  0  0  0  0  0  0  0  0
   -4.4974    0.2810    0.0000 O   0  0  0  0  0  0  0  0  0  0  0  0
   -0.7606   -1.0553    0.0000 C   0  0  0  0  0  0  0  0  0  0  0  0
    0.6378   -0.5125    0.0000 C   0  0  0  0  0  0  0  0  0  0  0  0
    0.8669    0.9699    0.0000 C   0  0  0  0  0  0  0  0  0  0  0  0
    2.2652    1.5127    0.0000 C   0  0  0  0  0  0  0  0  0  0  0  0
    3.4345    0.5731    0.0000 C   0  0  0  0  0  0  0  0  0  0  0  0
    3.2054   -0.9093    0.0000 C   0  0  0  0  0  0  0  0  0  0  0  0
    1.8070   -1.4521    0.0000 C   0  0  0  0  0  0  0  0  0  0  0  0
  2  1  1  1
  2  3  1  0
  3  4  1  0
  2  5  1  0
  5  6  1  0
  6  7  2  0
  7  8  1  0
  8  9  2  0
  9 10  1  0
 10 11  2  0
 11  6  1  0
M  END
>  <rName>  (2706) 
Phe-ol

>  <PQ_SYMBOL>  (2706) 
Phe-ol

>  <FULL_NAME>  (2706) 
L-PHENYLALANINOL

>  <IUPAC_CONDENSED>  (2706) 
Phe-ol

>  <IUPAC>  (2706) 
(2S)-2-amino-3-phenylpropan-1-ol

>  <TYPE>  (2706) 
C-term cap

>  <CLASS>  (2706) 
c_cap

>  <ANALOG>  (2706) 
X

>  <MOL_WT>  (2706) 
151.209

>  <LOGP>  (2706) 
0.5486999999999999

>  <TPSA>  (2706) 
46.25

>  <POPULARITY>  (2706) 
27.6

>  <PROTECTED>  (2706) 
FALSE

>  <SMILES>  (2706) 
N[C@H](CO)Cc1ccccc1

>  <INCHIKEY>  (2706) 
STVVMTBJNDTZBF-VIFPVBQESA-N

$$$$
Phe_22carboxyethyl
     RDKit          2D

 17 17  0  0  0  0  0  0  0  0999 V2000
   -1.2226   -3.0000    0.0000 N   0  0  0  0  0  0  0  0  0  0  0  0
    0.0764   -2.2500    0.0000 C   0  0  0  0  0  0  0  0  0  0  0  0
    0.0764   -0.7500    0.0000 C   0  0  0  0  0  0  0  0  0  0  0  0
   -1.2226    0.0000    0.0000 C   0  0  0  0  0  0  0  0  0  0  0  0
   -2.5217   -0.7500    0.0000 C   0  0  0  0  0  0  0  0  0  0  0  0
   -3.8207    0.0000    0.0000 C   0  0  0  0  0  0  0  0  0  0  0  0
   -3.8207    1.5000    0.0000 C   0  0  0  0  0  0  0  0  0  0  0  0
   -2.5217    2.2500    0.0000 C   0  0  0  0  0  0  0  0  0  0  0  0
   -1.2226    1.5000    0.0000 C   0  0  0  0  0  0  0  0  0  0  0  0
    0.0764    2.2500    0.0000 C   0  0  0  0  0  0  0  0  0  0  0  0
    1.3755    1.5000    0.0000 C   0  0  0  0  0  0  0  0  0  0  0  0
    2.6745    2.2500    0.0000 C   0  0  0  0  0  0  0  0  0  0  0  0
    2.6745    3.7500    0.0000 O   0  0  0  0  0  0  0  0  0  0  0  0
    3.9735    1.5000    0.0000 O   0  0  0  0  0  0  0  0  0  0  0  0
    1.3755   -3.0000    0.0000 C   0  0  0  0  0  0  0  0  0  0  0  0
    2.6745   -2.2500    0.0000 O   0  0  0  0  0  0  0  0  0  0  0  0
    1.3755   -4.5000    0.0000 O   0  0  0  0  0  0  0  0  0  0  0  0
  2  1  1  1
  2  3  1  0
  3  4  1  0
  4  5  2  0
  5  6  1  0
  6  7  2  0
  7  8  1  0
  8  9  2  0
  9 10  1  0
 10 11  1  0
 11 12  1  0
 12 13  2  0
 12 14  1  0
  2 15  1  0
 15 16  2  0
 15 17  1  0
  9  4  1  0
M  END
>  <rName>  (2707) 
Phe_22carboxyethyl

>  <PQ_SYMBOL>  (2707) 
Phe_22carboxyethyl

>  <FULL_NAME>  (2707) 
(S)-2-amino-3-(2-(2-carboxyethyl)phenyl)propanoic acid

>  <IUPAC_CONDENSED>  (2707) 
Phe(2-2-carboxyethyl)

>  <IUPAC>  (2707) 
(2S)-2-amino-3-(2-(3-hydroxy-3-oxopropyl)phenyl)propanoic acid

>  <TYPE>  (2707) 
Backbone

>  <CLASS>  (2707) 
alpha

>  <ANALOG>  (2707) 
Phe

>  <MOL_WT>  (2707) 
237.25499999999994

>  <LOGP>  (2707) 
0.6582

>  <TPSA>  (2707) 
100.62000000000002

>  <POPULARITY>  (2707) 
4.7

>  <PROTECTED>  (2707) 
TRUE

>  <SMILES>  (2707) 
N[C@@H](Cc1(ccccc1CCC(=O)O))C(=O)O

>  <INCHIKEY>  (2707) 
HSCGHCLQBODYBD-JTQLQIEISA-N

$$$$
Phe_23_45tetraF
     RDKit          2D

 16 16  0  0  0  0  0  0  0  0999 V2000
   -2.1392    1.7697    0.0000 N   0  0  0  0  0  0  0  0  0  0  0  0
   -2.5181    0.3184    0.0000 C   0  0  0  0  0  0  0  0  0  0  0  0
   -1.4507   -0.7355    0.0000 C   0  0  0  0  0  0  0  0  0  0  0  0
   -0.0043   -0.3380    0.0000 C   0  0  0  0  0  0  0  0  0  0  0  0
    0.3746    1.1134    0.0000 C   0  0  0  0  0  0  0  0  0  0  0  0
    1.8210    1.5108    0.0000 C   0  0  0  0  0  0  0  0  0  0  0  0
    2.1999    2.9622    0.0000 F   0  0  0  0  0  0  0  0  0  0  0  0
    2.8884    0.4570    0.0000 C   0  0  0  0  0  0  0  0  0  0  0  0
    4.3348    0.8545    0.0000 F   0  0  0  0  0  0  0  0  0  0  0  0
    2.5095   -0.9944    0.0000 C   0  0  0  0  0  0  0  0  0  0  0  0
    3.5769   -2.0482    0.0000 F   0  0  0  0  0  0  0  0  0  0  0  0
    1.0631   -1.3918    0.0000 C   0  0  0  0  0  0  0  0  0  0  0  0
    0.6841   -2.8432    0.0000 F   0  0  0  0  0  0  0  0  0  0  0  0
   -3.9645   -0.0791    0.0000 C   0  0  0  0  0  0  0  0  0  0  0  0
   -4.3435   -1.5305    0.0000 O   0  0  0  0  0  0  0  0  0  0  0  0
   -5.0319    0.9747    0.0000 O   0  0  0  0  0  0  0  0  0  0  0  0
  2  1  1  1
  2  3  1  0
  3  4  1  0
  4  5  1  0
  5  6  2  0
  6  7  1  0
  6  8  1  0
  8  9  1  0
  8 10  2  0
 10 11  1  0
 10 12  1  0
 12 13  1  0
  2 14  1  0
 14 15  2  0
 14 16  1  0
 12  4  2  0
M  END
>  <rName>  (2708) 
Phe_23_45tetraF

>  <PQ_SYMBOL>  (2708) 
Phe_23_45tetraF

>  <FULL_NAME>  (2708) 
(S)-2-Amino-3-(2,3,4,5-tetrafluorophenyl)propanoic acid

>  <IUPAC_CONDENSED>  (2708) 
Phe(2,3,4,5-tetraF)

>  <IUPAC>  (2708) 
(2S)-2-amino-3-(2,3,4,5-tetrafluorophenyl)propanoic acid

>  <TYPE>  (2708) 
Backbone

>  <CLASS>  (2708) 
alpha

>  <ANALOG>  (2708) 
Phe

>  <MOL_WT>  (2708) 
237.15199999999996

>  <LOGP>  (2708) 
1.1974000000000002

>  <TPSA>  (2708) 
63.32000000000001

>  <POPULARITY>  (2708) 
5.0

>  <PROTECTED>  (2708) 
TRUE

>  <SMILES>  (2708) 
N[C@@H](Cc1(cc(F)c(F)c(F)c1F))C(=O)O

>  <INCHIKEY>  (2708) 
XPEAYFZWBKHVDF-YFKPBYRVSA-N

$$$$
Phe_23_56tetraF
     RDKit          2D

 16 16  0  0  0  0  0  0  0  0999 V2000
   -1.9360    1.5591    0.0000 N   0  0  0  0  0  0  0  0  0  0  0  0
   -2.2149    0.0852    0.0000 C   0  0  0  0  0  0  0  0  0  0  0  0
   -1.0780   -0.8933    0.0000 C   0  0  0  0  0  0  0  0  0  0  0  0
    0.3379   -0.3979    0.0000 C   0  0  0  0  0  0  0  0  0  0  0  0
    0.6168    1.0760    0.0000 C   0  0  0  0  0  0  0  0  0  0  0  0
   -0.5202    2.0544    0.0000 F   0  0  0  0  0  0  0  0  0  0  0  0
    2.0326    1.5713    0.0000 C   0  0  0  0  0  0  0  0  0  0  0  0
    2.3115    3.0452    0.0000 F   0  0  0  0  0  0  0  0  0  0  0  0
    3.1695    0.5929    0.0000 C   0  0  0  0  0  0  0  0  0  0  0  0
    2.8906   -0.8810    0.0000 C   0  0  0  0  0  0  0  0  0  0  0  0
    4.0275   -1.8595    0.0000 F   0  0  0  0  0  0  0  0  0  0  0  0
    1.4748   -1.3764    0.0000 C   0  0  0  0  0  0  0  0  0  0  0  0
    1.1959   -2.8502    0.0000 F   0  0  0  0  0  0  0  0  0  0  0  0
   -3.6308   -0.4102    0.0000 C   0  0  0  0  0  0  0  0  0  0  0  0
   -3.9097   -1.8840    0.0000 O   0  0  0  0  0  0  0  0  0  0  0  0
   -4.7677    0.5683    0.0000 O   0  0  0  0  0  0  0  0  0  0  0  0
  2  1  1  1
  2  3  1  0
  3  4  1  0
  4  5  2  0
  5  6  1  0
  5  7  1  0
  7  8  1  0
  7  9  2  0
  9 10  1  0
 10 11  1  0
 10 12  2  0
 12 13  1  0
  2 14  1  0
 14 15  2  0
 14 16  1  0
 12  4  1  0
M  END
>  <rName>  (2709) 
Phe_23_56tetraF

>  <PQ_SYMBOL>  (2709) 
Phe_23_56tetraF

>  <FULL_NAME>  (2709) 
(2S)-2-amino-3-(2,3,5,6-tetrafluorophenyl)propanoic acid

>  <IUPAC_CONDENSED>  (2709) 
Phe(2,3,5,6-tetraF)

>  <IUPAC>  (2709) 
(2S)-2-amino-3-(2,3,5,6-tetrafluorophenyl)propanoic acid

>  <TYPE>  (2709) 
Backbone

>  <CLASS>  (2709) 
alpha

>  <ANALOG>  (2709) 
Phe

>  <MOL_WT>  (2709) 
237.152

>  <LOGP>  (2709) 
1.1974000000000002

>  <TPSA>  (2709) 
63.32000000000001

>  <POPULARITY>  (2709) 
5.0

>  <PROTECTED>  (2709) 
TRUE

>  <SMILES>  (2709) 
N[C@@H](Cc1(c(F)c(F)cc(F)c1F))C(=O)O

>  <INCHIKEY>  (2709) 
JFDDIQNKNLUINS-LURJTMIESA-N

$$$$
Phe_23_56tetraMe
     RDKit          2D

 16 16  0  0  0  0  0  0  0  0999 V2000
   -1.9360    1.5591    0.0000 N   0  0  0  0  0  0  0  0  0  0  0  0
   -2.2149    0.0852    0.0000 C   0  0  0  0  0  0  0  0  0  0  0  0
   -1.0780   -0.8933    0.0000 C   0  0  0  0  0  0  0  0  0  0  0  0
    0.3379   -0.3979    0.0000 C   0  0  0  0  0  0  0  0  0  0  0  0
    0.6168    1.0760    0.0000 C   0  0  0  0  0  0  0  0  0  0  0  0
   -0.5202    2.0544    0.0000 C   0  0  0  0  0  0  0  0  0  0  0  0
    2.0326    1.5713    0.0000 C   0  0  0  0  0  0  0  0  0  0  0  0
    2.3115    3.0452    0.0000 C   0  0  0  0  0  0  0  0  0  0  0  0
    3.1695    0.5929    0.0000 C   0  0  0  0  0  0  0  0  0  0  0  0
    2.8906   -0.8810    0.0000 C   0  0  0  0  0  0  0  0  0  0  0  0
    4.0275   -1.8595    0.0000 C   0  0  0  0  0  0  0  0  0  0  0  0
    1.4748   -1.3764    0.0000 C   0  0  0  0  0  0  0  0  0  0  0  0
    1.1959   -2.8502    0.0000 C   0  0  0  0  0  0  0  0  0  0  0  0
   -3.6308   -0.4102    0.0000 C   0  0  0  0  0  0  0  0  0  0  0  0
   -3.9097   -1.8840    0.0000 O   0  0  0  0  0  0  0  0  0  0  0  0
   -4.7677    0.5683    0.0000 O   0  0  0  0  0  0  0  0  0  0  0  0
  2  1  1  1
  2  3  1  0
  3  4  1  0
  4  5  2  0
  5  6  1  0
  5  7  1  0
  7  8  1  0
  7  9  2  0
  9 10  1  0
 10 11  1  0
 10 12  2  0
 12 13  1  0
  2 14  1  0
 14 15  2  0
 14 16  1  0
 12  4  1  0
M  END
>  <rName>  (2710) 
Phe_23_56tetraMe

>  <PQ_SYMBOL>  (2710) 
Phe_23_56tetraMe

>  <FULL_NAME>  (2710) 
(S)-2-amino-3-(2,3,5,6-tetramethylphenyl)propanoic acid

>  <IUPAC_CONDENSED>  (2710) 
Phe(2,3,5,6-tetraMe)

>  <IUPAC>  (2710) 
(2S)-2-amino-3-(2,3,5,6-tetramethylphenyl)propanoic acid

>  <TYPE>  (2710) 
Backbone

>  <CLASS>  (2710) 
alpha

>  <ANALOG>  (2710) 
Phe

>  <MOL_WT>  (2710) 
221.29999999999995

>  <LOGP>  (2710) 
1.8746800000000003

>  <TPSA>  (2710) 
63.32000000000001

>  <POPULARITY>  (2710) 
3.9

>  <PROTECTED>  (2710) 
TRUE

>  <SMILES>  (2710) 
N[C@@H](Cc1(c(C)c(C)cc(C)c1C))C(=O)O

>  <INCHIKEY>  (2710) 
XTWCLJMKYNOOMH-LBPRGKRZSA-N

$$$$
Phe_23diCO2H
     RDKit          2D

 18 18  0  0  0  0  0  0  0  0999 V2000
   -2.9769    1.8631    0.0000 N   0  0  0  0  0  0  0  0  0  0  0  0
   -2.9069    0.3648    0.0000 C   0  0  0  0  0  0  0  0  0  0  0  0
   -1.5743   -0.3238    0.0000 C   0  0  0  0  0  0  0  0  0  0  0  0
   -0.3117    0.4860    0.0000 C   0  0  0  0  0  0  0  0  0  0  0  0
   -0.3817    1.9844    0.0000 C   0  0  0  0  0  0  0  0  0  0  0  0
    0.8809    2.7941    0.0000 C   0  0  0  0  0  0  0  0  0  0  0  0
    2.2136    2.1056    0.0000 C   0  0  0  0  0  0  0  0  0  0  0  0
    2.2836    0.6072    0.0000 C   0  0  0  0  0  0  0  0  0  0  0  0
    3.6162   -0.0814    0.0000 C   0  0  0  0  0  0  0  0  0  0  0  0
    4.8788    0.7284    0.0000 O   0  0  0  0  0  0  0  0  0  0  0  0
    3.6862   -1.5797    0.0000 O   0  0  0  0  0  0  0  0  0  0  0  0
    1.0209   -0.2026    0.0000 C   0  0  0  0  0  0  0  0  0  0  0  0
    1.0909   -1.7010    0.0000 C   0  0  0  0  0  0  0  0  0  0  0  0
    2.4235   -2.3895    0.0000 O   0  0  0  0  0  0  0  0  0  0  0  0
   -0.1717   -2.5107    0.0000 O   0  0  0  0  0  0  0  0  0  0  0  0
   -4.1696   -0.4450    0.0000 C   0  0  0  0  0  0  0  0  0  0  0  0
   -4.0996   -1.9434    0.0000 O   0  0  0  0  0  0  0  0  0  0  0  0
   -5.5022    0.2435    0.0000 O   0  0  0  0  0  0  0  0  0  0  0  0
  2  1  1  1
  2  3  1  0
  3  4  1  0
  4  5  1  0
  5  6  2  0
  6  7  1  0
  7  8  2  0
  8  9  1  0
  9 10  2  0
  9 11  1  0
  8 12  1  0
 12 13  1  0
 13 14  2  0
 13 15  1  0
  2 16  1  0
 16 17  2  0
 16 18  1  0
 12  4  2  0
M  END
>  <rName>  (2711) 
Phe_23diCO2H

>  <PQ_SYMBOL>  (2711) 
Phe_23diCO2H

>  <FULL_NAME>  (2711) 
(S)-3-(2-amino-2-carboxyethyl)phthalic acid

>  <IUPAC_CONDENSED>  (2711) 
Phe(2,3-diCO2H)

>  <IUPAC>  (2711) 
3-((2S)-2-amino-3-hydroxy-3-oxopropyl)benzene-1,2-dicarboxylic acid

>  <TYPE>  (2711) 
Backbone

>  <CLASS>  (2711) 
alpha

>  <ANALOG>  (2711) 
Phe

>  <MOL_WT>  (2711) 
253.20999999999995

>  <LOGP>  (2711) 
0.03739999999999977

>  <TPSA>  (2711) 
137.92000000000002

>  <POPULARITY>  (2711) 
2.4

>  <PROTECTED>  (2711) 
TRUE

>  <SMILES>  (2711) 
N[C@@H](Cc1(cccc(C(=O)O)c1C(=O)O))C(=O)O

>  <INCHIKEY>  (2711) 
JUZYXEOXTGILKZ-ZETCQYMHSA-N

$$$$
Phe_23diCl
     RDKit          2D

 14 14  0  0  0  0  0  0  0  0999 V2000
   -1.9599    1.7683    0.0000 N   0  0  0  0  0  0  0  0  0  0  0  0
   -2.1168    0.2766    0.0000 C   0  0  0  0  0  0  0  0  0  0  0  0
   -0.9034   -0.6052    0.0000 C   0  0  0  0  0  0  0  0  0  0  0  0
    0.4670    0.0047    0.0000 C   0  0  0  0  0  0  0  0  0  0  0  0
    0.6239    1.4965    0.0000 C   0  0  0  0  0  0  0  0  0  0  0  0
    1.9943    2.1065    0.0000 C   0  0  0  0  0  0  0  0  0  0  0  0
    3.2078    1.2247    0.0000 C   0  0  0  0  0  0  0  0  0  0  0  0
    3.0508   -0.2671    0.0000 C   0  0  0  0  0  0  0  0  0  0  0  0
    4.2643   -1.1489    0.0000 Cl  0  0  0  0  0  0  0  0  0  0  0  0
    1.6804   -0.8771    0.0000 C   0  0  0  0  0  0  0  0  0  0  0  0
    1.5235   -2.3688    0.0000 Cl  0  0  0  0  0  0  0  0  0  0  0  0
   -3.4872   -0.3334    0.0000 C   0  0  0  0  0  0  0  0  0  0  0  0
   -3.6441   -1.8252    0.0000 O   0  0  0  0  0  0  0  0  0  0  0  0
   -4.7006    0.5484    0.0000 O   0  0  0  0  0  0  0  0  0  0  0  0
  2  1  1  1
  2  3  1  0
  3  4  1  0
  4  5  2  0
  5  6  1  0
  6  7  2  0
  7  8  1  0
  8  9  1  0
  8 10  2  0
 10 11  1  0
  2 12  1  0
 12 13  2  0
 12 14  1  0
 10  4  1  0
M  END
>  <rName>  (2712) 
Phe_23diCl

>  <PQ_SYMBOL>  (2712) 
Phe_23diCl

>  <FULL_NAME>  (2712) 
(S)-2-amino-3-(2,3-dichlorophenyl)propanoic acid

>  <IUPAC_CONDENSED>  (2712) 
Phe(2,3-diCl)

>  <IUPAC>  (2712) 
(2S)-2-amino-3-(2,3-dichlorophenyl)propanoic acid

>  <TYPE>  (2712) 
Backbone

>  <CLASS>  (2712) 
alpha

>  <ANALOG>  (2712) 
Phe

>  <MOL_WT>  (2712) 
234.08199999999997

>  <LOGP>  (2712) 
1.9478000000000002

>  <TPSA>  (2712) 
63.32000000000001

>  <POPULARITY>  (2712) 
4.4

>  <PROTECTED>  (2712) 
TRUE

>  <SMILES>  (2712) 
N[C@@H](Cc1(cccc(Cl)c1Cl))C(=O)O

>  <INCHIKEY>  (2712) 
NVDAAIHKUHFKOL-ZETCQYMHSA-N

$$$$
Phe_23diF
     RDKit          2D

 14 14  0  0  0  0  0  0  0  0999 V2000
   -1.9599    1.7683    0.0000 N   0  0  0  0  0  0  0  0  0  0  0  0
   -2.1168    0.2766    0.0000 C   0  0  0  0  0  0  0  0  0  0  0  0
   -0.9034   -0.6052    0.0000 C   0  0  0  0  0  0  0  0  0  0  0  0
    0.4670    0.0047    0.0000 C   0  0  0  0  0  0  0  0  0  0  0  0
    0.6239    1.4965    0.0000 C   0  0  0  0  0  0  0  0  0  0  0  0
    1.9943    2.1065    0.0000 C   0  0  0  0  0  0  0  0  0  0  0  0
    3.2078    1.2247    0.0000 C   0  0  0  0  0  0  0  0  0  0  0  0
    3.0508   -0.2671    0.0000 C   0  0  0  0  0  0  0  0  0  0  0  0
    4.2643   -1.1489    0.0000 F   0  0  0  0  0  0  0  0  0  0  0  0
    1.6804   -0.8771    0.0000 C   0  0  0  0  0  0  0  0  0  0  0  0
    1.5235   -2.3688    0.0000 F   0  0  0  0  0  0  0  0  0  0  0  0
   -3.4872   -0.3334    0.0000 C   0  0  0  0  0  0  0  0  0  0  0  0
   -3.6441   -1.8252    0.0000 O   0  0  0  0  0  0  0  0  0  0  0  0
   -4.7006    0.5484    0.0000 O   0  0  0  0  0  0  0  0  0  0  0  0
  2  1  1  1
  2  3  1  0
  3  4  1  0
  4  5  2  0
  5  6  1  0
  6  7  2  0
  7  8  1  0
  8  9  1  0
  8 10  2  0
 10 11  1  0
  2 12  1  0
 12 13  2  0
 12 14  1  0
 10  4  1  0
M  END
>  <rName>  (2713) 
Phe_23diF

>  <PQ_SYMBOL>  (2713) 
Phe_23diF

>  <FULL_NAME>  (2713) 
(S)-2-amino-3-(2,3-difluorophenyl)propanoic acid

>  <IUPAC_CONDENSED>  (2713) 
Phe(2,3-diF)

>  <IUPAC>  (2713) 
(2S)-2-amino-3-(2,3-difluorophenyl)propanoic acid

>  <TYPE>  (2713) 
Backbone

>  <CLASS>  (2713) 
alpha

>  <ANALOG>  (2713) 
Phe

>  <MOL_WT>  (2713) 
201.17199999999997

>  <LOGP>  (2713) 
0.9192

>  <TPSA>  (2713) 
63.32000000000001

>  <POPULARITY>  (2713) 
7.6

>  <PROTECTED>  (2713) 
TRUE

>  <SMILES>  (2713) 
N[C@@H](Cc1(cccc(F)c1F))C(=O)O

>  <INCHIKEY>  (2713) 
KSUXKFDPNKLPHX-ZETCQYMHSA-N

$$$$
Phe_23diMe
     RDKit          2D

 14 14  0  0  0  0  0  0  0  0999 V2000
   -1.9599    1.7683    0.0000 N   0  0  0  0  0  0  0  0  0  0  0  0
   -2.1168    0.2766    0.0000 C   0  0  0  0  0  0  0  0  0  0  0  0
   -0.9034   -0.6052    0.0000 C   0  0  0  0  0  0  0  0  0  0  0  0
    0.4670    0.0047    0.0000 C   0  0  0  0  0  0  0  0  0  0  0  0
    0.6239    1.4965    0.0000 C   0  0  0  0  0  0  0  0  0  0  0  0
    1.9943    2.1065    0.0000 C   0  0  0  0  0  0  0  0  0  0  0  0
    3.2078    1.2247    0.0000 C   0  0  0  0  0  0  0  0  0  0  0  0
    3.0508   -0.2671    0.0000 C   0  0  0  0  0  0  0  0  0  0  0  0
    4.2643   -1.1489    0.0000 C   0  0  0  0  0  0  0  0  0  0  0  0
    1.6804   -0.8771    0.0000 C   0  0  0  0  0  0  0  0  0  0  0  0
    1.5235   -2.3688    0.0000 C   0  0  0  0  0  0  0  0  0  0  0  0
   -3.4872   -0.3334    0.0000 C   0  0  0  0  0  0  0  0  0  0  0  0
   -3.6441   -1.8252    0.0000 O   0  0  0  0  0  0  0  0  0  0  0  0
   -4.7006    0.5484    0.0000 O   0  0  0  0  0  0  0  0  0  0  0  0
  2  1  1  1
  2  3  1  0
  3  4  1  0
  4  5  2  0
  5  6  1  0
  6  7  2  0
  7  8  1  0
  8  9  1  0
  8 10  2  0
 10 11  1  0
  2 12  1  0
 12 13  2  0
 12 14  1  0
 10  4  1  0
M  END
>  <rName>  (2714) 
Phe_23diMe

>  <PQ_SYMBOL>  (2714) 
Phe_23diMe

>  <FULL_NAME>  (2714) 
(S)-2-amino-3-(2,3-dimethylphenyl)propanoic acid

>  <IUPAC_CONDENSED>  (2714) 
Phe(2,3-diMe)

>  <IUPAC>  (2714) 
(2S)-2-amino-3-(2,3-dimethylphenyl)propanoic acid

>  <TYPE>  (2714) 
Backbone

>  <CLASS>  (2714) 
alpha

>  <ANALOG>  (2714) 
Phe

>  <MOL_WT>  (2714) 
193.24599999999995

>  <LOGP>  (2714) 
1.25784

>  <TPSA>  (2714) 
63.32000000000001

>  <POPULARITY>  (2714) 
6.5

>  <PROTECTED>  (2714) 
TRUE

>  <SMILES>  (2714) 
N[C@@H](Cc1(cccc(C)c1C))C(=O)O

>  <INCHIKEY>  (2714) 
YOOQLMVNYYJZEI-JTQLQIEISA-N

$$$$
Phe_23diMe_4OMe
     RDKit          2D

 16 16  0  0  0  0  0  0  0  0999 V2000
   -2.2239    1.8990    0.0000 N   0  0  0  0  0  0  0  0  0  0  0  0
   -2.6592    0.4635    0.0000 C   0  0  0  0  0  0  0  0  0  0  0  0
   -1.6337   -0.6312    0.0000 C   0  0  0  0  0  0  0  0  0  0  0  0
   -0.1729   -0.2904    0.0000 C   0  0  0  0  0  0  0  0  0  0  0  0
    0.2624    1.1450    0.0000 C   0  0  0  0  0  0  0  0  0  0  0  0
    1.7232    1.4857    0.0000 C   0  0  0  0  0  0  0  0  0  0  0  0
    2.7487    0.3910    0.0000 C   0  0  0  0  0  0  0  0  0  0  0  0
    4.2094    0.7318    0.0000 O   0  0  0  0  0  0  0  0  0  0  0  0
    4.6448    2.1672    0.0000 C   0  0  0  0  0  0  0  0  0  0  0  0
    2.3133   -1.0444    0.0000 C   0  0  0  0  0  0  0  0  0  0  0  0
    3.3388   -2.1391    0.0000 C   0  0  0  0  0  0  0  0  0  0  0  0
    0.8526   -1.3852    0.0000 C   0  0  0  0  0  0  0  0  0  0  0  0
    0.4172   -2.8206    0.0000 C   0  0  0  0  0  0  0  0  0  0  0  0
   -4.1200    0.1228    0.0000 C   0  0  0  0  0  0  0  0  0  0  0  0
   -4.5553   -1.3126    0.0000 O   0  0  0  0  0  0  0  0  0  0  0  0
   -5.1454    1.2175    0.0000 O   0  0  0  0  0  0  0  0  0  0  0  0
  2  1  1  1
  2  3  1  0
  3  4  1  0
  4  5  1  0
  5  6  2  0
  6  7  1  0
  7  8  1  0
  8  9  1  0
  7 10  2  0
 10 11  1  0
 10 12  1  0
 12 13  1  0
  2 14  1  0
 14 15  2  0
 14 16  1  0
 12  4  2  0
M  END
>  <rName>  (2715) 
Phe_23diMe_4OMe

>  <PQ_SYMBOL>  (2715) 
Phe_23diMe_4OMe

>  <FULL_NAME>  (2715) 
(S)-2-amino-3-(4-methoxy-2,3-dimethylphenyl)propanoic acid

>  <IUPAC_CONDENSED>  (2715) 
Phe(2,3-diMe,4-OMe)

>  <IUPAC>  (2715) 
(2S)-2-amino-3-(4-methoxy-2,3-dimethylphenyl)propanoic acid

>  <TYPE>  (2715) 
Backbone

>  <CLASS>  (2715) 
alpha

>  <ANALOG>  (2715) 
Tyr

>  <MOL_WT>  (2715) 
223.27199999999996

>  <LOGP>  (2715) 
1.2664399999999998

>  <TPSA>  (2715) 
72.55

>  <POPULARITY>  (2715) 
3.0

>  <PROTECTED>  (2715) 
TRUE

>  <SMILES>  (2715) 
N[C@@H](Cc1(ccc(OC)c(C)c1C))C(=O)O

>  <INCHIKEY>  (2715) 
XOXKSLGPWZNSBO-JTQLQIEISA-N

$$$$
Phe_23diOMe
     RDKit          2D

 16 16  0  0  0  0  0  0  0  0999 V2000
   -2.4570    1.8470    0.0000 N   0  0  0  0  0  0  0  0  0  0  0  0
   -2.4398    0.3471    0.0000 C   0  0  0  0  0  0  0  0  0  0  0  0
   -1.1323   -0.3880    0.0000 C   0  0  0  0  0  0  0  0  0  0  0  0
    0.1581    0.3768    0.0000 C   0  0  0  0  0  0  0  0  0  0  0  0
    0.1409    1.8767    0.0000 C   0  0  0  0  0  0  0  0  0  0  0  0
    1.4313    2.6416    0.0000 C   0  0  0  0  0  0  0  0  0  0  0  0
    2.7388    1.9065    0.0000 C   0  0  0  0  0  0  0  0  0  0  0  0
    2.7560    0.4066    0.0000 C   0  0  0  0  0  0  0  0  0  0  0  0
    4.0635   -0.3285    0.0000 O   0  0  0  0  0  0  0  0  0  0  0  0
    4.0807   -1.8284    0.0000 C   0  0  0  0  0  0  0  0  0  0  0  0
    1.4656   -0.3582    0.0000 C   0  0  0  0  0  0  0  0  0  0  0  0
    1.4828   -1.8581    0.0000 O   0  0  0  0  0  0  0  0  0  0  0  0
    0.1924   -2.6230    0.0000 C   0  0  0  0  0  0  0  0  0  0  0  0
   -3.7302   -0.4177    0.0000 C   0  0  0  0  0  0  0  0  0  0  0  0
   -3.7130   -1.9176    0.0000 O   0  0  0  0  0  0  0  0  0  0  0  0
   -5.0377    0.3173    0.0000 O   0  0  0  0  0  0  0  0  0  0  0  0
  2  1  1  1
  2  3  1  0
  3  4  1  0
  4  5  1  0
  5  6  2  0
  6  7  1  0
  7  8  2  0
  8  9  1  0
  9 10  1  0
  8 11  1  0
 11 12  1  0
 12 13  1  0
  2 14  1  0
 14 15  2  0
 14 16  1  0
 11  4  2  0
M  END
>  <rName>  (2716) 
Phe_23diOMe

>  <PQ_SYMBOL>  (2716) 
Phe_23diOMe

>  <FULL_NAME>  (2716) 
(S)-2-amino-3-(2,3-dimethoxyphenyl)propanoic acid

>  <IUPAC_CONDENSED>  (2716) 
Phe(2,3-diOMe)

>  <IUPAC>  (2716) 
(2S)-2-amino-3-(2,3-dimethoxyphenyl)propanoic acid

>  <TYPE>  (2716) 
Backbone

>  <CLASS>  (2716) 
alpha

>  <ANALOG>  (2716) 
Tyr

>  <MOL_WT>  (2716) 
225.24399999999994

>  <LOGP>  (2716) 
0.6581999999999999

>  <TPSA>  (2716) 
81.78

>  <POPULARITY>  (2716) 
7.2

>  <PROTECTED>  (2716) 
TRUE

>  <SMILES>  (2716) 
N[C@@H](Cc1(cccc(OC)c1OC))C(=O)O

>  <INCHIKEY>  (2716) 
JVBIWFOSWSUQAY-QMMMGPOBSA-N

$$$$
Phe_24_5triF
     RDKit          2D

 15 15  0  0  0  0  0  0  0  0999 V2000
   -1.7432    1.8004    0.0000 N   0  0  0  0  0  0  0  0  0  0  0  0
   -2.2534    0.3899    0.0000 C   0  0  0  0  0  0  0  0  0  0  0  0
   -1.2870   -0.7573    0.0000 C   0  0  0  0  0  0  0  0  0  0  0  0
    0.1897   -0.4940    0.0000 C   0  0  0  0  0  0  0  0  0  0  0  0
    0.7000    0.9165    0.0000 C   0  0  0  0  0  0  0  0  0  0  0  0
    2.1767    1.1799    0.0000 C   0  0  0  0  0  0  0  0  0  0  0  0
    2.6869    2.5904    0.0000 F   0  0  0  0  0  0  0  0  0  0  0  0
    3.1431    0.0327    0.0000 C   0  0  0  0  0  0  0  0  0  0  0  0
    4.6198    0.2961    0.0000 F   0  0  0  0  0  0  0  0  0  0  0  0
    2.6328   -1.3778    0.0000 C   0  0  0  0  0  0  0  0  0  0  0  0
    1.1561   -1.6412    0.0000 C   0  0  0  0  0  0  0  0  0  0  0  0
    0.6458   -3.0517    0.0000 F   0  0  0  0  0  0  0  0  0  0  0  0
   -3.7301    0.1265    0.0000 C   0  0  0  0  0  0  0  0  0  0  0  0
   -4.2404   -1.2840    0.0000 O   0  0  0  0  0  0  0  0  0  0  0  0
   -4.6966    1.2737    0.0000 O   0  0  0  0  0  0  0  0  0  0  0  0
  2  1  1  1
  2  3  1  0
  3  4  1  0
  4  5  1  0
  5  6  2  0
  6  7  1  0
  6  8  1  0
  8  9  1  0
  8 10  2  0
 10 11  1  0
 11 12  1  0
  2 13  1  0
 13 14  2  0
 13 15  1  0
 11  4  2  0
M  END
>  <rName>  (2717) 
Phe_24_5triF

>  <PQ_SYMBOL>  (2717) 
Phe_24_5triF

>  <FULL_NAME>  (2717) 
(S)-2-Amino-3-(2,4,5-trifluorophenyl)propanoic acid

>  <IUPAC_CONDENSED>  (2717) 
Phe(2,4,5-triF)

>  <IUPAC>  (2717) 
(2S)-2-amino-3-(2,4,5-trifluorophenyl)propanoic acid

>  <TYPE>  (2717) 
Backbone

>  <CLASS>  (2717) 
alpha

>  <ANALOG>  (2717) 
Phe

>  <MOL_WT>  (2717) 
219.16199999999998

>  <LOGP>  (2717) 
1.0583000000000002

>  <TPSA>  (2717) 
63.32000000000001

>  <POPULARITY>  (2717) 
7.7

>  <PROTECTED>  (2717) 
TRUE

>  <SMILES>  (2717) 
N[C@@H](Cc1(cc(F)c(F)cc1F))C(=O)O

>  <INCHIKEY>  (2717) 
SWJFYJHCOWRRLR-QMMMGPOBSA-N

$$$$
Phe_24_5triMe
     RDKit          2D

 15 15  0  0  0  0  0  0  0  0999 V2000
   -1.7432    1.8004    0.0000 N   0  0  0  0  0  0  0  0  0  0  0  0
   -2.2534    0.3899    0.0000 C   0  0  0  0  0  0  0  0  0  0  0  0
   -1.2870   -0.7573    0.0000 C   0  0  0  0  0  0  0  0  0  0  0  0
    0.1897   -0.4940    0.0000 C   0  0  0  0  0  0  0  0  0  0  0  0
    0.7000    0.9165    0.0000 C   0  0  0  0  0  0  0  0  0  0  0  0
    2.1767    1.1799    0.0000 C   0  0  0  0  0  0  0  0  0  0  0  0
    2.6869    2.5904    0.0000 C   0  0  0  0  0  0  0  0  0  0  0  0
    3.1431    0.0327    0.0000 C   0  0  0  0  0  0  0  0  0  0  0  0
    4.6198    0.2961    0.0000 C   0  0  0  0  0  0  0  0  0  0  0  0
    2.6328   -1.3778    0.0000 C   0  0  0  0  0  0  0  0  0  0  0  0
    1.1561   -1.6412    0.0000 C   0  0  0  0  0  0  0  0  0  0  0  0
    0.6458   -3.0517    0.0000 C   0  0  0  0  0  0  0  0  0  0  0  0
   -3.7301    0.1265    0.0000 C   0  0  0  0  0  0  0  0  0  0  0  0
   -4.2404   -1.2840    0.0000 O   0  0  0  0  0  0  0  0  0  0  0  0
   -4.6966    1.2737    0.0000 O   0  0  0  0  0  0  0  0  0  0  0  0
  2  1  1  1
  2  3  1  0
  3  4  1  0
  4  5  1  0
  5  6  2  0
  6  7  1  0
  6  8  1  0
  8  9  1  0
  8 10  2  0
 10 11  1  0
 11 12  1  0
  2 13  1  0
 13 14  2  0
 13 15  1  0
 11  4  2  0
M  END
>  <rName>  (2718) 
Phe_24_5triMe

>  <PQ_SYMBOL>  (2718) 
Phe_24_5triMe

>  <FULL_NAME>  (2718) 
2,4,5-Trimethyl-L-phenylalanine

>  <IUPAC_CONDENSED>  (2718) 
Phe(2,4,5-triMe)

>  <IUPAC>  (2718) 
(2S)-2-amino-3-(2,4,5-trimethylphenyl)propanoic acid

>  <TYPE>  (2718) 
Backbone

>  <CLASS>  (2718) 
alpha

>  <ANALOG>  (2718) 
Phe

>  <MOL_WT>  (2718) 
207.27299999999997

>  <LOGP>  (2718) 
1.5662600000000002

>  <TPSA>  (2718) 
63.32000000000001

>  <POPULARITY>  (2718) 
3.5

>  <PROTECTED>  (2718) 
TRUE

>  <SMILES>  (2718) 
N[C@@H](Cc1(cc(C)c(C)cc1C))C(=O)O

>  <INCHIKEY>  (2718) 
HWBNGCUVGLKXNP-NSHDSACASA-N

$$$$
Phe_24_6triF
     RDKit          2D

 15 15  0  0  0  0  0  0  0  0999 V2000
   -1.7110    1.6830    0.0000 N   0  0  0  0  0  0  0  0  0  0  0  0
   -2.0873    0.2310    0.0000 C   0  0  0  0  0  0  0  0  0  0  0  0
   -1.0179   -0.8209    0.0000 C   0  0  0  0  0  0  0  0  0  0  0  0
    0.4277   -0.4208    0.0000 C   0  0  0  0  0  0  0  0  0  0  0  0
    0.8040    1.0313    0.0000 C   0  0  0  0  0  0  0  0  0  0  0  0
   -0.2654    2.0832    0.0000 F   0  0  0  0  0  0  0  0  0  0  0  0
    2.2497    1.4315    0.0000 C   0  0  0  0  0  0  0  0  0  0  0  0
    3.3190    0.3796    0.0000 C   0  0  0  0  0  0  0  0  0  0  0  0
    4.7647    0.7797    0.0000 F   0  0  0  0  0  0  0  0  0  0  0  0
    2.9428   -1.0725    0.0000 C   0  0  0  0  0  0  0  0  0  0  0  0
    1.4971   -1.4726    0.0000 C   0  0  0  0  0  0  0  0  0  0  0  0
    1.1209   -2.9247    0.0000 F   0  0  0  0  0  0  0  0  0  0  0  0
   -3.5329   -0.1692    0.0000 C   0  0  0  0  0  0  0  0  0  0  0  0
   -3.9092   -1.6212    0.0000 O   0  0  0  0  0  0  0  0  0  0  0  0
   -4.6023    0.8827    0.0000 O   0  0  0  0  0  0  0  0  0  0  0  0
  2  1  1  1
  2  3  1  0
  3  4  1  0
  4  5  2  0
  5  6  1  0
  5  7  1  0
  7  8  2  0
  8  9  1  0
  8 10  1  0
 10 11  2  0
 11 12  1  0
  2 13  1  0
 13 14  2  0
 13 15  1  0
 11  4  1  0
M  END
>  <rName>  (2719) 
Phe_24_6triF

>  <PQ_SYMBOL>  (2719) 
Phe_24_6triF

>  <FULL_NAME>  (2719) 
2,4,6-trifluoro-L-phenylalanine

>  <IUPAC_CONDENSED>  (2719) 
Phe(2,4,6-triF)

>  <IUPAC>  (2719) 
(2S)-2-amino-3-(2,4,6-trifluorophenyl)propanoic acid

>  <TYPE>  (2719) 
Backbone

>  <CLASS>  (2719) 
alpha

>  <ANALOG>  (2719) 
Phe

>  <MOL_WT>  (2719) 
219.16199999999998

>  <LOGP>  (2719) 
1.0583000000000002

>  <TPSA>  (2719) 
63.32000000000001

>  <POPULARITY>  (2719) 
2.6

>  <PROTECTED>  (2719) 
TRUE

>  <SMILES>  (2719) 
N[C@@H](Cc1(c(F)cc(F)cc1F))C(=O)O

>  <INCHIKEY>  (2719) 
FFQWNGIXCCSUNO-QMMMGPOBSA-N

$$$$
Phe_24diCl
     RDKit          2D

 14 14  0  0  0  0  0  0  0  0999 V2000
   -1.7174    1.8436    0.0000 N   0  0  0  0  0  0  0  0  0  0  0  0
   -2.1036    0.3942    0.0000 C   0  0  0  0  0  0  0  0  0  0  0  0
   -1.0414   -0.6650    0.0000 C   0  0  0  0  0  0  0  0  0  0  0  0
    0.4069   -0.2747    0.0000 C   0  0  0  0  0  0  0  0  0  0  0  0
    0.7931    1.1747    0.0000 C   0  0  0  0  0  0  0  0  0  0  0  0
    2.2415    1.5649    0.0000 C   0  0  0  0  0  0  0  0  0  0  0  0
    3.3036    0.5057    0.0000 C   0  0  0  0  0  0  0  0  0  0  0  0
    4.7520    0.8960    0.0000 Cl  0  0  0  0  0  0  0  0  0  0  0  0
    2.9174   -0.9437    0.0000 C   0  0  0  0  0  0  0  0  0  0  0  0
    1.4691   -1.3339    0.0000 C   0  0  0  0  0  0  0  0  0  0  0  0
    1.0829   -2.7834    0.0000 Cl  0  0  0  0  0  0  0  0  0  0  0  0
   -3.5519    0.0039    0.0000 C   0  0  0  0  0  0  0  0  0  0  0  0
   -3.9381   -1.4455    0.0000 O   0  0  0  0  0  0  0  0  0  0  0  0
   -4.6140    1.0631    0.0000 O   0  0  0  0  0  0  0  0  0  0  0  0
  2  1  1  1
  2  3  1  0
  3  4  1  0
  4  5  1  0
  5  6  2  0
  6  7  1  0
  7  8  1  0
  7  9  2  0
  9 10  1  0
 10 11  1  0
  2 12  1  0
 12 13  2  0
 12 14  1  0
 10  4  2  0
M  END
>  <rName>  (2720) 
Phe_24diCl

>  <PQ_SYMBOL>  (2720) 
Phe_24diCl

>  <FULL_NAME>  (2720) 
2,4-Dichloro-L-Phenylalanine

>  <IUPAC_CONDENSED>  (2720) 
Phe(2,4-diCl)

>  <IUPAC>  (2720) 
(2S)-2-amino-3-(2,4-dichlorophenyl)propanoic acid

>  <TYPE>  (2720) 
Backbone

>  <CLASS>  (2720) 
alpha

>  <ANALOG>  (2720) 
Phe

>  <MOL_WT>  (2720) 
234.082

>  <LOGP>  (2720) 
1.9478000000000002

>  <TPSA>  (2720) 
63.32000000000001

>  <POPULARITY>  (2720) 
7.5

>  <PROTECTED>  (2720) 
TRUE

>  <SMILES>  (2720) 
N[C@@H](Cc1(ccc(Cl)cc1Cl))C(=O)O

>  <INCHIKEY>  (2720) 
GWHQTNKPTXDNRM-QMMMGPOBSA-N

$$$$
Phe_24diF
     RDKit          2D

 14 14  0  0  0  0  0  0  0  0999 V2000
   -1.7174    1.8436    0.0000 N   0  0  0  0  0  0  0  0  0  0  0  0
   -2.1036    0.3942    0.0000 C   0  0  0  0  0  0  0  0  0  0  0  0
   -1.0414   -0.6650    0.0000 C   0  0  0  0  0  0  0  0  0  0  0  0
    0.4069   -0.2747    0.0000 C   0  0  0  0  0  0  0  0  0  0  0  0
    0.7931    1.1747    0.0000 C   0  0  0  0  0  0  0  0  0  0  0  0
    2.2415    1.5649    0.0000 C   0  0  0  0  0  0  0  0  0  0  0  0
    3.3036    0.5057    0.0000 C   0  0  0  0  0  0  0  0  0  0  0  0
    4.7520    0.8960    0.0000 F   0  0  0  0  0  0  0  0  0  0  0  0
    2.9174   -0.9437    0.0000 C   0  0  0  0  0  0  0  0  0  0  0  0
    1.4691   -1.3339    0.0000 C   0  0  0  0  0  0  0  0  0  0  0  0
    1.0829   -2.7834    0.0000 F   0  0  0  0  0  0  0  0  0  0  0  0
   -3.5519    0.0039    0.0000 C   0  0  0  0  0  0  0  0  0  0  0  0
   -3.9381   -1.4455    0.0000 O   0  0  0  0  0  0  0  0  0  0  0  0
   -4.6140    1.0631    0.0000 O   0  0  0  0  0  0  0  0  0  0  0  0
  2  1  1  1
  2  3  1  0
  3  4  1  0
  4  5  1  0
  5  6  2  0
  6  7  1  0
  7  8  1  0
  7  9  2  0
  9 10  1  0
 10 11  1  0
  2 12  1  0
 12 13  2  0
 12 14  1  0
 10  4  2  0
M  END
>  <rName>  (2721) 
Phe_24diF

>  <PQ_SYMBOL>  (2721) 
Phe_24diF

>  <FULL_NAME>  (2721) 
(2S)-2-amino-3-(2,4-difluorophenyl)propanoic acid

>  <IUPAC_CONDENSED>  (2721) 
Phe(2,4-diF)

>  <IUPAC>  (2721) 
(2S)-2-amino-3-(2,4-difluorophenyl)propanoic acid

>  <TYPE>  (2721) 
Backbone

>  <CLASS>  (2721) 
alpha

>  <ANALOG>  (2721) 
Phe

>  <MOL_WT>  (2721) 
201.17199999999997

>  <LOGP>  (2721) 
0.9192

>  <TPSA>  (2721) 
63.32000000000001

>  <POPULARITY>  (2721) 
12.4

>  <PROTECTED>  (2721) 
TRUE

>  <SMILES>  (2721) 
N[C@@H](Cc1(ccc(F)cc1F))C(=O)O

>  <INCHIKEY>  (2721) 
UEFLPVKMPDEMFW-QMMMGPOBSA-N

$$$$
Phe_24diF_3CO2H
     RDKit          2D

 17 17  0  0  0  0  0  0  0  0999 V2000
   -2.8633    1.7512    0.0000 N   0  0  0  0  0  0  0  0  0  0  0  0
   -2.9695    0.2550    0.0000 C   0  0  0  0  0  0  0  0  0  0  0  0
   -1.7269   -0.5851    0.0000 C   0  0  0  0  0  0  0  0  0  0  0  0
   -0.3780    0.0711    0.0000 C   0  0  0  0  0  0  0  0  0  0  0  0
   -0.2718    1.5673    0.0000 C   0  0  0  0  0  0  0  0  0  0  0  0
    1.0771    2.2234    0.0000 C   0  0  0  0  0  0  0  0  0  0  0  0
    2.3198    1.3833    0.0000 C   0  0  0  0  0  0  0  0  0  0  0  0
    3.6687    2.0395    0.0000 F   0  0  0  0  0  0  0  0  0  0  0  0
    2.2136   -0.1129    0.0000 C   0  0  0  0  0  0  0  0  0  0  0  0
    3.4562   -0.9530    0.0000 C   0  0  0  0  0  0  0  0  0  0  0  0
    4.8051   -0.2968    0.0000 O   0  0  0  0  0  0  0  0  0  0  0  0
    3.3500   -2.4492    0.0000 O   0  0  0  0  0  0  0  0  0  0  0  0
    0.8647   -0.7690    0.0000 C   0  0  0  0  0  0  0  0  0  0  0  0
    0.7585   -2.2653    0.0000 F   0  0  0  0  0  0  0  0  0  0  0  0
   -4.3184   -0.4011    0.0000 C   0  0  0  0  0  0  0  0  0  0  0  0
   -4.4246   -1.8974    0.0000 O   0  0  0  0  0  0  0  0  0  0  0  0
   -5.5611    0.4390    0.0000 O   0  0  0  0  0  0  0  0  0  0  0  0
  2  1  1  1
  2  3  1  0
  3  4  1  0
  4  5  1  0
  5  6  2  0
  6  7  1  0
  7  8  1  0
  7  9  2  0
  9 10  1  0
 10 11  2  0
 10 12  1  0
  9 13  1  0
 13 14  1  0
  2 15  1  0
 15 16  2  0
 15 17  1  0
 13  4  2  0
M  END
>  <rName>  (2722) 
Phe_24diF_3CO2H

>  <PQ_SYMBOL>  (2722) 
Phe_24diF_3CO2H

>  <FULL_NAME>  (2722) 
(S)-3-(2-amino-2-carboxyethyl)-2,6-difluorobenzoic acid

>  <IUPAC_CONDENSED>  (2722) 
Phe(2,4-diF,3-CO2H)

>  <IUPAC>  (2722) 
3-((2S)-2-amino-3-hydroxy-3-oxopropyl)-2,6-difluorobenzene-1-carboxylic acid

>  <TYPE>  (2722) 
Backbone

>  <CLASS>  (2722) 
alpha

>  <ANALOG>  (2722) 
Phe

>  <MOL_WT>  (2722) 
245.18099999999995

>  <LOGP>  (2722) 
0.6174000000000001

>  <TPSA>  (2722) 
100.62000000000002

>  <POPULARITY>  (2722) 
2.2

>  <PROTECTED>  (2722) 
TRUE

>  <SMILES>  (2722) 
N[C@@H](Cc1(ccc(F)c(C(=O)O)c1F))C(=O)O

>  <INCHIKEY>  (2722) 
ODFXBHCQEVUFAQ-LURJTMIESA-N

$$$$
Phe_24diF_5CO2H
     RDKit          2D

 17 17  0  0  0  0  0  0  0  0999 V2000
    1.7999   -1.7667    0.0000 N   0  0  0  0  0  0  0  0  0  0  0  0
    2.5565   -0.4715    0.0000 C   0  0  0  0  0  0  0  0  0  0  0  0
    1.8131    0.8314    0.0000 C   0  0  0  0  0  0  0  0  0  0  0  0
    0.3131    0.8390    0.0000 C   0  0  0  0  0  0  0  0  0  0  0  0
   -0.4435   -0.4562    0.0000 C   0  0  0  0  0  0  0  0  0  0  0  0
   -1.9435   -0.4486    0.0000 C   0  0  0  0  0  0  0  0  0  0  0  0
   -2.7001   -1.7438    0.0000 C   0  0  0  0  0  0  0  0  0  0  0  0
   -1.9567   -3.0467    0.0000 O   0  0  0  0  0  0  0  0  0  0  0  0
   -4.2000   -1.7362    0.0000 O   0  0  0  0  0  0  0  0  0  0  0  0
   -2.6869    0.8542    0.0000 C   0  0  0  0  0  0  0  0  0  0  0  0
   -4.1869    0.8618    0.0000 F   0  0  0  0  0  0  0  0  0  0  0  0
   -1.9303    2.1494    0.0000 C   0  0  0  0  0  0  0  0  0  0  0  0
   -0.4303    2.1418    0.0000 C   0  0  0  0  0  0  0  0  0  0  0  0
    0.3263    3.4370    0.0000 F   0  0  0  0  0  0  0  0  0  0  0  0
    4.0564   -0.4791    0.0000 C   0  0  0  0  0  0  0  0  0  0  0  0
    4.8130    0.8161    0.0000 O   0  0  0  0  0  0  0  0  0  0  0  0
    4.7998   -1.7819    0.0000 O   0  0  0  0  0  0  0  0  0  0  0  0
  2  1  1  1
  2  3  1  0
  3  4  1  0
  4  5  2  0
  5  6  1  0
  6  7  1  0
  7  8  2  0
  7  9  1  0
  6 10  2  0
 10 11  1  0
 10 12  1  0
 12 13  2  0
 13 14  1  0
  2 15  1  0
 15 16  2  0
 15 17  1  0
 13  4  1  0
M  END
>  <rName>  (2723) 
Phe_24diF_5CO2H

>  <PQ_SYMBOL>  (2723) 
Phe_24diF_5CO2H

>  <FULL_NAME>  (2723) 
(S)-5-(2-amino-2-carboxyethyl)-2,4-difluorobenzoic acid

>  <IUPAC_CONDENSED>  (2723) 
Phe(2,4-diF,5-CO2H)

>  <IUPAC>  (2723) 
5-((2S)-2-amino-3-hydroxy-3-oxopropyl)-2,4-difluorobenzene-1-carboxylic acid

>  <TYPE>  (2723) 
Backbone

>  <CLASS>  (2723) 
alpha

>  <ANALOG>  (2723) 
Phe

>  <MOL_WT>  (2723) 
245.18099999999995

>  <LOGP>  (2723) 
0.6174000000000001

>  <TPSA>  (2723) 
100.62000000000002

>  <POPULARITY>  (2723) 
2.3

>  <PROTECTED>  (2723) 
TRUE

>  <SMILES>  (2723) 
N[C@@H](Cc1(cc(C(=O)O)c(F)cc1F))C(=O)O

>  <INCHIKEY>  (2723) 
BMNQNSFRESQUQO-QMMMGPOBSA-N

$$$$
Phe_24diMe
     RDKit          2D

 14 14  0  0  0  0  0  0  0  0999 V2000
   -1.7174    1.8436    0.0000 N   0  0  0  0  0  0  0  0  0  0  0  0
   -2.1036    0.3942    0.0000 C   0  0  0  0  0  0  0  0  0  0  0  0
   -1.0414   -0.6650    0.0000 C   0  0  0  0  0  0  0  0  0  0  0  0
    0.4069   -0.2747    0.0000 C   0  0  0  0  0  0  0  0  0  0  0  0
    0.7931    1.1747    0.0000 C   0  0  0  0  0  0  0  0  0  0  0  0
    2.2415    1.5649    0.0000 C   0  0  0  0  0  0  0  0  0  0  0  0
    3.3036    0.5057    0.0000 C   0  0  0  0  0  0  0  0  0  0  0  0
    4.7520    0.8960    0.0000 C   0  0  0  0  0  0  0  0  0  0  0  0
    2.9174   -0.9437    0.0000 C   0  0  0  0  0  0  0  0  0  0  0  0
    1.4691   -1.3339    0.0000 C   0  0  0  0  0  0  0  0  0  0  0  0
    1.0829   -2.7834    0.0000 C   0  0  0  0  0  0  0  0  0  0  0  0
   -3.5519    0.0039    0.0000 C   0  0  0  0  0  0  0  0  0  0  0  0
   -3.9381   -1.4455    0.0000 O   0  0  0  0  0  0  0  0  0  0  0  0
   -4.6140    1.0631    0.0000 O   0  0  0  0  0  0  0  0  0  0  0  0
  2  1  1  1
  2  3  1  0
  3  4  1  0
  4  5  1  0
  5  6  2  0
  6  7  1  0
  7  8  1  0
  7  9  2  0
  9 10  1  0
 10 11  1  0
  2 12  1  0
 12 13  2  0
 12 14  1  0
 10  4  2  0
M  END
>  <rName>  (2724) 
Phe_24diMe

>  <PQ_SYMBOL>  (2724) 
Phe_24diMe

>  <FULL_NAME>  (2724) 
2,4-Dimethyl-L-Phenylalanine

>  <IUPAC_CONDENSED>  (2724) 
Phe(2,4-diMe)

>  <IUPAC>  (2724) 
(2S)-2-amino-3-(2,4-dimethylphenyl)propanoic acid

>  <TYPE>  (2724) 
Backbone

>  <CLASS>  (2724) 
alpha

>  <ANALOG>  (2724) 
Phe

>  <MOL_WT>  (2724) 
193.24599999999995

>  <LOGP>  (2724) 
1.25784

>  <TPSA>  (2724) 
63.32000000000001

>  <POPULARITY>  (2724) 
10.7

>  <PROTECTED>  (2724) 
TRUE

>  <SMILES>  (2724) 
N[C@@H](Cc1(ccc(C)cc1C))C(=O)O

>  <INCHIKEY>  (2724) 
ZEWXVRJSLTXWON-JTQLQIEISA-N

$$$$
Phe_24diNO2
     RDKit          2D

 18 18  0  0  0  0  0  0  0  0999 V2000
   -2.2817    2.2658    0.0000 N   0  0  0  0  0  0  0  0  0  0  0  0
   -2.7617    0.8447    0.0000 C   0  0  0  0  0  0  0  0  0  0  0  0
   -1.7709   -0.2815    0.0000 C   0  0  0  0  0  0  0  0  0  0  0  0
   -0.3002    0.0134    0.0000 C   0  0  0  0  0  0  0  0  0  0  0  0
    0.1798    1.4346    0.0000 C   0  0  0  0  0  0  0  0  0  0  0  0
    1.6505    1.7295    0.0000 C   0  0  0  0  0  0  0  0  0  0  0  0
    2.6413    0.6033    0.0000 C   0  0  0  0  0  0  0  0  0  0  0  0
    2.1613   -0.8179    0.0000 C   0  0  0  0  0  0  0  0  0  0  0  0
    0.6906   -1.1128    0.0000 C   0  0  0  0  0  0  0  0  0  0  0  0
    0.2107   -2.5339    0.0000 N   0  0  0  0  0  0  0  0  0  0  0  0
   -1.2601   -2.8289    0.0000 O   0  0  0  0  0  0  0  0  0  0  0  0
    1.2014   -3.6602    0.0000 O   0  0  0  0  0  0  0  0  0  0  0  0
    4.1120    0.8982    0.0000 N   0  0  0  0  0  0  0  0  0  0  0  0
    4.5919    2.3193    0.0000 O   0  0  0  0  0  0  0  0  0  0  0  0
    5.1028   -0.2280    0.0000 O   0  0  0  0  0  0  0  0  0  0  0  0
   -4.2324    0.5498    0.0000 C   0  0  0  0  0  0  0  0  0  0  0  0
   -4.7123   -0.8714    0.0000 O   0  0  0  0  0  0  0  0  0  0  0  0
   -5.2232    1.6760    0.0000 O   0  0  0  0  0  0  0  0  0  0  0  0
  2  1  1  1
  2  3  1  0
  3  4  1  0
  4  5  1  0
  5  6  2  0
  6  7  1  0
  7  8  2  0
  8  9  1  0
  9 10  1  0
 10 11  2  0
 10 12  1  0
  7 13  1  0
 13 14  2  0
 13 15  1  0
  2 16  1  0
 16 17  2  0
 16 18  1  0
  9  4  2  0
M  CHG  4  10   1  12  -1  13   1  15  -1
M  END
>  <rName>  (2725) 
Phe_24diNO2

>  <PQ_SYMBOL>  (2725) 
Phe_24diNO2

>  <FULL_NAME>  (2725) 
2,4-Dinitro-L-phenylalanine

>  <IUPAC_CONDENSED>  (2725) 
Phe(2,4-diNO2)

>  <IUPAC>  (2725) 
(2S)-2-amino-3-(2,4-dinitrophenyl)propanoic acid

>  <TYPE>  (2725) 
Backbone

>  <CLASS>  (2725) 
alpha

>  <ANALOG>  (2725) 
Phe

>  <MOL_WT>  (2725) 
255.18599999999995

>  <LOGP>  (2725) 
0.45739999999999975

>  <TPSA>  (2725) 
149.6

>  <POPULARITY>  (2725) 
5.1

>  <PROTECTED>  (2725) 
TRUE

>  <SMILES>  (2725) 
N[C@@H](Cc1(ccc(cc1[N+](=O)[O-])[N+](=O)[O-]))C(=O)O

>  <INCHIKEY>  (2725) 
LLVUHQYJZJUDAM-ZETCQYMHSA-N

$$$$
Phe_24diOMe
     RDKit          2D

 16 16  0  0  0  0  0  0  0  0999 V2000
   -2.3497    1.9414    0.0000 N   0  0  0  0  0  0  0  0  0  0  0  0
   -2.6382    0.4694    0.0000 C   0  0  0  0  0  0  0  0  0  0  0  0
   -1.5077   -0.5165    0.0000 C   0  0  0  0  0  0  0  0  0  0  0  0
   -0.0887   -0.0304    0.0000 C   0  0  0  0  0  0  0  0  0  0  0  0
    0.1999    1.4416    0.0000 C   0  0  0  0  0  0  0  0  0  0  0  0
    1.6189    1.9277    0.0000 C   0  0  0  0  0  0  0  0  0  0  0  0
    2.7494    0.9418    0.0000 C   0  0  0  0  0  0  0  0  0  0  0  0
    4.1685    1.4279    0.0000 O   0  0  0  0  0  0  0  0  0  0  0  0
    5.2990    0.4420    0.0000 C   0  0  0  0  0  0  0  0  0  0  0  0
    2.4609   -0.5302    0.0000 C   0  0  0  0  0  0  0  0  0  0  0  0
    1.0418   -1.0163    0.0000 C   0  0  0  0  0  0  0  0  0  0  0  0
    0.7532   -2.4883    0.0000 O   0  0  0  0  0  0  0  0  0  0  0  0
    1.8837   -3.4742    0.0000 C   0  0  0  0  0  0  0  0  0  0  0  0
   -4.0573   -0.0166    0.0000 C   0  0  0  0  0  0  0  0  0  0  0  0
   -4.3459   -1.4886    0.0000 O   0  0  0  0  0  0  0  0  0  0  0  0
   -5.1878    0.9693    0.0000 O   0  0  0  0  0  0  0  0  0  0  0  0
  2  1  1  1
  2  3  1  0
  3  4  1  0
  4  5  1  0
  5  6  2  0
  6  7  1  0
  7  8  1  0
  8  9  1  0
  7 10  2  0
 10 11  1  0
 11 12  1  0
 12 13  1  0
  2 14  1  0
 14 15  2  0
 14 16  1  0
 11  4  2  0
M  END
>  <rName>  (2726) 
Phe_24diOMe

>  <PQ_SYMBOL>  (2726) 
Phe_24diOMe

>  <FULL_NAME>  (2726) 
(2S)-2-amino-3-(2,4-dimethoxyphenyl)propanoic acid

>  <IUPAC_CONDENSED>  (2726) 
Phe(2,4-diOMe)

>  <IUPAC>  (2726) 
(2S)-2-amino-3-(2,4-dimethoxyphenyl)propanoic acid

>  <TYPE>  (2726) 
Backbone

>  <CLASS>  (2726) 
alpha

>  <ANALOG>  (2726) 
Tyr

>  <MOL_WT>  (2726) 
225.24399999999997

>  <LOGP>  (2726) 
0.6581999999999999

>  <TPSA>  (2726) 
81.78

>  <POPULARITY>  (2726) 
8.4

>  <PROTECTED>  (2726) 
TRUE

>  <SMILES>  (2726) 
N[C@@H](Cc1(ccc(OC)cc1OC))C(=O)O

>  <INCHIKEY>  (2726) 
FATCEKMZLXXPPE-VIFPVBQESA-N

$$$$
Phe_25diCO2H
     RDKit          2D

 18 18  0  0  0  0  0  0  0  0999 V2000
    1.2062   -2.3415    0.0000 N   0  0  0  0  0  0  0  0  0  0  0  0
    2.1185   -1.1508    0.0000 C   0  0  0  0  0  0  0  0  0  0  0  0
    1.5435    0.2346    0.0000 C   0  0  0  0  0  0  0  0  0  0  0  0
    0.0562    0.4293    0.0000 C   0  0  0  0  0  0  0  0  0  0  0  0
   -0.8561   -0.7613    0.0000 C   0  0  0  0  0  0  0  0  0  0  0  0
   -2.3434   -0.5666    0.0000 C   0  0  0  0  0  0  0  0  0  0  0  0
   -2.9184    0.8189    0.0000 C   0  0  0  0  0  0  0  0  0  0  0  0
   -2.0061    2.0095    0.0000 C   0  0  0  0  0  0  0  0  0  0  0  0
   -0.5188    1.8148    0.0000 C   0  0  0  0  0  0  0  0  0  0  0  0
    0.3936    3.0054    0.0000 C   0  0  0  0  0  0  0  0  0  0  0  0
    1.8809    2.8107    0.0000 O   0  0  0  0  0  0  0  0  0  0  0  0
   -0.1814    4.3909    0.0000 O   0  0  0  0  0  0  0  0  0  0  0  0
   -3.2557   -1.7572    0.0000 C   0  0  0  0  0  0  0  0  0  0  0  0
   -2.6807   -3.1426    0.0000 O   0  0  0  0  0  0  0  0  0  0  0  0
   -4.7430   -1.5624    0.0000 O   0  0  0  0  0  0  0  0  0  0  0  0
    3.6058   -1.3456    0.0000 C   0  0  0  0  0  0  0  0  0  0  0  0
    4.5181   -0.1549    0.0000 O   0  0  0  0  0  0  0  0  0  0  0  0
    4.1808   -2.7310    0.0000 O   0  0  0  0  0  0  0  0  0  0  0  0
  2  1  1  1
  2  3  1  0
  3  4  1  0
  4  5  1  0
  5  6  2  0
  6  7  1  0
  7  8  2  0
  8  9  1  0
  9 10  1  0
 10 11  2  0
 10 12  1  0
  6 13  1  0
 13 14  2  0
 13 15  1  0
  2 16  1  0
 16 17  2  0
 16 18  1  0
  9  4  2  0
M  END
>  <rName>  (2727) 
Phe_25diCO2H

>  <PQ_SYMBOL>  (2727) 
Phe_25diCO2H

>  <FULL_NAME>  (2727) 
(S)-2-(2-amino-2-carboxyethyl)terephthalic acid

>  <IUPAC_CONDENSED>  (2727) 
Phe(2,5-diCO2H)

>  <IUPAC>  (2727) 
2-((2S)-2-amino-3-hydroxy-3-oxopropyl)benzene-1,4-dicarboxylic acid

>  <TYPE>  (2727) 
Backbone

>  <CLASS>  (2727) 
alpha

>  <ANALOG>  (2727) 
Phe

>  <MOL_WT>  (2727) 
253.20999999999995

>  <LOGP>  (2727) 
0.03739999999999977

>  <TPSA>  (2727) 
137.92000000000002

>  <POPULARITY>  (2727) 
2.2

>  <PROTECTED>  (2727) 
TRUE

>  <SMILES>  (2727) 
N[C@@H](Cc1(cc(ccc1C(=O)O)C(=O)O))C(=O)O

>  <INCHIKEY>  (2727) 
JWPJTBJZZSTIPV-QMMMGPOBSA-N

$$$$
Phe_25diCl
     RDKit          2D

 14 14  0  0  0  0  0  0  0  0999 V2000
   -1.4552    1.7882    0.0000 N   0  0  0  0  0  0  0  0  0  0  0  0
   -1.9325    0.3661    0.0000 C   0  0  0  0  0  0  0  0  0  0  0  0
   -0.9397   -0.7583    0.0000 C   0  0  0  0  0  0  0  0  0  0  0  0
    0.5305   -0.4606    0.0000 C   0  0  0  0  0  0  0  0  0  0  0  0
    1.0078    0.9614    0.0000 C   0  0  0  0  0  0  0  0  0  0  0  0
    2.4780    1.2591    0.0000 C   0  0  0  0  0  0  0  0  0  0  0  0
    2.9553    2.6811    0.0000 Cl  0  0  0  0  0  0  0  0  0  0  0  0
    3.4709    0.1347    0.0000 C   0  0  0  0  0  0  0  0  0  0  0  0
    2.9935   -1.2874    0.0000 C   0  0  0  0  0  0  0  0  0  0  0  0
    1.5234   -1.5850    0.0000 C   0  0  0  0  0  0  0  0  0  0  0  0
    1.0461   -3.0070    0.0000 Cl  0  0  0  0  0  0  0  0  0  0  0  0
   -3.4027    0.0685    0.0000 C   0  0  0  0  0  0  0  0  0  0  0  0
   -3.8800   -1.3536    0.0000 O   0  0  0  0  0  0  0  0  0  0  0  0
   -4.3955    1.1929    0.0000 O   0  0  0  0  0  0  0  0  0  0  0  0
  2  1  1  1
  2  3  1  0
  3  4  1  0
  4  5  1  0
  5  6  2  0
  6  7  1  0
  6  8  1  0
  8  9  2  0
  9 10  1  0
 10 11  1  0
  2 12  1  0
 12 13  2  0
 12 14  1  0
 10  4  2  0
M  END
>  <rName>  (2728) 
Phe_25diCl

>  <PQ_SYMBOL>  (2728) 
Phe_25diCl

>  <FULL_NAME>  (2728) 
(S)-2-amino-3-(2,5-dichlorophenyl)propanoic acid

>  <IUPAC_CONDENSED>  (2728) 
Phe(2,5-diCl)

>  <IUPAC>  (2728) 
(2S)-2-amino-3-(2,5-dichlorophenyl)propanoic acid

>  <TYPE>  (2728) 
Backbone

>  <CLASS>  (2728) 
alpha

>  <ANALOG>  (2728) 
Phe

>  <MOL_WT>  (2728) 
234.082

>  <LOGP>  (2728) 
1.9478

>  <TPSA>  (2728) 
63.32000000000001

>  <POPULARITY>  (2728) 
5.8

>  <PROTECTED>  (2728) 
TRUE

>  <SMILES>  (2728) 
N[C@@H](Cc1(cc(Cl)ccc1Cl))C(=O)O

>  <INCHIKEY>  (2728) 
SDKIMTATYJGPBJ-QMMMGPOBSA-N

$$$$
Phe_25diF
     RDKit          2D

 14 14  0  0  0  0  0  0  0  0999 V2000
   -1.4552    1.7882    0.0000 N   0  0  0  0  0  0  0  0  0  0  0  0
   -1.9325    0.3661    0.0000 C   0  0  0  0  0  0  0  0  0  0  0  0
   -0.9397   -0.7583    0.0000 C   0  0  0  0  0  0  0  0  0  0  0  0
    0.5305   -0.4606    0.0000 C   0  0  0  0  0  0  0  0  0  0  0  0
    1.0078    0.9614    0.0000 C   0  0  0  0  0  0  0  0  0  0  0  0
    2.4780    1.2591    0.0000 C   0  0  0  0  0  0  0  0  0  0  0  0
    2.9553    2.6811    0.0000 F   0  0  0  0  0  0  0  0  0  0  0  0
    3.4709    0.1347    0.0000 C   0  0  0  0  0  0  0  0  0  0  0  0
    2.9935   -1.2874    0.0000 C   0  0  0  0  0  0  0  0  0  0  0  0
    1.5234   -1.5850    0.0000 C   0  0  0  0  0  0  0  0  0  0  0  0
    1.0461   -3.0070    0.0000 F   0  0  0  0  0  0  0  0  0  0  0  0
   -3.4027    0.0685    0.0000 C   0  0  0  0  0  0  0  0  0  0  0  0
   -3.8800   -1.3536    0.0000 O   0  0  0  0  0  0  0  0  0  0  0  0
   -4.3955    1.1929    0.0000 O   0  0  0  0  0  0  0  0  0  0  0  0
  2  1  1  1
  2  3  1  0
  3  4  1  0
  4  5  1  0
  5  6  2  0
  6  7  1  0
  6  8  1  0
  8  9  2  0
  9 10  1  0
 10 11  1  0
  2 12  1  0
 12 13  2  0
 12 14  1  0
 10  4  2  0
M  END
>  <rName>  (2729) 
Phe_25diF

>  <PQ_SYMBOL>  (2729) 
Phe_25diF

>  <FULL_NAME>  (2729) 
(S)-2-amino-3-(2,5-difluorophenyl)propanoic acid

>  <IUPAC_CONDENSED>  (2729) 
Phe(2,5-diF)

>  <IUPAC>  (2729) 
(2S)-2-amino-3-(2,5-difluorophenyl)propanoic acid

>  <TYPE>  (2729) 
Backbone

>  <CLASS>  (2729) 
alpha

>  <ANALOG>  (2729) 
Phe

>  <MOL_WT>  (2729) 
201.17199999999997

>  <LOGP>  (2729) 
0.9192

>  <TPSA>  (2729) 
63.32000000000001

>  <POPULARITY>  (2729) 
7.6

>  <PROTECTED>  (2729) 
TRUE

>  <SMILES>  (2729) 
N[C@@H](Cc1(cc(F)ccc1F))C(=O)O

>  <INCHIKEY>  (2729) 
YHYQITHAFYELNW-QMMMGPOBSA-N

$$$$
Phe_25diOMe
     RDKit          2D

 16 16  0  0  0  0  0  0  0  0999 V2000
   -1.6870    2.0177    0.0000 N   0  0  0  0  0  0  0  0  0  0  0  0
   -2.2885    0.6435    0.0000 C   0  0  0  0  0  0  0  0  0  0  0  0
   -1.3992   -0.5644    0.0000 C   0  0  0  0  0  0  0  0  0  0  0  0
    0.0916   -0.3983    0.0000 C   0  0  0  0  0  0  0  0  0  0  0  0
    0.6930    0.9759    0.0000 C   0  0  0  0  0  0  0  0  0  0  0  0
    2.1838    1.1420    0.0000 C   0  0  0  0  0  0  0  0  0  0  0  0
    2.7853    2.5162    0.0000 O   0  0  0  0  0  0  0  0  0  0  0  0
    4.2760    2.6823    0.0000 C   0  0  0  0  0  0  0  0  0  0  0  0
    3.0731   -0.0659    0.0000 C   0  0  0  0  0  0  0  0  0  0  0  0
    2.4716   -1.4400    0.0000 C   0  0  0  0  0  0  0  0  0  0  0  0
    0.9808   -1.6062    0.0000 C   0  0  0  0  0  0  0  0  0  0  0  0
    0.3794   -2.9803    0.0000 O   0  0  0  0  0  0  0  0  0  0  0  0
    1.2687   -4.1883    0.0000 C   0  0  0  0  0  0  0  0  0  0  0  0
   -3.7793    0.4774    0.0000 C   0  0  0  0  0  0  0  0  0  0  0  0
   -4.3807   -0.8968    0.0000 O   0  0  0  0  0  0  0  0  0  0  0  0
   -4.6686    1.6853    0.0000 O   0  0  0  0  0  0  0  0  0  0  0  0
  2  1  1  1
  2  3  1  0
  3  4  1  0
  4  5  1  0
  5  6  2  0
  6  7  1  0
  7  8  1  0
  6  9  1  0
  9 10  2  0
 10 11  1  0
 11 12  1  0
 12 13  1  0
  2 14  1  0
 14 15  2  0
 14 16  1  0
 11  4  2  0
M  END
>  <rName>  (2730) 
Phe_25diOMe

>  <PQ_SYMBOL>  (2730) 
Phe_25diOMe

>  <FULL_NAME>  (2730) 
(S)-2-amino-3-(2,5-dimethoxyphenyl)propanoic acid

>  <IUPAC_CONDENSED>  (2730) 
Phe(2,5-diOMe)

>  <IUPAC>  (2730) 
(2S)-2-amino-3-(2,5-dimethoxyphenyl)propanoic acid

>  <TYPE>  (2730) 
Backbone

>  <CLASS>  (2730) 
alpha

>  <ANALOG>  (2730) 
Tyr

>  <MOL_WT>  (2730) 
225.24399999999997

>  <LOGP>  (2730) 
0.6581999999999999

>  <TPSA>  (2730) 
81.78

>  <POPULARITY>  (2730) 
5.0

>  <PROTECTED>  (2730) 
TRUE

>  <SMILES>  (2730) 
N[C@@H](Cc1(cc(OC)ccc1OC))C(=O)O

>  <INCHIKEY>  (2730) 
CKBYDXAFHYVJPV-VIFPVBQESA-N

$$$$
Phe_26diCl
     RDKit          2D

 14 14  0  0  0  0  0  0  0  0999 V2000
   -1.4856    1.6416    0.0000 N   0  0  0  0  0  0  0  0  0  0  0  0
   -1.7624    0.1673    0.0000 C   0  0  0  0  0  0  0  0  0  0  0  0
   -0.6240   -0.8095    0.0000 C   0  0  0  0  0  0  0  0  0  0  0  0
    0.7911   -0.3120    0.0000 C   0  0  0  0  0  0  0  0  0  0  0  0
    1.0678    1.1622    0.0000 C   0  0  0  0  0  0  0  0  0  0  0  0
   -0.0705    2.1390    0.0000 Cl  0  0  0  0  0  0  0  0  0  0  0  0
    2.4830    1.6597    0.0000 C   0  0  0  0  0  0  0  0  0  0  0  0
    3.6213    0.6829    0.0000 C   0  0  0  0  0  0  0  0  0  0  0  0
    3.3446   -0.7913    0.0000 C   0  0  0  0  0  0  0  0  0  0  0  0
    1.9295   -1.2888    0.0000 C   0  0  0  0  0  0  0  0  0  0  0  0
    1.6527   -2.7631    0.0000 Cl  0  0  0  0  0  0  0  0  0  0  0  0
   -3.1775   -0.3302    0.0000 C   0  0  0  0  0  0  0  0  0  0  0  0
   -3.4542   -1.8044    0.0000 O   0  0  0  0  0  0  0  0  0  0  0  0
   -4.3158    0.6466    0.0000 O   0  0  0  0  0  0  0  0  0  0  0  0
  2  1  1  1
  2  3  1  0
  3  4  1  0
  4  5  2  0
  5  6  1  0
  5  7  1  0
  7  8  2  0
  8  9  1  0
  9 10  2  0
 10 11  1  0
  2 12  1  0
 12 13  2  0
 12 14  1  0
 10  4  1  0
M  END
>  <rName>  (2731) 
Phe_26diCl

>  <PQ_SYMBOL>  (2731) 
Phe_26diCl

>  <FULL_NAME>  (2731) 
Phe(2,6-diCl)

>  <IUPAC_CONDENSED>  (2731) 
Phe(2,6-diCl)

>  <IUPAC>  (2731) 
(2S)-2-azaniumyl-3-(2,6-dichlorophenyl)propanoate

>  <TYPE>  (2731) 
Backbone

>  <CLASS>  (2731) 
alpha

>  <ANALOG>  (2731) 
Phe

>  <MOL_WT>  (2731) 
234.082

>  <LOGP>  (2731) 
1.9478

>  <TPSA>  (2731) 
63.32000000000001

>  <POPULARITY>  (2731) 
3.5

>  <PROTECTED>  (2731) 
TRUE

>  <SMILES>  (2731) 
N[C@@H](Cc1(c(Cl)cccc1Cl))C(=O)O

>  <INCHIKEY>  (2731) 
LWFYNRYRKMEIIJ-QMMMGPOBSA-N

$$$$
Phe_26diF
     RDKit          2D

 14 14  0  0  0  0  0  0  0  0999 V2000
   -1.4856    1.6416    0.0000 N   0  0  0  0  0  0  0  0  0  0  0  0
   -1.7624    0.1673    0.0000 C   0  0  0  0  0  0  0  0  0  0  0  0
   -0.6240   -0.8095    0.0000 C   0  0  0  0  0  0  0  0  0  0  0  0
    0.7911   -0.3120    0.0000 C   0  0  0  0  0  0  0  0  0  0  0  0
    1.0678    1.1622    0.0000 C   0  0  0  0  0  0  0  0  0  0  0  0
   -0.0705    2.1390    0.0000 F   0  0  0  0  0  0  0  0  0  0  0  0
    2.4830    1.6597    0.0000 C   0  0  0  0  0  0  0  0  0  0  0  0
    3.6213    0.6829    0.0000 C   0  0  0  0  0  0  0  0  0  0  0  0
    3.3446   -0.7913    0.0000 C   0  0  0  0  0  0  0  0  0  0  0  0
    1.9295   -1.2888    0.0000 C   0  0  0  0  0  0  0  0  0  0  0  0
    1.6527   -2.7631    0.0000 F   0  0  0  0  0  0  0  0  0  0  0  0
   -3.1775   -0.3302    0.0000 C   0  0  0  0  0  0  0  0  0  0  0  0
   -3.4542   -1.8044    0.0000 O   0  0  0  0  0  0  0  0  0  0  0  0
   -4.3158    0.6466    0.0000 O   0  0  0  0  0  0  0  0  0  0  0  0
  2  1  1  1
  2  3  1  0
  3  4  1  0
  4  5  2  0
  5  6  1  0
  5  7  1  0
  7  8  2  0
  8  9  1  0
  9 10  2  0
 10 11  1  0
  2 12  1  0
 12 13  2  0
 12 14  1  0
 10  4  1  0
M  END
>  <rName>  (2732) 
Phe_26diF

>  <PQ_SYMBOL>  (2732) 
Phe_26diF

>  <FULL_NAME>  (2732) 
(S)-2-amino-3-(2,6-difluorophenyl)propanoic acid

>  <IUPAC_CONDENSED>  (2732) 
Phe(2,6-diF)

>  <IUPAC>  (2732) 
(2S)-2-amino-3-(2,6-difluorophenyl)propanoic acid

>  <TYPE>  (2732) 
Backbone

>  <CLASS>  (2732) 
alpha

>  <ANALOG>  (2732) 
Phe

>  <MOL_WT>  (2732) 
201.17199999999997

>  <LOGP>  (2732) 
0.9192

>  <TPSA>  (2732) 
63.32000000000001

>  <POPULARITY>  (2732) 
8.2

>  <PROTECTED>  (2732) 
TRUE

>  <SMILES>  (2732) 
N[C@@H](Cc1(c(F)cccc1F))C(=O)O

>  <INCHIKEY>  (2732) 
RFOVYDPRGDZBLJ-QMMMGPOBSA-N

$$$$
Phe_26diMe
     RDKit          2D

 14 14  0  0  0  0  0  0  0  0999 V2000
   -1.4856    1.6416    0.0000 N   0  0  0  0  0  0  0  0  0  0  0  0
   -1.7624    0.1673    0.0000 C   0  0  0  0  0  0  0  0  0  0  0  0
   -0.6240   -0.8095    0.0000 C   0  0  0  0  0  0  0  0  0  0  0  0
    0.7911   -0.3120    0.0000 C   0  0  0  0  0  0  0  0  0  0  0  0
    1.0678    1.1622    0.0000 C   0  0  0  0  0  0  0  0  0  0  0  0
   -0.0705    2.1390    0.0000 C   0  0  0  0  0  0  0  0  0  0  0  0
    2.4830    1.6597    0.0000 C   0  0  0  0  0  0  0  0  0  0  0  0
    3.6213    0.6829    0.0000 C   0  0  0  0  0  0  0  0  0  0  0  0
    3.3446   -0.7913    0.0000 C   0  0  0  0  0  0  0  0  0  0  0  0
    1.9295   -1.2888    0.0000 C   0  0  0  0  0  0  0  0  0  0  0  0
    1.6527   -2.7631    0.0000 C   0  0  0  0  0  0  0  0  0  0  0  0
   -3.1775   -0.3302    0.0000 C   0  0  0  0  0  0  0  0  0  0  0  0
   -3.4542   -1.8044    0.0000 O   0  0  0  0  0  0  0  0  0  0  0  0
   -4.3158    0.6466    0.0000 O   0  0  0  0  0  0  0  0  0  0  0  0
  2  1  1  1
  2  3  1  0
  3  4  1  0
  4  5  2  0
  5  6  1  0
  5  7  1  0
  7  8  2  0
  8  9  1  0
  9 10  2  0
 10 11  1  0
  2 12  1  0
 12 13  2  0
 12 14  1  0
 10  4  1  0
M  END
>  <rName>  (2733) 
Phe_26diMe

>  <PQ_SYMBOL>  (2733) 
Phe_26diMe

>  <FULL_NAME>  (2733) 
(2S)-2-amino-3-(2,6-dimethylphenyl)propanoic acid

>  <IUPAC_CONDENSED>  (2733) 
Phe(2,6-diMe)

>  <IUPAC>  (2733) 
(2S)-2-amino-3-(2,6-dimethylphenyl)propanoic acid

>  <TYPE>  (2733) 
Backbone

>  <CLASS>  (2733) 
alpha

>  <ANALOG>  (2733) 
Phe

>  <MOL_WT>  (2733) 
193.24599999999995

>  <LOGP>  (2733) 
1.2578400000000003

>  <TPSA>  (2733) 
63.32000000000001

>  <POPULARITY>  (2733) 
17.0

>  <PROTECTED>  (2733) 
TRUE

>  <SMILES>  (2733) 
N[C@@H](Cc1(c(C)cccc1C))C(=O)O

>  <INCHIKEY>  (2733) 
VEQOZHOWFAVBOO-JTQLQIEISA-N

$$$$
Phe_26diMe_4CONH2
     RDKit          2D

 17 17  0  0  0  0  0  0  0  0999 V2000
   -2.2485    1.7191    0.0000 N   0  0  0  0  0  0  0  0  0  0  0  0
   -2.7193    0.2949    0.0000 C   0  0  0  0  0  0  0  0  0  0  0  0
   -1.7214   -0.8249    0.0000 C   0  0  0  0  0  0  0  0  0  0  0  0
   -0.2526   -0.5206    0.0000 C   0  0  0  0  0  0  0  0  0  0  0  0
    0.2183    0.9036    0.0000 C   0  0  0  0  0  0  0  0  0  0  0  0
   -0.7797    2.0235    0.0000 C   0  0  0  0  0  0  0  0  0  0  0  0
    1.6871    1.2080    0.0000 C   0  0  0  0  0  0  0  0  0  0  0  0
    2.6850    0.0881    0.0000 C   0  0  0  0  0  0  0  0  0  0  0  0
    2.2142   -1.3361    0.0000 C   0  0  0  0  0  0  0  0  0  0  0  0
    0.7454   -1.6404    0.0000 C   0  0  0  0  0  0  0  0  0  0  0  0
    0.2746   -3.0646    0.0000 C   0  0  0  0  0  0  0  0  0  0  0  0
    4.1538    0.3925    0.0000 C   0  0  0  0  0  0  0  0  0  0  0  0
    4.6246    1.8167    0.0000 O   0  0  0  0  0  0  0  0  0  0  0  0
    5.1518   -0.7273    0.0000 N   0  0  0  0  0  0  0  0  0  0  0  0
   -4.1881   -0.0094    0.0000 C   0  0  0  0  0  0  0  0  0  0  0  0
   -4.6590   -1.4336    0.0000 O   0  0  0  0  0  0  0  0  0  0  0  0
   -5.1861    1.1104    0.0000 O   0  0  0  0  0  0  0  0  0  0  0  0
  2  1  1  1
  2  3  1  0
  3  4  1  0
  4  5  2  0
  5  6  1  0
  5  7  1  0
  7  8  2  0
  8  9  1  0
  9 10  2  0
 10 11  1  0
  8 12  1  0
 12 13  2  0
 12 14  1  0
  2 15  1  0
 15 16  2  0
 15 17  1  0
 10  4  1  0
M  END
>  <rName>  (2734) 
Phe_26diMe_4CONH2

>  <PQ_SYMBOL>  (2734) 
Phe_26diMe_4CONH2

>  <FULL_NAME>  (2734) 
(S)-2-amino-3-(4-carbamoyl-2,6-dimethylphenyl)propanoic acid

>  <IUPAC_CONDENSED>  (2734) 
Phe(2,6-diMe,4-CONH2)

>  <IUPAC>  (2734) 
(2S)-2-amino-3-(4-carbamoyl-2,6-dimethylphenyl)propanoic acid

>  <TYPE>  (2734) 
Backbone

>  <CLASS>  (2734) 
alpha

>  <ANALOG>  (2734) 
Phe

>  <MOL_WT>  (2734) 
236.27099999999996

>  <LOGP>  (2734) 
0.3567400000000001

>  <TPSA>  (2734) 
106.41000000000001

>  <POPULARITY>  (2734) 
5.5

>  <PROTECTED>  (2734) 
TRUE

>  <SMILES>  (2734) 
N[C@@H](Cc1(c(C)cc(cc1C)C(=O)N))C(=O)O

>  <INCHIKEY>  (2734) 
BUKDMWMYQQXMQS-JTQLQIEISA-N

$$$$
Phe_26diMe_4Cl
     RDKit          2D

 15 15  0  0  0  0  0  0  0  0999 V2000
   -1.7110    1.6830    0.0000 N   0  0  0  0  0  0  0  0  0  0  0  0
   -2.0873    0.2310    0.0000 C   0  0  0  0  0  0  0  0  0  0  0  0
   -1.0179   -0.8209    0.0000 C   0  0  0  0  0  0  0  0  0  0  0  0
    0.4277   -0.4208    0.0000 C   0  0  0  0  0  0  0  0  0  0  0  0
    0.8040    1.0313    0.0000 C   0  0  0  0  0  0  0  0  0  0  0  0
   -0.2654    2.0832    0.0000 C   0  0  0  0  0  0  0  0  0  0  0  0
    2.2497    1.4315    0.0000 C   0  0  0  0  0  0  0  0  0  0  0  0
    3.3190    0.3796    0.0000 C   0  0  0  0  0  0  0  0  0  0  0  0
    4.7647    0.7797    0.0000 Cl  0  0  0  0  0  0  0  0  0  0  0  0
    2.9428   -1.0725    0.0000 C   0  0  0  0  0  0  0  0  0  0  0  0
    1.4971   -1.4726    0.0000 C   0  0  0  0  0  0  0  0  0  0  0  0
    1.1209   -2.9247    0.0000 C   0  0  0  0  0  0  0  0  0  0  0  0
   -3.5329   -0.1692    0.0000 C   0  0  0  0  0  0  0  0  0  0  0  0
   -3.9092   -1.6212    0.0000 O   0  0  0  0  0  0  0  0  0  0  0  0
   -4.6023    0.8827    0.0000 O   0  0  0  0  0  0  0  0  0  0  0  0
  2  1  1  1
  2  3  1  0
  3  4  1  0
  4  5  2  0
  5  6  1  0
  5  7  1  0
  7  8  2  0
  8  9  1  0
  8 10  1  0
 10 11  2  0
 11 12  1  0
  2 13  1  0
 13 14  2  0
 13 15  1  0
 11  4  1  0
M  END
>  <rName>  (2735) 
Phe_26diMe_4Cl

>  <PQ_SYMBOL>  (2735) 
Phe_26diMe_4Cl

>  <FULL_NAME>  (2735) 
(S)-2-amino-3-(4-chloro-2,6-dimethylphenyl)propanoic acid

>  <IUPAC_CONDENSED>  (2735) 
Phe(2,6-diMe,4-Cl)

>  <IUPAC>  (2735) 
(2S)-2-amino-3-(4-chloro-2,6-dimethylphenyl)propanoic acid

>  <TYPE>  (2735) 
Backbone

>  <CLASS>  (2735) 
alpha

>  <ANALOG>  (2735) 
Phe

>  <MOL_WT>  (2735) 
227.69099999999997

>  <LOGP>  (2735) 
1.9112400000000003

>  <TPSA>  (2735) 
63.32000000000001

>  <POPULARITY>  (2735) 
2.6

>  <PROTECTED>  (2735) 
TRUE

>  <SMILES>  (2735) 
N[C@@H](Cc1(c(C)cc(Cl)cc1C))C(=O)O

>  <INCHIKEY>  (2735) 
DFQWQVBCIGVEKN-JTQLQIEISA-N

$$$$
Phe_26diMe_4NH2
     RDKit          2D

 15 15  0  0  0  0  0  0  0  0999 V2000
   -1.7110    1.6830    0.0000 N   0  0  0  0  0  0  0  0  0  0  0  0
   -2.0873    0.2310    0.0000 C   0  0  0  0  0  0  0  0  0  0  0  0
   -1.0179   -0.8209    0.0000 C   0  0  0  0  0  0  0  0  0  0  0  0
    0.4277   -0.4208    0.0000 C   0  0  0  0  0  0  0  0  0  0  0  0
    0.8040    1.0313    0.0000 C   0  0  0  0  0  0  0  0  0  0  0  0
   -0.2654    2.0832    0.0000 C   0  0  0  0  0  0  0  0  0  0  0  0
    2.2497    1.4315    0.0000 C   0  0  0  0  0  0  0  0  0  0  0  0
    3.3190    0.3796    0.0000 C   0  0  0  0  0  0  0  0  0  0  0  0
    4.7647    0.7797    0.0000 N   0  0  0  0  0  0  0  0  0  0  0  0
    2.9428   -1.0725    0.0000 C   0  0  0  0  0  0  0  0  0  0  0  0
    1.4971   -1.4726    0.0000 C   0  0  0  0  0  0  0  0  0  0  0  0
    1.1209   -2.9247    0.0000 C   0  0  0  0  0  0  0  0  0  0  0  0
   -3.5329   -0.1692    0.0000 C   0  0  0  0  0  0  0  0  0  0  0  0
   -3.9092   -1.6212    0.0000 O   0  0  0  0  0  0  0  0  0  0  0  0
   -4.6023    0.8827    0.0000 O   0  0  0  0  0  0  0  0  0  0  0  0
  2  1  1  1
  2  3  1  0
  3  4  1  0
  4  5  2  0
  5  6  1  0
  5  7  1  0
  7  8  2  0
  8  9  1  0
  8 10  1  0
 10 11  2  0
 11 12  1  0
  2 13  1  0
 13 14  2  0
 13 15  1  0
 11  4  1  0
M  END
>  <rName>  (2736) 
Phe_26diMe_4NH2

>  <PQ_SYMBOL>  (2736) 
Phe_26diMe_4NH2

>  <FULL_NAME>  (2736) 
(S)-2-amino-3-(4-amino-2,6-dimethylphenyl)propanoic acid

>  <IUPAC_CONDENSED>  (2736) 
Phe(2,6-diMe,4-NH2)

>  <IUPAC>  (2736) 
(2S)-2-amino-3-(4-amino-2,6-dimethylphenyl)propanoic acid

>  <TYPE>  (2736) 
Backbone

>  <CLASS>  (2736) 
alpha

>  <ANALOG>  (2736) 
Phe

>  <MOL_WT>  (2736) 
208.261

>  <LOGP>  (2736) 
0.8400400000000003

>  <TPSA>  (2736) 
89.34

>  <POPULARITY>  (2736) 
2.8

>  <PROTECTED>  (2736) 
TRUE

>  <SMILES>  (2736) 
N[C@@H](Cc1(c(C)cc(N)cc1C))C(=O)O

>  <INCHIKEY>  (2736) 
TWGNFJVGFVYEFS-JTQLQIEISA-N

$$$$
Phe_26diMe_4OMe
     RDKit          2D

 16 16  0  0  0  0  0  0  0  0999 V2000
   -2.0977    1.6727    0.0000 N   0  0  0  0  0  0  0  0  0  0  0  0
   -2.4549    0.2159    0.0000 C   0  0  0  0  0  0  0  0  0  0  0  0
   -1.3719   -0.8219    0.0000 C   0  0  0  0  0  0  0  0  0  0  0  0
    0.0684   -0.4029    0.0000 C   0  0  0  0  0  0  0  0  0  0  0  0
    0.4256    1.0540    0.0000 C   0  0  0  0  0  0  0  0  0  0  0  0
   -0.6574    2.0918    0.0000 C   0  0  0  0  0  0  0  0  0  0  0  0
    1.8659    1.4730    0.0000 C   0  0  0  0  0  0  0  0  0  0  0  0
    2.9490    0.4352    0.0000 C   0  0  0  0  0  0  0  0  0  0  0  0
    4.3892    0.8543    0.0000 O   0  0  0  0  0  0  0  0  0  0  0  0
    5.4723   -0.1835    0.0000 C   0  0  0  0  0  0  0  0  0  0  0  0
    2.5917   -1.0216    0.0000 C   0  0  0  0  0  0  0  0  0  0  0  0
    1.1514   -1.4407    0.0000 C   0  0  0  0  0  0  0  0  0  0  0  0
    0.7942   -2.8975    0.0000 C   0  0  0  0  0  0  0  0  0  0  0  0
   -3.8952   -0.2032    0.0000 C   0  0  0  0  0  0  0  0  0  0  0  0
   -4.2524   -1.6600    0.0000 O   0  0  0  0  0  0  0  0  0  0  0  0
   -4.9782    0.8346    0.0000 O   0  0  0  0  0  0  0  0  0  0  0  0
  2  1  1  1
  2  3  1  0
  3  4  1  0
  4  5  2  0
  5  6  1  0
  5  7  1  0
  7  8  2  0
  8  9  1  0
  9 10  1  0
  8 11  1  0
 11 12  2  0
 12 13  1  0
  2 14  1  0
 14 15  2  0
 14 16  1  0
 12  4  1  0
M  END
>  <rName>  (2737) 
Phe_26diMe_4OMe

>  <PQ_SYMBOL>  (2737) 
Phe_26diMe_4OMe

>  <FULL_NAME>  (2737) 
(2S)-2-amino-3-(4-methoxy-2,6-dimethylphenyl)propanoic acid

>  <IUPAC_CONDENSED>  (2737) 
Phe(2,6-diMe,4-OMe)

>  <IUPAC>  (2737) 
(2S)-2-amino-3-(4-methoxy-2,6-dimethylphenyl)propanoic acid

>  <TYPE>  (2737) 
Backbone

>  <CLASS>  (2737) 
alpha

>  <ANALOG>  (2737) 
Tyr

>  <MOL_WT>  (2737) 
223.27199999999996

>  <LOGP>  (2737) 
1.2664400000000002

>  <TPSA>  (2737) 
72.55

>  <POPULARITY>  (2737) 
3.5

>  <PROTECTED>  (2737) 
TRUE

>  <SMILES>  (2737) 
N[C@@H](Cc1(c(C)cc(OC)cc1C))C(=O)O

>  <INCHIKEY>  (2737) 
QOVSDQLRRGAZIR-NSHDSACASA-N

$$$$
Phe_26diMe_4Pyranose_SSRSR
     RDKit          2D

 26 27  0  0  0  0  0  0  0  0999 V2000
   -5.0899    1.5570    0.0000 N   0  0  0  0  0  0  0  0  0  0  0  0
   -5.2073    0.0617    0.0000 C   0  0  0  0  0  0  0  0  0  0  0  0
   -3.9710   -0.7877    0.0000 C   0  0  0  0  0  0  0  0  0  0  0  0
   -2.6172   -0.1417    0.0000 C   0  0  0  0  0  0  0  0  0  0  0  0
   -2.4998    1.3537    0.0000 C   0  0  0  0  0  0  0  0  0  0  0  0
   -3.7361    2.2031    0.0000 C   0  0  0  0  0  0  0  0  0  0  0  0
   -1.1460    1.9997    0.0000 C   0  0  0  0  0  0  0  0  0  0  0  0
    0.0903    1.1503    0.0000 C   0  0  0  0  0  0  0  0  0  0  0  0
    1.4441    1.7963    0.0000 O   0  0  0  0  0  0  0  0  0  0  0  0
    2.6804    0.9469    0.0000 C   0  0  0  0  0  0  0  0  0  0  0  0
    2.5630   -0.5485    0.0000 O   0  0  0  0  0  0  0  0  0  0  0  0
    3.7994   -1.3978    0.0000 C   0  0  0  0  0  0  0  0  0  0  0  0
    3.6819   -2.8932    0.0000 C   0  0  0  0  0  0  0  0  0  0  0  0
    2.3282   -3.5393    0.0000 O   0  0  0  0  0  0  0  0  0  0  0  0
    5.1531   -0.7518    0.0000 C   0  0  0  0  0  0  0  0  0  0  0  0
    6.3895   -1.6012    0.0000 O   0  0  0  0  0  0  0  0  0  0  0  0
    5.2705    0.7436    0.0000 C   0  0  0  0  0  0  0  0  0  0  0  0
    6.6243    1.3896    0.0000 O   0  0  0  0  0  0  0  0  0  0  0  0
    4.0342    1.5929    0.0000 C   0  0  0  0  0  0  0  0  0  0  0  0
    4.1516    3.0883    0.0000 O   0  0  0  0  0  0  0  0  0  0  0  0
   -0.0271   -0.3451    0.0000 C   0  0  0  0  0  0  0  0  0  0  0  0
   -1.3809   -0.9911    0.0000 C   0  0  0  0  0  0  0  0  0  0  0  0
   -1.4983   -2.4865    0.0000 C   0  0  0  0  0  0  0  0  0  0  0  0
   -6.5611   -0.5844    0.0000 C   0  0  0  0  0  0  0  0  0  0  0  0
   -6.6785   -2.0798    0.0000 O   0  0  0  0  0  0  0  0  0  0  0  0
   -7.7974    0.2650    0.0000 O   0  0  0  0  0  0  0  0  0  0  0  0
  2  1  1  1
  2  3  1  0
  3  4  1  0
  4  5  2  0
  5  6  1  0
  5  7  1  0
  7  8  2  0
  8  9  1  0
 10  9  1  1
 10 11  1  0
 11 12  1  0
 12 13  1  1
 13 14  1  0
 12 15  1  0
 15 16  1  6
 15 17  1  0
 17 18  1  1
 17 19  1  0
 19 20  1  6
  8 21  1  0
 21 22  2  0
 22 23  1  0
  2 24  1  0
 24 25  2  0
 24 26  1  0
 19 10  1  0
 22  4  1  0
M  END
>  <rName>  (2738) 
Phe_26diMe_4Pyranose_SSRSR

>  <PQ_SYMBOL>  (2738) 
Phe_26diMe_4Pyranose_SSRSR

>  <FULL_NAME>  (2738) 
Phe(2,6-diMe,4-Pyranose(SSRSR))

>  <IUPAC_CONDENSED>  (2738) 
Phe(2,6-diMe,4-Pyranose(SSRSR))

>  <IUPAC>  (2738) 
(2S)-2-amino-3-(2,6-dimethyl-4-(((2S,3R,4S,5S,6R)-3,4,5-trihydroxy-6-(hydroxymethyl)-oxan-2-yl)oxy)phenyl)propanoic acid

>  <TYPE>  (2738) 
Backbone

>  <CLASS>  (2738) 
alpha

>  <ANALOG>  (2738) 
Tyr

>  <MOL_WT>  (2738) 
371.3860000000001

>  <LOGP>  (2738) 
-1.5634599999999979

>  <TPSA>  (2738) 
162.70000000000002

>  <POPULARITY>  (2738) 
2.2

>  <PROTECTED>  (2738) 
TRUE

>  <SMILES>  (2738) 
N[C@@H](Cc2(c(C)cc(O[C@@H]1(O[C@H](CO)[C@@H](O)[C@H](O)[C@H]1O))cc2C))C(=O)O

>  <INCHIKEY>  (2738) 
MBYZFCMOJZTQMF-MCDJNTACSA-N

$$$$
Phe_26diiPr
     RDKit          2D

 18 18  0  0  0  0  0  0  0  0999 V2000
    2.1587    0.6549    0.0000 N   0  0  0  0  0  0  0  0  0  0  0  0
    1.8455   -0.3928    0.0000 C   0  0  0  0  0  0  0  0  0  0  0  0
    0.4392   -0.9147    0.0000 C   0  0  0  0  0  0  0  0  0  0  0  0
   -0.7159    0.0422    0.0000 C   0  0  0  0  0  0  0  0  0  0  0  0
   -2.1222   -0.4796    0.0000 C   0  0  0  0  0  0  0  0  0  0  0  0
   -3.2773    0.4773    0.0000 C   0  0  0  0  0  0  0  0  0  0  0  0
   -3.0261    1.9561    0.0000 C   0  0  0  0  0  0  0  0  0  0  0  0
   -1.6198    2.4780    0.0000 C   0  0  0  0  0  0  0  0  0  0  0  0
   -0.4647    1.5211    0.0000 C   0  0  0  0  0  0  0  0  0  0  0  0
    0.9416    2.0429    0.0000 C   0  0  0  0  0  0  0  0  0  0  0  0
    1.8624    1.4532    0.0000 C   0  0  0  0  0  0  0  0  0  0  0  0
    1.1928    3.5218    0.0000 C   0  0  0  0  0  0  0  0  0  0  0  0
   -2.3733   -1.9585    0.0000 C   0  0  0  0  0  0  0  0  0  0  0  0
   -3.7796   -2.4803    0.0000 C   0  0  0  0  0  0  0  0  0  0  0  0
   -1.2182   -2.9154    0.0000 C   0  0  0  0  0  0  0  0  0  0  0  0
    3.0006   -1.3498    0.0000 C   0  0  0  0  0  0  0  0  0  0  0  0
    2.7494   -2.8286    0.0000 O   0  0  0  0  0  0  0  0  0  0  0  0
    4.4069   -0.8279    0.0000 O   0  0  0  0  0  0  0  0  0  0  0  0
  2  1  1  6
  2  3  1  0
  3  4  1  0
  4  5  1  0
  5  6  2  0
  6  7  1  0
  7  8  2  0
  8  9  1  0
  9 10  1  0
 10 11  1  0
 10 12  1  0
  5 13  1  0
 13 14  1  0
 13 15  1  0
  2 16  1  0
 16 17  2  0
 16 18  1  0
  9  4  2  0
M  END
>  <rName>  (2739) 
Phe_26diiPr

>  <PQ_SYMBOL>  (2739) 
Phe_26diiPr

>  <FULL_NAME>  (2739) 
(S)-2-amino-3-(2,6-diisopropylphenyl)propanoic acid

>  <IUPAC_CONDENSED>  (2739) 
Phe(2,6-diiPr)

>  <IUPAC>  (2739) 
(2S)-2-amino-3-(2,6-bis(propan-2-yl)phenyl)propanoic acid

>  <TYPE>  (2739) 
Backbone

>  <CLASS>  (2739) 
alpha

>  <ANALOG>  (2739) 
Phe

>  <MOL_WT>  (2739) 
249.35399999999996

>  <LOGP>  (2739) 
2.8878000000000013

>  <TPSA>  (2739) 
63.32000000000001

>  <POPULARITY>  (2739) 
3.2

>  <PROTECTED>  (2739) 
TRUE

>  <SMILES>  (2739) 
N[C@@H](Cc1(c(cccc1C(C)C)C(C)C))C(=O)O

>  <INCHIKEY>  (2739) 
YDMAGWQQPAPUMK-AWEZNQCLSA-N

$$$$
Phe_2Ac
     RDKit          2D

 15 15  0  0  0  0  0  0  0  0999 V2000
   -2.0511    1.9295    0.0000 N   0  0  0  0  0  0  0  0  0  0  0  0
   -2.0725    0.4296    0.0000 C   0  0  0  0  0  0  0  0  0  0  0  0
   -0.7843   -0.3388    0.0000 C   0  0  0  0  0  0  0  0  0  0  0  0
    0.5253    0.3925    0.0000 C   0  0  0  0  0  0  0  0  0  0  0  0
    0.5467    1.8924    0.0000 C   0  0  0  0  0  0  0  0  0  0  0  0
    1.8563    2.6238    0.0000 C   0  0  0  0  0  0  0  0  0  0  0  0
    3.1445    1.8553    0.0000 C   0  0  0  0  0  0  0  0  0  0  0  0
    3.1231    0.3555    0.0000 C   0  0  0  0  0  0  0  0  0  0  0  0
    1.8135   -0.3759    0.0000 C   0  0  0  0  0  0  0  0  0  0  0  0
    1.7921   -1.8758    0.0000 C   0  0  0  0  0  0  0  0  0  0  0  0
    0.4825   -2.6072    0.0000 O   0  0  0  0  0  0  0  0  0  0  0  0
    3.0803   -2.6442    0.0000 C   0  0  0  0  0  0  0  0  0  0  0  0
   -3.3821   -0.3018    0.0000 C   0  0  0  0  0  0  0  0  0  0  0  0
   -3.4036   -1.8016    0.0000 O   0  0  0  0  0  0  0  0  0  0  0  0
   -4.6704    0.4667    0.0000 O   0  0  0  0  0  0  0  0  0  0  0  0
  2  1  1  1
  2  3  1  0
  3  4  1  0
  4  5  2  0
  5  6  1  0
  6  7  2  0
  7  8  1  0
  8  9  2  0
  9 10  1  0
 10 11  2  0
 10 12  1  0
  2 13  1  0
 13 14  2  0
 13 15  1  0
  9  4  1  0
M  END
>  <rName>  (2740) 
Phe_2Ac

>  <PQ_SYMBOL>  (2740) 
Phe_2Ac

>  <FULL_NAME>  (2740) 
(S)-3-(2-acetylphenyl)-2-aminopropanoic acid

>  <IUPAC_CONDENSED>  (2740) 
Phe(2-Ac)

>  <IUPAC>  (2740) 
(2S)-3-(2-(acetyl)phenyl)-2-aminopropanoic acid

>  <TYPE>  (2740) 
Backbone

>  <CLASS>  (2740) 
alpha

>  <ANALOG>  (2740) 
Phe

>  <MOL_WT>  (2740) 
207.22899999999996

>  <LOGP>  (2740) 
0.8435999999999999

>  <TPSA>  (2740) 
80.39

>  <POPULARITY>  (2740) 
3.6

>  <PROTECTED>  (2740) 
TRUE

>  <SMILES>  (2740) 
N[C@@H](Cc1(ccccc1C(=O)C))C(=O)O

>  <INCHIKEY>  (2740) 
LOKIKMDXXPVODH-JTQLQIEISA-N

$$$$
Phe_2Ac_4F
     RDKit          2D

 16 16  0  0  0  0  0  0  0  0999 V2000
   -2.0264    2.1084    0.0000 N   0  0  0  0  0  0  0  0  0  0  0  0
   -2.2807    0.6301    0.0000 C   0  0  0  0  0  0  0  0  0  0  0  0
   -1.1276   -0.3292    0.0000 C   0  0  0  0  0  0  0  0  0  0  0  0
    0.2798    0.1897    0.0000 C   0  0  0  0  0  0  0  0  0  0  0  0
    0.5340    1.6680    0.0000 C   0  0  0  0  0  0  0  0  0  0  0  0
    1.9414    2.1869    0.0000 C   0  0  0  0  0  0  0  0  0  0  0  0
    3.0945    1.2276    0.0000 C   0  0  0  0  0  0  0  0  0  0  0  0
    4.5019    1.7465    0.0000 F   0  0  0  0  0  0  0  0  0  0  0  0
    2.8403   -0.2507    0.0000 C   0  0  0  0  0  0  0  0  0  0  0  0
    1.4329   -0.7697    0.0000 C   0  0  0  0  0  0  0  0  0  0  0  0
    1.1786   -2.2479    0.0000 C   0  0  0  0  0  0  0  0  0  0  0  0
   -0.2288   -2.7669    0.0000 O   0  0  0  0  0  0  0  0  0  0  0  0
    2.3317   -3.2073    0.0000 C   0  0  0  0  0  0  0  0  0  0  0  0
   -3.6881    0.1112    0.0000 C   0  0  0  0  0  0  0  0  0  0  0  0
   -3.9423   -1.3671    0.0000 O   0  0  0  0  0  0  0  0  0  0  0  0
   -4.8412    1.0705    0.0000 O   0  0  0  0  0  0  0  0  0  0  0  0
  2  1  1  1
  2  3  1  0
  3  4  1  0
  4  5  1  0
  5  6  2  0
  6  7  1  0
  7  8  1  0
  7  9  2  0
  9 10  1  0
 10 11  1  0
 11 12  2  0
 11 13  1  0
  2 14  1  0
 14 15  2  0
 14 16  1  0
 10  4  2  0
M  END
>  <rName>  (2741) 
Phe_2Ac_4F

>  <PQ_SYMBOL>  (2741) 
Phe_2Ac_4F

>  <FULL_NAME>  (2741) 
(S)-3-(2-acetyl-4-fluorophenyl)-2-aminopropanoic acid

>  <IUPAC_CONDENSED>  (2741) 
Phe(2-Ac,4-F)

>  <IUPAC>  (2741) 
(2S)-3-(2-(acetyl)-4-fluorophenyl)-2-aminopropanoic acid

>  <TYPE>  (2741) 
Backbone

>  <CLASS>  (2741) 
alpha

>  <ANALOG>  (2741) 
Phe

>  <MOL_WT>  (2741) 
225.21899999999997

>  <LOGP>  (2741) 
0.9827000000000001

>  <TPSA>  (2741) 
80.39

>  <POPULARITY>  (2741) 
2.5

>  <PROTECTED>  (2741) 
TRUE

>  <SMILES>  (2741) 
N[C@@H](Cc1(ccc(F)cc1C(=O)C))C(=O)O

>  <INCHIKEY>  (2741) 
YZAZKSCQRCDCSC-JTQLQIEISA-N

$$$$
Phe_2Br
     RDKit          2D

 13 13  0  0  0  0  0  0  0  0999 V2000
   -1.4864    1.8099    0.0000 N   0  0  0  0  0  0  0  0  0  0  0  0
   -1.7669    0.3364    0.0000 C   0  0  0  0  0  0  0  0  0  0  0  0
   -0.6311   -0.6433    0.0000 C   0  0  0  0  0  0  0  0  0  0  0  0
    0.7853   -0.1495    0.0000 C   0  0  0  0  0  0  0  0  0  0  0  0
    1.0658    1.3241    0.0000 C   0  0  0  0  0  0  0  0  0  0  0  0
    2.4822    1.8179    0.0000 C   0  0  0  0  0  0  0  0  0  0  0  0
    3.6181    0.8382    0.0000 C   0  0  0  0  0  0  0  0  0  0  0  0
    3.3376   -0.6353    0.0000 C   0  0  0  0  0  0  0  0  0  0  0  0
    1.9212   -1.1292    0.0000 C   0  0  0  0  0  0  0  0  0  0  0  0
    1.6407   -2.6027    0.0000 Br  0  0  0  0  0  0  0  0  0  0  0  0
   -3.1833   -0.1575    0.0000 C   0  0  0  0  0  0  0  0  0  0  0  0
   -3.4638   -1.6310    0.0000 O   0  0  0  0  0  0  0  0  0  0  0  0
   -4.3192    0.8222    0.0000 O   0  0  0  0  0  0  0  0  0  0  0  0
  2  1  1  1
  2  3  1  0
  3  4  1  0
  4  5  2  0
  5  6  1  0
  6  7  2  0
  7  8  1  0
  8  9  2  0
  9 10  1  0
  2 11  1  0
 11 12  2  0
 11 13  1  0
  9  4  1  0
M  END
>  <rName>  (2742) 
Phe_2Br

>  <PQ_SYMBOL>  (2742) 
Phe_2Br

>  <FULL_NAME>  (2742) 
2-Bromo-L-Phenylalanine

>  <IUPAC_CONDENSED>  (2742) 
Phe(2-Br)

>  <IUPAC>  (2742) 
(2S)-2-amino-3-(2-bromophenyl)propanoic acid

>  <TYPE>  (2742) 
Backbone

>  <CLASS>  (2742) 
alpha

>  <ANALOG>  (2742) 
Phe

>  <MOL_WT>  (2742) 
244.08799999999997

>  <LOGP>  (2742) 
1.4035000000000002

>  <TPSA>  (2742) 
63.32000000000001

>  <POPULARITY>  (2742) 
15.7

>  <PROTECTED>  (2742) 
TRUE

>  <SMILES>  (2742) 
N[C@@H](Cc1(ccccc1Br))C(=O)O

>  <INCHIKEY>  (2742) 
JFVLNTLXEZDFHW-QMMMGPOBSA-N

$$$$
Phe_2Br_5Cl
     RDKit          2D

 14 14  0  0  0  0  0  0  0  0999 V2000
   -1.4552    1.7882    0.0000 N   0  0  0  0  0  0  0  0  0  0  0  0
   -1.9325    0.3661    0.0000 C   0  0  0  0  0  0  0  0  0  0  0  0
   -0.9397   -0.7583    0.0000 C   0  0  0  0  0  0  0  0  0  0  0  0
    0.5305   -0.4606    0.0000 C   0  0  0  0  0  0  0  0  0  0  0  0
    1.0078    0.9614    0.0000 C   0  0  0  0  0  0  0  0  0  0  0  0
    2.4780    1.2591    0.0000 C   0  0  0  0  0  0  0  0  0  0  0  0
    2.9553    2.6811    0.0000 Cl  0  0  0  0  0  0  0  0  0  0  0  0
    3.4709    0.1347    0.0000 C   0  0  0  0  0  0  0  0  0  0  0  0
    2.9935   -1.2874    0.0000 C   0  0  0  0  0  0  0  0  0  0  0  0
    1.5234   -1.5850    0.0000 C   0  0  0  0  0  0  0  0  0  0  0  0
    1.0461   -3.0070    0.0000 Br  0  0  0  0  0  0  0  0  0  0  0  0
   -3.4027    0.0685    0.0000 C   0  0  0  0  0  0  0  0  0  0  0  0
   -3.8800   -1.3536    0.0000 O   0  0  0  0  0  0  0  0  0  0  0  0
   -4.3955    1.1929    0.0000 O   0  0  0  0  0  0  0  0  0  0  0  0
  2  1  1  1
  2  3  1  0
  3  4  1  0
  4  5  1  0
  5  6  2  0
  6  7  1  0
  6  8  1  0
  8  9  2  0
  9 10  1  0
 10 11  1  0
  2 12  1  0
 12 13  2  0
 12 14  1  0
 10  4  2  0
M  END
>  <rName>  (2743) 
Phe_2Br_5Cl

>  <PQ_SYMBOL>  (2743) 
Phe_2Br_5Cl

>  <FULL_NAME>  (2743) 
2-bromo-5-chloro-L-phenylalanine

>  <IUPAC_CONDENSED>  (2743) 
Phe(2-Br,5-Cl)

>  <IUPAC>  (2743) 
(2S)-2-amino-3-(2-bromo-5-chlorophenyl)propanoic acid

>  <TYPE>  (2743) 
Backbone

>  <CLASS>  (2743) 
alpha

>  <ANALOG>  (2743) 
Phe

>  <MOL_WT>  (2743) 
278.533

>  <LOGP>  (2743) 
2.0568999999999997

>  <TPSA>  (2743) 
63.32000000000001

>  <POPULARITY>  (2743) 
4.8

>  <PROTECTED>  (2743) 
TRUE

>  <SMILES>  (2743) 
N[C@@H](Cc1(cc(Cl)ccc1Br))C(=O)O

>  <INCHIKEY>  (2743) 
RYHYLIBAKNJBHR-QMMMGPOBSA-N

$$$$
Phe_2Bz
     RDKit          2D

 20 21  0  0  0  0  0  0  0  0999 V2000
   -4.1453    1.0317    0.0000 N   0  0  0  0  0  0  0  0  0  0  0  0
   -3.4751   -0.3103    0.0000 C   0  0  0  0  0  0  0  0  0  0  0  0
   -1.9778   -0.4009    0.0000 C   0  0  0  0  0  0  0  0  0  0  0  0
   -1.1507    0.8505    0.0000 C   0  0  0  0  0  0  0  0  0  0  0  0
   -1.8209    2.1924    0.0000 C   0  0  0  0  0  0  0  0  0  0  0  0
   -0.9938    3.4438    0.0000 C   0  0  0  0  0  0  0  0  0  0  0  0
    0.5034    3.3532    0.0000 C   0  0  0  0  0  0  0  0  0  0  0  0
    1.1736    2.0113    0.0000 C   0  0  0  0  0  0  0  0  0  0  0  0
    0.3465    0.7599    0.0000 C   0  0  0  0  0  0  0  0  0  0  0  0
    1.0167   -0.5821    0.0000 C   0  0  0  0  0  0  0  0  0  0  0  0
    0.1896   -1.8335    0.0000 O   0  0  0  0  0  0  0  0  0  0  0  0
    2.5140   -0.6727    0.0000 C   0  0  0  0  0  0  0  0  0  0  0  0
    3.1841   -2.0146    0.0000 C   0  0  0  0  0  0  0  0  0  0  0  0
    4.6814   -2.1052    0.0000 C   0  0  0  0  0  0  0  0  0  0  0  0
    5.5085   -0.8539    0.0000 C   0  0  0  0  0  0  0  0  0  0  0  0
    4.8383    0.4881    0.0000 C   0  0  0  0  0  0  0  0  0  0  0  0
    3.3410    0.5787    0.0000 C   0  0  0  0  0  0  0  0  0  0  0  0
   -4.3022   -1.5617    0.0000 C   0  0  0  0  0  0  0  0  0  0  0  0
   -3.6320   -2.9036    0.0000 O   0  0  0  0  0  0  0  0  0  0  0  0
   -5.7994   -1.4711    0.0000 O   0  0  0  0  0  0  0  0  0  0  0  0
  2  1  1  1
  2  3  1  0
  3  4  1  0
  4  5  2  0
  5  6  1  0
  6  7  2  0
  7  8  1  0
  8  9  2  0
  9 10  1  0
 10 11  2  0
 10 12  1  0
 12 13  2  0
 13 14  1  0
 14 15  2  0
 15 16  1  0
 16 17  2  0
  2 18  1  0
 18 19  2  0
 18 20  1  0
  9  4  1  0
 17 12  1  0
M  END
>  <rName>  (2744) 
Phe_2Bz

>  <PQ_SYMBOL>  (2744) 
Phe_2Bz

>  <FULL_NAME>  (2744) 
(S)-2-amino-3-(2-benzoylphenyl)propanoic acid

>  <IUPAC_CONDENSED>  (2744) 
Phe(2-Bz)

>  <IUPAC>  (2744) 
(2S)-2-amino-3-(2-((phenyl)carbonyl)phenyl)propanoic acid

>  <TYPE>  (2744) 
Backbone

>  <CLASS>  (2744) 
alpha

>  <ANALOG>  (2744) 
Phe

>  <MOL_WT>  (2744) 
269.29999999999995

>  <LOGP>  (2744) 
1.872

>  <TPSA>  (2744) 
80.39

>  <POPULARITY>  (2744) 
3.2

>  <PROTECTED>  (2744) 
TRUE

>  <SMILES>  (2744) 
N[C@@H](Cc1(ccccc1C(=O)c2(ccccc2)))C(=O)O

>  <INCHIKEY>  (2744) 
AVEJZVBCQMMMMG-AWEZNQCLSA-N

$$$$
Phe_2CF3
     RDKit          2D

 16 16  0  0  0  0  0  0  0  0999 V2000
   -2.2776    1.9185    0.0000 N   0  0  0  0  0  0  0  0  0  0  0  0
   -2.2125    0.4199    0.0000 C   0  0  0  0  0  0  0  0  0  0  0  0
   -0.8821   -0.2730    0.0000 C   0  0  0  0  0  0  0  0  0  0  0  0
    0.3832    0.5328    0.0000 C   0  0  0  0  0  0  0  0  0  0  0  0
    0.3180    2.0314    0.0000 C   0  0  0  0  0  0  0  0  0  0  0  0
    1.5832    2.8371    0.0000 C   0  0  0  0  0  0  0  0  0  0  0  0
    2.9136    2.1443    0.0000 C   0  0  0  0  0  0  0  0  0  0  0  0
    2.9788    0.6457    0.0000 C   0  0  0  0  0  0  0  0  0  0  0  0
    1.7136   -0.1601    0.0000 C   0  0  0  0  0  0  0  0  0  0  0  0
    1.7787   -1.6586    0.0000 C   0  0  0  0  0  0  0  0  0  0  0  0
    1.8439   -3.1572    0.0000 F   0  0  0  0  0  0  0  0  0  0  0  0
    3.2773   -1.5935    0.0000 F   0  0  0  0  0  0  0  0  0  0  0  0
    0.2802   -1.7238    0.0000 F   0  0  0  0  0  0  0  0  0  0  0  0
   -3.4777   -0.3859    0.0000 C   0  0  0  0  0  0  0  0  0  0  0  0
   -3.4125   -1.8845    0.0000 O   0  0  0  0  0  0  0  0  0  0  0  0
   -4.8081    0.3070    0.0000 O   0  0  0  0  0  0  0  0  0  0  0  0
  2  1  1  1
  2  3  1  0
  3  4  1  0
  4  5  2  0
  5  6  1  0
  6  7  2  0
  7  8  1  0
  8  9  2  0
  9 10  1  0
 10 11  1  0
 10 12  1  0
 10 13  1  0
  2 14  1  0
 14 15  2  0
 14 16  1  0
  9  4  1  0
M  END
>  <rName>  (2745) 
Phe_2CF3

>  <PQ_SYMBOL>  (2745) 
Phe_2CF3

>  <FULL_NAME>  (2745) 
2-Trifluoromethyl-L-Phenylalanine

>  <IUPAC_CONDENSED>  (2745) 
Phe(2-CF3)

>  <IUPAC>  (2745) 
(2S)-2-amino-3-(2-(trifluoromethyl)phenyl)propanoic acid

>  <TYPE>  (2745) 
Backbone

>  <CLASS>  (2745) 
alpha

>  <ANALOG>  (2745) 
Phe

>  <MOL_WT>  (2745) 
233.18899999999994

>  <LOGP>  (2745) 
1.6598000000000002

>  <TPSA>  (2745) 
63.32000000000001

>  <POPULARITY>  (2745) 
7.2

>  <PROTECTED>  (2745) 
TRUE

>  <SMILES>  (2745) 
N[C@@H](Cc1(ccccc1C(F)(F)F))C(=O)O

>  <INCHIKEY>  (2745) 
IOABLDGLYOGEHY-QMMMGPOBSA-N

$$$$
Phe_2CF3_4CN
     RDKit          2D

 18 18  0  0  0  0  0  0  0  0999 V2000
   -2.1681    2.3660    0.0000 N   0  0  0  0  0  0  0  0  0  0  0  0
   -2.5868    0.9257    0.0000 C   0  0  0  0  0  0  0  0  0  0  0  0
   -1.5488   -0.1572    0.0000 C   0  0  0  0  0  0  0  0  0  0  0  0
   -0.0921    0.2003    0.0000 C   0  0  0  0  0  0  0  0  0  0  0  0
    0.3267    1.6407    0.0000 C   0  0  0  0  0  0  0  0  0  0  0  0
    1.7835    1.9982    0.0000 C   0  0  0  0  0  0  0  0  0  0  0  0
    2.8215    0.9154    0.0000 C   0  0  0  0  0  0  0  0  0  0  0  0
    4.2782    1.2729    0.0000 C   0  0  0  0  0  0  0  0  0  0  0  0
    5.7350    1.6304    0.0000 N   0  0  0  0  0  0  0  0  0  0  0  0
    2.4027   -0.5250    0.0000 C   0  0  0  0  0  0  0  0  0  0  0  0
    0.9459   -0.8825    0.0000 C   0  0  0  0  0  0  0  0  0  0  0  0
    0.5272   -2.3229    0.0000 C   0  0  0  0  0  0  0  0  0  0  0  0
    0.1084   -3.7632    0.0000 F   0  0  0  0  0  0  0  0  0  0  0  0
    1.9675   -2.7416    0.0000 F   0  0  0  0  0  0  0  0  0  0  0  0
   -0.9132   -1.9041    0.0000 F   0  0  0  0  0  0  0  0  0  0  0  0
   -4.0436    0.5682    0.0000 C   0  0  0  0  0  0  0  0  0  0  0  0
   -4.4624   -0.8722    0.0000 O   0  0  0  0  0  0  0  0  0  0  0  0
   -5.0816    1.6510    0.0000 O   0  0  0  0  0  0  0  0  0  0  0  0
  2  1  1  1
  2  3  1  0
  3  4  1  0
  4  5  1  0
  5  6  2  0
  6  7  1  0
  7  8  1  0
  8  9  3  0
  7 10  2  0
 10 11  1  0
 11 12  1  0
 12 13  1  0
 12 14  1  0
 12 15  1  0
  2 16  1  0
 16 17  2  0
 16 18  1  0
 11  4  2  0
M  END
>  <rName>  (2746) 
Phe_2CF3_4CN

>  <PQ_SYMBOL>  (2746) 
Phe_2CF3_4CN

>  <FULL_NAME>  (2746) 
(S)-2-amino-3-(4-cyano-2-(trifluoromethyl)phenyl)propanoic acid

>  <IUPAC_CONDENSED>  (2746) 
Phe(2-CF3,4-CN)

>  <IUPAC>  (2746) 
(2S)-2-amino-3-(4-(nitrilomethyl)-2-(trifluoromethyl)phenyl)propanoic acid

>  <TYPE>  (2746) 
Backbone

>  <CLASS>  (2746) 
alpha

>  <ANALOG>  (2746) 
Phe

>  <MOL_WT>  (2746) 
258.19899999999996

>  <LOGP>  (2746) 
1.5314800000000002

>  <TPSA>  (2746) 
87.11

>  <POPULARITY>  (2746) 
2.2

>  <PROTECTED>  (2746) 
TRUE

>  <SMILES>  (2746) 
N[C@@H](Cc1(ccc(C#N)cc1C(F)(F)F))C(=O)O

>  <INCHIKEY>  (2746) 
AWEOHTMMHAYRST-VIFPVBQESA-N

$$$$
Phe_2CF3_4Cl
     RDKit          2D

 17 17  0  0  0  0  0  0  0  0999 V2000
   -2.1777    2.1611    0.0000 N   0  0  0  0  0  0  0  0  0  0  0  0
   -2.3768    0.6744    0.0000 C   0  0  0  0  0  0  0  0  0  0  0  0
   -1.1888   -0.2414    0.0000 C   0  0  0  0  0  0  0  0  0  0  0  0
    0.1983    0.3295    0.0000 C   0  0  0  0  0  0  0  0  0  0  0  0
    0.3974    1.8163    0.0000 C   0  0  0  0  0  0  0  0  0  0  0  0
    1.7845    2.3872    0.0000 C   0  0  0  0  0  0  0  0  0  0  0  0
    2.9725    1.4714    0.0000 C   0  0  0  0  0  0  0  0  0  0  0  0
    4.3596    2.0423    0.0000 Cl  0  0  0  0  0  0  0  0  0  0  0  0
    2.7734   -0.0153    0.0000 C   0  0  0  0  0  0  0  0  0  0  0  0
    1.3863   -0.5863    0.0000 C   0  0  0  0  0  0  0  0  0  0  0  0
    1.1872   -2.0730    0.0000 C   0  0  0  0  0  0  0  0  0  0  0  0
    0.9881   -3.5597    0.0000 F   0  0  0  0  0  0  0  0  0  0  0  0
    2.6739   -2.2721    0.0000 F   0  0  0  0  0  0  0  0  0  0  0  0
   -0.2995   -1.8739    0.0000 F   0  0  0  0  0  0  0  0  0  0  0  0
   -3.7639    0.1035    0.0000 C   0  0  0  0  0  0  0  0  0  0  0  0
   -3.9630   -1.3833    0.0000 O   0  0  0  0  0  0  0  0  0  0  0  0
   -4.9518    1.0193    0.0000 O   0  0  0  0  0  0  0  0  0  0  0  0
  2  1  1  1
  2  3  1  0
  3  4  1  0
  4  5  1  0
  5  6  2  0
  6  7  1  0
  7  8  1  0
  7  9  2  0
  9 10  1  0
 10 11  1  0
 11 12  1  0
 11 13  1  0
 11 14  1  0
  2 15  1  0
 15 16  2  0
 15 17  1  0
 10  4  2  0
M  END
>  <rName>  (2747) 
Phe_2CF3_4Cl

>  <PQ_SYMBOL>  (2747) 
Phe_2CF3_4Cl

>  <FULL_NAME>  (2747) 
(S)-2-amino-3-(4-chloro-2-(trifluoromethyl)phenyl)propanoic acid

>  <IUPAC_CONDENSED>  (2747) 
Phe(2-CF3,4-Cl)

>  <IUPAC>  (2747) 
(2S)-2-amino-3-(4-chloro-2-(trifluoromethyl)phenyl)propanoic acid

>  <TYPE>  (2747) 
Backbone

>  <CLASS>  (2747) 
alpha

>  <ANALOG>  (2747) 
Phe

>  <MOL_WT>  (2747) 
267.63399999999996

>  <LOGP>  (2747) 
2.3132

>  <TPSA>  (2747) 
63.32000000000001

>  <POPULARITY>  (2747) 
2.7

>  <PROTECTED>  (2747) 
TRUE

>  <SMILES>  (2747) 
N[C@@H](Cc1(ccc(Cl)cc1C(F)(F)F))C(=O)O

>  <INCHIKEY>  (2747) 
RXPDRKOMXKBBBM-QMMMGPOBSA-N

$$$$
Phe_2CF3_4NH2
     RDKit          2D

 17 17  0  0  0  0  0  0  0  0999 V2000
   -2.1777    2.1611    0.0000 N   0  0  0  0  0  0  0  0  0  0  0  0
   -2.3768    0.6744    0.0000 C   0  0  0  0  0  0  0  0  0  0  0  0
   -1.1888   -0.2414    0.0000 C   0  0  0  0  0  0  0  0  0  0  0  0
    0.1983    0.3295    0.0000 C   0  0  0  0  0  0  0  0  0  0  0  0
    0.3974    1.8163    0.0000 C   0  0  0  0  0  0  0  0  0  0  0  0
    1.7845    2.3872    0.0000 C   0  0  0  0  0  0  0  0  0  0  0  0
    2.9725    1.4714    0.0000 C   0  0  0  0  0  0  0  0  0  0  0  0
    4.3596    2.0423    0.0000 N   0  0  0  0  0  0  0  0  0  0  0  0
    2.7734   -0.0153    0.0000 C   0  0  0  0  0  0  0  0  0  0  0  0
    1.3863   -0.5863    0.0000 C   0  0  0  0  0  0  0  0  0  0  0  0
    1.1872   -2.0730    0.0000 C   0  0  0  0  0  0  0  0  0  0  0  0
    0.9881   -3.5597    0.0000 F   0  0  0  0  0  0  0  0  0  0  0  0
    2.6739   -2.2721    0.0000 F   0  0  0  0  0  0  0  0  0  0  0  0
   -0.2995   -1.8739    0.0000 F   0  0  0  0  0  0  0  0  0  0  0  0
   -3.7639    0.1035    0.0000 C   0  0  0  0  0  0  0  0  0  0  0  0
   -3.9630   -1.3833    0.0000 O   0  0  0  0  0  0  0  0  0  0  0  0
   -4.9518    1.0193    0.0000 O   0  0  0  0  0  0  0  0  0  0  0  0
  2  1  1  1
  2  3  1  0
  3  4  1  0
  4  5  1  0
  5  6  2  0
  6  7  1  0
  7  8  1  0
  7  9  2  0
  9 10  1  0
 10 11  1  0
 11 12  1  0
 11 13  1  0
 11 14  1  0
  2 15  1  0
 15 16  2  0
 15 17  1  0
 10  4  2  0
M  END
>  <rName>  (2748) 
Phe_2CF3_4NH2

>  <PQ_SYMBOL>  (2748) 
Phe_2CF3_4NH2

>  <FULL_NAME>  (2748) 
(S)-2-amino-3-(4-amino-2-(trifluoromethyl)phenyl)propanoic acid

>  <IUPAC_CONDENSED>  (2748) 
Phe(2-CF3,4-NH2)

>  <IUPAC>  (2748) 
(2S)-2-amino-3-(4-amino-2-(trifluoromethyl)phenyl)propanoic acid

>  <TYPE>  (2748) 
Backbone

>  <CLASS>  (2748) 
alpha

>  <ANALOG>  (2748) 
Phe

>  <MOL_WT>  (2748) 
248.20399999999995

>  <LOGP>  (2748) 
1.242

>  <TPSA>  (2748) 
89.34

>  <POPULARITY>  (2748) 
2.7

>  <PROTECTED>  (2748) 
TRUE

>  <SMILES>  (2748) 
N[C@@H](Cc1(ccc(N)cc1C(F)(F)F))C(=O)O

>  <INCHIKEY>  (2748) 
BGDVXUHUIBQSBF-QMMMGPOBSA-N

$$$$
Phe_2CF3_5NH2
     RDKit          2D

 17 17  0  0  0  0  0  0  0  0999 V2000
   -2.0855    2.0050    0.0000 N   0  0  0  0  0  0  0  0  0  0  0  0
   -2.2497    0.5140    0.0000 C   0  0  0  0  0  0  0  0  0  0  0  0
   -1.0405   -0.3736    0.0000 C   0  0  0  0  0  0  0  0  0  0  0  0
    0.3328    0.2297    0.0000 C   0  0  0  0  0  0  0  0  0  0  0  0
    0.4970    1.7206    0.0000 C   0  0  0  0  0  0  0  0  0  0  0  0
    1.8703    2.3240    0.0000 C   0  0  0  0  0  0  0  0  0  0  0  0
    2.0345    3.8149    0.0000 N   0  0  0  0  0  0  0  0  0  0  0  0
    3.0794    1.4363    0.0000 C   0  0  0  0  0  0  0  0  0  0  0  0
    2.9153   -0.0547    0.0000 C   0  0  0  0  0  0  0  0  0  0  0  0
    1.5419   -0.6580    0.0000 C   0  0  0  0  0  0  0  0  0  0  0  0
    1.3778   -2.1490    0.0000 C   0  0  0  0  0  0  0  0  0  0  0  0
    1.2136   -3.6400    0.0000 F   0  0  0  0  0  0  0  0  0  0  0  0
    2.8687   -2.3132    0.0000 F   0  0  0  0  0  0  0  0  0  0  0  0
   -0.1132   -1.9848    0.0000 F   0  0  0  0  0  0  0  0  0  0  0  0
   -3.6230   -0.0893    0.0000 C   0  0  0  0  0  0  0  0  0  0  0  0
   -3.7872   -1.5803    0.0000 O   0  0  0  0  0  0  0  0  0  0  0  0
   -4.8321    0.7984    0.0000 O   0  0  0  0  0  0  0  0  0  0  0  0
  2  1  1  1
  2  3  1  0
  3  4  1  0
  4  5  1  0
  5  6  2  0
  6  7  1  0
  6  8  1  0
  8  9  2  0
  9 10  1  0
 10 11  1  0
 11 12  1  0
 11 13  1  0
 11 14  1  0
  2 15  1  0
 15 16  2  0
 15 17  1  0
 10  4  2  0
M  END
>  <rName>  (2749) 
Phe_2CF3_5NH2

>  <PQ_SYMBOL>  (2749) 
Phe_2CF3_5NH2

>  <FULL_NAME>  (2749) 
(S)-2-amino-3-(5-amino-2-(trifluoromethyl)phenyl)propanoic acid

>  <IUPAC_CONDENSED>  (2749) 
Phe(2-CF3,5-NH2)

>  <IUPAC>  (2749) 
(2S)-2-amino-3-(5-amino-2-(trifluoromethyl)phenyl)propanoic acid

>  <TYPE>  (2749) 
Backbone

>  <CLASS>  (2749) 
alpha

>  <ANALOG>  (2749) 
Phe

>  <MOL_WT>  (2749) 
248.20399999999995

>  <LOGP>  (2749) 
1.242

>  <TPSA>  (2749) 
89.34

>  <POPULARITY>  (2749) 
2.3

>  <PROTECTED>  (2749) 
TRUE

>  <SMILES>  (2749) 
N[C@@H](Cc1(cc(N)ccc1C(F)(F)F))C(=O)O

>  <INCHIKEY>  (2749) 
SMBXSNYNBPTNKX-QMMMGPOBSA-N

$$$$
Phe_2CH2CN
     RDKit          2D

 15 15  0  0  0  0  0  0  0  0999 V2000
   -2.6418    1.5136    0.0000 N   0  0  0  0  0  0  0  0  0  0  0  0
   -2.3809    0.0364    0.0000 C   0  0  0  0  0  0  0  0  0  0  0  0
   -0.9712   -0.4762    0.0000 C   0  0  0  0  0  0  0  0  0  0  0  0
    0.1776    0.4883    0.0000 C   0  0  0  0  0  0  0  0  0  0  0  0
   -0.0833    1.9655    0.0000 C   0  0  0  0  0  0  0  0  0  0  0  0
    1.0654    2.9300    0.0000 C   0  0  0  0  0  0  0  0  0  0  0  0
    2.4751    2.4174    0.0000 C   0  0  0  0  0  0  0  0  0  0  0  0
    2.7360    0.9402    0.0000 C   0  0  0  0  0  0  0  0  0  0  0  0
    1.5873   -0.0243    0.0000 C   0  0  0  0  0  0  0  0  0  0  0  0
    1.8482   -1.5014    0.0000 C   0  0  0  0  0  0  0  0  0  0  0  0
    3.2579   -2.0140    0.0000 C   0  0  0  0  0  0  0  0  0  0  0  0
    4.6676   -2.5266    0.0000 N   0  0  0  0  0  0  0  0  0  0  0  0
   -3.5297   -0.9281    0.0000 C   0  0  0  0  0  0  0  0  0  0  0  0
   -3.2688   -2.4052    0.0000 O   0  0  0  0  0  0  0  0  0  0  0  0
   -4.9394   -0.4155    0.0000 O   0  0  0  0  0  0  0  0  0  0  0  0
  2  1  1  1
  2  3  1  0
  3  4  1  0
  4  5  2  0
  5  6  1  0
  6  7  2  0
  7  8  1  0
  8  9  2  0
  9 10  1  0
 10 11  1  0
 11 12  3  0
  2 13  1  0
 13 14  2  0
 13 15  1  0
  9  4  1  0
M  END
>  <rName>  (2750) 
Phe_2CH2CN

>  <PQ_SYMBOL>  (2750) 
Phe_2CH2CN

>  <FULL_NAME>  (2750) 
(S)-2-amino-3-(2-(cyanomethyl)phenyl)propanoic acid

>  <IUPAC_CONDENSED>  (2750) 
Phe(2-CH2CN)

>  <IUPAC>  (2750) 
(2S)-2-amino-3-(2-(2-nitriloethyl)phenyl)propanoic acid

>  <TYPE>  (2750) 
Backbone

>  <CLASS>  (2750) 
alpha

>  <ANALOG>  (2750) 
Phe

>  <MOL_WT>  (2750) 
204.22899999999996

>  <LOGP>  (2750) 
0.7070800000000002

>  <TPSA>  (2750) 
87.11

>  <POPULARITY>  (2750) 
2.7

>  <PROTECTED>  (2750) 
TRUE

>  <SMILES>  (2750) 
N[C@@H](Cc1(ccccc1CC#N))C(=O)O

>  <INCHIKEY>  (2750) 
DHSDSTJTOQZLPX-JTQLQIEISA-N

$$$$
Phe_2CN
     RDKit          2D

 14 14  0  0  0  0  0  0  0  0999 V2000
   -1.7887    1.9295    0.0000 N   0  0  0  0  0  0  0  0  0  0  0  0
   -1.9182    0.4351    0.0000 C   0  0  0  0  0  0  0  0  0  0  0  0
   -0.6887   -0.4243    0.0000 C   0  0  0  0  0  0  0  0  0  0  0  0
    0.6702    0.2108    0.0000 C   0  0  0  0  0  0  0  0  0  0  0  0
    0.7997    1.7052    0.0000 C   0  0  0  0  0  0  0  0  0  0  0  0
    2.1586    2.3403    0.0000 C   0  0  0  0  0  0  0  0  0  0  0  0
    3.3881    1.4809    0.0000 C   0  0  0  0  0  0  0  0  0  0  0  0
    3.2586   -0.0135    0.0000 C   0  0  0  0  0  0  0  0  0  0  0  0
    1.8997   -0.6485    0.0000 C   0  0  0  0  0  0  0  0  0  0  0  0
    1.7702   -2.1429    0.0000 C   0  0  0  0  0  0  0  0  0  0  0  0
    1.6407   -3.6373    0.0000 N   0  0  0  0  0  0  0  0  0  0  0  0
   -3.2771   -0.2000    0.0000 C   0  0  0  0  0  0  0  0  0  0  0  0
   -3.4066   -1.6944    0.0000 O   0  0  0  0  0  0  0  0  0  0  0  0
   -4.5065    0.6593    0.0000 O   0  0  0  0  0  0  0  0  0  0  0  0
  2  1  1  1
  2  3  1  0
  3  4  1  0
  4  5  2  0
  5  6  1  0
  6  7  2  0
  7  8  1  0
  8  9  2  0
  9 10  1  0
 10 11  3  0
  2 12  1  0
 12 13  2  0
 12 14  1  0
  9  4  1  0
M  END
>  <rName>  (2751) 
Phe_2CN

>  <PQ_SYMBOL>  (2751) 
Phe_2CN

>  <FULL_NAME>  (2751) 
2-Cyano-L-Phenylalanine

>  <IUPAC_CONDENSED>  (2751) 
Phe(2-CN)

>  <IUPAC>  (2751) 
(2S)-2-amino-3-(2-(nitrilomethyl)phenyl)propanoic acid

>  <TYPE>  (2751) 
Backbone

>  <CLASS>  (2751) 
alpha

>  <ANALOG>  (2751) 
Phe

>  <MOL_WT>  (2751) 
190.20199999999997

>  <LOGP>  (2751) 
0.5126799999999998

>  <TPSA>  (2751) 
87.11

>  <POPULARITY>  (2751) 
7.1

>  <PROTECTED>  (2751) 
TRUE

>  <SMILES>  (2751) 
N[C@@H](Cc1(ccccc1C#N))C(=O)O

>  <INCHIKEY>  (2751) 
OCDHPLVCNWBKJN-VIFPVBQESA-N

$$$$
Phe_2CN_3Cl
     RDKit          2D

 15 15  0  0  0  0  0  0  0  0999 V2000
   -2.1898    1.8748    0.0000 N   0  0  0  0  0  0  0  0  0  0  0  0
   -2.2403    0.3757    0.0000 C   0  0  0  0  0  0  0  0  0  0  0  0
   -0.9672   -0.4177    0.0000 C   0  0  0  0  0  0  0  0  0  0  0  0
    0.3563    0.2882    0.0000 C   0  0  0  0  0  0  0  0  0  0  0  0
    0.4068    1.7873    0.0000 C   0  0  0  0  0  0  0  0  0  0  0  0
    1.7304    2.4931    0.0000 C   0  0  0  0  0  0  0  0  0  0  0  0
    3.0034    1.6998    0.0000 C   0  0  0  0  0  0  0  0  0  0  0  0
    2.9529    0.2006    0.0000 C   0  0  0  0  0  0  0  0  0  0  0  0
    4.2260   -0.5927    0.0000 Cl  0  0  0  0  0  0  0  0  0  0  0  0
    1.6294   -0.5052    0.0000 C   0  0  0  0  0  0  0  0  0  0  0  0
    1.5788   -2.0043    0.0000 C   0  0  0  0  0  0  0  0  0  0  0  0
    1.5283   -3.5035    0.0000 N   0  0  0  0  0  0  0  0  0  0  0  0
   -3.5638   -0.3301    0.0000 C   0  0  0  0  0  0  0  0  0  0  0  0
   -3.6144   -1.8293    0.0000 O   0  0  0  0  0  0  0  0  0  0  0  0
   -4.8369    0.4632    0.0000 O   0  0  0  0  0  0  0  0  0  0  0  0
  2  1  1  1
  2  3  1  0
  3  4  1  0
  4  5  2  0
  5  6  1  0
  6  7  2  0
  7  8  1  0
  8  9  1  0
  8 10  2  0
 10 11  1  0
 11 12  3  0
  2 13  1  0
 13 14  2  0
 13 15  1  0
 10  4  1  0
M  END
>  <rName>  (2752) 
Phe_2CN_3Cl

>  <PQ_SYMBOL>  (2752) 
Phe_2CN_3Cl

>  <FULL_NAME>  (2752) 
(S)-2-amino-3-(3-chloro-2-cyanophenyl)propanoic acid

>  <IUPAC_CONDENSED>  (2752) 
Phe(2-CN,3-Cl)

>  <IUPAC>  (2752) 
(2S)-2-amino-3-(3-chloro-2-(nitrilomethyl)phenyl)propanoic acid

>  <TYPE>  (2752) 
Backbone

>  <CLASS>  (2752) 
alpha

>  <ANALOG>  (2752) 
Phe

>  <MOL_WT>  (2752) 
224.64699999999996

>  <LOGP>  (2752) 
1.16608

>  <TPSA>  (2752) 
87.11

>  <POPULARITY>  (2752) 
2.3

>  <PROTECTED>  (2752) 
TRUE

>  <SMILES>  (2752) 
N[C@@H](Cc1(cccc(Cl)c1C#N))C(=O)O

>  <INCHIKEY>  (2752) 
KGFGMPVUCKTCPO-VIFPVBQESA-N

$$$$
Phe_2CN_3OMe
     RDKit          2D

 16 16  0  0  0  0  0  0  0  0999 V2000
   -2.5254    1.8829    0.0000 N   0  0  0  0  0  0  0  0  0  0  0  0
   -2.5849    0.3841    0.0000 C   0  0  0  0  0  0  0  0  0  0  0  0
   -1.3166   -0.4169    0.0000 C   0  0  0  0  0  0  0  0  0  0  0  0
    0.0112    0.2810    0.0000 C   0  0  0  0  0  0  0  0  0  0  0  0
    0.0707    1.7798    0.0000 C   0  0  0  0  0  0  0  0  0  0  0  0
    1.3984    2.4777    0.0000 C   0  0  0  0  0  0  0  0  0  0  0  0
    2.6667    1.6768    0.0000 C   0  0  0  0  0  0  0  0  0  0  0  0
    2.6072    0.1780    0.0000 C   0  0  0  0  0  0  0  0  0  0  0  0
    3.8755   -0.6230    0.0000 O   0  0  0  0  0  0  0  0  0  0  0  0
    5.2032    0.0749    0.0000 C   0  0  0  0  0  0  0  0  0  0  0  0
    1.2794   -0.5199    0.0000 C   0  0  0  0  0  0  0  0  0  0  0  0
    1.2199   -2.0187    0.0000 C   0  0  0  0  0  0  0  0  0  0  0  0
    1.1604   -3.5175    0.0000 N   0  0  0  0  0  0  0  0  0  0  0  0
   -3.9126   -0.3138    0.0000 C   0  0  0  0  0  0  0  0  0  0  0  0
   -3.9721   -1.8126    0.0000 O   0  0  0  0  0  0  0  0  0  0  0  0
   -5.1809    0.4871    0.0000 O   0  0  0  0  0  0  0  0  0  0  0  0
  2  1  1  1
  2  3  1  0
  3  4  1  0
  4  5  1  0
  5  6  2  0
  6  7  1  0
  7  8  2  0
  8  9  1  0
  9 10  1  0
  8 11  1  0
 11 12  1  0
 12 13  3  0
  2 14  1  0
 14 15  2  0
 14 16  1  0
 11  4  2  0
M  END
>  <rName>  (2753) 
Phe_2CN_3OMe

>  <PQ_SYMBOL>  (2753) 
Phe_2CN_3OMe

>  <FULL_NAME>  (2753) 
(S)-2-amino-3-(2-cyano-3-methoxyphenyl)propanoic acid

>  <IUPAC_CONDENSED>  (2753) 
Phe(2-CN,3-OMe)

>  <IUPAC>  (2753) 
(2S)-2-amino-3-(3-methoxy-2-(nitrilomethyl)phenyl)propanoic acid

>  <TYPE>  (2753) 
Backbone

>  <CLASS>  (2753) 
alpha

>  <ANALOG>  (2753) 
Tyr

>  <MOL_WT>  (2753) 
220.22799999999995

>  <LOGP>  (2753) 
0.5212800000000002

>  <TPSA>  (2753) 
96.34

>  <POPULARITY>  (2753) 
2.5

>  <PROTECTED>  (2753) 
TRUE

>  <SMILES>  (2753) 
N[C@@H](Cc1(cccc(OC)c1C#N))C(=O)O

>  <INCHIKEY>  (2753) 
FMGUFHLHDLZGOZ-VIFPVBQESA-N

$$$$
Phe_2CN_4CF3
     RDKit          2D

 18 18  0  0  0  0  0  0  0  0999 V2000
   -2.4213    2.1647    0.0000 N   0  0  0  0  0  0  0  0  0  0  0  0
   -2.9526    0.7619    0.0000 C   0  0  0  0  0  0  0  0  0  0  0  0
   -2.0035   -0.3996    0.0000 C   0  0  0  0  0  0  0  0  0  0  0  0
   -0.5230   -0.1583    0.0000 C   0  0  0  0  0  0  0  0  0  0  0  0
    0.0083    1.2444    0.0000 C   0  0  0  0  0  0  0  0  0  0  0  0
    1.4888    1.4856    0.0000 C   0  0  0  0  0  0  0  0  0  0  0  0
    2.4379    0.3241    0.0000 C   0  0  0  0  0  0  0  0  0  0  0  0
    1.9066   -1.0786    0.0000 C   0  0  0  0  0  0  0  0  0  0  0  0
    0.4261   -1.3199    0.0000 C   0  0  0  0  0  0  0  0  0  0  0  0
   -0.1052   -2.7226    0.0000 C   0  0  0  0  0  0  0  0  0  0  0  0
   -0.6365   -4.1253    0.0000 N   0  0  0  0  0  0  0  0  0  0  0  0
    3.9184    0.5653    0.0000 C   0  0  0  0  0  0  0  0  0  0  0  0
    5.3989    0.8066    0.0000 F   0  0  0  0  0  0  0  0  0  0  0  0
    4.1596   -0.9151    0.0000 F   0  0  0  0  0  0  0  0  0  0  0  0
    3.6772    2.0458    0.0000 F   0  0  0  0  0  0  0  0  0  0  0  0
   -4.4331    0.5207    0.0000 C   0  0  0  0  0  0  0  0  0  0  0  0
   -4.9644   -0.8820    0.0000 O   0  0  0  0  0  0  0  0  0  0  0  0
   -5.3823    1.6822    0.0000 O   0  0  0  0  0  0  0  0  0  0  0  0
  2  1  1  1
  2  3  1  0
  3  4  1  0
  4  5  1  0
  5  6  2  0
  6  7  1  0
  7  8  2  0
  8  9  1  0
  9 10  1  0
 10 11  3  0
  7 12  1  0
 12 13  1  0
 12 14  1  0
 12 15  1  0
  2 16  1  0
 16 17  2  0
 16 18  1  0
  9  4  2  0
M  END
>  <rName>  (2754) 
Phe_2CN_4CF3

>  <PQ_SYMBOL>  (2754) 
Phe_2CN_4CF3

>  <FULL_NAME>  (2754) 
(S)-2-amino-3-(2-cyano-4-(trifluoromethyl)phenyl)propanoic acid

>  <IUPAC_CONDENSED>  (2754) 
Phe(2-CN,4-CF3)

>  <IUPAC>  (2754) 
(2S)-2-amino-3-(2-(nitrilomethyl)-4-(trifluoromethyl)phenyl)propanoic acid

>  <TYPE>  (2754) 
Backbone

>  <CLASS>  (2754) 
alpha

>  <ANALOG>  (2754) 
Phe

>  <MOL_WT>  (2754) 
258.1989999999999

>  <LOGP>  (2754) 
1.5314800000000002

>  <TPSA>  (2754) 
87.11

>  <POPULARITY>  (2754) 
2.4

>  <PROTECTED>  (2754) 
TRUE

>  <SMILES>  (2754) 
N[C@@H](Cc1(ccc(cc1C#N)C(F)(F)F))C(=O)O

>  <INCHIKEY>  (2754) 
SICRQCBHBSNJDP-VIFPVBQESA-N

$$$$
Phe_2CN_4Cl
     RDKit          2D

 15 15  0  0  0  0  0  0  0  0999 V2000
   -1.8456    2.0551    0.0000 N   0  0  0  0  0  0  0  0  0  0  0  0
   -2.1748    0.5917    0.0000 C   0  0  0  0  0  0  0  0  0  0  0  0
   -1.0721   -0.4251    0.0000 C   0  0  0  0  0  0  0  0  0  0  0  0
    0.3599    0.0215    0.0000 C   0  0  0  0  0  0  0  0  0  0  0  0
    0.6891    1.4850    0.0000 C   0  0  0  0  0  0  0  0  0  0  0  0
    2.1211    1.9316    0.0000 C   0  0  0  0  0  0  0  0  0  0  0  0
    3.2238    0.9148    0.0000 C   0  0  0  0  0  0  0  0  0  0  0  0
    4.6558    1.3614    0.0000 Cl  0  0  0  0  0  0  0  0  0  0  0  0
    2.8947   -0.5486    0.0000 C   0  0  0  0  0  0  0  0  0  0  0  0
    1.4627   -0.9953    0.0000 C   0  0  0  0  0  0  0  0  0  0  0  0
    1.1335   -2.4587    0.0000 C   0  0  0  0  0  0  0  0  0  0  0  0
    0.8043   -3.9221    0.0000 N   0  0  0  0  0  0  0  0  0  0  0  0
   -3.6068    0.1451    0.0000 C   0  0  0  0  0  0  0  0  0  0  0  0
   -3.9360   -1.3184    0.0000 O   0  0  0  0  0  0  0  0  0  0  0  0
   -4.7096    1.1619    0.0000 O   0  0  0  0  0  0  0  0  0  0  0  0
  2  1  1  1
  2  3  1  0
  3  4  1  0
  4  5  1  0
  5  6  2  0
  6  7  1  0
  7  8  1  0
  7  9  2  0
  9 10  1  0
 10 11  1  0
 11 12  3  0
  2 13  1  0
 13 14  2  0
 13 15  1  0
 10  4  2  0
M  END
>  <rName>  (2755) 
Phe_2CN_4Cl

>  <PQ_SYMBOL>  (2755) 
Phe_2CN_4Cl

>  <FULL_NAME>  (2755) 
(S)-2-amino-3-(4-chloro-2-cyanophenyl)propanoic acid

>  <IUPAC_CONDENSED>  (2755) 
Phe(2-CN,4-Cl)

>  <IUPAC>  (2755) 
(2S)-2-amino-3-(4-chloro-2-(nitrilomethyl)phenyl)propanoic acid

>  <TYPE>  (2755) 
Backbone

>  <CLASS>  (2755) 
alpha

>  <ANALOG>  (2755) 
Phe

>  <MOL_WT>  (2755) 
224.647

>  <LOGP>  (2755) 
1.16608

>  <TPSA>  (2755) 
87.11

>  <POPULARITY>  (2755) 
2.6

>  <PROTECTED>  (2755) 
TRUE

>  <SMILES>  (2755) 
N[C@@H](Cc1(ccc(Cl)cc1C#N))C(=O)O

>  <INCHIKEY>  (2755) 
ZBRQGMCXRUTKAL-VIFPVBQESA-N

$$$$
Phe_2CN_4NO2
     RDKit          2D

 17 17  0  0  0  0  0  0  0  0999 V2000
   -2.2343    2.1538    0.0000 N   0  0  0  0  0  0  0  0  0  0  0  0
   -2.7375    0.7407    0.0000 C   0  0  0  0  0  0  0  0  0  0  0  0
   -1.7653   -0.4016    0.0000 C   0  0  0  0  0  0  0  0  0  0  0  0
   -0.2900   -0.1309    0.0000 C   0  0  0  0  0  0  0  0  0  0  0  0
    0.2133    1.2822    0.0000 C   0  0  0  0  0  0  0  0  0  0  0  0
    1.6886    1.5529    0.0000 C   0  0  0  0  0  0  0  0  0  0  0  0
    2.6608    0.4106    0.0000 C   0  0  0  0  0  0  0  0  0  0  0  0
    2.1576   -1.0025    0.0000 C   0  0  0  0  0  0  0  0  0  0  0  0
    0.6822   -1.2732    0.0000 C   0  0  0  0  0  0  0  0  0  0  0  0
    0.1790   -2.6863    0.0000 C   0  0  0  0  0  0  0  0  0  0  0  0
   -0.3242   -4.0994    0.0000 N   0  0  0  0  0  0  0  0  0  0  0  0
    4.1361    0.6813    0.0000 N   0  0  0  0  0  0  0  0  0  0  0  0
    4.6394    2.0944    0.0000 O   0  0  0  0  0  0  0  0  0  0  0  0
    5.1083   -0.4610    0.0000 O   0  0  0  0  0  0  0  0  0  0  0  0
   -4.2128    0.4700    0.0000 C   0  0  0  0  0  0  0  0  0  0  0  0
   -4.7161   -0.9431    0.0000 O   0  0  0  0  0  0  0  0  0  0  0  0
   -5.1850    1.6123    0.0000 O   0  0  0  0  0  0  0  0  0  0  0  0
  2  1  1  1
  2  3  1  0
  3  4  1  0
  4  5  1  0
  5  6  2  0
  6  7  1  0
  7  8  2  0
  8  9  1  0
  9 10  1  0
 10 11  3  0
  7 12  1  0
 12 13  2  0
 12 14  1  0
  2 15  1  0
 15 16  2  0
 15 17  1  0
  9  4  2  0
M  CHG  2  12   1  14  -1
M  END
>  <rName>  (2756) 
Phe_2CN_4NO2

>  <PQ_SYMBOL>  (2756) 
Phe_2CN_4NO2

>  <FULL_NAME>  (2756) 
(S)-2-amino-3-(2-cyano-4-nitrophenyl)propanoic acid

>  <IUPAC_CONDENSED>  (2756) 
Phe(2-CN,4-NO2)

>  <IUPAC>  (2756) 
(2S)-2-amino-3-(2-(nitrilomethyl)-4-nitrophenyl)propanoic acid

>  <TYPE>  (2756) 
Backbone

>  <CLASS>  (2756) 
alpha

>  <ANALOG>  (2756) 
Phe

>  <MOL_WT>  (2756) 
235.19899999999996

>  <LOGP>  (2756) 
0.42087999999999987

>  <TPSA>  (2756) 
130.25

>  <POPULARITY>  (2756) 
2.4

>  <PROTECTED>  (2756) 
TRUE

>  <SMILES>  (2756) 
N[C@@H](Cc1(ccc(cc1C#N)[N+](=O)[O-]))C(=O)O

>  <INCHIKEY>  (2756) 
ZEUOKIZXIYRENH-VIFPVBQESA-N

$$$$
Phe_2CN_5F
     RDKit          2D

 15 15  0  0  0  0  0  0  0  0999 V2000
   -1.5996    2.0029    0.0000 N   0  0  0  0  0  0  0  0  0  0  0  0
   -2.0022    0.5579    0.0000 C   0  0  0  0  0  0  0  0  0  0  0  0
   -0.9521   -0.5133    0.0000 C   0  0  0  0  0  0  0  0  0  0  0  0
    0.5005   -0.1395    0.0000 C   0  0  0  0  0  0  0  0  0  0  0  0
    0.9032    1.3055    0.0000 C   0  0  0  0  0  0  0  0  0  0  0  0
    2.3559    1.6793    0.0000 C   0  0  0  0  0  0  0  0  0  0  0  0
    2.7585    3.1242    0.0000 F   0  0  0  0  0  0  0  0  0  0  0  0
    3.4059    0.6081    0.0000 C   0  0  0  0  0  0  0  0  0  0  0  0
    3.0033   -0.8369    0.0000 C   0  0  0  0  0  0  0  0  0  0  0  0
    1.5506   -1.2106    0.0000 C   0  0  0  0  0  0  0  0  0  0  0  0
    1.1480   -2.6556    0.0000 C   0  0  0  0  0  0  0  0  0  0  0  0
    0.7453   -4.1005    0.0000 N   0  0  0  0  0  0  0  0  0  0  0  0
   -3.4549    0.1841    0.0000 C   0  0  0  0  0  0  0  0  0  0  0  0
   -3.8575   -1.2608    0.0000 O   0  0  0  0  0  0  0  0  0  0  0  0
   -4.5049    1.2553    0.0000 O   0  0  0  0  0  0  0  0  0  0  0  0
  2  1  1  1
  2  3  1  0
  3  4  1  0
  4  5  1  0
  5  6  2  0
  6  7  1  0
  6  8  1  0
  8  9  2  0
  9 10  1  0
 10 11  1  0
 11 12  3  0
  2 13  1  0
 13 14  2  0
 13 15  1  0
 10  4  2  0
M  END
>  <rName>  (2757) 
Phe_2CN_5F

>  <PQ_SYMBOL>  (2757) 
Phe_2CN_5F

>  <FULL_NAME>  (2757) 
(S)-2-amino-3-(2-cyano-5-fluorophenyl)propanoic acid

>  <IUPAC_CONDENSED>  (2757) 
Phe(2-CN,5-F)

>  <IUPAC>  (2757) 
(2S)-2-amino-3-(5-fluoro-2-(nitrilomethyl)phenyl)propanoic acid

>  <TYPE>  (2757) 
Backbone

>  <CLASS>  (2757) 
alpha

>  <ANALOG>  (2757) 
Phe

>  <MOL_WT>  (2757) 
208.19199999999998

>  <LOGP>  (2757) 
0.65178

>  <TPSA>  (2757) 
87.11

>  <POPULARITY>  (2757) 
2.7

>  <PROTECTED>  (2757) 
TRUE

>  <SMILES>  (2757) 
N[C@@H](Cc1(cc(F)ccc1C#N))C(=O)O

>  <INCHIKEY>  (2757) 
HTSDVAWQZZCWLH-VIFPVBQESA-N

$$$$
Phe_2CO2H_3Cl
     RDKit          2D

 16 16  0  0  0  0  0  0  0  0999 V2000
   -2.3721    1.9001    0.0000 N   0  0  0  0  0  0  0  0  0  0  0  0
   -2.3583    0.4002    0.0000 C   0  0  0  0  0  0  0  0  0  0  0  0
   -1.0524   -0.3378    0.0000 C   0  0  0  0  0  0  0  0  0  0  0  0
    0.2397    0.4241    0.0000 C   0  0  0  0  0  0  0  0  0  0  0  0
    0.2259    1.9240    0.0000 C   0  0  0  0  0  0  0  0  0  0  0  0
    1.5180    2.6860    0.0000 C   0  0  0  0  0  0  0  0  0  0  0  0
    2.8238    1.9479    0.0000 C   0  0  0  0  0  0  0  0  0  0  0  0
    2.8376    0.4480    0.0000 C   0  0  0  0  0  0  0  0  0  0  0  0
    4.1435   -0.2900    0.0000 Cl  0  0  0  0  0  0  0  0  0  0  0  0
    1.5456   -0.3139    0.0000 C   0  0  0  0  0  0  0  0  0  0  0  0
    1.5594   -1.8139    0.0000 C   0  0  0  0  0  0  0  0  0  0  0  0
    0.2673   -2.5758    0.0000 O   0  0  0  0  0  0  0  0  0  0  0  0
    2.8653   -2.5519    0.0000 O   0  0  0  0  0  0  0  0  0  0  0  0
   -3.6504   -0.3617    0.0000 C   0  0  0  0  0  0  0  0  0  0  0  0
   -3.6366   -1.8617    0.0000 O   0  0  0  0  0  0  0  0  0  0  0  0
   -4.9563    0.3763    0.0000 O   0  0  0  0  0  0  0  0  0  0  0  0
  2  1  1  1
  2  3  1  0
  3  4  1  0
  4  5  2  0
  5  6  1  0
  6  7  2  0
  7  8  1  0
  8  9  1  0
  8 10  2  0
 10 11  1  0
 11 12  2  0
 11 13  1  0
  2 14  1  0
 14 15  2  0
 14 16  1  0
 10  4  1  0
M  END
>  <rName>  (2758) 
Phe_2CO2H_3Cl

>  <PQ_SYMBOL>  (2758) 
Phe_2CO2H_3Cl

>  <FULL_NAME>  (2758) 
(S)-2-(2-amino-2-carboxyethyl)-6-chlorobenzoic acid

>  <IUPAC_CONDENSED>  (2758) 
Phe(2-CO2H,3-Cl)

>  <IUPAC>  (2758) 
2-((2S)-2-amino-3-hydroxy-3-oxopropyl)-6-chlorobenzene-1-carboxylic acid

>  <TYPE>  (2758) 
Backbone

>  <CLASS>  (2758) 
alpha

>  <ANALOG>  (2758) 
Phe

>  <MOL_WT>  (2758) 
243.64599999999996

>  <LOGP>  (2758) 
0.9926000000000001

>  <TPSA>  (2758) 
100.62000000000002

>  <POPULARITY>  (2758) 
2.4

>  <PROTECTED>  (2758) 
TRUE

>  <SMILES>  (2758) 
N[C@@H](Cc1(cccc(Cl)c1C(=O)O))C(=O)O

>  <INCHIKEY>  (2758) 
DOKOVFFDBTVHSV-ZETCQYMHSA-N

$$$$
Phe_2CO2H_3OMe
     RDKit          2D

 17 17  0  0  0  0  0  0  0  0999 V2000
   -2.6461    1.9365    0.0000 N   0  0  0  0  0  0  0  0  0  0  0  0
   -2.6683    0.4367    0.0000 C   0  0  0  0  0  0  0  0  0  0  0  0
   -1.3805   -0.3325    0.0000 C   0  0  0  0  0  0  0  0  0  0  0  0
   -0.0705    0.3981    0.0000 C   0  0  0  0  0  0  0  0  0  0  0  0
   -0.0483    1.8980    0.0000 C   0  0  0  0  0  0  0  0  0  0  0  0
    1.2617    2.6286    0.0000 C   0  0  0  0  0  0  0  0  0  0  0  0
    2.5495    1.8595    0.0000 C   0  0  0  0  0  0  0  0  0  0  0  0
    2.5273    0.3596    0.0000 C   0  0  0  0  0  0  0  0  0  0  0  0
    3.8150   -0.4096    0.0000 O   0  0  0  0  0  0  0  0  0  0  0  0
    5.1251    0.3211    0.0000 C   0  0  0  0  0  0  0  0  0  0  0  0
    1.2173   -0.3710    0.0000 C   0  0  0  0  0  0  0  0  0  0  0  0
    1.1950   -1.8709    0.0000 C   0  0  0  0  0  0  0  0  0  0  0  0
   -0.1150   -2.6015    0.0000 O   0  0  0  0  0  0  0  0  0  0  0  0
    2.4828   -2.6400    0.0000 O   0  0  0  0  0  0  0  0  0  0  0  0
   -3.9783   -0.2940    0.0000 C   0  0  0  0  0  0  0  0  0  0  0  0
   -4.0006   -1.7938    0.0000 O   0  0  0  0  0  0  0  0  0  0  0  0
   -5.2661    0.4752    0.0000 O   0  0  0  0  0  0  0  0  0  0  0  0
  2  1  1  1
  2  3  1  0
  3  4  1  0
  4  5  1  0
  5  6  2  0
  6  7  1  0
  7  8  2  0
  8  9  1  0
  9 10  1  0
  8 11  1  0
 11 12  1  0
 12 13  2  0
 12 14  1  0
  2 15  1  0
 15 16  2  0
 15 17  1  0
 11  4  2  0
M  END
>  <rName>  (2759) 
Phe_2CO2H_3OMe

>  <PQ_SYMBOL>  (2759) 
Phe_2CO2H_3OMe

>  <FULL_NAME>  (2759) 
(S)-2-(2-amino-2-carboxyethyl)-6-methoxybenzoic acid

>  <IUPAC_CONDENSED>  (2759) 
Phe(2-CO2H,3-OMe)

>  <IUPAC>  (2759) 
2-((2S)-2-amino-3-hydroxy-3-oxopropyl)-6-methoxybenzene-1-carboxylic acid

>  <TYPE>  (2759) 
Backbone

>  <CLASS>  (2759) 
alpha

>  <ANALOG>  (2759) 
Tyr

>  <MOL_WT>  (2759) 
239.22699999999995

>  <LOGP>  (2759) 
0.3478

>  <TPSA>  (2759) 
109.85000000000001

>  <POPULARITY>  (2759) 
3.0

>  <PROTECTED>  (2759) 
TRUE

>  <SMILES>  (2759) 
N[C@@H](Cc1(cccc(OC)c1C(=O)O))C(=O)O

>  <INCHIKEY>  (2759) 
FSHRXFVCVVGEEW-ZETCQYMHSA-N

$$$$
Phe_2CO2H_45diOMe
     RDKit          2D

 19 19  0  0  0  0  0  0  0  0999 V2000
   -2.1590    2.2332    0.0000 N   0  0  0  0  0  0  0  0  0  0  0  0
   -2.7585    0.8582    0.0000 C   0  0  0  0  0  0  0  0  0  0  0  0
   -1.8674   -0.3485    0.0000 C   0  0  0  0  0  0  0  0  0  0  0  0
   -0.3769   -0.1802    0.0000 C   0  0  0  0  0  0  0  0  0  0  0  0
    0.2226    1.1948    0.0000 C   0  0  0  0  0  0  0  0  0  0  0  0
    1.7131    1.3631    0.0000 C   0  0  0  0  0  0  0  0  0  0  0  0
    2.3126    2.7381    0.0000 O   0  0  0  0  0  0  0  0  0  0  0  0
    3.8032    2.9064    0.0000 C   0  0  0  0  0  0  0  0  0  0  0  0
    2.6042    0.1565    0.0000 C   0  0  0  0  0  0  0  0  0  0  0  0
    4.0947    0.3248    0.0000 O   0  0  0  0  0  0  0  0  0  0  0  0
    4.9857   -0.8819    0.0000 C   0  0  0  0  0  0  0  0  0  0  0  0
    2.0047   -1.2185    0.0000 C   0  0  0  0  0  0  0  0  0  0  0  0
    0.5141   -1.3868    0.0000 C   0  0  0  0  0  0  0  0  0  0  0  0
   -0.0854   -2.7618    0.0000 C   0  0  0  0  0  0  0  0  0  0  0  0
   -1.5759   -2.9302    0.0000 O   0  0  0  0  0  0  0  0  0  0  0  0
    0.8057   -3.9685    0.0000 O   0  0  0  0  0  0  0  0  0  0  0  0
   -4.2490    0.6899    0.0000 C   0  0  0  0  0  0  0  0  0  0  0  0
   -4.8485   -0.6851    0.0000 O   0  0  0  0  0  0  0  0  0  0  0  0
   -5.1400    1.8966    0.0000 O   0  0  0  0  0  0  0  0  0  0  0  0
  2  1  1  1
  2  3  1  0
  3  4  1  0
  4  5  2  0
  5  6  1  0
  6  7  1  0
  7  8  1  0
  6  9  2  0
  9 10  1  0
 10 11  1  0
  9 12  1  0
 12 13  2  0
 13 14  1  0
 14 15  2  0
 14 16  1  0
  2 17  1  0
 17 18  2  0
 17 19  1  0
 13  4  1  0
M  END
>  <rName>  (2760) 
Phe_2CO2H_45diOMe

>  <PQ_SYMBOL>  (2760) 
Phe_2CO2H_45diOMe

>  <FULL_NAME>  (2760) 
(S)-2-(2-amino-2-carboxyethyl)-4,5-dimethoxybenzoic acid

>  <IUPAC_CONDENSED>  (2760) 
Phe(2-CO2H,4,5-diOMe)

>  <IUPAC>  (2760) 
2-((2S)-2-amino-3-hydroxy-3-oxopropyl)-4,5-dimethoxybenzene-1-carboxylic acid

>  <TYPE>  (2760) 
Backbone

>  <CLASS>  (2760) 
alpha

>  <ANALOG>  (2760) 
Tyr

>  <MOL_WT>  (2760) 
269.25299999999993

>  <LOGP>  (2760) 
0.35639999999999994

>  <TPSA>  (2760) 
119.08

>  <POPULARITY>  (2760) 
2.6

>  <PROTECTED>  (2760) 
TRUE

>  <SMILES>  (2760) 
N[C@@H](Cc1(cc(OC)c(OC)cc1C(=O)O))C(=O)O

>  <INCHIKEY>  (2760) 
JUKFKRMSCOKYDO-QMMMGPOBSA-N

$$$$
Phe_2CO2H_4Cl
     RDKit          2D

 16 16  0  0  0  0  0  0  0  0999 V2000
   -2.0264    2.1084    0.0000 N   0  0  0  0  0  0  0  0  0  0  0  0
   -2.2807    0.6301    0.0000 C   0  0  0  0  0  0  0  0  0  0  0  0
   -1.1276   -0.3292    0.0000 C   0  0  0  0  0  0  0  0  0  0  0  0
    0.2798    0.1897    0.0000 C   0  0  0  0  0  0  0  0  0  0  0  0
    0.5340    1.6680    0.0000 C   0  0  0  0  0  0  0  0  0  0  0  0
    1.9414    2.1869    0.0000 C   0  0  0  0  0  0  0  0  0  0  0  0
    3.0945    1.2276    0.0000 C   0  0  0  0  0  0  0  0  0  0  0  0
    4.5019    1.7465    0.0000 Cl  0  0  0  0  0  0  0  0  0  0  0  0
    2.8403   -0.2507    0.0000 C   0  0  0  0  0  0  0  0  0  0  0  0
    1.4329   -0.7697    0.0000 C   0  0  0  0  0  0  0  0  0  0  0  0
    1.1786   -2.2479    0.0000 C   0  0  0  0  0  0  0  0  0  0  0  0
   -0.2288   -2.7669    0.0000 O   0  0  0  0  0  0  0  0  0  0  0  0
    2.3317   -3.2073    0.0000 O   0  0  0  0  0  0  0  0  0  0  0  0
   -3.6881    0.1112    0.0000 C   0  0  0  0  0  0  0  0  0  0  0  0
   -3.9423   -1.3671    0.0000 O   0  0  0  0  0  0  0  0  0  0  0  0
   -4.8412    1.0705    0.0000 O   0  0  0  0  0  0  0  0  0  0  0  0
  2  1  1  1
  2  3  1  0
  3  4  1  0
  4  5  1  0
  5  6  2  0
  6  7  1  0
  7  8  1  0
  7  9  2  0
  9 10  1  0
 10 11  1  0
 11 12  2  0
 11 13  1  0
  2 14  1  0
 14 15  2  0
 14 16  1  0
 10  4  2  0
M  END
>  <rName>  (2761) 
Phe_2CO2H_4Cl

>  <PQ_SYMBOL>  (2761) 
Phe_2CO2H_4Cl

>  <FULL_NAME>  (2761) 
(S)-2-(2-amino-2-carboxyethyl)-5-chlorobenzoic acid

>  <IUPAC_CONDENSED>  (2761) 
Phe(2-CO2H,4-Cl)

>  <IUPAC>  (2761) 
2-((2S)-2-amino-3-hydroxy-3-oxopropyl)-5-chlorobenzene-1-carboxylic acid

>  <TYPE>  (2761) 
Backbone

>  <CLASS>  (2761) 
alpha

>  <ANALOG>  (2761) 
Phe

>  <MOL_WT>  (2761) 
243.646

>  <LOGP>  (2761) 
0.9926000000000001

>  <TPSA>  (2761) 
100.62000000000002

>  <POPULARITY>  (2761) 
2.5

>  <PROTECTED>  (2761) 
TRUE

>  <SMILES>  (2761) 
N[C@@H](Cc1(ccc(Cl)cc1C(=O)O))C(=O)O

>  <INCHIKEY>  (2761) 
BDZCDSOBQSKUNP-QMMMGPOBSA-N

$$$$
Phe_2CO2H_4F
     RDKit          2D

 16 16  0  0  0  0  0  0  0  0999 V2000
   -2.0264    2.1084    0.0000 N   0  0  0  0  0  0  0  0  0  0  0  0
   -2.2807    0.6301    0.0000 C   0  0  0  0  0  0  0  0  0  0  0  0
   -1.1276   -0.3292    0.0000 C   0  0  0  0  0  0  0  0  0  0  0  0
    0.2798    0.1897    0.0000 C   0  0  0  0  0  0  0  0  0  0  0  0
    0.5340    1.6680    0.0000 C   0  0  0  0  0  0  0  0  0  0  0  0
    1.9414    2.1869    0.0000 C   0  0  0  0  0  0  0  0  0  0  0  0
    3.0945    1.2276    0.0000 C   0  0  0  0  0  0  0  0  0  0  0  0
    4.5019    1.7465    0.0000 F   0  0  0  0  0  0  0  0  0  0  0  0
    2.8403   -0.2507    0.0000 C   0  0  0  0  0  0  0  0  0  0  0  0
    1.4329   -0.7697    0.0000 C   0  0  0  0  0  0  0  0  0  0  0  0
    1.1786   -2.2479    0.0000 C   0  0  0  0  0  0  0  0  0  0  0  0
   -0.2288   -2.7669    0.0000 O   0  0  0  0  0  0  0  0  0  0  0  0
    2.3317   -3.2073    0.0000 O   0  0  0  0  0  0  0  0  0  0  0  0
   -3.6881    0.1112    0.0000 C   0  0  0  0  0  0  0  0  0  0  0  0
   -3.9423   -1.3671    0.0000 O   0  0  0  0  0  0  0  0  0  0  0  0
   -4.8412    1.0705    0.0000 O   0  0  0  0  0  0  0  0  0  0  0  0
  2  1  1  1
  2  3  1  0
  3  4  1  0
  4  5  1  0
  5  6  2  0
  6  7  1  0
  7  8  1  0
  7  9  2  0
  9 10  1  0
 10 11  1  0
 11 12  2  0
 11 13  1  0
  2 14  1  0
 14 15  2  0
 14 16  1  0
 10  4  2  0
M  END
>  <rName>  (2762) 
Phe_2CO2H_4F

>  <PQ_SYMBOL>  (2762) 
Phe_2CO2H_4F

>  <FULL_NAME>  (2762) 
(S)-2-(2-amino-2-carboxyethyl)-5-fluorobenzoic acid

>  <IUPAC_CONDENSED>  (2762) 
Phe(2-CO2H,4-F)

>  <IUPAC>  (2762) 
2-((2S)-2-amino-3-hydroxy-3-oxopropyl)-5-fluorobenzene-1-carboxylic acid

>  <TYPE>  (2762) 
Backbone

>  <CLASS>  (2762) 
alpha

>  <ANALOG>  (2762) 
Phe

>  <MOL_WT>  (2762) 
227.19099999999997

>  <LOGP>  (2762) 
0.47829999999999984

>  <TPSA>  (2762) 
100.62000000000002

>  <POPULARITY>  (2762) 
2.6

>  <PROTECTED>  (2762) 
TRUE

>  <SMILES>  (2762) 
N[C@@H](Cc1(ccc(F)cc1C(=O)O))C(=O)O

>  <INCHIKEY>  (2762) 
MHFWLJNSUNHNTN-QMMMGPOBSA-N

$$$$
Phe_2CO2H_4Me
     RDKit          2D

 16 16  0  0  0  0  0  0  0  0999 V2000
   -2.0264    2.1084    0.0000 N   0  0  0  0  0  0  0  0  0  0  0  0
   -2.2807    0.6301    0.0000 C   0  0  0  0  0  0  0  0  0  0  0  0
   -1.1276   -0.3292    0.0000 C   0  0  0  0  0  0  0  0  0  0  0  0
    0.2798    0.1897    0.0000 C   0  0  0  0  0  0  0  0  0  0  0  0
    0.5340    1.6680    0.0000 C   0  0  0  0  0  0  0  0  0  0  0  0
    1.9414    2.1869    0.0000 C   0  0  0  0  0  0  0  0  0  0  0  0
    3.0945    1.2276    0.0000 C   0  0  0  0  0  0  0  0  0  0  0  0
    4.5019    1.7465    0.0000 C   0  0  0  0  0  0  0  0  0  0  0  0
    2.8403   -0.2507    0.0000 C   0  0  0  0  0  0  0  0  0  0  0  0
    1.4329   -0.7697    0.0000 C   0  0  0  0  0  0  0  0  0  0  0  0
    1.1786   -2.2479    0.0000 C   0  0  0  0  0  0  0  0  0  0  0  0
   -0.2288   -2.7669    0.0000 O   0  0  0  0  0  0  0  0  0  0  0  0
    2.3317   -3.2073    0.0000 O   0  0  0  0  0  0  0  0  0  0  0  0
   -3.6881    0.1112    0.0000 C   0  0  0  0  0  0  0  0  0  0  0  0
   -3.9423   -1.3671    0.0000 O   0  0  0  0  0  0  0  0  0  0  0  0
   -4.8412    1.0705    0.0000 O   0  0  0  0  0  0  0  0  0  0  0  0
  2  1  1  1
  2  3  1  0
  3  4  1  0
  4  5  1  0
  5  6  2  0
  6  7  1  0
  7  8  1  0
  7  9  2  0
  9 10  1  0
 10 11  1  0
 11 12  2  0
 11 13  1  0
  2 14  1  0
 14 15  2  0
 14 16  1  0
 10  4  2  0
M  END
>  <rName>  (2763) 
Phe_2CO2H_4Me

>  <PQ_SYMBOL>  (2763) 
Phe_2CO2H_4Me

>  <FULL_NAME>  (2763) 
(S)-2-(2-amino-2-carboxyethyl)-5-methylbenzoic acid

>  <IUPAC_CONDENSED>  (2763) 
Phe(2-CO2H,4-Me)

>  <IUPAC>  (2763) 
2-((2S)-2-amino-3-hydroxy-3-oxopropyl)-5-methylbenzene-1-carboxylic acid

>  <TYPE>  (2763) 
Backbone

>  <CLASS>  (2763) 
alpha

>  <ANALOG>  (2763) 
Phe

>  <MOL_WT>  (2763) 
223.22799999999995

>  <LOGP>  (2763) 
0.64762

>  <TPSA>  (2763) 
100.62000000000002

>  <POPULARITY>  (2763) 
2.7

>  <PROTECTED>  (2763) 
TRUE

>  <SMILES>  (2763) 
N[C@@H](Cc1(ccc(C)cc1C(=O)O))C(=O)O

>  <INCHIKEY>  (2763) 
VWSSPQJVPUDNCJ-VIFPVBQESA-N

$$$$
Phe_2CO2H_4NH2
     RDKit          2D

 16 16  0  0  0  0  0  0  0  0999 V2000
   -2.0264    2.1084    0.0000 N   0  0  0  0  0  0  0  0  0  0  0  0
   -2.2807    0.6301    0.0000 C   0  0  0  0  0  0  0  0  0  0  0  0
   -1.1276   -0.3292    0.0000 C   0  0  0  0  0  0  0  0  0  0  0  0
    0.2798    0.1897    0.0000 C   0  0  0  0  0  0  0  0  0  0  0  0
    0.5340    1.6680    0.0000 C   0  0  0  0  0  0  0  0  0  0  0  0
    1.9414    2.1869    0.0000 C   0  0  0  0  0  0  0  0  0  0  0  0
    3.0945    1.2276    0.0000 C   0  0  0  0  0  0  0  0  0  0  0  0
    4.5019    1.7465    0.0000 N   0  0  0  0  0  0  0  0  0  0  0  0
    2.8403   -0.2507    0.0000 C   0  0  0  0  0  0  0  0  0  0  0  0
    1.4329   -0.7697    0.0000 C   0  0  0  0  0  0  0  0  0  0  0  0
    1.1786   -2.2479    0.0000 C   0  0  0  0  0  0  0  0  0  0  0  0
   -0.2288   -2.7669    0.0000 O   0  0  0  0  0  0  0  0  0  0  0  0
    2.3317   -3.2073    0.0000 O   0  0  0  0  0  0  0  0  0  0  0  0
   -3.6881    0.1112    0.0000 C   0  0  0  0  0  0  0  0  0  0  0  0
   -3.9423   -1.3671    0.0000 O   0  0  0  0  0  0  0  0  0  0  0  0
   -4.8412    1.0705    0.0000 O   0  0  0  0  0  0  0  0  0  0  0  0
  2  1  1  1
  2  3  1  0
  3  4  1  0
  4  5  1  0
  5  6  2  0
  6  7  1  0
  7  8  1  0
  7  9  2  0
  9 10  1  0
 10 11  1  0
 11 12  2  0
 11 13  1  0
  2 14  1  0
 14 15  2  0
 14 16  1  0
 10  4  2  0
M  END
>  <rName>  (2764) 
Phe_2CO2H_4NH2

>  <PQ_SYMBOL>  (2764) 
Phe_2CO2H_4NH2

>  <FULL_NAME>  (2764) 
(S)-5-amino-2-(2-amino-2-carboxyethyl)benzoic acid

>  <IUPAC_CONDENSED>  (2764) 
Phe(2-CO2H,4-NH2)

>  <IUPAC>  (2764) 
5-amino-2-((2S)-2-amino-3-hydroxy-3-oxopropyl)benzoic acid

>  <TYPE>  (2764) 
Backbone

>  <CLASS>  (2764) 
alpha

>  <ANALOG>  (2764) 
Phe

>  <MOL_WT>  (2764) 
224.21599999999998

>  <LOGP>  (2764) 
-0.07860000000000034

>  <TPSA>  (2764) 
126.64

>  <POPULARITY>  (2764) 
2.6

>  <PROTECTED>  (2764) 
TRUE

>  <SMILES>  (2764) 
N[C@@H](Cc1(ccc(N)cc1C(=O)O))C(=O)O

>  <INCHIKEY>  (2764) 
AXBQHRKYYHHTSS-QMMMGPOBSA-N

$$$$
Phe_2CO2H_4NO2
     RDKit          2D

 18 18  0  0  0  0  0  0  0  0999 V2000
   -2.2817    2.2658    0.0000 N   0  0  0  0  0  0  0  0  0  0  0  0
   -2.7617    0.8447    0.0000 C   0  0  0  0  0  0  0  0  0  0  0  0
   -1.7709   -0.2815    0.0000 C   0  0  0  0  0  0  0  0  0  0  0  0
   -0.3002    0.0134    0.0000 C   0  0  0  0  0  0  0  0  0  0  0  0
    0.1798    1.4346    0.0000 C   0  0  0  0  0  0  0  0  0  0  0  0
    1.6505    1.7295    0.0000 C   0  0  0  0  0  0  0  0  0  0  0  0
    2.6413    0.6033    0.0000 C   0  0  0  0  0  0  0  0  0  0  0  0
    2.1613   -0.8179    0.0000 C   0  0  0  0  0  0  0  0  0  0  0  0
    0.6906   -1.1128    0.0000 C   0  0  0  0  0  0  0  0  0  0  0  0
    0.2107   -2.5339    0.0000 C   0  0  0  0  0  0  0  0  0  0  0  0
   -1.2601   -2.8289    0.0000 O   0  0  0  0  0  0  0  0  0  0  0  0
    1.2014   -3.6602    0.0000 O   0  0  0  0  0  0  0  0  0  0  0  0
    4.1120    0.8982    0.0000 N   0  0  0  0  0  0  0  0  0  0  0  0
    4.5919    2.3193    0.0000 O   0  0  0  0  0  0  0  0  0  0  0  0
    5.1028   -0.2280    0.0000 O   0  0  0  0  0  0  0  0  0  0  0  0
   -4.2324    0.5498    0.0000 C   0  0  0  0  0  0  0  0  0  0  0  0
   -4.7123   -0.8714    0.0000 O   0  0  0  0  0  0  0  0  0  0  0  0
   -5.2232    1.6760    0.0000 O   0  0  0  0  0  0  0  0  0  0  0  0
  2  1  1  1
  2  3  1  0
  3  4  1  0
  4  5  1  0
  5  6  2  0
  6  7  1  0
  7  8  2  0
  8  9  1  0
  9 10  1  0
 10 11  2  0
 10 12  1  0
  7 13  1  0
 13 14  2  0
 13 15  1  0
  2 16  1  0
 16 17  2  0
 16 18  1  0
  9  4  2  0
M  CHG  2  13   1  15  -1
M  END
>  <rName>  (2765) 
Phe_2CO2H_4NO2

>  <PQ_SYMBOL>  (2765) 
Phe_2CO2H_4NO2

>  <FULL_NAME>  (2765) 
(S)-2-(2-amino-2-carboxyethyl)-5-nitrobenzoic acid

>  <IUPAC_CONDENSED>  (2765) 
Phe(2-CO2H,4-NO2)

>  <IUPAC>  (2765) 
2-((2S)-2-amino-3-hydroxy-3-oxopropyl)-5-nitrobenzene-1-carboxylic acid

>  <TYPE>  (2765) 
Backbone

>  <CLASS>  (2765) 
alpha

>  <ANALOG>  (2765) 
Phe

>  <MOL_WT>  (2765) 
254.19799999999995

>  <LOGP>  (2765) 
0.24739999999999973

>  <TPSA>  (2765) 
143.76

>  <POPULARITY>  (2765) 
2.5

>  <PROTECTED>  (2765) 
TRUE

>  <SMILES>  (2765) 
N[C@@H](Cc1(ccc(cc1C(=O)O)[N+](=O)[O-]))C(=O)O

>  <INCHIKEY>  (2765) 
BPMVYPRELOSRAS-QMMMGPOBSA-N

$$$$
Phe_2CO2H_4OMe
     RDKit          2D

 17 17  0  0  0  0  0  0  0  0999 V2000
   -2.2707    2.1590    0.0000 N   0  0  0  0  0  0  0  0  0  0  0  0
   -2.5866    0.6926    0.0000 C   0  0  0  0  0  0  0  0  0  0  0  0
   -1.4747   -0.3141    0.0000 C   0  0  0  0  0  0  0  0  0  0  0  0
   -0.0468    0.1455    0.0000 C   0  0  0  0  0  0  0  0  0  0  0  0
    0.2691    1.6118    0.0000 C   0  0  0  0  0  0  0  0  0  0  0  0
    1.6969    2.0714    0.0000 C   0  0  0  0  0  0  0  0  0  0  0  0
    2.8089    1.0647    0.0000 C   0  0  0  0  0  0  0  0  0  0  0  0
    4.2367    1.5243    0.0000 O   0  0  0  0  0  0  0  0  0  0  0  0
    5.3487    0.5175    0.0000 C   0  0  0  0  0  0  0  0  0  0  0  0
    2.4930   -0.4017    0.0000 C   0  0  0  0  0  0  0  0  0  0  0  0
    1.0651   -0.8613    0.0000 C   0  0  0  0  0  0  0  0  0  0  0  0
    0.7492   -2.3276    0.0000 C   0  0  0  0  0  0  0  0  0  0  0  0
   -0.6786   -2.7872    0.0000 O   0  0  0  0  0  0  0  0  0  0  0  0
    1.8612   -3.3344    0.0000 O   0  0  0  0  0  0  0  0  0  0  0  0
   -4.0145    0.2330    0.0000 C   0  0  0  0  0  0  0  0  0  0  0  0
   -4.3304   -1.2333    0.0000 O   0  0  0  0  0  0  0  0  0  0  0  0
   -5.1264    1.2398    0.0000 O   0  0  0  0  0  0  0  0  0  0  0  0
  2  1  1  1
  2  3  1  0
  3  4  1  0
  4  5  1  0
  5  6  2  0
  6  7  1  0
  7  8  1  0
  8  9  1  0
  7 10  2  0
 10 11  1  0
 11 12  1  0
 12 13  2  0
 12 14  1  0
  2 15  1  0
 15 16  2  0
 15 17  1  0
 11  4  2  0
M  END
>  <rName>  (2766) 
Phe_2CO2H_4OMe

>  <PQ_SYMBOL>  (2766) 
Phe_2CO2H_4OMe

>  <FULL_NAME>  (2766) 
(S)-2-(2-amino-2-carboxyethyl)-5-methoxybenzoic acid

>  <IUPAC_CONDENSED>  (2766) 
Phe(2-CO2H,4-OMe)

>  <IUPAC>  (2766) 
2-((2S)-2-amino-3-hydroxy-3-oxopropyl)-5-methoxybenzene-1-carboxylic acid

>  <TYPE>  (2766) 
Backbone

>  <CLASS>  (2766) 
alpha

>  <ANALOG>  (2766) 
Tyr

>  <MOL_WT>  (2766) 
239.22699999999998

>  <LOGP>  (2766) 
0.3478

>  <TPSA>  (2766) 
109.85000000000001

>  <POPULARITY>  (2766) 
2.8

>  <PROTECTED>  (2766) 
TRUE

>  <SMILES>  (2766) 
N[C@@H](Cc1(ccc(OC)cc1C(=O)O))C(=O)O

>  <INCHIKEY>  (2766) 
ZOQWJVCCCDKBAF-VIFPVBQESA-N

$$$$
Phe_2CO2H_5CF3
     RDKit          2D

 19 19  0  0  0  0  0  0  0  0999 V2000
    1.1419   -2.3773    0.0000 N   0  0  0  0  0  0  0  0  0  0  0  0
    2.1705   -1.2855    0.0000 C   0  0  0  0  0  0  0  0  0  0  0  0
    1.7392    0.1512    0.0000 C   0  0  0  0  0  0  0  0  0  0  0  0
    0.2794    0.4960    0.0000 C   0  0  0  0  0  0  0  0  0  0  0  0
   -0.7491   -0.5958    0.0000 C   0  0  0  0  0  0  0  0  0  0  0  0
   -2.2090   -0.2510    0.0000 C   0  0  0  0  0  0  0  0  0  0  0  0
   -2.6402    1.1857    0.0000 C   0  0  0  0  0  0  0  0  0  0  0  0
   -1.6117    2.2775    0.0000 C   0  0  0  0  0  0  0  0  0  0  0  0
   -0.1519    1.9327    0.0000 C   0  0  0  0  0  0  0  0  0  0  0  0
    0.8767    3.0245    0.0000 C   0  0  0  0  0  0  0  0  0  0  0  0
    2.3365    2.6797    0.0000 O   0  0  0  0  0  0  0  0  0  0  0  0
    0.4454    4.4612    0.0000 O   0  0  0  0  0  0  0  0  0  0  0  0
   -3.2375   -1.3428    0.0000 C   0  0  0  0  0  0  0  0  0  0  0  0
   -4.2661   -2.4346    0.0000 F   0  0  0  0  0  0  0  0  0  0  0  0
   -4.3293   -0.3142    0.0000 F   0  0  0  0  0  0  0  0  0  0  0  0
   -2.1457   -2.3713    0.0000 F   0  0  0  0  0  0  0  0  0  0  0  0
    3.6303   -1.6303    0.0000 C   0  0  0  0  0  0  0  0  0  0  0  0
    4.6589   -0.5385    0.0000 O   0  0  0  0  0  0  0  0  0  0  0  0
    4.0616   -3.0670    0.0000 O   0  0  0  0  0  0  0  0  0  0  0  0
  2  1  1  1
  2  3  1  0
  3  4  1  0
  4  5  1  0
  5  6  2  0
  6  7  1  0
  7  8  2  0
  8  9  1  0
  9 10  1  0
 10 11  2  0
 10 12  1  0
  6 13  1  0
 13 14  1  0
 13 15  1  0
 13 16  1  0
  2 17  1  0
 17 18  2  0
 17 19  1  0
  9  4  2  0
M  END
>  <rName>  (2767) 
Phe_2CO2H_5CF3

>  <PQ_SYMBOL>  (2767) 
Phe_2CO2H_5CF3

>  <FULL_NAME>  (2767) 
(S)-2-(2-amino-2-carboxyethyl)-4-(trifluoromethyl)benzoic acid

>  <IUPAC_CONDENSED>  (2767) 
Phe(2-CO2H,5-CF3)

>  <IUPAC>  (2767) 
2-((2S)-2-amino-3-hydroxy-3-oxopropyl)-4-(trifluoromethyl)benzoic acid

>  <TYPE>  (2767) 
Backbone

>  <CLASS>  (2767) 
alpha

>  <ANALOG>  (2767) 
Phe

>  <MOL_WT>  (2767) 
277.1979999999999

>  <LOGP>  (2767) 
1.3580000000000003

>  <TPSA>  (2767) 
100.62000000000002

>  <POPULARITY>  (2767) 
2.3

>  <PROTECTED>  (2767) 
TRUE

>  <SMILES>  (2767) 
N[C@@H](Cc1(cc(ccc1C(=O)O)C(F)(F)F))C(=O)O

>  <INCHIKEY>  (2767) 
LOZQAOSNLBGZHC-QMMMGPOBSA-N

$$$$
Phe_2CO2H_5F
     RDKit          2D

 16 16  0  0  0  0  0  0  0  0999 V2000
   -1.8615    2.0079    0.0000 N   0  0  0  0  0  0  0  0  0  0  0  0
   -2.1311    0.5324    0.0000 C   0  0  0  0  0  0  0  0  0  0  0  0
   -0.9881   -0.4389    0.0000 C   0  0  0  0  0  0  0  0  0  0  0  0
    0.4246    0.0654    0.0000 C   0  0  0  0  0  0  0  0  0  0  0  0
    0.6942    1.5409    0.0000 C   0  0  0  0  0  0  0  0  0  0  0  0
    2.1069    2.0452    0.0000 C   0  0  0  0  0  0  0  0  0  0  0  0
    2.3765    3.5208    0.0000 F   0  0  0  0  0  0  0  0  0  0  0  0
    3.2500    1.0739    0.0000 C   0  0  0  0  0  0  0  0  0  0  0  0
    2.9804   -0.4016    0.0000 C   0  0  0  0  0  0  0  0  0  0  0  0
    1.5677   -0.9059    0.0000 C   0  0  0  0  0  0  0  0  0  0  0  0
    1.2981   -2.3815    0.0000 C   0  0  0  0  0  0  0  0  0  0  0  0
   -0.1146   -2.8858    0.0000 O   0  0  0  0  0  0  0  0  0  0  0  0
    2.4411   -3.3528    0.0000 O   0  0  0  0  0  0  0  0  0  0  0  0
   -3.5438    0.0281    0.0000 C   0  0  0  0  0  0  0  0  0  0  0  0
   -3.8135   -1.4475    0.0000 O   0  0  0  0  0  0  0  0  0  0  0  0
   -4.6869    0.9993    0.0000 O   0  0  0  0  0  0  0  0  0  0  0  0
  2  1  1  1
  2  3  1  0
  3  4  1  0
  4  5  1  0
  5  6  2  0
  6  7  1  0
  6  8  1  0
  8  9  2  0
  9 10  1  0
 10 11  1  0
 11 12  2  0
 11 13  1  0
  2 14  1  0
 14 15  2  0
 14 16  1  0
 10  4  2  0
M  END
>  <rName>  (2768) 
Phe_2CO2H_5F

>  <PQ_SYMBOL>  (2768) 
Phe_2CO2H_5F

>  <FULL_NAME>  (2768) 
(S)-2-(2-amino-2-carboxyethyl)-4-fluorobenzoic acid

>  <IUPAC_CONDENSED>  (2768) 
Phe(2-CO2H,5-F)

>  <IUPAC>  (2768) 
2-((2S)-2-amino-3-hydroxy-3-oxopropyl)-4-fluorobenzene-1-carboxylic acid

>  <TYPE>  (2768) 
Backbone

>  <CLASS>  (2768) 
alpha

>  <ANALOG>  (2768) 
Phe

>  <MOL_WT>  (2768) 
227.19099999999997

>  <LOGP>  (2768) 
0.47829999999999984

>  <TPSA>  (2768) 
100.62000000000002

>  <POPULARITY>  (2768) 
2.6

>  <PROTECTED>  (2768) 
TRUE

>  <SMILES>  (2768) 
N[C@@H](Cc1(cc(F)ccc1C(=O)O))C(=O)O

>  <INCHIKEY>  (2768) 
XHSZIVULIWXVQU-QMMMGPOBSA-N

$$$$
Phe_2CO2H_5Me
     RDKit          2D

 16 16  0  0  0  0  0  0  0  0999 V2000
   -1.8615    2.0079    0.0000 N   0  0  0  0  0  0  0  0  0  0  0  0
   -2.1311    0.5324    0.0000 C   0  0  0  0  0  0  0  0  0  0  0  0
   -0.9881   -0.4389    0.0000 C   0  0  0  0  0  0  0  0  0  0  0  0
    0.4246    0.0654    0.0000 C   0  0  0  0  0  0  0  0  0  0  0  0
    0.6942    1.5409    0.0000 C   0  0  0  0  0  0  0  0  0  0  0  0
    2.1069    2.0452    0.0000 C   0  0  0  0  0  0  0  0  0  0  0  0
    2.3765    3.5208    0.0000 C   0  0  0  0  0  0  0  0  0  0  0  0
    3.2500    1.0739    0.0000 C   0  0  0  0  0  0  0  0  0  0  0  0
    2.9804   -0.4016    0.0000 C   0  0  0  0  0  0  0  0  0  0  0  0
    1.5677   -0.9059    0.0000 C   0  0  0  0  0  0  0  0  0  0  0  0
    1.2981   -2.3815    0.0000 C   0  0  0  0  0  0  0  0  0  0  0  0
   -0.1146   -2.8858    0.0000 O   0  0  0  0  0  0  0  0  0  0  0  0
    2.4411   -3.3528    0.0000 O   0  0  0  0  0  0  0  0  0  0  0  0
   -3.5438    0.0281    0.0000 C   0  0  0  0  0  0  0  0  0  0  0  0
   -3.8135   -1.4475    0.0000 O   0  0  0  0  0  0  0  0  0  0  0  0
   -4.6869    0.9993    0.0000 O   0  0  0  0  0  0  0  0  0  0  0  0
  2  1  1  1
  2  3  1  0
  3  4  1  0
  4  5  1  0
  5  6  2  0
  6  7  1  0
  6  8  1  0
  8  9  2  0
  9 10  1  0
 10 11  1  0
 11 12  2  0
 11 13  1  0
  2 14  1  0
 14 15  2  0
 14 16  1  0
 10  4  2  0
M  END
>  <rName>  (2769) 
Phe_2CO2H_5Me

>  <PQ_SYMBOL>  (2769) 
Phe_2CO2H_5Me

>  <FULL_NAME>  (2769) 
(S)-2-(2-amino-2-carboxyethyl)-4-methylbenzoic acid

>  <IUPAC_CONDENSED>  (2769) 
Phe(2-CO2H,5-Me)

>  <IUPAC>  (2769) 
2-((2S)-2-amino-3-hydroxy-3-oxopropyl)-4-methylbenzene-1-carboxylic acid

>  <TYPE>  (2769) 
Backbone

>  <CLASS>  (2769) 
alpha

>  <ANALOG>  (2769) 
Phe

>  <MOL_WT>  (2769) 
223.22799999999995

>  <LOGP>  (2769) 
0.64762

>  <TPSA>  (2769) 
100.62000000000002

>  <POPULARITY>  (2769) 
2.6

>  <PROTECTED>  (2769) 
TRUE

>  <SMILES>  (2769) 
N[C@@H](Cc1(cc(C)ccc1C(=O)O))C(=O)O

>  <INCHIKEY>  (2769) 
JMAXARUYMCXVCF-VIFPVBQESA-N

$$$$
Phe_2CO2H_5NO2
     RDKit          2D

 18 18  0  0  0  0  0  0  0  0999 V2000
    1.2062   -2.3415    0.0000 N   0  0  0  0  0  0  0  0  0  0  0  0
    2.1185   -1.1508    0.0000 C   0  0  0  0  0  0  0  0  0  0  0  0
    1.5435    0.2346    0.0000 C   0  0  0  0  0  0  0  0  0  0  0  0
    0.0562    0.4293    0.0000 C   0  0  0  0  0  0  0  0  0  0  0  0
   -0.8561   -0.7613    0.0000 C   0  0  0  0  0  0  0  0  0  0  0  0
   -2.3434   -0.5666    0.0000 C   0  0  0  0  0  0  0  0  0  0  0  0
   -2.9184    0.8189    0.0000 C   0  0  0  0  0  0  0  0  0  0  0  0
   -2.0061    2.0095    0.0000 C   0  0  0  0  0  0  0  0  0  0  0  0
   -0.5188    1.8148    0.0000 C   0  0  0  0  0  0  0  0  0  0  0  0
    0.3936    3.0054    0.0000 C   0  0  0  0  0  0  0  0  0  0  0  0
    1.8809    2.8107    0.0000 O   0  0  0  0  0  0  0  0  0  0  0  0
   -0.1814    4.3909    0.0000 O   0  0  0  0  0  0  0  0  0  0  0  0
   -3.2557   -1.7572    0.0000 N   0  0  0  0  0  0  0  0  0  0  0  0
   -2.6807   -3.1426    0.0000 O   0  0  0  0  0  0  0  0  0  0  0  0
   -4.7430   -1.5624    0.0000 O   0  0  0  0  0  0  0  0  0  0  0  0
    3.6058   -1.3456    0.0000 C   0  0  0  0  0  0  0  0  0  0  0  0
    4.5181   -0.1549    0.0000 O   0  0  0  0  0  0  0  0  0  0  0  0
    4.1808   -2.7310    0.0000 O   0  0  0  0  0  0  0  0  0  0  0  0
  2  1  1  1
  2  3  1  0
  3  4  1  0
  4  5  1  0
  5  6  2  0
  6  7  1  0
  7  8  2  0
  8  9  1  0
  9 10  1  0
 10 11  2  0
 10 12  1  0
  6 13  1  0
 13 14  2  0
 13 15  1  0
  2 16  1  0
 16 17  2  0
 16 18  1  0
  9  4  2  0
M  CHG  2  13   1  15  -1
M  END
>  <rName>  (2770) 
Phe_2CO2H_5NO2

>  <PQ_SYMBOL>  (2770) 
Phe_2CO2H_5NO2

>  <FULL_NAME>  (2770) 
(S)-2-(2-amino-2-carboxyethyl)-4-nitrobenzoic acid

>  <IUPAC_CONDENSED>  (2770) 
Phe(2-CO2H,5-NO2)

>  <IUPAC>  (2770) 
2-((2S)-2-amino-3-hydroxy-3-oxopropyl)-4-nitrobenzene-1-carboxylic acid

>  <TYPE>  (2770) 
Backbone

>  <CLASS>  (2770) 
alpha

>  <ANALOG>  (2770) 
Phe

>  <MOL_WT>  (2770) 
254.19799999999995

>  <LOGP>  (2770) 
0.24739999999999973

>  <TPSA>  (2770) 
143.76

>  <POPULARITY>  (2770) 
2.3

>  <PROTECTED>  (2770) 
TRUE

>  <SMILES>  (2770) 
N[C@@H](Cc1(cc(ccc1C(=O)O)[N+](=O)[O-]))C(=O)O

>  <INCHIKEY>  (2770) 
FPRNBVJGEOEJLY-QMMMGPOBSA-N

$$$$
Phe_2CO2H_5OMe
     RDKit          2D

 17 17  0  0  0  0  0  0  0  0999 V2000
   -1.4771    2.3022    0.0000 N   0  0  0  0  0  0  0  0  0  0  0  0
   -2.1654    0.9694    0.0000 C   0  0  0  0  0  0  0  0  0  0  0  0
   -1.3554   -0.2930    0.0000 C   0  0  0  0  0  0  0  0  0  0  0  0
    0.1429   -0.2228    0.0000 C   0  0  0  0  0  0  0  0  0  0  0  0
    0.8313    1.1100    0.0000 C   0  0  0  0  0  0  0  0  0  0  0  0
    2.3296    1.1802    0.0000 C   0  0  0  0  0  0  0  0  0  0  0  0
    3.0180    2.5130    0.0000 O   0  0  0  0  0  0  0  0  0  0  0  0
    4.5163    2.5832    0.0000 C   0  0  0  0  0  0  0  0  0  0  0  0
    3.1397   -0.0823    0.0000 C   0  0  0  0  0  0  0  0  0  0  0  0
    2.4513   -1.4150    0.0000 C   0  0  0  0  0  0  0  0  0  0  0  0
    0.9530   -1.4853    0.0000 C   0  0  0  0  0  0  0  0  0  0  0  0
    0.2646   -2.8180    0.0000 C   0  0  0  0  0  0  0  0  0  0  0  0
   -1.2337   -2.8883    0.0000 O   0  0  0  0  0  0  0  0  0  0  0  0
    1.0747   -4.0805    0.0000 O   0  0  0  0  0  0  0  0  0  0  0  0
   -3.6638    0.8992    0.0000 C   0  0  0  0  0  0  0  0  0  0  0  0
   -4.3521   -0.4336    0.0000 O   0  0  0  0  0  0  0  0  0  0  0  0
   -4.4738    2.1617    0.0000 O   0  0  0  0  0  0  0  0  0  0  0  0
  2  1  1  1
  2  3  1  0
  3  4  1  0
  4  5  1  0
  5  6  2  0
  6  7  1  0
  7  8  1  0
  6  9  1  0
  9 10  2  0
 10 11  1  0
 11 12  1  0
 12 13  2  0
 12 14  1  0
  2 15  1  0
 15 16  2  0
 15 17  1  0
 11  4  2  0
M  END
>  <rName>  (2771) 
Phe_2CO2H_5OMe

>  <PQ_SYMBOL>  (2771) 
Phe_2CO2H_5OMe

>  <FULL_NAME>  (2771) 
(S)-2-(2-amino-2-carboxyethyl)-4-methoxybenzoic acid

>  <IUPAC_CONDENSED>  (2771) 
Phe(2-CO2H,5-OMe)

>  <IUPAC>  (2771) 
2-((2S)-2-amino-3-hydroxy-3-oxopropyl)-4-methoxybenzene-1-carboxylic acid

>  <TYPE>  (2771) 
Backbone

>  <CLASS>  (2771) 
alpha

>  <ANALOG>  (2771) 
Tyr

>  <MOL_WT>  (2771) 
239.22699999999998

>  <LOGP>  (2771) 
0.3478

>  <TPSA>  (2771) 
109.85000000000001

>  <POPULARITY>  (2771) 
2.7

>  <PROTECTED>  (2771) 
TRUE

>  <SMILES>  (2771) 
N[C@@H](Cc1(cc(OC)ccc1C(=O)O))C(=O)O

>  <INCHIKEY>  (2771) 
PNUNUFVULBFLNV-VIFPVBQESA-N

$$$$
Phe_2CO2H_6CF3
     RDKit          2D

 19 19  0  0  0  0  0  0  0  0999 V2000
    2.0909    0.3307    0.0000 N   0  0  0  0  0  0  0  0  0  0  0  0
    1.7602   -0.5962    0.0000 C   0  0  0  0  0  0  0  0  0  0  0  0
    0.3286   -1.0440    0.0000 C   0  0  0  0  0  0  0  0  0  0  0  0
   -0.7750   -0.0280    0.0000 C   0  0  0  0  0  0  0  0  0  0  0  0
   -2.2066   -0.4758    0.0000 C   0  0  0  0  0  0  0  0  0  0  0  0
   -3.3102    0.5401    0.0000 C   0  0  0  0  0  0  0  0  0  0  0  0
   -2.9822    2.0038    0.0000 C   0  0  0  0  0  0  0  0  0  0  0  0
   -1.5505    2.4516    0.0000 C   0  0  0  0  0  0  0  0  0  0  0  0
   -0.4470    1.4357    0.0000 C   0  0  0  0  0  0  0  0  0  0  0  0
    0.9846    1.8834    0.0000 C   0  0  0  0  0  0  0  0  0  0  0  0
    2.4163    2.3312    0.0000 F   0  0  0  0  0  0  0  0  0  0  0  0
    1.3907    0.9870    0.0000 F   0  0  0  0  0  0  0  0  0  0  0  0
    0.5369    3.3150    0.0000 F   0  0  0  0  0  0  0  0  0  0  0  0
   -2.5346   -1.9395    0.0000 C   0  0  0  0  0  0  0  0  0  0  0  0
   -1.4310   -2.9554    0.0000 O   0  0  0  0  0  0  0  0  0  0  0  0
   -3.9662   -2.3873    0.0000 O   0  0  0  0  0  0  0  0  0  0  0  0
    2.8638   -1.6121    0.0000 C   0  0  0  0  0  0  0  0  0  0  0  0
    2.5358   -3.0758    0.0000 O   0  0  0  0  0  0  0  0  0  0  0  0
    4.2954   -1.1643    0.0000 O   0  0  0  0  0  0  0  0  0  0  0  0
  2  1  1  6
  2  3  1  0
  3  4  1  0
  4  5  2  0
  5  6  1  0
  6  7  2  0
  7  8  1  0
  8  9  2  0
  9 10  1  0
 10 11  1  0
 10 12  1  0
 10 13  1  0
  5 14  1  0
 14 15  2  0
 14 16  1  0
  2 17  1  0
 17 18  2  0
 17 19  1  0
  9  4  1  0
M  END
>  <rName>  (2772) 
Phe_2CO2H_6CF3

>  <PQ_SYMBOL>  (2772) 
Phe_2CO2H_6CF3

>  <FULL_NAME>  (2772) 
(S)-2-(2-amino-2-carboxyethyl)-3-(trifluoromethyl)benzoic acid

>  <IUPAC_CONDENSED>  (2772) 
Phe(2-CO2H,6-CF3)

>  <IUPAC>  (2772) 
2-((2S)-2-amino-3-hydroxy-3-oxopropyl)-3-(trifluoromethyl)benzoic acid

>  <TYPE>  (2772) 
Backbone

>  <CLASS>  (2772) 
alpha

>  <ANALOG>  (2772) 
Phe

>  <MOL_WT>  (2772) 
277.1979999999999

>  <LOGP>  (2772) 
1.3580000000000003

>  <TPSA>  (2772) 
100.62000000000002

>  <POPULARITY>  (2772) 
2.3

>  <PROTECTED>  (2772) 
TRUE

>  <SMILES>  (2772) 
N[C@@H](Cc1(c(cccc1C(F)(F)F)C(=O)O))C(=O)O

>  <INCHIKEY>  (2772) 
HZAMCFOTTVEYJM-QMMMGPOBSA-N

$$$$
Phe_2CO2H_6NO2
     RDKit          2D

 18 18  0  0  0  0  0  0  0  0999 V2000
    2.1301    0.5685    0.0000 N   0  0  0  0  0  0  0  0  0  0  0  0
    1.8552   -0.3765    0.0000 C   0  0  0  0  0  0  0  0  0  0  0  0
    0.4528   -0.9088    0.0000 C   0  0  0  0  0  0  0  0  0  0  0  0
   -0.7093    0.0395    0.0000 C   0  0  0  0  0  0  0  0  0  0  0  0
   -2.1117   -0.4928    0.0000 C   0  0  0  0  0  0  0  0  0  0  0  0
   -3.2739    0.4556    0.0000 C   0  0  0  0  0  0  0  0  0  0  0  0
   -3.0337    1.9362    0.0000 C   0  0  0  0  0  0  0  0  0  0  0  0
   -1.6313    2.4685    0.0000 C   0  0  0  0  0  0  0  0  0  0  0  0
   -0.4691    1.5202    0.0000 C   0  0  0  0  0  0  0  0  0  0  0  0
    0.9332    2.0525    0.0000 N   0  0  0  0  0  0  0  0  0  0  0  0
    1.7659    1.5278    0.0000 O   0  0  0  0  0  0  0  0  0  0  0  0
    1.1735    3.5331    0.0000 O   0  0  0  0  0  0  0  0  0  0  0  0
   -2.3519   -1.9734    0.0000 C   0  0  0  0  0  0  0  0  0  0  0  0
   -3.7543   -2.5057    0.0000 O   0  0  0  0  0  0  0  0  0  0  0  0
   -1.1897   -2.9218    0.0000 O   0  0  0  0  0  0  0  0  0  0  0  0
    3.0174   -1.3249    0.0000 C   0  0  0  0  0  0  0  0  0  0  0  0
    2.7772   -2.8055    0.0000 O   0  0  0  0  0  0  0  0  0  0  0  0
    4.4198   -0.7926    0.0000 O   0  0  0  0  0  0  0  0  0  0  0  0
  2  1  1  6
  2  3  1  0
  3  4  1  0
  4  5  2  0
  5  6  1  0
  6  7  2  0
  7  8  1  0
  8  9  2  0
  9 10  1  0
 10 11  2  0
 10 12  1  0
  5 13  1  0
 13 14  2  0
 13 15  1  0
  2 16  1  0
 16 17  2  0
 16 18  1  0
  9  4  1  0
M  CHG  2  10   1  12  -1
M  END
>  <rName>  (2773) 
Phe_2CO2H_6NO2

>  <PQ_SYMBOL>  (2773) 
Phe_2CO2H_6NO2

>  <FULL_NAME>  (2773) 
(S)-2-(2-amino-2-carboxyethyl)-3-nitrobenzoic acid

>  <IUPAC_CONDENSED>  (2773) 
Phe(2-CO2H,6-NO2)

>  <IUPAC>  (2773) 
2-((2S)-2-amino-3-hydroxy-3-oxopropyl)-3-nitrobenzene-1-carboxylic acid

>  <TYPE>  (2773) 
Backbone

>  <CLASS>  (2773) 
alpha

>  <ANALOG>  (2773) 
Phe

>  <MOL_WT>  (2773) 
254.19799999999995

>  <LOGP>  (2773) 
0.24740000000000018

>  <TPSA>  (2773) 
143.76

>  <POPULARITY>  (2773) 
2.3

>  <PROTECTED>  (2773) 
TRUE

>  <SMILES>  (2773) 
N[C@@H](Cc1(c(cccc1[N+](=O)[O-])C(=O)O))C(=O)O

>  <INCHIKEY>  (2773) 
WSHAPULJIQNASB-ZETCQYMHSA-N

$$$$
Phe_2CONH2
     RDKit          2D

 15 15  0  0  0  0  0  0  0  0999 V2000
   -2.0511    1.9295    0.0000 N   0  0  0  0  0  0  0  0  0  0  0  0
   -2.0725    0.4296    0.0000 C   0  0  0  0  0  0  0  0  0  0  0  0
   -0.7843   -0.3388    0.0000 C   0  0  0  0  0  0  0  0  0  0  0  0
    0.5253    0.3925    0.0000 C   0  0  0  0  0  0  0  0  0  0  0  0
    0.5467    1.8924    0.0000 C   0  0  0  0  0  0  0  0  0  0  0  0
    1.8563    2.6238    0.0000 C   0  0  0  0  0  0  0  0  0  0  0  0
    3.1445    1.8553    0.0000 C   0  0  0  0  0  0  0  0  0  0  0  0
    3.1231    0.3555    0.0000 C   0  0  0  0  0  0  0  0  0  0  0  0
    1.8135   -0.3759    0.0000 C   0  0  0  0  0  0  0  0  0  0  0  0
    1.7921   -1.8758    0.0000 C   0  0  0  0  0  0  0  0  0  0  0  0
    0.4825   -2.6072    0.0000 O   0  0  0  0  0  0  0  0  0  0  0  0
    3.0803   -2.6442    0.0000 N   0  0  0  0  0  0  0  0  0  0  0  0
   -3.3821   -0.3018    0.0000 C   0  0  0  0  0  0  0  0  0  0  0  0
   -3.4036   -1.8016    0.0000 O   0  0  0  0  0  0  0  0  0  0  0  0
   -4.6704    0.4667    0.0000 O   0  0  0  0  0  0  0  0  0  0  0  0
  2  1  1  1
  2  3  1  0
  3  4  1  0
  4  5  2  0
  5  6  1  0
  6  7  2  0
  7  8  1  0
  8  9  2  0
  9 10  1  0
 10 11  2  0
 10 12  1  0
  2 13  1  0
 13 14  2  0
 13 15  1  0
  9  4  1  0
M  END
>  <rName>  (2774) 
Phe_2CONH2

>  <PQ_SYMBOL>  (2774) 
Phe_2CONH2

>  <FULL_NAME>  (2774) 
2-Carbamoyl-L-Phenylalanine

>  <IUPAC_CONDENSED>  (2774) 
Phe(2-CONH2)

>  <IUPAC>  (2774) 
(2S)-2-amino-3-(2-carbamoylphenyl)propanoic acid

>  <TYPE>  (2774) 
Backbone

>  <CLASS>  (2774) 
alpha

>  <ANALOG>  (2774) 
Phe

>  <MOL_WT>  (2774) 
208.21699999999996

>  <LOGP>  (2774) 
-0.2601000000000003

>  <TPSA>  (2774) 
106.41000000000001

>  <POPULARITY>  (2774) 
5.0

>  <PROTECTED>  (2774) 
TRUE

>  <SMILES>  (2774) 
N[C@@H](Cc1(ccccc1C(=O)N))C(=O)O

>  <INCHIKEY>  (2774) 
QDQWGGPXZQIUPR-QMMMGPOBSA-N

$$$$
Phe_2Cl
     RDKit          2D

 13 13  0  0  0  0  0  0  0  0999 V2000
   -1.4864    1.8099    0.0000 N   0  0  0  0  0  0  0  0  0  0  0  0
   -1.7669    0.3364    0.0000 C   0  0  0  0  0  0  0  0  0  0  0  0
   -0.6311   -0.6433    0.0000 C   0  0  0  0  0  0  0  0  0  0  0  0
    0.7853   -0.1495    0.0000 C   0  0  0  0  0  0  0  0  0  0  0  0
    1.0658    1.3241    0.0000 C   0  0  0  0  0  0  0  0  0  0  0  0
    2.4822    1.8179    0.0000 C   0  0  0  0  0  0  0  0  0  0  0  0
    3.6181    0.8382    0.0000 C   0  0  0  0  0  0  0  0  0  0  0  0
    3.3376   -0.6353    0.0000 C   0  0  0  0  0  0  0  0  0  0  0  0
    1.9212   -1.1292    0.0000 C   0  0  0  0  0  0  0  0  0  0  0  0
    1.6407   -2.6027    0.0000 Cl  0  0  0  0  0  0  0  0  0  0  0  0
   -3.1833   -0.1575    0.0000 C   0  0  0  0  0  0  0  0  0  0  0  0
   -3.4638   -1.6310    0.0000 O   0  0  0  0  0  0  0  0  0  0  0  0
   -4.3192    0.8222    0.0000 O   0  0  0  0  0  0  0  0  0  0  0  0
  2  1  1  1
  2  3  1  0
  3  4  1  0
  4  5  2  0
  5  6  1  0
  6  7  2  0
  7  8  1  0
  8  9  2  0
  9 10  1  0
  2 11  1  0
 11 12  2  0
 11 13  1  0
  9  4  1  0
M  END
>  <rName>  (2775) 
Phe_2Cl

>  <PQ_SYMBOL>  (2775) 
Phe_2Cl

>  <FULL_NAME>  (2775) 
2-Chloro-L-Phenylalanine

>  <IUPAC_CONDENSED>  (2775) 
Phe(2-Cl)

>  <IUPAC>  (2775) 
(2S)-2-amino-3-(2-chlorophenyl)propanoic acid

>  <TYPE>  (2775) 
Backbone

>  <CLASS>  (2775) 
alpha

>  <ANALOG>  (2775) 
Phe

>  <MOL_WT>  (2775) 
199.63699999999994

>  <LOGP>  (2775) 
1.2944000000000002

>  <TPSA>  (2775) 
63.32000000000001

>  <POPULARITY>  (2775) 
25.7

>  <PROTECTED>  (2775) 
TRUE

>  <SMILES>  (2775) 
N[C@@H](Cc1(ccccc1Cl))C(=O)O

>  <INCHIKEY>  (2775) 
CVZZNRXMDCOHBG-QMMMGPOBSA-N

$$$$
Phe_2Cl_3Br
     RDKit          2D

 14 14  0  0  0  0  0  0  0  0999 V2000
   -1.9599    1.7683    0.0000 N   0  0  0  0  0  0  0  0  0  0  0  0
   -2.1168    0.2766    0.0000 C   0  0  0  0  0  0  0  0  0  0  0  0
   -0.9034   -0.6052    0.0000 C   0  0  0  0  0  0  0  0  0  0  0  0
    0.4670    0.0047    0.0000 C   0  0  0  0  0  0  0  0  0  0  0  0
    0.6239    1.4965    0.0000 C   0  0  0  0  0  0  0  0  0  0  0  0
    1.9943    2.1065    0.0000 C   0  0  0  0  0  0  0  0  0  0  0  0
    3.2078    1.2247    0.0000 C   0  0  0  0  0  0  0  0  0  0  0  0
    3.0508   -0.2671    0.0000 C   0  0  0  0  0  0  0  0  0  0  0  0
    4.2643   -1.1489    0.0000 Br  0  0  0  0  0  0  0  0  0  0  0  0
    1.6804   -0.8771    0.0000 C   0  0  0  0  0  0  0  0  0  0  0  0
    1.5235   -2.3688    0.0000 Cl  0  0  0  0  0  0  0  0  0  0  0  0
   -3.4872   -0.3334    0.0000 C   0  0  0  0  0  0  0  0  0  0  0  0
   -3.6441   -1.8252    0.0000 O   0  0  0  0  0  0  0  0  0  0  0  0
   -4.7006    0.5484    0.0000 O   0  0  0  0  0  0  0  0  0  0  0  0
  2  1  1  1
  2  3  1  0
  3  4  1  0
  4  5  2  0
  5  6  1  0
  6  7  2  0
  7  8  1  0
  8  9  1  0
  8 10  2  0
 10 11  1  0
  2 12  1  0
 12 13  2  0
 12 14  1  0
 10  4  1  0
M  END
>  <rName>  (2776) 
Phe_2Cl_3Br

>  <PQ_SYMBOL>  (2776) 
Phe_2Cl_3Br

>  <FULL_NAME>  (2776) 
3-Bromo-2-chloro-L-phenylalanine

>  <IUPAC_CONDENSED>  (2776) 
Phe(2-Cl,3-Br)

>  <IUPAC>  (2776) 
(2S)-2-amino-3-(3-bromo-2-chlorophenyl)propanoic acid

>  <TYPE>  (2776) 
Backbone

>  <CLASS>  (2776) 
alpha

>  <ANALOG>  (2776) 
Phe

>  <MOL_WT>  (2776) 
278.53299999999996

>  <LOGP>  (2776) 
2.0569

>  <TPSA>  (2776) 
63.32000000000001

>  <POPULARITY>  (2776) 
2.2

>  <PROTECTED>  (2776) 
TRUE

>  <SMILES>  (2776) 
N[C@@H](Cc1(cccc(Br)c1Cl))C(=O)O

>  <INCHIKEY>  (2776) 
DVLUSRDTRABGCH-ZETCQYMHSA-N

$$$$
Phe_2Cl_3CO2H
     RDKit          2D

 16 16  0  0  0  0  0  0  0  0999 V2000
   -2.7535    1.6987    0.0000 N   0  0  0  0  0  0  0  0  0  0  0  0
   -2.7597    0.1988    0.0000 C   0  0  0  0  0  0  0  0  0  0  0  0
   -1.4637   -0.5565    0.0000 C   0  0  0  0  0  0  0  0  0  0  0  0
   -0.1616    0.1882    0.0000 C   0  0  0  0  0  0  0  0  0  0  0  0
   -0.1555    1.6881    0.0000 C   0  0  0  0  0  0  0  0  0  0  0  0
    1.1466    2.4328    0.0000 C   0  0  0  0  0  0  0  0  0  0  0  0
    2.4426    1.6775    0.0000 C   0  0  0  0  0  0  0  0  0  0  0  0
    2.4364    0.1776    0.0000 C   0  0  0  0  0  0  0  0  0  0  0  0
    3.7324   -0.5777    0.0000 C   0  0  0  0  0  0  0  0  0  0  0  0
    5.0345    0.1670    0.0000 O   0  0  0  0  0  0  0  0  0  0  0  0
    3.7263   -2.0777    0.0000 O   0  0  0  0  0  0  0  0  0  0  0  0
    1.1344   -0.5671    0.0000 C   0  0  0  0  0  0  0  0  0  0  0  0
    1.1282   -2.0671    0.0000 Cl  0  0  0  0  0  0  0  0  0  0  0  0
   -4.0618   -0.5459    0.0000 C   0  0  0  0  0  0  0  0  0  0  0  0
   -4.0679   -2.0459    0.0000 O   0  0  0  0  0  0  0  0  0  0  0  0
   -5.3577    0.2094    0.0000 O   0  0  0  0  0  0  0  0  0  0  0  0
  2  1  1  1
  2  3  1  0
  3  4  1  0
  4  5  1  0
  5  6  2  0
  6  7  1  0
  7  8  2  0
  8  9  1  0
  9 10  2  0
  9 11  1  0
  8 12  1  0
 12 13  1  0
  2 14  1  0
 14 15  2  0
 14 16  1  0
 12  4  2  0
M  END
>  <rName>  (2777) 
Phe_2Cl_3CO2H

>  <PQ_SYMBOL>  (2777) 
Phe_2Cl_3CO2H

>  <FULL_NAME>  (2777) 
(S)-3-(2-amino-2-carboxyethyl)-2-chlorobenzoic acid

>  <IUPAC_CONDENSED>  (2777) 
Phe(2-Cl,3-CO2H)

>  <IUPAC>  (2777) 
3-((2S)-2-amino-3-hydroxy-3-oxopropyl)-2-chlorobenzene-1-carboxylic acid

>  <TYPE>  (2777) 
Backbone

>  <CLASS>  (2777) 
alpha

>  <ANALOG>  (2777) 
Phe

>  <MOL_WT>  (2777) 
243.64599999999996

>  <LOGP>  (2777) 
0.9926000000000001

>  <TPSA>  (2777) 
100.62000000000002

>  <POPULARITY>  (2777) 
2.3

>  <PROTECTED>  (2777) 
TRUE

>  <SMILES>  (2777) 
N[C@@H](Cc1(cccc(C(=O)O)c1Cl))C(=O)O

>  <INCHIKEY>  (2777) 
FBIOTNFXAOJDES-ZETCQYMHSA-N

$$$$
Phe_2Cl_3Me
     RDKit          2D

 14 14  0  0  0  0  0  0  0  0999 V2000
   -1.9599    1.7683    0.0000 N   0  0  0  0  0  0  0  0  0  0  0  0
   -2.1168    0.2766    0.0000 C   0  0  0  0  0  0  0  0  0  0  0  0
   -0.9034   -0.6052    0.0000 C   0  0  0  0  0  0  0  0  0  0  0  0
    0.4670    0.0047    0.0000 C   0  0  0  0  0  0  0  0  0  0  0  0
    0.6239    1.4965    0.0000 C   0  0  0  0  0  0  0  0  0  0  0  0
    1.9943    2.1065    0.0000 C   0  0  0  0  0  0  0  0  0  0  0  0
    3.2078    1.2247    0.0000 C   0  0  0  0  0  0  0  0  0  0  0  0
    3.0508   -0.2671    0.0000 C   0  0  0  0  0  0  0  0  0  0  0  0
    4.2643   -1.1489    0.0000 C   0  0  0  0  0  0  0  0  0  0  0  0
    1.6804   -0.8771    0.0000 C   0  0  0  0  0  0  0  0  0  0  0  0
    1.5235   -2.3688    0.0000 Cl  0  0  0  0  0  0  0  0  0  0  0  0
   -3.4872   -0.3334    0.0000 C   0  0  0  0  0  0  0  0  0  0  0  0
   -3.6441   -1.8252    0.0000 O   0  0  0  0  0  0  0  0  0  0  0  0
   -4.7006    0.5484    0.0000 O   0  0  0  0  0  0  0  0  0  0  0  0
  2  1  1  1
  2  3  1  0
  3  4  1  0
  4  5  2  0
  5  6  1  0
  6  7  2  0
  7  8  1  0
  8  9  1  0
  8 10  2  0
 10 11  1  0
  2 12  1  0
 12 13  2  0
 12 14  1  0
 10  4  1  0
M  END
>  <rName>  (2778) 
Phe_2Cl_3Me

>  <PQ_SYMBOL>  (2778) 
Phe_2Cl_3Me

>  <FULL_NAME>  (2778) 
(S)-2-amino-3-(2-chloro-3-methylphenyl)propanoic acid

>  <IUPAC_CONDENSED>  (2778) 
Phe(2-Cl,3-Me)

>  <IUPAC>  (2778) 
(2S)-2-amino-3-(2-chloro-3-methylphenyl)propanoic acid

>  <TYPE>  (2778) 
Backbone

>  <CLASS>  (2778) 
alpha

>  <ANALOG>  (2778) 
Phe

>  <MOL_WT>  (2778) 
213.66399999999996

>  <LOGP>  (2778) 
1.6028200000000001

>  <TPSA>  (2778) 
63.32000000000001

>  <POPULARITY>  (2778) 
2.9

>  <PROTECTED>  (2778) 
TRUE

>  <SMILES>  (2778) 
N[C@@H](Cc1(cccc(C)c1Cl))C(=O)O

>  <INCHIKEY>  (2778) 
CXIIESGNKPKHIW-QMMMGPOBSA-N

$$$$
Phe_2Cl_4CN
     RDKit          2D

 15 15  0  0  0  0  0  0  0  0999 V2000
   -2.0190    1.8851    0.0000 N   0  0  0  0  0  0  0  0  0  0  0  0
   -2.4933    0.4621    0.0000 C   0  0  0  0  0  0  0  0  0  0  0  0
   -1.4981   -0.6602    0.0000 C   0  0  0  0  0  0  0  0  0  0  0  0
   -0.0285   -0.3594    0.0000 C   0  0  0  0  0  0  0  0  0  0  0  0
    0.4458    1.0636    0.0000 C   0  0  0  0  0  0  0  0  0  0  0  0
    1.9153    1.3644    0.0000 C   0  0  0  0  0  0  0  0  0  0  0  0
    2.9106    0.2421    0.0000 C   0  0  0  0  0  0  0  0  0  0  0  0
    4.3801    0.5428    0.0000 C   0  0  0  0  0  0  0  0  0  0  0  0
    5.8496    0.8436    0.0000 N   0  0  0  0  0  0  0  0  0  0  0  0
    2.4363   -1.1810    0.0000 C   0  0  0  0  0  0  0  0  0  0  0  0
    0.9667   -1.4817    0.0000 C   0  0  0  0  0  0  0  0  0  0  0  0
    0.4924   -2.9047    0.0000 Cl  0  0  0  0  0  0  0  0  0  0  0  0
   -3.9628    0.1614    0.0000 C   0  0  0  0  0  0  0  0  0  0  0  0
   -4.4371   -1.2617    0.0000 O   0  0  0  0  0  0  0  0  0  0  0  0
   -4.9581    1.2836    0.0000 O   0  0  0  0  0  0  0  0  0  0  0  0
  2  1  1  1
  2  3  1  0
  3  4  1  0
  4  5  1  0
  5  6  2  0
  6  7  1  0
  7  8  1  0
  8  9  3  0
  7 10  2  0
 10 11  1  0
 11 12  1  0
  2 13  1  0
 13 14  2  0
 13 15  1  0
 11  4  2  0
M  END
>  <rName>  (2779) 
Phe_2Cl_4CN

>  <PQ_SYMBOL>  (2779) 
Phe_2Cl_4CN

>  <FULL_NAME>  (2779) 
(S)-2-amino-3-(2-chloro-4-cyanophenyl)propanoic acid

>  <IUPAC_CONDENSED>  (2779) 
Phe(2-Cl,4-CN)

>  <IUPAC>  (2779) 
(2S)-2-amino-3-(2-chloro-4-(nitrilomethyl)phenyl)propanoic acid

>  <TYPE>  (2779) 
Backbone

>  <CLASS>  (2779) 
alpha

>  <ANALOG>  (2779) 
Phe

>  <MOL_WT>  (2779) 
224.647

>  <LOGP>  (2779) 
1.1660800000000002

>  <TPSA>  (2779) 
87.11

>  <POPULARITY>  (2779) 
2.6

>  <PROTECTED>  (2779) 
TRUE

>  <SMILES>  (2779) 
N[C@@H](Cc1(ccc(C#N)cc1Cl))C(=O)O

>  <INCHIKEY>  (2779) 
BSWJGMXSISAJKF-VIFPVBQESA-N

$$$$
Phe_2Cl_4CO2H
     RDKit          2D

 16 16  0  0  0  0  0  0  0  0999 V2000
   -2.2742    1.8739    0.0000 N   0  0  0  0  0  0  0  0  0  0  0  0
   -2.7626    0.4557    0.0000 C   0  0  0  0  0  0  0  0  0  0  0  0
   -1.7786   -0.6765    0.0000 C   0  0  0  0  0  0  0  0  0  0  0  0
   -0.3062   -0.3903    0.0000 C   0  0  0  0  0  0  0  0  0  0  0  0
    0.1823    1.0279    0.0000 C   0  0  0  0  0  0  0  0  0  0  0  0
    1.6547    1.3140    0.0000 C   0  0  0  0  0  0  0  0  0  0  0  0
    2.6387    0.1819    0.0000 C   0  0  0  0  0  0  0  0  0  0  0  0
    2.1503   -1.2363    0.0000 C   0  0  0  0  0  0  0  0  0  0  0  0
    0.6779   -1.5225    0.0000 C   0  0  0  0  0  0  0  0  0  0  0  0
    0.1894   -2.9407    0.0000 Cl  0  0  0  0  0  0  0  0  0  0  0  0
    4.1112    0.4680    0.0000 C   0  0  0  0  0  0  0  0  0  0  0  0
    4.5996    1.8863    0.0000 O   0  0  0  0  0  0  0  0  0  0  0  0
    5.0952   -0.6641    0.0000 O   0  0  0  0  0  0  0  0  0  0  0  0
   -4.2351    0.1695    0.0000 C   0  0  0  0  0  0  0  0  0  0  0  0
   -4.7235   -1.2487    0.0000 O   0  0  0  0  0  0  0  0  0  0  0  0
   -5.2191    1.3017    0.0000 O   0  0  0  0  0  0  0  0  0  0  0  0
  2  1  1  1
  2  3  1  0
  3  4  1  0
  4  5  1  0
  5  6  2  0
  6  7  1  0
  7  8  2  0
  8  9  1  0
  9 10  1  0
  7 11  1  0
 11 12  2  0
 11 13  1  0
  2 14  1  0
 14 15  2  0
 14 16  1  0
  9  4  2  0
M  END
>  <rName>  (2780) 
Phe_2Cl_4CO2H

>  <PQ_SYMBOL>  (2780) 
Phe_2Cl_4CO2H

>  <FULL_NAME>  (2780) 
(S)-4-(2-amino-2-carboxyethyl)-3-chlorobenzoic acid

>  <IUPAC_CONDENSED>  (2780) 
Phe(2-Cl,4-CO2H)

>  <IUPAC>  (2780) 
4-((2S)-2-amino-3-hydroxy-3-oxopropyl)-3-chlorobenzene-1-carboxylic acid

>  <TYPE>  (2780) 
Backbone

>  <CLASS>  (2780) 
alpha

>  <ANALOG>  (2780) 
Phe

>  <MOL_WT>  (2780) 
243.64599999999996

>  <LOGP>  (2780) 
0.9926000000000001

>  <TPSA>  (2780) 
100.62000000000002

>  <POPULARITY>  (2780) 
2.6

>  <PROTECTED>  (2780) 
TRUE

>  <SMILES>  (2780) 
N[C@@H](Cc1(ccc(cc1Cl)C(=O)O))C(=O)O

>  <INCHIKEY>  (2780) 
IAQGGQXCXPHEAS-QMMMGPOBSA-N

$$$$
Phe_2Cl_4F
     RDKit          2D

 14 14  0  0  0  0  0  0  0  0999 V2000
   -1.7174    1.8436    0.0000 N   0  0  0  0  0  0  0  0  0  0  0  0
   -2.1036    0.3942    0.0000 C   0  0  0  0  0  0  0  0  0  0  0  0
   -1.0414   -0.6650    0.0000 C   0  0  0  0  0  0  0  0  0  0  0  0
    0.4069   -0.2747    0.0000 C   0  0  0  0  0  0  0  0  0  0  0  0
    0.7931    1.1747    0.0000 C   0  0  0  0  0  0  0  0  0  0  0  0
    2.2415    1.5649    0.0000 C   0  0  0  0  0  0  0  0  0  0  0  0
    3.3036    0.5057    0.0000 C   0  0  0  0  0  0  0  0  0  0  0  0
    4.7520    0.8960    0.0000 F   0  0  0  0  0  0  0  0  0  0  0  0
    2.9174   -0.9437    0.0000 C   0  0  0  0  0  0  0  0  0  0  0  0
    1.4691   -1.3339    0.0000 C   0  0  0  0  0  0  0  0  0  0  0  0
    1.0829   -2.7834    0.0000 Cl  0  0  0  0  0  0  0  0  0  0  0  0
   -3.5519    0.0039    0.0000 C   0  0  0  0  0  0  0  0  0  0  0  0
   -3.9381   -1.4455    0.0000 O   0  0  0  0  0  0  0  0  0  0  0  0
   -4.6140    1.0631    0.0000 O   0  0  0  0  0  0  0  0  0  0  0  0
  2  1  1  1
  2  3  1  0
  3  4  1  0
  4  5  1  0
  5  6  2  0
  6  7  1  0
  7  8  1  0
  7  9  2  0
  9 10  1  0
 10 11  1  0
  2 12  1  0
 12 13  2  0
 12 14  1  0
 10  4  2  0
M  END
>  <rName>  (2781) 
Phe_2Cl_4F

>  <PQ_SYMBOL>  (2781) 
Phe_2Cl_4F

>  <FULL_NAME>  (2781) 
(S)-2-amino-3-(2-chloro-4-fluorophenyl)propanoic acid

>  <IUPAC_CONDENSED>  (2781) 
Phe(2-Cl,4-F)

>  <IUPAC>  (2781) 
(2S)-2-amino-3-(2-chloro-4-fluorophenyl)propanoic acid

>  <TYPE>  (2781) 
Backbone

>  <CLASS>  (2781) 
alpha

>  <ANALOG>  (2781) 
Phe

>  <MOL_WT>  (2781) 
217.62699999999998

>  <LOGP>  (2781) 
1.4335000000000002

>  <TPSA>  (2781) 
63.32000000000001

>  <POPULARITY>  (2781) 
5.9

>  <PROTECTED>  (2781) 
TRUE

>  <SMILES>  (2781) 
N[C@@H](Cc1(ccc(F)cc1Cl))C(=O)O

>  <INCHIKEY>  (2781) 
BCUFAMXOPAUSIP-QMMMGPOBSA-N

$$$$
Phe_2Cl_4Me
     RDKit          2D

 14 14  0  0  0  0  0  0  0  0999 V2000
   -1.7174    1.8436    0.0000 N   0  0  0  0  0  0  0  0  0  0  0  0
   -2.1036    0.3942    0.0000 C   0  0  0  0  0  0  0  0  0  0  0  0
   -1.0414   -0.6650    0.0000 C   0  0  0  0  0  0  0  0  0  0  0  0
    0.4069   -0.2747    0.0000 C   0  0  0  0  0  0  0  0  0  0  0  0
    0.7931    1.1747    0.0000 C   0  0  0  0  0  0  0  0  0  0  0  0
    2.2415    1.5649    0.0000 C   0  0  0  0  0  0  0  0  0  0  0  0
    3.3036    0.5057    0.0000 C   0  0  0  0  0  0  0  0  0  0  0  0
    4.7520    0.8960    0.0000 C   0  0  0  0  0  0  0  0  0  0  0  0
    2.9174   -0.9437    0.0000 C   0  0  0  0  0  0  0  0  0  0  0  0
    1.4691   -1.3339    0.0000 C   0  0  0  0  0  0  0  0  0  0  0  0
    1.0829   -2.7834    0.0000 Cl  0  0  0  0  0  0  0  0  0  0  0  0
   -3.5519    0.0039    0.0000 C   0  0  0  0  0  0  0  0  0  0  0  0
   -3.9381   -1.4455    0.0000 O   0  0  0  0  0  0  0  0  0  0  0  0
   -4.6140    1.0631    0.0000 O   0  0  0  0  0  0  0  0  0  0  0  0
  2  1  1  1
  2  3  1  0
  3  4  1  0
  4  5  1  0
  5  6  2  0
  6  7  1  0
  7  8  1  0
  7  9  2  0
  9 10  1  0
 10 11  1  0
  2 12  1  0
 12 13  2  0
 12 14  1  0
 10  4  2  0
M  END
>  <rName>  (2782) 
Phe_2Cl_4Me

>  <PQ_SYMBOL>  (2782) 
Phe_2Cl_4Me

>  <FULL_NAME>  (2782) 
(S)-2-amino-3-(2-chloro-4-methylphenyl)propanoic acid

>  <IUPAC_CONDENSED>  (2782) 
Phe(2-Cl,4-Me)

>  <IUPAC>  (2782) 
(2S)-2-amino-3-(2-chloro-4-methylphenyl)propanoic acid

>  <TYPE>  (2782) 
Backbone

>  <CLASS>  (2782) 
alpha

>  <ANALOG>  (2782) 
Phe

>  <MOL_WT>  (2782) 
213.66399999999996

>  <LOGP>  (2782) 
1.6028200000000001

>  <TPSA>  (2782) 
63.32000000000001

>  <POPULARITY>  (2782) 
4.4

>  <PROTECTED>  (2782) 
TRUE

>  <SMILES>  (2782) 
N[C@@H](Cc1(ccc(C)cc1Cl))C(=O)O

>  <INCHIKEY>  (2782) 
HYFOYEOZSRIHPU-VIFPVBQESA-N

$$$$
Phe_2Cl_4NH2_5CO2H
     RDKit          2D

 17 17  0  0  0  0  0  0  0  0999 V2000
    1.7999   -1.7667    0.0000 N   0  0  0  0  0  0  0  0  0  0  0  0
    2.5565   -0.4715    0.0000 C   0  0  0  0  0  0  0  0  0  0  0  0
    1.8131    0.8314    0.0000 C   0  0  0  0  0  0  0  0  0  0  0  0
    0.3131    0.8390    0.0000 C   0  0  0  0  0  0  0  0  0  0  0  0
   -0.4435   -0.4562    0.0000 C   0  0  0  0  0  0  0  0  0  0  0  0
   -1.9435   -0.4486    0.0000 C   0  0  0  0  0  0  0  0  0  0  0  0
   -2.7001   -1.7438    0.0000 C   0  0  0  0  0  0  0  0  0  0  0  0
   -1.9567   -3.0467    0.0000 O   0  0  0  0  0  0  0  0  0  0  0  0
   -4.2000   -1.7362    0.0000 O   0  0  0  0  0  0  0  0  0  0  0  0
   -2.6869    0.8542    0.0000 C   0  0  0  0  0  0  0  0  0  0  0  0
   -4.1869    0.8618    0.0000 N   0  0  0  0  0  0  0  0  0  0  0  0
   -1.9303    2.1494    0.0000 C   0  0  0  0  0  0  0  0  0  0  0  0
   -0.4303    2.1418    0.0000 C   0  0  0  0  0  0  0  0  0  0  0  0
    0.3263    3.4370    0.0000 Cl  0  0  0  0  0  0  0  0  0  0  0  0
    4.0564   -0.4791    0.0000 C   0  0  0  0  0  0  0  0  0  0  0  0
    4.8130    0.8161    0.0000 O   0  0  0  0  0  0  0  0  0  0  0  0
    4.7998   -1.7819    0.0000 O   0  0  0  0  0  0  0  0  0  0  0  0
  2  1  1  1
  2  3  1  0
  3  4  1  0
  4  5  1  0
  5  6  2  0
  6  7  1  0
  7  8  2  0
  7  9  1  0
  6 10  1  0
 10 11  1  0
 10 12  2  0
 12 13  1  0
 13 14  1  0
  2 15  1  0
 15 16  2  0
 15 17  1  0
 13  4  2  0
M  END
>  <rName>  (2783) 
Phe_2Cl_4NH2_5CO2H

>  <PQ_SYMBOL>  (2783) 
Phe_2Cl_4NH2_5CO2H

>  <FULL_NAME>  (2783) 
(S)-2-amino-5-(2-amino-2-carboxyethyl)-4-chlorobenzoic acid

>  <IUPAC_CONDENSED>  (2783) 
Phe(2-Cl,4-NH2,5-CO2H)

>  <IUPAC>  (2783) 
2-amino-5-((2S)-2-amino-3-hydroxy-3-oxopropyl)-4-chlorobenzene-1-carboxylic acid

>  <TYPE>  (2783) 
Backbone

>  <CLASS>  (2783) 
alpha

>  <ANALOG>  (2783) 
Phe

>  <MOL_WT>  (2783) 
258.66099999999994

>  <LOGP>  (2783) 
0.5748

>  <TPSA>  (2783) 
126.64

>  <POPULARITY>  (2783) 
2.2

>  <PROTECTED>  (2783) 
TRUE

>  <SMILES>  (2783) 
N[C@@H](Cc1(cc(C(=O)O)c(N)cc1Cl))C(=O)O

>  <INCHIKEY>  (2783) 
QDWNMPNYQFMDJQ-QMMMGPOBSA-N

$$$$
Phe_2Cl_4OCF3
     RDKit          2D

 18 18  0  0  0  0  0  0  0  0999 V2000
   -3.1311    1.8356    0.0000 N   0  0  0  0  0  0  0  0  0  0  0  0
   -3.4689    0.3742    0.0000 C   0  0  0  0  0  0  0  0  0  0  0  0
   -2.3722   -0.6491    0.0000 C   0  0  0  0  0  0  0  0  0  0  0  0
   -0.9376   -0.2109    0.0000 C   0  0  0  0  0  0  0  0  0  0  0  0
   -0.5998    1.2505    0.0000 C   0  0  0  0  0  0  0  0  0  0  0  0
    0.8348    1.6887    0.0000 C   0  0  0  0  0  0  0  0  0  0  0  0
    1.9315    0.6654    0.0000 C   0  0  0  0  0  0  0  0  0  0  0  0
    3.3661    1.1036    0.0000 O   0  0  0  0  0  0  0  0  0  0  0  0
    4.4629    0.0803    0.0000 C   0  0  0  0  0  0  0  0  0  0  0  0
    5.5596   -0.9429    0.0000 F   0  0  0  0  0  0  0  0  0  0  0  0
    5.4861    1.1771    0.0000 F   0  0  0  0  0  0  0  0  0  0  0  0
    3.4396   -1.0164    0.0000 F   0  0  0  0  0  0  0  0  0  0  0  0
    1.5937   -0.7960    0.0000 C   0  0  0  0  0  0  0  0  0  0  0  0
    0.1592   -1.2342    0.0000 C   0  0  0  0  0  0  0  0  0  0  0  0
   -0.1787   -2.6957    0.0000 Cl  0  0  0  0  0  0  0  0  0  0  0  0
   -4.9035   -0.0640    0.0000 C   0  0  0  0  0  0  0  0  0  0  0  0
   -5.2413   -1.5255    0.0000 O   0  0  0  0  0  0  0  0  0  0  0  0
   -6.0003    0.9593    0.0000 O   0  0  0  0  0  0  0  0  0  0  0  0
  2  1  1  1
  2  3  1  0
  3  4  1  0
  4  5  1  0
  5  6  2  0
  6  7  1  0
  7  8  1  0
  8  9  1  0
  9 10  1  0
  9 11  1  0
  9 12  1  0
  7 13  2  0
 13 14  1  0
 14 15  1  0
  2 16  1  0
 16 17  2  0
 16 18  1  0
 14  4  2  0
M  END
>  <rName>  (2784) 
Phe_2Cl_4OCF3

>  <PQ_SYMBOL>  (2784) 
Phe_2Cl_4OCF3

>  <FULL_NAME>  (2784) 
(2S)-2-amino-3-[2-chloro-4-(trifluoromethoxy)phenyl]propanoic acid

>  <IUPAC_CONDENSED>  (2784) 
Tyr(CF3,2-Cl)

>  <IUPAC>  (2784) 
(2S)-2-amino-3-(2-chloro-4-((trifluoromethyl)oxy)phenyl)propanoic acid

>  <TYPE>  (2784) 
Backbone

>  <CLASS>  (2784) 
alpha

>  <ANALOG>  (2784) 
Tyr

>  <MOL_WT>  (2784) 
283.633

>  <LOGP>  (2784) 
2.193

>  <TPSA>  (2784) 
72.55

>  <POPULARITY>  (2784) 
2.5

>  <PROTECTED>  (2784) 
TRUE

>  <SMILES>  (2784) 
N[C@@H](Cc1(ccc(OC(F)(F)F)cc1Cl))C(=O)O

>  <INCHIKEY>  (2784) 
OWSGPBXLIHKJOL-QMMMGPOBSA-N

$$$$
Phe_2Cl_4OMe
     RDKit          2D

 15 15  0  0  0  0  0  0  0  0999 V2000
   -2.1188    1.8386    0.0000 N   0  0  0  0  0  0  0  0  0  0  0  0
   -2.4941    0.3864    0.0000 C   0  0  0  0  0  0  0  0  0  0  0  0
   -1.4241   -0.6648    0.0000 C   0  0  0  0  0  0  0  0  0  0  0  0
    0.0213   -0.2637    0.0000 C   0  0  0  0  0  0  0  0  0  0  0  0
    0.3966    1.1886    0.0000 C   0  0  0  0  0  0  0  0  0  0  0  0
    1.8420    1.5897    0.0000 C   0  0  0  0  0  0  0  0  0  0  0  0
    2.9120    0.5385    0.0000 C   0  0  0  0  0  0  0  0  0  0  0  0
    4.3574    0.9396    0.0000 O   0  0  0  0  0  0  0  0  0  0  0  0
    5.4275   -0.1116    0.0000 C   0  0  0  0  0  0  0  0  0  0  0  0
    2.5367   -0.9138    0.0000 C   0  0  0  0  0  0  0  0  0  0  0  0
    1.0914   -1.3149    0.0000 C   0  0  0  0  0  0  0  0  0  0  0  0
    0.7160   -2.7672    0.0000 Cl  0  0  0  0  0  0  0  0  0  0  0  0
   -3.9395   -0.0148    0.0000 C   0  0  0  0  0  0  0  0  0  0  0  0
   -4.3148   -1.4670    0.0000 O   0  0  0  0  0  0  0  0  0  0  0  0
   -5.0096    1.0364    0.0000 O   0  0  0  0  0  0  0  0  0  0  0  0
  2  1  1  1
  2  3  1  0
  3  4  1  0
  4  5  1  0
  5  6  2  0
  6  7  1  0
  7  8  1  0
  8  9  1  0
  7 10  2  0
 10 11  1  0
 11 12  1  0
  2 13  1  0
 13 14  2  0
 13 15  1  0
 11  4  2  0
M  END
>  <rName>  (2785) 
Phe_2Cl_4OMe

>  <PQ_SYMBOL>  (2785) 
Phe_2Cl_4OMe

>  <FULL_NAME>  (2785) 
(S)-2-amino-3-(2-chloro-4-methoxyphenyl)propanoic acid

>  <IUPAC_CONDENSED>  (2785) 
Phe(2-Cl,4-OMe)

>  <IUPAC>  (2785) 
(2S)-2-amino-3-(2-chloro-4-methoxyphenyl)propanoic acid

>  <TYPE>  (2785) 
Backbone

>  <CLASS>  (2785) 
alpha

>  <ANALOG>  (2785) 
Tyr

>  <MOL_WT>  (2785) 
229.66299999999998

>  <LOGP>  (2785) 
1.303

>  <TPSA>  (2785) 
72.55

>  <POPULARITY>  (2785) 
5.2

>  <PROTECTED>  (2785) 
TRUE

>  <SMILES>  (2785) 
N[C@@H](Cc1(ccc(OC)cc1Cl))C(=O)O

>  <INCHIKEY>  (2785) 
XOTYDECZAOQPHR-VIFPVBQESA-N

$$$$
Phe_2Cl_4OMe_5CO2H
     RDKit          2D

 18 18  0  0  0  0  0  0  0  0999 V2000
   -2.2377    1.6893    0.0000 N   0  0  0  0  0  0  0  0  0  0  0  0
   -2.8726    0.3303    0.0000 C   0  0  0  0  0  0  0  0  0  0  0  0
   -2.0132   -0.8990    0.0000 C   0  0  0  0  0  0  0  0  0  0  0  0
   -0.5188   -0.7694    0.0000 C   0  0  0  0  0  0  0  0  0  0  0  0
    0.1162    0.5896    0.0000 C   0  0  0  0  0  0  0  0  0  0  0  0
    1.6105    0.7192    0.0000 C   0  0  0  0  0  0  0  0  0  0  0  0
    2.2455    2.0782    0.0000 C   0  0  0  0  0  0  0  0  0  0  0  0
    1.3860    3.3076    0.0000 O   0  0  0  0  0  0  0  0  0  0  0  0
    3.7399    2.2078    0.0000 O   0  0  0  0  0  0  0  0  0  0  0  0
    2.4700   -0.5102    0.0000 C   0  0  0  0  0  0  0  0  0  0  0  0
    3.9644   -0.3805    0.0000 O   0  0  0  0  0  0  0  0  0  0  0  0
    4.8238   -1.6099    0.0000 C   0  0  0  0  0  0  0  0  0  0  0  0
    1.8351   -1.8691    0.0000 C   0  0  0  0  0  0  0  0  0  0  0  0
    0.3407   -1.9988    0.0000 C   0  0  0  0  0  0  0  0  0  0  0  0
   -0.2943   -3.3578    0.0000 Cl  0  0  0  0  0  0  0  0  0  0  0  0
   -4.3670    0.2007    0.0000 C   0  0  0  0  0  0  0  0  0  0  0  0
   -5.0020   -1.1583    0.0000 O   0  0  0  0  0  0  0  0  0  0  0  0
   -5.2265    1.4301    0.0000 O   0  0  0  0  0  0  0  0  0  0  0  0
  2  1  1  1
  2  3  1  0
  3  4  1  0
  4  5  2  0
  5  6  1  0
  6  7  1  0
  7  8  2  0
  7  9  1  0
  6 10  2  0
 10 11  1  0
 11 12  1  0
 10 13  1  0
 13 14  2  0
 14 15  1  0
  2 16  1  0
 16 17  2  0
 16 18  1  0
 14  4  1  0
M  END
>  <rName>  (2786) 
Phe_2Cl_4OMe_5CO2H

>  <PQ_SYMBOL>  (2786) 
Phe_2Cl_4OMe_5CO2H

>  <FULL_NAME>  (2786) 
(S)-5-(2-amino-2-carboxyethyl)-4-chloro-2-methoxybenzoic acid

>  <IUPAC_CONDENSED>  (2786) 
Phe(2-Cl,4-OMe,5-CO2H)

>  <IUPAC>  (2786) 
5-((2S)-2-amino-3-hydroxy-3-oxopropyl)-4-chloro-2-methoxybenzene-1-carboxylic acid

>  <TYPE>  (2786) 
Backbone

>  <CLASS>  (2786) 
alpha

>  <ANALOG>  (2786) 
Tyr

>  <MOL_WT>  (2786) 
273.67199999999997

>  <LOGP>  (2786) 
1.0011999999999999

>  <TPSA>  (2786) 
109.85000000000001

>  <POPULARITY>  (2786) 
2.2

>  <PROTECTED>  (2786) 
TRUE

>  <SMILES>  (2786) 
N[C@@H](Cc1(cc(C(=O)O)c(OC)cc1Cl))C(=O)O

>  <INCHIKEY>  (2786) 
ZFDFJXXGOLSGCZ-QMMMGPOBSA-N

$$$$
Phe_2Cl_5Br
     RDKit          2D

 14 14  0  0  0  0  0  0  0  0999 V2000
   -1.4552    1.7882    0.0000 N   0  0  0  0  0  0  0  0  0  0  0  0
   -1.9325    0.3661    0.0000 C   0  0  0  0  0  0  0  0  0  0  0  0
   -0.9397   -0.7583    0.0000 C   0  0  0  0  0  0  0  0  0  0  0  0
    0.5305   -0.4606    0.0000 C   0  0  0  0  0  0  0  0  0  0  0  0
    1.0078    0.9614    0.0000 C   0  0  0  0  0  0  0  0  0  0  0  0
    2.4780    1.2591    0.0000 C   0  0  0  0  0  0  0  0  0  0  0  0
    2.9553    2.6811    0.0000 Br  0  0  0  0  0  0  0  0  0  0  0  0
    3.4709    0.1347    0.0000 C   0  0  0  0  0  0  0  0  0  0  0  0
    2.9935   -1.2874    0.0000 C   0  0  0  0  0  0  0  0  0  0  0  0
    1.5234   -1.5850    0.0000 C   0  0  0  0  0  0  0  0  0  0  0  0
    1.0461   -3.0070    0.0000 Cl  0  0  0  0  0  0  0  0  0  0  0  0
   -3.4027    0.0685    0.0000 C   0  0  0  0  0  0  0  0  0  0  0  0
   -3.8800   -1.3536    0.0000 O   0  0  0  0  0  0  0  0  0  0  0  0
   -4.3955    1.1929    0.0000 O   0  0  0  0  0  0  0  0  0  0  0  0
  2  1  1  1
  2  3  1  0
  3  4  1  0
  4  5  1  0
  5  6  2  0
  6  7  1  0
  6  8  1  0
  8  9  2  0
  9 10  1  0
 10 11  1  0
  2 12  1  0
 12 13  2  0
 12 14  1  0
 10  4  2  0
M  END
>  <rName>  (2787) 
Phe_2Cl_5Br

>  <PQ_SYMBOL>  (2787) 
Phe_2Cl_5Br

>  <FULL_NAME>  (2787) 
(S)-2-amino-3-(5-bromo-2-chlorophenyl)propanoic acid

>  <IUPAC_CONDENSED>  (2787) 
Phe(2-Cl,5-Br)

>  <IUPAC>  (2787) 
(2S)-2-amino-3-(5-bromo-2-chlorophenyl)propanoic acid

>  <TYPE>  (2787) 
Backbone

>  <CLASS>  (2787) 
alpha

>  <ANALOG>  (2787) 
Phe

>  <MOL_WT>  (2787) 
278.533

>  <LOGP>  (2787) 
2.0569

>  <TPSA>  (2787) 
63.32000000000001

>  <POPULARITY>  (2787) 
4.2

>  <PROTECTED>  (2787) 
TRUE

>  <SMILES>  (2787) 
N[C@@H](Cc1(cc(Br)ccc1Cl))C(=O)O

>  <INCHIKEY>  (2787) 
WHUPPRGZWKRSEB-QMMMGPOBSA-N

$$$$
Phe_2Cl_5CF3
     RDKit          2D

 17 17  0  0  0  0  0  0  0  0999 V2000
    1.5288   -1.7884    0.0000 N   0  0  0  0  0  0  0  0  0  0  0  0
    2.4204   -0.5821    0.0000 C   0  0  0  0  0  0  0  0  0  0  0  0
    1.8216    0.7932    0.0000 C   0  0  0  0  0  0  0  0  0  0  0  0
    0.3311    0.9622    0.0000 C   0  0  0  0  0  0  0  0  0  0  0  0
   -0.5605   -0.2441    0.0000 C   0  0  0  0  0  0  0  0  0  0  0  0
   -2.0509   -0.0750    0.0000 C   0  0  0  0  0  0  0  0  0  0  0  0
   -2.6498    1.3002    0.0000 C   0  0  0  0  0  0  0  0  0  0  0  0
   -1.7582    2.5065    0.0000 C   0  0  0  0  0  0  0  0  0  0  0  0
   -0.2677    2.3375    0.0000 C   0  0  0  0  0  0  0  0  0  0  0  0
    0.6239    3.5437    0.0000 Cl  0  0  0  0  0  0  0  0  0  0  0  0
   -2.9425   -1.2813    0.0000 C   0  0  0  0  0  0  0  0  0  0  0  0
   -3.8341   -2.4875    0.0000 F   0  0  0  0  0  0  0  0  0  0  0  0
   -4.1488   -0.3897    0.0000 F   0  0  0  0  0  0  0  0  0  0  0  0
   -1.7363   -2.1729    0.0000 F   0  0  0  0  0  0  0  0  0  0  0  0
    3.9109   -0.7511    0.0000 C   0  0  0  0  0  0  0  0  0  0  0  0
    4.8025    0.4551    0.0000 O   0  0  0  0  0  0  0  0  0  0  0  0
    4.5097   -2.1264    0.0000 O   0  0  0  0  0  0  0  0  0  0  0  0
  2  1  1  1
  2  3  1  0
  3  4  1  0
  4  5  1  0
  5  6  2  0
  6  7  1  0
  7  8  2  0
  8  9  1  0
  9 10  1  0
  6 11  1  0
 11 12  1  0
 11 13  1  0
 11 14  1  0
  2 15  1  0
 15 16  2  0
 15 17  1  0
  9  4  2  0
M  END
>  <rName>  (2788) 
Phe_2Cl_5CF3

>  <PQ_SYMBOL>  (2788) 
Phe_2Cl_5CF3

>  <FULL_NAME>  (2788) 
(S)-2-amino-3-(2-chloro-5-(trifluoromethyl)phenyl)propanoic acid

>  <IUPAC_CONDENSED>  (2788) 
Phe(2-Cl,5-CF3)

>  <IUPAC>  (2788) 
(2S)-2-amino-3-(2-chloro-5-(trifluoromethyl)phenyl)propanoic acid

>  <TYPE>  (2788) 
Backbone

>  <CLASS>  (2788) 
alpha

>  <ANALOG>  (2788) 
Phe

>  <MOL_WT>  (2788) 
267.6339999999999

>  <LOGP>  (2788) 
2.3132

>  <TPSA>  (2788) 
63.32000000000001

>  <POPULARITY>  (2788) 
2.6

>  <PROTECTED>  (2788) 
TRUE

>  <SMILES>  (2788) 
N[C@@H](Cc1(cc(ccc1Cl)C(F)(F)F))C(=O)O

>  <INCHIKEY>  (2788) 
JTZHJIFNKMMHIZ-QMMMGPOBSA-N

$$$$
Phe_2Cl_5CN
     RDKit          2D

 15 15  0  0  0  0  0  0  0  0999 V2000
    1.3277   -1.8350    0.0000 N   0  0  0  0  0  0  0  0  0  0  0  0
    2.0935   -0.5452    0.0000 C   0  0  0  0  0  0  0  0  0  0  0  0
    1.3594    0.7629    0.0000 C   0  0  0  0  0  0  0  0  0  0  0  0
   -0.1405    0.7812    0.0000 C   0  0  0  0  0  0  0  0  0  0  0  0
   -0.9063   -0.5086    0.0000 C   0  0  0  0  0  0  0  0  0  0  0  0
   -2.4062   -0.4903    0.0000 C   0  0  0  0  0  0  0  0  0  0  0  0
   -3.1719   -1.7801    0.0000 C   0  0  0  0  0  0  0  0  0  0  0  0
   -3.9377   -3.0699    0.0000 N   0  0  0  0  0  0  0  0  0  0  0  0
   -3.1403    0.8178    0.0000 C   0  0  0  0  0  0  0  0  0  0  0  0
   -2.3745    2.1076    0.0000 C   0  0  0  0  0  0  0  0  0  0  0  0
   -0.8746    2.0893    0.0000 C   0  0  0  0  0  0  0  0  0  0  0  0
   -0.1088    3.3791    0.0000 Cl  0  0  0  0  0  0  0  0  0  0  0  0
    3.5934   -0.5635    0.0000 C   0  0  0  0  0  0  0  0  0  0  0  0
    4.3592    0.7263    0.0000 O   0  0  0  0  0  0  0  0  0  0  0  0
    4.3275   -1.8716    0.0000 O   0  0  0  0  0  0  0  0  0  0  0  0
  2  1  1  1
  2  3  1  0
  3  4  1  0
  4  5  1  0
  5  6  2  0
  6  7  1  0
  7  8  3  0
  6  9  1  0
  9 10  2  0
 10 11  1  0
 11 12  1  0
  2 13  1  0
 13 14  2  0
 13 15  1  0
 11  4  2  0
M  END
>  <rName>  (2789) 
Phe_2Cl_5CN

>  <PQ_SYMBOL>  (2789) 
Phe_2Cl_5CN

>  <FULL_NAME>  (2789) 
(S)-2-amino-3-(2-chloro-5-cyanophenyl)propanoic acid

>  <IUPAC_CONDENSED>  (2789) 
Phe(2-Cl,5-CN)

>  <IUPAC>  (2789) 
(2S)-2-amino-3-(2-chloro-5-(nitrilomethyl)phenyl)propanoic acid

>  <TYPE>  (2789) 
Backbone

>  <CLASS>  (2789) 
alpha

>  <ANALOG>  (2789) 
Phe

>  <MOL_WT>  (2789) 
224.647

>  <LOGP>  (2789) 
1.1660800000000002

>  <TPSA>  (2789) 
87.11

>  <POPULARITY>  (2789) 
2.6

>  <PROTECTED>  (2789) 
TRUE

>  <SMILES>  (2789) 
N[C@@H](Cc1(cc(C#N)ccc1Cl))C(=O)O

>  <INCHIKEY>  (2789) 
DWZZPBAJXJKAHC-VIFPVBQESA-N

$$$$
Phe_2Cl_5CO2H
     RDKit          2D

 16 16  0  0  0  0  0  0  0  0999 V2000
    1.4458   -1.7915    0.0000 N   0  0  0  0  0  0  0  0  0  0  0  0
    2.2696   -0.5380    0.0000 C   0  0  0  0  0  0  0  0  0  0  0  0
    1.5959    0.8022    0.0000 C   0  0  0  0  0  0  0  0  0  0  0  0
    0.0984    0.8889    0.0000 C   0  0  0  0  0  0  0  0  0  0  0  0
   -0.7254   -0.3646    0.0000 C   0  0  0  0  0  0  0  0  0  0  0  0
   -2.2229   -0.2780    0.0000 C   0  0  0  0  0  0  0  0  0  0  0  0
   -2.8966    1.0622    0.0000 C   0  0  0  0  0  0  0  0  0  0  0  0
   -2.0728    2.3158    0.0000 C   0  0  0  0  0  0  0  0  0  0  0  0
   -0.5753    2.2291    0.0000 C   0  0  0  0  0  0  0  0  0  0  0  0
    0.2485    3.4826    0.0000 Cl  0  0  0  0  0  0  0  0  0  0  0  0
   -3.0467   -1.5315    0.0000 C   0  0  0  0  0  0  0  0  0  0  0  0
   -2.3730   -2.8717    0.0000 O   0  0  0  0  0  0  0  0  0  0  0  0
   -4.5442   -1.4448    0.0000 O   0  0  0  0  0  0  0  0  0  0  0  0
    3.7671   -0.6247    0.0000 C   0  0  0  0  0  0  0  0  0  0  0  0
    4.5909    0.6289    0.0000 O   0  0  0  0  0  0  0  0  0  0  0  0
    4.4408   -1.9649    0.0000 O   0  0  0  0  0  0  0  0  0  0  0  0
  2  1  1  1
  2  3  1  0
  3  4  1  0
  4  5  1  0
  5  6  2  0
  6  7  1  0
  7  8  2  0
  8  9  1  0
  9 10  1  0
  6 11  1  0
 11 12  2  0
 11 13  1  0
  2 14  1  0
 14 15  2  0
 14 16  1  0
  9  4  2  0
M  END
>  <rName>  (2790) 
Phe_2Cl_5CO2H

>  <PQ_SYMBOL>  (2790) 
Phe_2Cl_5CO2H

>  <FULL_NAME>  (2790) 
(S)-3-(2-amino-2-carboxyethyl)-4-chlorobenzoic acid

>  <IUPAC_CONDENSED>  (2790) 
Phe(2-Cl,5-CO2H)

>  <IUPAC>  (2790) 
3-((2S)-2-amino-3-hydroxy-3-oxopropyl)-4-chlorobenzene-1-carboxylic acid

>  <TYPE>  (2790) 
Backbone

>  <CLASS>  (2790) 
alpha

>  <ANALOG>  (2790) 
Phe

>  <MOL_WT>  (2790) 
243.64599999999996

>  <LOGP>  (2790) 
0.9926000000000001

>  <TPSA>  (2790) 
100.62000000000002

>  <POPULARITY>  (2790) 
2.5

>  <PROTECTED>  (2790) 
TRUE

>  <SMILES>  (2790) 
N[C@@H](Cc1(cc(ccc1Cl)C(=O)O))C(=O)O

>  <INCHIKEY>  (2790) 
VISXCDRQCJQUCY-QMMMGPOBSA-N

$$$$
Phe_2Cl_5Me
     RDKit          2D

 14 14  0  0  0  0  0  0  0  0999 V2000
   -1.4552    1.7882    0.0000 N   0  0  0  0  0  0  0  0  0  0  0  0
   -1.9325    0.3661    0.0000 C   0  0  0  0  0  0  0  0  0  0  0  0
   -0.9397   -0.7583    0.0000 C   0  0  0  0  0  0  0  0  0  0  0  0
    0.5305   -0.4606    0.0000 C   0  0  0  0  0  0  0  0  0  0  0  0
    1.0078    0.9614    0.0000 C   0  0  0  0  0  0  0  0  0  0  0  0
    2.4780    1.2591    0.0000 C   0  0  0  0  0  0  0  0  0  0  0  0
    2.9553    2.6811    0.0000 C   0  0  0  0  0  0  0  0  0  0  0  0
    3.4709    0.1347    0.0000 C   0  0  0  0  0  0  0  0  0  0  0  0
    2.9935   -1.2874    0.0000 C   0  0  0  0  0  0  0  0  0  0  0  0
    1.5234   -1.5850    0.0000 C   0  0  0  0  0  0  0  0  0  0  0  0
    1.0461   -3.0070    0.0000 Cl  0  0  0  0  0  0  0  0  0  0  0  0
   -3.4027    0.0685    0.0000 C   0  0  0  0  0  0  0  0  0  0  0  0
   -3.8800   -1.3536    0.0000 O   0  0  0  0  0  0  0  0  0  0  0  0
   -4.3955    1.1929    0.0000 O   0  0  0  0  0  0  0  0  0  0  0  0
  2  1  1  1
  2  3  1  0
  3  4  1  0
  4  5  1  0
  5  6  2  0
  6  7  1  0
  6  8  1  0
  8  9  2  0
  9 10  1  0
 10 11  1  0
  2 12  1  0
 12 13  2  0
 12 14  1  0
 10  4  2  0
M  END
>  <rName>  (2791) 
Phe_2Cl_5Me

>  <PQ_SYMBOL>  (2791) 
Phe_2Cl_5Me

>  <FULL_NAME>  (2791) 
(S)-2-amino-3-(2-chloro-5-methylphenyl)propanoic acid

>  <IUPAC_CONDENSED>  (2791) 
Phe(2-Cl,5-Me)

>  <IUPAC>  (2791) 
(2S)-2-amino-3-(2-chloro-5-methylphenyl)propanoic acid

>  <TYPE>  (2791) 
Backbone

>  <CLASS>  (2791) 
alpha

>  <ANALOG>  (2791) 
Phe

>  <MOL_WT>  (2791) 
213.66399999999996

>  <LOGP>  (2791) 
1.6028200000000001

>  <TPSA>  (2791) 
63.32000000000001

>  <POPULARITY>  (2791) 
3.2

>  <PROTECTED>  (2791) 
TRUE

>  <SMILES>  (2791) 
N[C@@H](Cc1(cc(C)ccc1Cl))C(=O)O

>  <INCHIKEY>  (2791) 
XRAMSSIKOIODOJ-VIFPVBQESA-N

$$$$
Phe_2Et
     RDKit          2D

 14 14  0  0  0  0  0  0  0  0999 V2000
   -1.5263    2.0132    0.0000 N   0  0  0  0  0  0  0  0  0  0  0  0
   -1.7894    0.5365    0.0000 C   0  0  0  0  0  0  0  0  0  0  0  0
   -0.6421   -0.4297    0.0000 C   0  0  0  0  0  0  0  0  0  0  0  0
    0.7684    0.0807    0.0000 C   0  0  0  0  0  0  0  0  0  0  0  0
    1.0315    1.5575    0.0000 C   0  0  0  0  0  0  0  0  0  0  0  0
    2.4420    2.0680    0.0000 C   0  0  0  0  0  0  0  0  0  0  0  0
    3.5893    1.1017    0.0000 C   0  0  0  0  0  0  0  0  0  0  0  0
    3.3262   -0.3750    0.0000 C   0  0  0  0  0  0  0  0  0  0  0  0
    1.9157   -0.8855    0.0000 C   0  0  0  0  0  0  0  0  0  0  0  0
    1.6526   -2.3622    0.0000 C   0  0  0  0  0  0  0  0  0  0  0  0
    0.2421   -2.8727    0.0000 C   0  0  0  0  0  0  0  0  0  0  0  0
   -3.1999    0.0260    0.0000 C   0  0  0  0  0  0  0  0  0  0  0  0
   -3.4630   -1.4507    0.0000 O   0  0  0  0  0  0  0  0  0  0  0  0
   -4.3472    0.9923    0.0000 O   0  0  0  0  0  0  0  0  0  0  0  0
  2  1  1  1
  2  3  1  0
  3  4  1  0
  4  5  2  0
  5  6  1  0
  6  7  2  0
  7  8  1  0
  8  9  2  0
  9 10  1  0
 10 11  1  0
  2 12  1  0
 12 13  2  0
 12 14  1  0
  9  4  1  0
M  END
>  <rName>  (2792) 
Phe_2Et

>  <PQ_SYMBOL>  (2792) 
Phe_2Et

>  <FULL_NAME>  (2792) 
(S)-2-amino-3-(2-ethylphenyl)propanoic acid

>  <IUPAC_CONDENSED>  (2792) 
Phe(2-Et)

>  <IUPAC>  (2792) 
(2S)-2-amino-3-(2-ethylphenyl)propanoic acid

>  <TYPE>  (2792) 
Backbone

>  <CLASS>  (2792) 
alpha

>  <ANALOG>  (2792) 
Phe

>  <MOL_WT>  (2792) 
193.24599999999995

>  <LOGP>  (2792) 
1.2034000000000002

>  <TPSA>  (2792) 
63.32000000000001

>  <POPULARITY>  (2792) 
7.8

>  <PROTECTED>  (2792) 
TRUE

>  <SMILES>  (2792) 
N[C@@H](Cc1(ccccc1CC))C(=O)O

>  <INCHIKEY>  (2792) 
PQZUXTFTNLKJIM-JTQLQIEISA-N

$$$$
Phe_2EtO2H
     RDKit          2D

 16 16  0  0  0  0  0  0  0  0999 V2000
   -2.9416    1.4600    0.0000 N   0  0  0  0  0  0  0  0  0  0  0  0
   -2.5896    0.0018    0.0000 C   0  0  0  0  0  0  0  0  0  0  0  0
   -1.1509   -0.4224    0.0000 C   0  0  0  0  0  0  0  0  0  0  0  0
   -0.0641    0.6114    0.0000 C   0  0  0  0  0  0  0  0  0  0  0  0
   -0.4160    2.0695    0.0000 C   0  0  0  0  0  0  0  0  0  0  0  0
    0.6708    3.1034    0.0000 C   0  0  0  0  0  0  0  0  0  0  0  0
    2.1095    2.6791    0.0000 C   0  0  0  0  0  0  0  0  0  0  0  0
    2.4615    1.2210    0.0000 C   0  0  0  0  0  0  0  0  0  0  0  0
    1.3747    0.1871    0.0000 C   0  0  0  0  0  0  0  0  0  0  0  0
    1.7266   -1.2710    0.0000 C   0  0  0  0  0  0  0  0  0  0  0  0
    3.1654   -1.6953    0.0000 C   0  0  0  0  0  0  0  0  0  0  0  0
    4.2522   -0.6614    0.0000 O   0  0  0  0  0  0  0  0  0  0  0  0
    3.5173   -3.1534    0.0000 O   0  0  0  0  0  0  0  0  0  0  0  0
   -3.6764   -1.0320    0.0000 C   0  0  0  0  0  0  0  0  0  0  0  0
   -3.3245   -2.4902    0.0000 O   0  0  0  0  0  0  0  0  0  0  0  0
   -5.1152   -0.6078    0.0000 O   0  0  0  0  0  0  0  0  0  0  0  0
  2  1  1  1
  2  3  1  0
  3  4  1  0
  4  5  2  0
  5  6  1  0
  6  7  2  0
  7  8  1  0
  8  9  2  0
  9 10  1  0
 10 11  1  0
 11 12  2  0
 11 13  1  0
  2 14  1  0
 14 15  2  0
 14 16  1  0
  9  4  1  0
M  END
>  <rName>  (2793) 
Phe_2EtO2H

>  <PQ_SYMBOL>  (2793) 
Phe_2EtO2H

>  <FULL_NAME>  (2793) 
(S)-2-amino-3-(2-(carboxymethyl)phenyl)propanoic acid

>  <IUPAC_CONDENSED>  (2793) 
Phe(2-EtO2H)

>  <IUPAC>  (2793) 
(2S)-2-amino-3-(2-(2-hydroxy-2-oxoethyl)phenyl)propanoic acid

>  <TYPE>  (2793) 
Backbone

>  <CLASS>  (2793) 
alpha

>  <ANALOG>  (2793) 
Phe

>  <MOL_WT>  (2793) 
223.22799999999995

>  <LOGP>  (2793) 
0.26809999999999967

>  <TPSA>  (2793) 
100.62000000000002

>  <POPULARITY>  (2793) 
3.0

>  <PROTECTED>  (2793) 
TRUE

>  <SMILES>  (2793) 
N[C@@H](Cc1(ccccc1CC(=O)O))C(=O)O

>  <INCHIKEY>  (2793) 
ZBEOQVHUFQJWCJ-VIFPVBQESA-N

$$$$
Phe_2F
     RDKit          2D

 13 13  0  0  0  0  0  0  0  0999 V2000
   -1.4864    1.8099    0.0000 N   0  0  0  0  0  0  0  0  0  0  0  0
   -1.7669    0.3364    0.0000 C   0  0  0  0  0  0  0  0  0  0  0  0
   -0.6311   -0.6433    0.0000 C   0  0  0  0  0  0  0  0  0  0  0  0
    0.7853   -0.1495    0.0000 C   0  0  0  0  0  0  0  0  0  0  0  0
    1.0658    1.3241    0.0000 C   0  0  0  0  0  0  0  0  0  0  0  0
    2.4822    1.8179    0.0000 C   0  0  0  0  0  0  0  0  0  0  0  0
    3.6181    0.8382    0.0000 C   0  0  0  0  0  0  0  0  0  0  0  0
    3.3376   -0.6353    0.0000 C   0  0  0  0  0  0  0  0  0  0  0  0
    1.9212   -1.1292    0.0000 C   0  0  0  0  0  0  0  0  0  0  0  0
    1.6407   -2.6027    0.0000 F   0  0  0  0  0  0  0  0  0  0  0  0
   -3.1833   -0.1575    0.0000 C   0  0  0  0  0  0  0  0  0  0  0  0
   -3.4638   -1.6310    0.0000 O   0  0  0  0  0  0  0  0  0  0  0  0
   -4.3192    0.8222    0.0000 O   0  0  0  0  0  0  0  0  0  0  0  0
  2  1  1  1
  2  3  1  0
  3  4  1  0
  4  5  2  0
  5  6  1  0
  6  7  2  0
  7  8  1  0
  8  9  2  0
  9 10  1  0
  2 11  1  0
 11 12  2  0
 11 13  1  0
  9  4  1  0
M  END
>  <rName>  (2794) 
Phe_2F

>  <PQ_SYMBOL>  (2794) 
Phe_2F

>  <FULL_NAME>  (2794) 
2-fluoro-L-phenylalanine

>  <IUPAC_CONDENSED>  (2794) 
Phe(2-F)

>  <IUPAC>  (2794) 
(2S)-2-amino-3-(2-fluorophenyl)propanoic acid

>  <TYPE>  (2794) 
Backbone

>  <CLASS>  (2794) 
alpha

>  <ANALOG>  (2794) 
Phe

>  <MOL_WT>  (2794) 
183.18199999999996

>  <LOGP>  (2794) 
0.7801000000000002

>  <TPSA>  (2794) 
63.32000000000001

>  <POPULARITY>  (2794) 
16.5

>  <PROTECTED>  (2794) 
TRUE

>  <SMILES>  (2794) 
N[C@@H](Cc1(ccccc1F))C(=O)O

>  <INCHIKEY>  (2794) 
NYCRCTMDYITATC-QMMMGPOBSA-N

$$$$
Phe_2F_3Br
     RDKit          2D

 14 14  0  0  0  0  0  0  0  0999 V2000
   -1.9599    1.7683    0.0000 N   0  0  0  0  0  0  0  0  0  0  0  0
   -2.1168    0.2766    0.0000 C   0  0  0  0  0  0  0  0  0  0  0  0
   -0.9034   -0.6052    0.0000 C   0  0  0  0  0  0  0  0  0  0  0  0
    0.4670    0.0047    0.0000 C   0  0  0  0  0  0  0  0  0  0  0  0
    0.6239    1.4965    0.0000 C   0  0  0  0  0  0  0  0  0  0  0  0
    1.9943    2.1065    0.0000 C   0  0  0  0  0  0  0  0  0  0  0  0
    3.2078    1.2247    0.0000 C   0  0  0  0  0  0  0  0  0  0  0  0
    3.0508   -0.2671    0.0000 C   0  0  0  0  0  0  0  0  0  0  0  0
    4.2643   -1.1489    0.0000 Br  0  0  0  0  0  0  0  0  0  0  0  0
    1.6804   -0.8771    0.0000 C   0  0  0  0  0  0  0  0  0  0  0  0
    1.5235   -2.3688    0.0000 F   0  0  0  0  0  0  0  0  0  0  0  0
   -3.4872   -0.3334    0.0000 C   0  0  0  0  0  0  0  0  0  0  0  0
   -3.6441   -1.8252    0.0000 O   0  0  0  0  0  0  0  0  0  0  0  0
   -4.7006    0.5484    0.0000 O   0  0  0  0  0  0  0  0  0  0  0  0
  2  1  1  1
  2  3  1  0
  3  4  1  0
  4  5  2  0
  5  6  1  0
  6  7  2  0
  7  8  1  0
  8  9  1  0
  8 10  2  0
 10 11  1  0
  2 12  1  0
 12 13  2  0
 12 14  1  0
 10  4  1  0
M  END
>  <rName>  (2795) 
Phe_2F_3Br

>  <PQ_SYMBOL>  (2795) 
Phe_2F_3Br

>  <FULL_NAME>  (2795) 
3-Bromo-2-fluoro-L-phenylalanine

>  <IUPAC_CONDENSED>  (2795) 
Phe(2-F,3-Br)

>  <IUPAC>  (2795) 
(2S)-2-amino-3-(3-bromo-2-fluorophenyl)propanoic acid

>  <TYPE>  (2795) 
Backbone

>  <CLASS>  (2795) 
alpha

>  <ANALOG>  (2795) 
Phe

>  <MOL_WT>  (2795) 
262.0779999999999

>  <LOGP>  (2795) 
1.5426000000000002

>  <TPSA>  (2795) 
63.32000000000001

>  <POPULARITY>  (2795) 
2.2

>  <PROTECTED>  (2795) 
TRUE

>  <SMILES>  (2795) 
N[C@@H](Cc1(cccc(Br)c1F))C(=O)O

>  <INCHIKEY>  (2795) 
NCVNNIXBBJHQSW-ZETCQYMHSA-N

$$$$
Phe_2F_3CN
     RDKit          2D

 15 15  0  0  0  0  0  0  0  0999 V2000
   -2.4994    1.6682    0.0000 N   0  0  0  0  0  0  0  0  0  0  0  0
   -2.5103    0.1683    0.0000 C   0  0  0  0  0  0  0  0  0  0  0  0
   -1.2168   -0.5912    0.0000 C   0  0  0  0  0  0  0  0  0  0  0  0
    0.0877    0.1494    0.0000 C   0  0  0  0  0  0  0  0  0  0  0  0
    0.0986    1.6493    0.0000 C   0  0  0  0  0  0  0  0  0  0  0  0
    1.4031    2.3899    0.0000 C   0  0  0  0  0  0  0  0  0  0  0  0
    2.6966    1.6304    0.0000 C   0  0  0  0  0  0  0  0  0  0  0  0
    2.6857    0.1305    0.0000 C   0  0  0  0  0  0  0  0  0  0  0  0
    3.9792   -0.6290    0.0000 C   0  0  0  0  0  0  0  0  0  0  0  0
    5.2728   -1.3884    0.0000 N   0  0  0  0  0  0  0  0  0  0  0  0
    1.3812   -0.6101    0.0000 C   0  0  0  0  0  0  0  0  0  0  0  0
    1.3703   -2.1100    0.0000 F   0  0  0  0  0  0  0  0  0  0  0  0
   -3.8148   -0.5723    0.0000 C   0  0  0  0  0  0  0  0  0  0  0  0
   -3.8257   -2.0722    0.0000 O   0  0  0  0  0  0  0  0  0  0  0  0
   -5.1083    0.1872    0.0000 O   0  0  0  0  0  0  0  0  0  0  0  0
  2  1  1  1
  2  3  1  0
  3  4  1  0
  4  5  2  0
  5  6  1  0
  6  7  2  0
  7  8  1  0
  8  9  1  0
  9 10  3  0
  8 11  2  0
 11 12  1  0
  2 13  1  0
 13 14  2  0
 13 15  1  0
 11  4  1  0
M  END
>  <rName>  (2796) 
Phe_2F_3CN

>  <PQ_SYMBOL>  (2796) 
Phe_2F_3CN

>  <FULL_NAME>  (2796) 
(S)-2-amino-3-(3-cyano-2-fluorophenyl)propanoic acid

>  <IUPAC_CONDENSED>  (2796) 
Phe(2-F,3-CN)

>  <IUPAC>  (2796) 
(2S)-2-amino-3-(2-fluoro-3-(nitrilomethyl)phenyl)propanoic acid

>  <TYPE>  (2796) 
Backbone

>  <CLASS>  (2796) 
alpha

>  <ANALOG>  (2796) 
Phe

>  <MOL_WT>  (2796) 
208.19199999999995

>  <LOGP>  (2796) 
0.6517800000000002

>  <TPSA>  (2796) 
87.11

>  <POPULARITY>  (2796) 
2.5

>  <PROTECTED>  (2796) 
TRUE

>  <SMILES>  (2796) 
N[C@@H](Cc1(cccc(C#N)c1F))C(=O)O

>  <INCHIKEY>  (2796) 
FBJWEPCTQWESIO-QMMMGPOBSA-N

$$$$
Phe_2F_3CO2H
     RDKit          2D

 16 16  0  0  0  0  0  0  0  0999 V2000
   -2.7535    1.6987    0.0000 N   0  0  0  0  0  0  0  0  0  0  0  0
   -2.7597    0.1988    0.0000 C   0  0  0  0  0  0  0  0  0  0  0  0
   -1.4637   -0.5565    0.0000 C   0  0  0  0  0  0  0  0  0  0  0  0
   -0.1616    0.1882    0.0000 C   0  0  0  0  0  0  0  0  0  0  0  0
   -0.1555    1.6881    0.0000 C   0  0  0  0  0  0  0  0  0  0  0  0
    1.1466    2.4328    0.0000 C   0  0  0  0  0  0  0  0  0  0  0  0
    2.4426    1.6775    0.0000 C   0  0  0  0  0  0  0  0  0  0  0  0
    2.4364    0.1776    0.0000 C   0  0  0  0  0  0  0  0  0  0  0  0
    3.7324   -0.5777    0.0000 C   0  0  0  0  0  0  0  0  0  0  0  0
    5.0345    0.1670    0.0000 O   0  0  0  0  0  0  0  0  0  0  0  0
    3.7263   -2.0777    0.0000 O   0  0  0  0  0  0  0  0  0  0  0  0
    1.1344   -0.5671    0.0000 C   0  0  0  0  0  0  0  0  0  0  0  0
    1.1282   -2.0671    0.0000 F   0  0  0  0  0  0  0  0  0  0  0  0
   -4.0618   -0.5459    0.0000 C   0  0  0  0  0  0  0  0  0  0  0  0
   -4.0679   -2.0459    0.0000 O   0  0  0  0  0  0  0  0  0  0  0  0
   -5.3577    0.2094    0.0000 O   0  0  0  0  0  0  0  0  0  0  0  0
  2  1  1  1
  2  3  1  0
  3  4  1  0
  4  5  1  0
  5  6  2  0
  6  7  1  0
  7  8  2  0
  8  9  1  0
  9 10  2  0
  9 11  1  0
  8 12  1  0
 12 13  1  0
  2 14  1  0
 14 15  2  0
 14 16  1  0
 12  4  2  0
M  END
>  <rName>  (2797) 
Phe_2F_3CO2H

>  <PQ_SYMBOL>  (2797) 
Phe_2F_3CO2H

>  <FULL_NAME>  (2797) 
(S)-3-(2-amino-2-carboxyethyl)-2-fluorobenzoic acid

>  <IUPAC_CONDENSED>  (2797) 
Phe(2-F,3-CO2H)

>  <IUPAC>  (2797) 
3-((2S)-2-amino-3-hydroxy-3-oxopropyl)-2-fluorobenzene-1-carboxylic acid

>  <TYPE>  (2797) 
Backbone

>  <CLASS>  (2797) 
alpha

>  <ANALOG>  (2797) 
Phe

>  <MOL_WT>  (2797) 
227.19099999999995

>  <LOGP>  (2797) 
0.47829999999999984

>  <TPSA>  (2797) 
100.62000000000002

>  <POPULARITY>  (2797) 
2.4

>  <PROTECTED>  (2797) 
TRUE

>  <SMILES>  (2797) 
N[C@@H](Cc1(cccc(C(=O)O)c1F))C(=O)O

>  <INCHIKEY>  (2797) 
PKQPSDBAYBMTBJ-ZETCQYMHSA-N

$$$$
Phe_2F_3Cl
     RDKit          2D

 14 14  0  0  0  0  0  0  0  0999 V2000
   -1.9599    1.7683    0.0000 N   0  0  0  0  0  0  0  0  0  0  0  0
   -2.1168    0.2766    0.0000 C   0  0  0  0  0  0  0  0  0  0  0  0
   -0.9034   -0.6052    0.0000 C   0  0  0  0  0  0  0  0  0  0  0  0
    0.4670    0.0047    0.0000 C   0  0  0  0  0  0  0  0  0  0  0  0
    0.6239    1.4965    0.0000 C   0  0  0  0  0  0  0  0  0  0  0  0
    1.9943    2.1065    0.0000 C   0  0  0  0  0  0  0  0  0  0  0  0
    3.2078    1.2247    0.0000 C   0  0  0  0  0  0  0  0  0  0  0  0
    3.0508   -0.2671    0.0000 C   0  0  0  0  0  0  0  0  0  0  0  0
    4.2643   -1.1489    0.0000 Cl  0  0  0  0  0  0  0  0  0  0  0  0
    1.6804   -0.8771    0.0000 C   0  0  0  0  0  0  0  0  0  0  0  0
    1.5235   -2.3688    0.0000 F   0  0  0  0  0  0  0  0  0  0  0  0
   -3.4872   -0.3334    0.0000 C   0  0  0  0  0  0  0  0  0  0  0  0
   -3.6441   -1.8252    0.0000 O   0  0  0  0  0  0  0  0  0  0  0  0
   -4.7006    0.5484    0.0000 O   0  0  0  0  0  0  0  0  0  0  0  0
  2  1  1  1
  2  3  1  0
  3  4  1  0
  4  5  2  0
  5  6  1  0
  6  7  2  0
  7  8  1  0
  8  9  1  0
  8 10  2  0
 10 11  1  0
  2 12  1  0
 12 13  2  0
 12 14  1  0
 10  4  1  0
M  END
>  <rName>  (2798) 
Phe_2F_3Cl

>  <PQ_SYMBOL>  (2798) 
Phe_2F_3Cl

>  <FULL_NAME>  (2798) 
(S)-2-amino-3-(3-chloro-2-fluorophenyl)propanoic acid

>  <IUPAC_CONDENSED>  (2798) 
Phe(2-F,3-Cl)

>  <IUPAC>  (2798) 
(2S)-2-amino-3-(3-chloro-2-fluorophenyl)propanoic acid

>  <TYPE>  (2798) 
Backbone

>  <CLASS>  (2798) 
alpha

>  <ANALOG>  (2798) 
Phe

>  <MOL_WT>  (2798) 
217.62699999999995

>  <LOGP>  (2798) 
1.4335000000000002

>  <TPSA>  (2798) 
63.32000000000001

>  <POPULARITY>  (2798) 
7.9

>  <PROTECTED>  (2798) 
TRUE

>  <SMILES>  (2798) 
N[C@@H](Cc1(cccc(Cl)c1F))C(=O)O

>  <INCHIKEY>  (2798) 
LSZBXQYJHCORIE-ZETCQYMHSA-N

$$$$
Phe_2F_3Me
     RDKit          2D

 14 14  0  0  0  0  0  0  0  0999 V2000
   -1.9599    1.7683    0.0000 N   0  0  0  0  0  0  0  0  0  0  0  0
   -2.1168    0.2766    0.0000 C   0  0  0  0  0  0  0  0  0  0  0  0
   -0.9034   -0.6052    0.0000 C   0  0  0  0  0  0  0  0  0  0  0  0
    0.4670    0.0047    0.0000 C   0  0  0  0  0  0  0  0  0  0  0  0
    0.6239    1.4965    0.0000 C   0  0  0  0  0  0  0  0  0  0  0  0
    1.9943    2.1065    0.0000 C   0  0  0  0  0  0  0  0  0  0  0  0
    3.2078    1.2247    0.0000 C   0  0  0  0  0  0  0  0  0  0  0  0
    3.0508   -0.2671    0.0000 C   0  0  0  0  0  0  0  0  0  0  0  0
    4.2643   -1.1489    0.0000 C   0  0  0  0  0  0  0  0  0  0  0  0
    1.6804   -0.8771    0.0000 C   0  0  0  0  0  0  0  0  0  0  0  0
    1.5235   -2.3688    0.0000 F   0  0  0  0  0  0  0  0  0  0  0  0
   -3.4872   -0.3334    0.0000 C   0  0  0  0  0  0  0  0  0  0  0  0
   -3.6441   -1.8252    0.0000 O   0  0  0  0  0  0  0  0  0  0  0  0
   -4.7006    0.5484    0.0000 O   0  0  0  0  0  0  0  0  0  0  0  0
  2  1  1  1
  2  3  1  0
  3  4  1  0
  4  5  2  0
  5  6  1  0
  6  7  2  0
  7  8  1  0
  8  9  1  0
  8 10  2  0
 10 11  1  0
  2 12  1  0
 12 13  2  0
 12 14  1  0
 10  4  1  0
M  END
>  <rName>  (2799) 
Phe_2F_3Me

>  <PQ_SYMBOL>  (2799) 
Phe_2F_3Me

>  <FULL_NAME>  (2799) 
(2S)-2-amino-3-(2-fluoro-3-methylphenyl)propanoic acid

>  <IUPAC_CONDENSED>  (2799) 
Phe(2-F,3-Me)

>  <IUPAC>  (2799) 
(2S)-2-amino-3-(2-fluoro-3-methylphenyl)propanoic acid

>  <TYPE>  (2799) 
Backbone

>  <CLASS>  (2799) 
alpha

>  <ANALOG>  (2799) 
Phe

>  <MOL_WT>  (2799) 
197.20899999999995

>  <LOGP>  (2799) 
1.0885200000000002

>  <TPSA>  (2799) 
63.32000000000001

>  <POPULARITY>  (2799) 
2.2

>  <PROTECTED>  (2799) 
TRUE

>  <SMILES>  (2799) 
N[C@@H](Cc1(cccc(C)c1F))C(=O)O

>  <INCHIKEY>  (2799) 
JNSVFBLXKMOJKT-QMMMGPOBSA-N

$$$$
Phe_2F_4Br
     RDKit          2D

 14 14  0  0  0  0  0  0  0  0999 V2000
   -1.7174    1.8436    0.0000 N   0  0  0  0  0  0  0  0  0  0  0  0
   -2.1036    0.3942    0.0000 C   0  0  0  0  0  0  0  0  0  0  0  0
   -1.0414   -0.6650    0.0000 C   0  0  0  0  0  0  0  0  0  0  0  0
    0.4069   -0.2747    0.0000 C   0  0  0  0  0  0  0  0  0  0  0  0
    0.7931    1.1747    0.0000 C   0  0  0  0  0  0  0  0  0  0  0  0
    2.2415    1.5649    0.0000 C   0  0  0  0  0  0  0  0  0  0  0  0
    3.3036    0.5057    0.0000 C   0  0  0  0  0  0  0  0  0  0  0  0
    4.7520    0.8960    0.0000 Br  0  0  0  0  0  0  0  0  0  0  0  0
    2.9174   -0.9437    0.0000 C   0  0  0  0  0  0  0  0  0  0  0  0
    1.4691   -1.3339    0.0000 C   0  0  0  0  0  0  0  0  0  0  0  0
    1.0829   -2.7834    0.0000 F   0  0  0  0  0  0  0  0  0  0  0  0
   -3.5519    0.0039    0.0000 C   0  0  0  0  0  0  0  0  0  0  0  0
   -3.9381   -1.4455    0.0000 O   0  0  0  0  0  0  0  0  0  0  0  0
   -4.6140    1.0631    0.0000 O   0  0  0  0  0  0  0  0  0  0  0  0
  2  1  1  1
  2  3  1  0
  3  4  1  0
  4  5  1  0
  5  6  2  0
  6  7  1  0
  7  8  1  0
  7  9  2  0
  9 10  1  0
 10 11  1  0
  2 12  1  0
 12 13  2  0
 12 14  1  0
 10  4  2  0
M  END
>  <rName>  (2800) 
Phe_2F_4Br

>  <PQ_SYMBOL>  (2800) 
Phe_2F_4Br

>  <FULL_NAME>  (2800) 
(2S)-2-amino-3-(4-bromo-2-fluorophenyl)propanoic acid

>  <IUPAC_CONDENSED>  (2800) 
Phe(2-F,4-Br)

>  <IUPAC>  (2800) 
(2S)-2-amino-3-(4-bromo-2-fluorophenyl)propanoic acid

>  <TYPE>  (2800) 
Backbone

>  <CLASS>  (2800) 
alpha

>  <ANALOG>  (2800) 
Phe

>  <MOL_WT>  (2800) 
262.0779999999999

>  <LOGP>  (2800) 
1.5426000000000002

>  <TPSA>  (2800) 
63.32000000000001

>  <POPULARITY>  (2800) 
3.4

>  <PROTECTED>  (2800) 
TRUE

>  <SMILES>  (2800) 
N[C@@H](Cc1(ccc(Br)cc1F))C(=O)O

>  <INCHIKEY>  (2800) 
MQJFVIRBPSXVRP-QMMMGPOBSA-N

$$$$
Phe_2F_4CF3
     RDKit          2D

 17 17  0  0  0  0  0  0  0  0999 V2000
   -2.4937    1.8764    0.0000 N   0  0  0  0  0  0  0  0  0  0  0  0
   -2.9991    0.4641    0.0000 C   0  0  0  0  0  0  0  0  0  0  0  0
   -2.0288   -0.6797    0.0000 C   0  0  0  0  0  0  0  0  0  0  0  0
   -0.5530   -0.4113    0.0000 C   0  0  0  0  0  0  0  0  0  0  0  0
   -0.0476    1.0010    0.0000 C   0  0  0  0  0  0  0  0  0  0  0  0
    1.4282    1.2695    0.0000 C   0  0  0  0  0  0  0  0  0  0  0  0
    2.3986    0.1256    0.0000 C   0  0  0  0  0  0  0  0  0  0  0  0
    1.8932   -1.2867    0.0000 C   0  0  0  0  0  0  0  0  0  0  0  0
    0.4174   -1.5551    0.0000 C   0  0  0  0  0  0  0  0  0  0  0  0
   -0.0880   -2.9674    0.0000 F   0  0  0  0  0  0  0  0  0  0  0  0
    3.8744    0.3941    0.0000 C   0  0  0  0  0  0  0  0  0  0  0  0
    5.3502    0.6625    0.0000 F   0  0  0  0  0  0  0  0  0  0  0  0
    4.1428   -1.0817    0.0000 F   0  0  0  0  0  0  0  0  0  0  0  0
    3.6059    1.8699    0.0000 F   0  0  0  0  0  0  0  0  0  0  0  0
   -4.4749    0.1957    0.0000 C   0  0  0  0  0  0  0  0  0  0  0  0
   -4.9803   -1.2166    0.0000 O   0  0  0  0  0  0  0  0  0  0  0  0
   -5.4453    1.3395    0.0000 O   0  0  0  0  0  0  0  0  0  0  0  0
  2  1  1  1
  2  3  1  0
  3  4  1  0
  4  5  1  0
  5  6  2  0
  6  7  1  0
  7  8  2  0
  8  9  1  0
  9 10  1  0
  7 11  1  0
 11 12  1  0
 11 13  1  0
 11 14  1  0
  2 15  1  0
 15 16  2  0
 15 17  1  0
  9  4  2  0
M  END
>  <rName>  (2801) 
Phe_2F_4CF3

>  <PQ_SYMBOL>  (2801) 
Phe_2F_4CF3

>  <FULL_NAME>  (2801) 
(S)-2-amino-3-(2-fluoro-4-(trifluoromethyl)phenyl)propanoic acid

>  <IUPAC_CONDENSED>  (2801) 
Phe(2-F,4-CF3)

>  <IUPAC>  (2801) 
(2S)-2-amino-3-(2-fluoro-4-(trifluoromethyl)phenyl)propanoic acid

>  <TYPE>  (2801) 
Backbone

>  <CLASS>  (2801) 
alpha

>  <ANALOG>  (2801) 
Phe

>  <MOL_WT>  (2801) 
251.17899999999992

>  <LOGP>  (2801) 
1.7989000000000002

>  <TPSA>  (2801) 
63.32000000000001

>  <POPULARITY>  (2801) 
5.0

>  <PROTECTED>  (2801) 
TRUE

>  <SMILES>  (2801) 
N[C@@H](Cc1(ccc(cc1F)C(F)(F)F))C(=O)O

>  <INCHIKEY>  (2801) 
OMTZLRBOGCVOEM-QMMMGPOBSA-N

$$$$
Phe_2F_4CO2H
     RDKit          2D

 16 16  0  0  0  0  0  0  0  0999 V2000
   -2.2742    1.8739    0.0000 N   0  0  0  0  0  0  0  0  0  0  0  0
   -2.7626    0.4557    0.0000 C   0  0  0  0  0  0  0  0  0  0  0  0
   -1.7786   -0.6765    0.0000 C   0  0  0  0  0  0  0  0  0  0  0  0
   -0.3062   -0.3903    0.0000 C   0  0  0  0  0  0  0  0  0  0  0  0
    0.1823    1.0279    0.0000 C   0  0  0  0  0  0  0  0  0  0  0  0
    1.6547    1.3140    0.0000 C   0  0  0  0  0  0  0  0  0  0  0  0
    2.6387    0.1819    0.0000 C   0  0  0  0  0  0  0  0  0  0  0  0
    2.1503   -1.2363    0.0000 C   0  0  0  0  0  0  0  0  0  0  0  0
    0.6779   -1.5225    0.0000 C   0  0  0  0  0  0  0  0  0  0  0  0
    0.1894   -2.9407    0.0000 F   0  0  0  0  0  0  0  0  0  0  0  0
    4.1112    0.4680    0.0000 C   0  0  0  0  0  0  0  0  0  0  0  0
    4.5996    1.8863    0.0000 O   0  0  0  0  0  0  0  0  0  0  0  0
    5.0952   -0.6641    0.0000 O   0  0  0  0  0  0  0  0  0  0  0  0
   -4.2351    0.1695    0.0000 C   0  0  0  0  0  0  0  0  0  0  0  0
   -4.7235   -1.2487    0.0000 O   0  0  0  0  0  0  0  0  0  0  0  0
   -5.2191    1.3017    0.0000 O   0  0  0  0  0  0  0  0  0  0  0  0
  2  1  1  1
  2  3  1  0
  3  4  1  0
  4  5  1  0
  5  6  2  0
  6  7  1  0
  7  8  2  0
  8  9  1  0
  9 10  1  0
  7 11  1  0
 11 12  2  0
 11 13  1  0
  2 14  1  0
 14 15  2  0
 14 16  1  0
  9  4  2  0
M  END
>  <rName>  (2802) 
Phe_2F_4CO2H

>  <PQ_SYMBOL>  (2802) 
Phe_2F_4CO2H

>  <FULL_NAME>  (2802) 
(S)-4-(2-amino-2-carboxyethyl)-3-fluorobenzoic acid

>  <IUPAC_CONDENSED>  (2802) 
Phe(2-F,4-CO2H)

>  <IUPAC>  (2802) 
4-((2S)-2-amino-3-hydroxy-3-oxopropyl)-3-fluorobenzene-1-carboxylic acid

>  <TYPE>  (2802) 
Backbone

>  <CLASS>  (2802) 
alpha

>  <ANALOG>  (2802) 
Phe

>  <MOL_WT>  (2802) 
227.19099999999995

>  <LOGP>  (2802) 
0.47829999999999984

>  <TPSA>  (2802) 
100.62000000000002

>  <POPULARITY>  (2802) 
2.7

>  <PROTECTED>  (2802) 
TRUE

>  <SMILES>  (2802) 
N[C@@H](Cc1(ccc(cc1F)C(=O)O))C(=O)O

>  <INCHIKEY>  (2802) 
QEFADKVSLNWCFL-QMMMGPOBSA-N

$$$$
Phe_2F_4Cl
     RDKit          2D

 14 14  0  0  0  0  0  0  0  0999 V2000
   -1.7174    1.8436    0.0000 N   0  0  0  0  0  0  0  0  0  0  0  0
   -2.1036    0.3942    0.0000 C   0  0  0  0  0  0  0  0  0  0  0  0
   -1.0414   -0.6650    0.0000 C   0  0  0  0  0  0  0  0  0  0  0  0
    0.4069   -0.2747    0.0000 C   0  0  0  0  0  0  0  0  0  0  0  0
    0.7931    1.1747    0.0000 C   0  0  0  0  0  0  0  0  0  0  0  0
    2.2415    1.5649    0.0000 C   0  0  0  0  0  0  0  0  0  0  0  0
    3.3036    0.5057    0.0000 C   0  0  0  0  0  0  0  0  0  0  0  0
    4.7520    0.8960    0.0000 Cl  0  0  0  0  0  0  0  0  0  0  0  0
    2.9174   -0.9437    0.0000 C   0  0  0  0  0  0  0  0  0  0  0  0
    1.4691   -1.3339    0.0000 C   0  0  0  0  0  0  0  0  0  0  0  0
    1.0829   -2.7834    0.0000 F   0  0  0  0  0  0  0  0  0  0  0  0
   -3.5519    0.0039    0.0000 C   0  0  0  0  0  0  0  0  0  0  0  0
   -3.9381   -1.4455    0.0000 O   0  0  0  0  0  0  0  0  0  0  0  0
   -4.6140    1.0631    0.0000 O   0  0  0  0  0  0  0  0  0  0  0  0
  2  1  1  1
  2  3  1  0
  3  4  1  0
  4  5  1  0
  5  6  2  0
  6  7  1  0
  7  8  1  0
  7  9  2  0
  9 10  1  0
 10 11  1  0
  2 12  1  0
 12 13  2  0
 12 14  1  0
 10  4  2  0
M  END
>  <rName>  (2803) 
Phe_2F_4Cl

>  <PQ_SYMBOL>  (2803) 
Phe_2F_4Cl

>  <FULL_NAME>  (2803) 
4-chloro-2-fluoro-L-phenylalanine

>  <IUPAC_CONDENSED>  (2803) 
Phe(2-F,4-Cl)

>  <IUPAC>  (2803) 
(2S)-2-amino-3-(4-chloro-2-fluorophenyl)propanoic acid

>  <TYPE>  (2803) 
Backbone

>  <CLASS>  (2803) 
alpha

>  <ANALOG>  (2803) 
Phe

>  <MOL_WT>  (2803) 
217.62699999999998

>  <LOGP>  (2803) 
1.4335000000000002

>  <TPSA>  (2803) 
63.32000000000001

>  <POPULARITY>  (2803) 
6.4

>  <PROTECTED>  (2803) 
TRUE

>  <SMILES>  (2803) 
N[C@@H](Cc1(ccc(Cl)cc1F))C(=O)O

>  <INCHIKEY>  (2803) 
ZPMGQOHZMMWUAT-QMMMGPOBSA-N

$$$$
Phe_2F_4Me
     RDKit          2D

 14 14  0  0  0  0  0  0  0  0999 V2000
   -1.7174    1.8436    0.0000 N   0  0  0  0  0  0  0  0  0  0  0  0
   -2.1036    0.3942    0.0000 C   0  0  0  0  0  0  0  0  0  0  0  0
   -1.0414   -0.6650    0.0000 C   0  0  0  0  0  0  0  0  0  0  0  0
    0.4069   -0.2747    0.0000 C   0  0  0  0  0  0  0  0  0  0  0  0
    0.7931    1.1747    0.0000 C   0  0  0  0  0  0  0  0  0  0  0  0
    2.2415    1.5649    0.0000 C   0  0  0  0  0  0  0  0  0  0  0  0
    3.3036    0.5057    0.0000 C   0  0  0  0  0  0  0  0  0  0  0  0
    4.7520    0.8960    0.0000 C   0  0  0  0  0  0  0  0  0  0  0  0
    2.9174   -0.9437    0.0000 C   0  0  0  0  0  0  0  0  0  0  0  0
    1.4691   -1.3339    0.0000 C   0  0  0  0  0  0  0  0  0  0  0  0
    1.0829   -2.7834    0.0000 F   0  0  0  0  0  0  0  0  0  0  0  0
   -3.5519    0.0039    0.0000 C   0  0  0  0  0  0  0  0  0  0  0  0
   -3.9381   -1.4455    0.0000 O   0  0  0  0  0  0  0  0  0  0  0  0
   -4.6140    1.0631    0.0000 O   0  0  0  0  0  0  0  0  0  0  0  0
  2  1  1  1
  2  3  1  0
  3  4  1  0
  4  5  1  0
  5  6  2  0
  6  7  1  0
  7  8  1  0
  7  9  2  0
  9 10  1  0
 10 11  1  0
  2 12  1  0
 12 13  2  0
 12 14  1  0
 10  4  2  0
M  END
>  <rName>  (2804) 
Phe_2F_4Me

>  <PQ_SYMBOL>  (2804) 
Phe_2F_4Me

>  <FULL_NAME>  (2804) 
(S)-2-amino-3-(2-fluoro-4-methylphenyl)propanoic acid

>  <IUPAC_CONDENSED>  (2804) 
Phe(2-F,4-Me)

>  <IUPAC>  (2804) 
(2S)-2-amino-3-(2-fluoro-4-methylphenyl)propanoic acid

>  <TYPE>  (2804) 
Backbone

>  <CLASS>  (2804) 
alpha

>  <ANALOG>  (2804) 
Phe

>  <MOL_WT>  (2804) 
197.20899999999995

>  <LOGP>  (2804) 
1.0885200000000002

>  <TPSA>  (2804) 
63.32000000000001

>  <POPULARITY>  (2804) 
6.2

>  <PROTECTED>  (2804) 
TRUE

>  <SMILES>  (2804) 
N[C@@H](Cc1(ccc(C)cc1F))C(=O)O

>  <INCHIKEY>  (2804) 
ZWMXOQFVRKESMD-VIFPVBQESA-N

$$$$
Phe_2F_4NH2_5CO2H
     RDKit          2D

 17 17  0  0  0  0  0  0  0  0999 V2000
    1.7999   -1.7667    0.0000 N   0  0  0  0  0  0  0  0  0  0  0  0
    2.5565   -0.4715    0.0000 C   0  0  0  0  0  0  0  0  0  0  0  0
    1.8131    0.8314    0.0000 C   0  0  0  0  0  0  0  0  0  0  0  0
    0.3131    0.8390    0.0000 C   0  0  0  0  0  0  0  0  0  0  0  0
   -0.4435   -0.4562    0.0000 C   0  0  0  0  0  0  0  0  0  0  0  0
   -1.9435   -0.4486    0.0000 C   0  0  0  0  0  0  0  0  0  0  0  0
   -2.7001   -1.7438    0.0000 C   0  0  0  0  0  0  0  0  0  0  0  0
   -1.9567   -3.0467    0.0000 O   0  0  0  0  0  0  0  0  0  0  0  0
   -4.2000   -1.7362    0.0000 O   0  0  0  0  0  0  0  0  0  0  0  0
   -2.6869    0.8542    0.0000 C   0  0  0  0  0  0  0  0  0  0  0  0
   -4.1869    0.8618    0.0000 N   0  0  0  0  0  0  0  0  0  0  0  0
   -1.9303    2.1494    0.0000 C   0  0  0  0  0  0  0  0  0  0  0  0
   -0.4303    2.1418    0.0000 C   0  0  0  0  0  0  0  0  0  0  0  0
    0.3263    3.4370    0.0000 F   0  0  0  0  0  0  0  0  0  0  0  0
    4.0564   -0.4791    0.0000 C   0  0  0  0  0  0  0  0  0  0  0  0
    4.8130    0.8161    0.0000 O   0  0  0  0  0  0  0  0  0  0  0  0
    4.7998   -1.7819    0.0000 O   0  0  0  0  0  0  0  0  0  0  0  0
  2  1  1  1
  2  3  1  0
  3  4  1  0
  4  5  1  0
  5  6  2  0
  6  7  1  0
  7  8  2  0
  7  9  1  0
  6 10  1  0
 10 11  1  0
 10 12  2  0
 12 13  1  0
 13 14  1  0
  2 15  1  0
 15 16  2  0
 15 17  1  0
 13  4  2  0
M  END
>  <rName>  (2805) 
Phe_2F_4NH2_5CO2H

>  <PQ_SYMBOL>  (2805) 
Phe_2F_4NH2_5CO2H

>  <FULL_NAME>  (2805) 
(S)-2-amino-5-(2-amino-2-carboxyethyl)-4-fluorobenzoic acid

>  <IUPAC_CONDENSED>  (2805) 
Phe(2-F,4-NH2,5-CO2H)

>  <IUPAC>  (2805) 
2-amino-5-((2S)-2-amino-3-hydroxy-3-oxopropyl)-4-fluorobenzene-1-carboxylic acid

>  <TYPE>  (2805) 
Backbone

>  <CLASS>  (2805) 
alpha

>  <ANALOG>  (2805) 
Phe

>  <MOL_WT>  (2805) 
242.20599999999996

>  <LOGP>  (2805) 
0.060499999999999554

>  <TPSA>  (2805) 
126.64

>  <POPULARITY>  (2805) 
2.2

>  <PROTECTED>  (2805) 
TRUE

>  <SMILES>  (2805) 
N[C@@H](Cc1(cc(C(=O)O)c(N)cc1F))C(=O)O

>  <INCHIKEY>  (2805) 
LPRGXYXPLDERHM-QMMMGPOBSA-N

$$$$
Phe_2F_4NH2_5Me
     RDKit          2D

 15 15  0  0  0  0  0  0  0  0999 V2000
   -1.7432    1.8004    0.0000 N   0  0  0  0  0  0  0  0  0  0  0  0
   -2.2534    0.3899    0.0000 C   0  0  0  0  0  0  0  0  0  0  0  0
   -1.2870   -0.7573    0.0000 C   0  0  0  0  0  0  0  0  0  0  0  0
    0.1897   -0.4940    0.0000 C   0  0  0  0  0  0  0  0  0  0  0  0
    0.7000    0.9165    0.0000 C   0  0  0  0  0  0  0  0  0  0  0  0
    2.1767    1.1799    0.0000 C   0  0  0  0  0  0  0  0  0  0  0  0
    2.6869    2.5904    0.0000 C   0  0  0  0  0  0  0  0  0  0  0  0
    3.1431    0.0327    0.0000 C   0  0  0  0  0  0  0  0  0  0  0  0
    4.6198    0.2961    0.0000 N   0  0  0  0  0  0  0  0  0  0  0  0
    2.6328   -1.3778    0.0000 C   0  0  0  0  0  0  0  0  0  0  0  0
    1.1561   -1.6412    0.0000 C   0  0  0  0  0  0  0  0  0  0  0  0
    0.6458   -3.0517    0.0000 F   0  0  0  0  0  0  0  0  0  0  0  0
   -3.7301    0.1265    0.0000 C   0  0  0  0  0  0  0  0  0  0  0  0
   -4.2404   -1.2840    0.0000 O   0  0  0  0  0  0  0  0  0  0  0  0
   -4.6966    1.2737    0.0000 O   0  0  0  0  0  0  0  0  0  0  0  0
  2  1  1  1
  2  3  1  0
  3  4  1  0
  4  5  1  0
  5  6  2  0
  6  7  1  0
  6  8  1  0
  8  9  1  0
  8 10  2  0
 10 11  1  0
 11 12  1  0
  2 13  1  0
 13 14  2  0
 13 15  1  0
 11  4  2  0
M  END
>  <rName>  (2806) 
Phe_2F_4NH2_5Me

>  <PQ_SYMBOL>  (2806) 
Phe_2F_4NH2_5Me

>  <FULL_NAME>  (2806) 
(S)-2-amino-3-(4-amino-2-fluoro-5-methylphenyl)propanoic acid

>  <IUPAC_CONDENSED>  (2806) 
Phe(2-F,4-NH2,5-Me)

>  <IUPAC>  (2806) 
(2S)-2-amino-3-(4-amino-2-fluoro-5-methylphenyl)propanoic acid

>  <TYPE>  (2806) 
Backbone

>  <CLASS>  (2806) 
alpha

>  <ANALOG>  (2806) 
Phe

>  <MOL_WT>  (2806) 
212.224

>  <LOGP>  (2806) 
0.6707199999999998

>  <TPSA>  (2806) 
89.34

>  <POPULARITY>  (2806) 
2.6

>  <PROTECTED>  (2806) 
TRUE

>  <SMILES>  (2806) 
N[C@@H](Cc1(cc(C)c(N)cc1F))C(=O)O

>  <INCHIKEY>  (2806) 
GRVRWBSYSPQCLZ-VIFPVBQESA-N

$$$$
Phe_2F_4OMe
     RDKit          2D

 15 15  0  0  0  0  0  0  0  0999 V2000
   -2.1188    1.8386    0.0000 N   0  0  0  0  0  0  0  0  0  0  0  0
   -2.4941    0.3864    0.0000 C   0  0  0  0  0  0  0  0  0  0  0  0
   -1.4241   -0.6648    0.0000 C   0  0  0  0  0  0  0  0  0  0  0  0
    0.0213   -0.2637    0.0000 C   0  0  0  0  0  0  0  0  0  0  0  0
    0.3966    1.1886    0.0000 C   0  0  0  0  0  0  0  0  0  0  0  0
    1.8420    1.5897    0.0000 C   0  0  0  0  0  0  0  0  0  0  0  0
    2.9120    0.5385    0.0000 C   0  0  0  0  0  0  0  0  0  0  0  0
    4.3574    0.9396    0.0000 O   0  0  0  0  0  0  0  0  0  0  0  0
    5.4275   -0.1116    0.0000 C   0  0  0  0  0  0  0  0  0  0  0  0
    2.5367   -0.9138    0.0000 C   0  0  0  0  0  0  0  0  0  0  0  0
    1.0914   -1.3149    0.0000 C   0  0  0  0  0  0  0  0  0  0  0  0
    0.7160   -2.7672    0.0000 F   0  0  0  0  0  0  0  0  0  0  0  0
   -3.9395   -0.0148    0.0000 C   0  0  0  0  0  0  0  0  0  0  0  0
   -4.3148   -1.4670    0.0000 O   0  0  0  0  0  0  0  0  0  0  0  0
   -5.0096    1.0364    0.0000 O   0  0  0  0  0  0  0  0  0  0  0  0
  2  1  1  1
  2  3  1  0
  3  4  1  0
  4  5  1  0
  5  6  2  0
  6  7  1  0
  7  8  1  0
  8  9  1  0
  7 10  2  0
 10 11  1  0
 11 12  1  0
  2 13  1  0
 13 14  2  0
 13 15  1  0
 11  4  2  0
M  END
>  <rName>  (2807) 
Phe_2F_4OMe

>  <PQ_SYMBOL>  (2807) 
Phe_2F_4OMe

>  <FULL_NAME>  (2807) 
Tyrosine, 2-fluoro-O-methyl-

>  <IUPAC_CONDENSED>  (2807) 
Phe(2-F,4-OMe)

>  <IUPAC>  (2807) 
(2S)-2-amino-3-(2-fluoro-4-methoxyphenyl)propanoic acid

>  <TYPE>  (2807) 
Backbone

>  <CLASS>  (2807) 
alpha

>  <ANALOG>  (2807) 
Tyr

>  <MOL_WT>  (2807) 
213.20799999999997

>  <LOGP>  (2807) 
0.7887000000000002

>  <TPSA>  (2807) 
72.55

>  <POPULARITY>  (2807) 
2.2

>  <PROTECTED>  (2807) 
TRUE

>  <SMILES>  (2807) 
N[C@@H](Cc1(ccc(OC)cc1F))C(=O)O

>  <INCHIKEY>  (2807) 
WPRRDCRYBYGCQS-VIFPVBQESA-N

$$$$
Phe_2F_5Br
     RDKit          2D

 14 14  0  0  0  0  0  0  0  0999 V2000
   -1.4552    1.7882    0.0000 N   0  0  0  0  0  0  0  0  0  0  0  0
   -1.9325    0.3661    0.0000 C   0  0  0  0  0  0  0  0  0  0  0  0
   -0.9397   -0.7583    0.0000 C   0  0  0  0  0  0  0  0  0  0  0  0
    0.5305   -0.4606    0.0000 C   0  0  0  0  0  0  0  0  0  0  0  0
    1.0078    0.9614    0.0000 C   0  0  0  0  0  0  0  0  0  0  0  0
    2.4780    1.2591    0.0000 C   0  0  0  0  0  0  0  0  0  0  0  0
    2.9553    2.6811    0.0000 Br  0  0  0  0  0  0  0  0  0  0  0  0
    3.4709    0.1347    0.0000 C   0  0  0  0  0  0  0  0  0  0  0  0
    2.9935   -1.2874    0.0000 C   0  0  0  0  0  0  0  0  0  0  0  0
    1.5234   -1.5850    0.0000 C   0  0  0  0  0  0  0  0  0  0  0  0
    1.0461   -3.0070    0.0000 F   0  0  0  0  0  0  0  0  0  0  0  0
   -3.4027    0.0685    0.0000 C   0  0  0  0  0  0  0  0  0  0  0  0
   -3.8800   -1.3536    0.0000 O   0  0  0  0  0  0  0  0  0  0  0  0
   -4.3955    1.1929    0.0000 O   0  0  0  0  0  0  0  0  0  0  0  0
  2  1  1  1
  2  3  1  0
  3  4  1  0
  4  5  1  0
  5  6  2  0
  6  7  1  0
  6  8  1  0
  8  9  2  0
  9 10  1  0
 10 11  1  0
  2 12  1  0
 12 13  2  0
 12 14  1  0
 10  4  2  0
M  END
>  <rName>  (2808) 
Phe_2F_5Br

>  <PQ_SYMBOL>  (2808) 
Phe_2F_5Br

>  <FULL_NAME>  (2808) 
(S)-2-amino-3-(5-bromo-2-fluorophenyl)propanoic acid

>  <IUPAC_CONDENSED>  (2808) 
Phe(2-F,5-Br)

>  <IUPAC>  (2808) 
(2S)-2-amino-3-(5-bromo-2-fluorophenyl)propanoic acid

>  <TYPE>  (2808) 
Backbone

>  <CLASS>  (2808) 
alpha

>  <ANALOG>  (2808) 
Phe

>  <MOL_WT>  (2808) 
262.078

>  <LOGP>  (2808) 
1.5426000000000002

>  <TPSA>  (2808) 
63.32000000000001

>  <POPULARITY>  (2808) 
4.3

>  <PROTECTED>  (2808) 
TRUE

>  <SMILES>  (2808) 
N[C@@H](Cc1(cc(Br)ccc1F))C(=O)O

>  <INCHIKEY>  (2808) 
BYTRLZMUWHKJRH-QMMMGPOBSA-N

$$$$
Phe_2F_5CO2H
     RDKit          2D

 16 16  0  0  0  0  0  0  0  0999 V2000
    1.4458   -1.7915    0.0000 N   0  0  0  0  0  0  0  0  0  0  0  0
    2.2696   -0.5380    0.0000 C   0  0  0  0  0  0  0  0  0  0  0  0
    1.5959    0.8022    0.0000 C   0  0  0  0  0  0  0  0  0  0  0  0
    0.0984    0.8889    0.0000 C   0  0  0  0  0  0  0  0  0  0  0  0
   -0.7254   -0.3646    0.0000 C   0  0  0  0  0  0  0  0  0  0  0  0
   -2.2229   -0.2780    0.0000 C   0  0  0  0  0  0  0  0  0  0  0  0
   -2.8966    1.0622    0.0000 C   0  0  0  0  0  0  0  0  0  0  0  0
   -2.0728    2.3158    0.0000 C   0  0  0  0  0  0  0  0  0  0  0  0
   -0.5753    2.2291    0.0000 C   0  0  0  0  0  0  0  0  0  0  0  0
    0.2485    3.4826    0.0000 F   0  0  0  0  0  0  0  0  0  0  0  0
   -3.0467   -1.5315    0.0000 C   0  0  0  0  0  0  0  0  0  0  0  0
   -2.3730   -2.8717    0.0000 O   0  0  0  0  0  0  0  0  0  0  0  0
   -4.5442   -1.4448    0.0000 O   0  0  0  0  0  0  0  0  0  0  0  0
    3.7671   -0.6247    0.0000 C   0  0  0  0  0  0  0  0  0  0  0  0
    4.5909    0.6289    0.0000 O   0  0  0  0  0  0  0  0  0  0  0  0
    4.4408   -1.9649    0.0000 O   0  0  0  0  0  0  0  0  0  0  0  0
  2  1  1  1
  2  3  1  0
  3  4  1  0
  4  5  1  0
  5  6  2  0
  6  7  1  0
  7  8  2  0
  8  9  1  0
  9 10  1  0
  6 11  1  0
 11 12  2  0
 11 13  1  0
  2 14  1  0
 14 15  2  0
 14 16  1  0
  9  4  2  0
M  END
>  <rName>  (2809) 
Phe_2F_5CO2H

>  <PQ_SYMBOL>  (2809) 
Phe_2F_5CO2H

>  <FULL_NAME>  (2809) 
(S)-3-(2-amino-2-carboxyethyl)-4-fluorobenzoic acid

>  <IUPAC_CONDENSED>  (2809) 
Phe(2-F,5-CO2H)

>  <IUPAC>  (2809) 
3-((2S)-2-amino-3-hydroxy-3-oxopropyl)-4-fluorobenzene-1-carboxylic acid

>  <TYPE>  (2809) 
Backbone

>  <CLASS>  (2809) 
alpha

>  <ANALOG>  (2809) 
Phe

>  <MOL_WT>  (2809) 
227.19099999999995

>  <LOGP>  (2809) 
0.47829999999999984

>  <TPSA>  (2809) 
100.62000000000002

>  <POPULARITY>  (2809) 
2.5

>  <PROTECTED>  (2809) 
TRUE

>  <SMILES>  (2809) 
N[C@@H](Cc1(cc(ccc1F)C(=O)O))C(=O)O

>  <INCHIKEY>  (2809) 
HWKPJLCCMDGWIR-QMMMGPOBSA-N

$$$$
Phe_2F_5Cl
     RDKit          2D

 14 14  0  0  0  0  0  0  0  0999 V2000
   -1.4552    1.7882    0.0000 N   0  0  0  0  0  0  0  0  0  0  0  0
   -1.9325    0.3661    0.0000 C   0  0  0  0  0  0  0  0  0  0  0  0
   -0.9397   -0.7583    0.0000 C   0  0  0  0  0  0  0  0  0  0  0  0
    0.5305   -0.4606    0.0000 C   0  0  0  0  0  0  0  0  0  0  0  0
    1.0078    0.9614    0.0000 C   0  0  0  0  0  0  0  0  0  0  0  0
    2.4780    1.2591    0.0000 C   0  0  0  0  0  0  0  0  0  0  0  0
    2.9553    2.6811    0.0000 Cl  0  0  0  0  0  0  0  0  0  0  0  0
    3.4709    0.1347    0.0000 C   0  0  0  0  0  0  0  0  0  0  0  0
    2.9935   -1.2874    0.0000 C   0  0  0  0  0  0  0  0  0  0  0  0
    1.5234   -1.5850    0.0000 C   0  0  0  0  0  0  0  0  0  0  0  0
    1.0461   -3.0070    0.0000 F   0  0  0  0  0  0  0  0  0  0  0  0
   -3.4027    0.0685    0.0000 C   0  0  0  0  0  0  0  0  0  0  0  0
   -3.8800   -1.3536    0.0000 O   0  0  0  0  0  0  0  0  0  0  0  0
   -4.3955    1.1929    0.0000 O   0  0  0  0  0  0  0  0  0  0  0  0
  2  1  1  1
  2  3  1  0
  3  4  1  0
  4  5  1  0
  5  6  2  0
  6  7  1  0
  6  8  1  0
  8  9  2  0
  9 10  1  0
 10 11  1  0
  2 12  1  0
 12 13  2  0
 12 14  1  0
 10  4  2  0
M  END
>  <rName>  (2810) 
Phe_2F_5Cl

>  <PQ_SYMBOL>  (2810) 
Phe_2F_5Cl

>  <FULL_NAME>  (2810) 
(S)-2-amino-3-(5-chloro-2-fluorophenyl)propanoic acid

>  <IUPAC_CONDENSED>  (2810) 
Phe(2-F,5-Cl)

>  <IUPAC>  (2810) 
(2S)-2-amino-3-(5-chloro-2-fluorophenyl)propanoic acid

>  <TYPE>  (2810) 
Backbone

>  <CLASS>  (2810) 
alpha

>  <ANALOG>  (2810) 
Phe

>  <MOL_WT>  (2810) 
217.62699999999998

>  <LOGP>  (2810) 
1.4335

>  <TPSA>  (2810) 
63.32000000000001

>  <POPULARITY>  (2810) 
4.8

>  <PROTECTED>  (2810) 
TRUE

>  <SMILES>  (2810) 
N[C@@H](Cc1(cc(Cl)ccc1F))C(=O)O

>  <INCHIKEY>  (2810) 
FXDFUITYRFFOBD-QMMMGPOBSA-N

$$$$
Phe_2F_5For
     RDKit          2D

 15 15  0  0  0  0  0  0  0  0999 V2000
   -1.4698    1.8520    0.0000 N   0  0  0  0  0  0  0  0  0  0  0  0
   -2.1710    0.5260    0.0000 C   0  0  0  0  0  0  0  0  0  0  0  0
   -1.3733   -0.7443    0.0000 C   0  0  0  0  0  0  0  0  0  0  0  0
    0.1257   -0.6886    0.0000 C   0  0  0  0  0  0  0  0  0  0  0  0
    0.8269    0.6374    0.0000 C   0  0  0  0  0  0  0  0  0  0  0  0
    2.3259    0.6931    0.0000 C   0  0  0  0  0  0  0  0  0  0  0  0
    3.0271    2.0191    0.0000 C   0  0  0  0  0  0  0  0  0  0  0  0
    4.5261    2.0748    0.0000 O   0  0  0  0  0  0  0  0  0  0  0  0
    3.1236   -0.5772    0.0000 C   0  0  0  0  0  0  0  0  0  0  0  0
    2.4223   -1.9032    0.0000 C   0  0  0  0  0  0  0  0  0  0  0  0
    0.9234   -1.9589    0.0000 C   0  0  0  0  0  0  0  0  0  0  0  0
    0.2221   -3.2849    0.0000 F   0  0  0  0  0  0  0  0  0  0  0  0
   -3.6700    0.4703    0.0000 C   0  0  0  0  0  0  0  0  0  0  0  0
   -4.3712   -0.8557    0.0000 O   0  0  0  0  0  0  0  0  0  0  0  0
   -4.4677    1.7405    0.0000 O   0  0  0  0  0  0  0  0  0  0  0  0
  2  1  1  1
  2  3  1  0
  3  4  1  0
  4  5  1  0
  5  6  2  0
  6  7  1  0
  7  8  2  0
  6  9  1  0
  9 10  2  0
 10 11  1  0
 11 12  1  0
  2 13  1  0
 13 14  2  0
 13 15  1  0
 11  4  2  0
M  END
>  <rName>  (2811) 
Phe_2F_5For

>  <PQ_SYMBOL>  (2811) 
Phe_2F_5For

>  <FULL_NAME>  (2811) 
(S)-2-amino-3-(2-fluoro-5-formylphenyl)propanoic acid

>  <IUPAC_CONDENSED>  (2811) 
Phe(2-F,5-For)

>  <IUPAC>  (2811) 
(2S)-2-amino-3-(2-fluoro-5-(formyl)phenyl)propanoic acid

>  <TYPE>  (2811) 
Backbone

>  <CLASS>  (2811) 
alpha

>  <ANALOG>  (2811) 
Phe

>  <MOL_WT>  (2811) 
211.19199999999995

>  <LOGP>  (2811) 
0.5926000000000002

>  <TPSA>  (2811) 
80.39

>  <POPULARITY>  (2811) 
2.8

>  <PROTECTED>  (2811) 
TRUE

>  <SMILES>  (2811) 
N[C@@H](Cc1(cc(C=O)ccc1F))C(=O)O

>  <INCHIKEY>  (2811) 
WBDCEWJZNXPJES-VIFPVBQESA-N

$$$$
Phe_2F_5I
     RDKit          2D

 14 14  0  0  0  0  0  0  0  0999 V2000
   -1.4552    1.7882    0.0000 N   0  0  0  0  0  0  0  0  0  0  0  0
   -1.9325    0.3661    0.0000 C   0  0  0  0  0  0  0  0  0  0  0  0
   -0.9397   -0.7583    0.0000 C   0  0  0  0  0  0  0  0  0  0  0  0
    0.5305   -0.4606    0.0000 C   0  0  0  0  0  0  0  0  0  0  0  0
    1.0078    0.9614    0.0000 C   0  0  0  0  0  0  0  0  0  0  0  0
    2.4780    1.2591    0.0000 C   0  0  0  0  0  0  0  0  0  0  0  0
    2.9553    2.6811    0.0000 I   0  0  0  0  0  0  0  0  0  0  0  0
    3.4709    0.1347    0.0000 C   0  0  0  0  0  0  0  0  0  0  0  0
    2.9935   -1.2874    0.0000 C   0  0  0  0  0  0  0  0  0  0  0  0
    1.5234   -1.5850    0.0000 C   0  0  0  0  0  0  0  0  0  0  0  0
    1.0461   -3.0070    0.0000 F   0  0  0  0  0  0  0  0  0  0  0  0
   -3.4027    0.0685    0.0000 C   0  0  0  0  0  0  0  0  0  0  0  0
   -3.8800   -1.3536    0.0000 O   0  0  0  0  0  0  0  0  0  0  0  0
   -4.3955    1.1929    0.0000 O   0  0  0  0  0  0  0  0  0  0  0  0
  2  1  1  1
  2  3  1  0
  3  4  1  0
  4  5  1  0
  5  6  2  0
  6  7  1  0
  6  8  1  0
  8  9  2  0
  9 10  1  0
 10 11  1  0
  2 12  1  0
 12 13  2  0
 12 14  1  0
 10  4  2  0
M  END
>  <rName>  (2812) 
Phe_2F_5I

>  <PQ_SYMBOL>  (2812) 
Phe_2F_5I

>  <FULL_NAME>  (2812) 
(2S)-2-amino-3-(2-fluoro-5-iodophenyl)propanoic acid

>  <IUPAC_CONDENSED>  (2812) 
Phe(2-F,5-I)

>  <IUPAC>  (2812) 
(2S)-2-amino-3-(2-fluoro-5-iodophenyl)propanoic acid

>  <TYPE>  (2812) 
Backbone

>  <CLASS>  (2812) 
alpha

>  <ANALOG>  (2812) 
Phe

>  <MOL_WT>  (2812) 
309.07800000000003

>  <LOGP>  (2812) 
1.3847

>  <TPSA>  (2812) 
63.32000000000001

>  <POPULARITY>  (2812) 
2.2

>  <PROTECTED>  (2812) 
TRUE

>  <SMILES>  (2812) 
N[C@@H](Cc1(cc(I)ccc1F))C(=O)O

>  <INCHIKEY>  (2812) 
MUNHFAOBDUZZAD-QMMMGPOBSA-N

$$$$
Phe_2F_5Me
     RDKit          2D

 14 14  0  0  0  0  0  0  0  0999 V2000
   -1.4552    1.7882    0.0000 N   0  0  0  0  0  0  0  0  0  0  0  0
   -1.9325    0.3661    0.0000 C   0  0  0  0  0  0  0  0  0  0  0  0
   -0.9397   -0.7583    0.0000 C   0  0  0  0  0  0  0  0  0  0  0  0
    0.5305   -0.4606    0.0000 C   0  0  0  0  0  0  0  0  0  0  0  0
    1.0078    0.9614    0.0000 C   0  0  0  0  0  0  0  0  0  0  0  0
    2.4780    1.2591    0.0000 C   0  0  0  0  0  0  0  0  0  0  0  0
    2.9553    2.6811    0.0000 C   0  0  0  0  0  0  0  0  0  0  0  0
    3.4709    0.1347    0.0000 C   0  0  0  0  0  0  0  0  0  0  0  0
    2.9935   -1.2874    0.0000 C   0  0  0  0  0  0  0  0  0  0  0  0
    1.5234   -1.5850    0.0000 C   0  0  0  0  0  0  0  0  0  0  0  0
    1.0461   -3.0070    0.0000 F   0  0  0  0  0  0  0  0  0  0  0  0
   -3.4027    0.0685    0.0000 C   0  0  0  0  0  0  0  0  0  0  0  0
   -3.8800   -1.3536    0.0000 O   0  0  0  0  0  0  0  0  0  0  0  0
   -4.3955    1.1929    0.0000 O   0  0  0  0  0  0  0  0  0  0  0  0
  2  1  1  1
  2  3  1  0
  3  4  1  0
  4  5  1  0
  5  6  2  0
  6  7  1  0
  6  8  1  0
  8  9  2  0
  9 10  1  0
 10 11  1  0
  2 12  1  0
 12 13  2  0
 12 14  1  0
 10  4  2  0
M  END
>  <rName>  (2813) 
Phe_2F_5Me

>  <PQ_SYMBOL>  (2813) 
Phe_2F_5Me

>  <FULL_NAME>  (2813) 
2-Fluoro-5-methyl-L-phenylalanine

>  <IUPAC_CONDENSED>  (2813) 
Phe(2-F,5-Me)

>  <IUPAC>  (2813) 
(2S)-2-amino-3-(2-fluoro-5-methylphenyl)propanoic acid

>  <TYPE>  (2813) 
Backbone

>  <CLASS>  (2813) 
alpha

>  <ANALOG>  (2813) 
Phe

>  <MOL_WT>  (2813) 
197.20899999999995

>  <LOGP>  (2813) 
1.0885200000000002

>  <TPSA>  (2813) 
63.32000000000001

>  <POPULARITY>  (2813) 
2.2

>  <PROTECTED>  (2813) 
TRUE

>  <SMILES>  (2813) 
N[C@@H](Cc1(cc(C)ccc1F))C(=O)O

>  <INCHIKEY>  (2813) 
MRFDPLGHSYYFHU-VIFPVBQESA-N

$$$$
Phe_2F_5OH
     RDKit          2D

 14 14  0  0  0  0  0  0  0  0999 V2000
   -1.4552    1.7882    0.0000 N   0  0  0  0  0  0  0  0  0  0  0  0
   -1.9325    0.3661    0.0000 C   0  0  0  0  0  0  0  0  0  0  0  0
   -0.9397   -0.7583    0.0000 C   0  0  0  0  0  0  0  0  0  0  0  0
    0.5305   -0.4606    0.0000 C   0  0  0  0  0  0  0  0  0  0  0  0
    1.0078    0.9614    0.0000 C   0  0  0  0  0  0  0  0  0  0  0  0
    2.4780    1.2591    0.0000 C   0  0  0  0  0  0  0  0  0  0  0  0
    2.9553    2.6811    0.0000 O   0  0  0  0  0  0  0  0  0  0  0  0
    3.4709    0.1347    0.0000 C   0  0  0  0  0  0  0  0  0  0  0  0
    2.9935   -1.2874    0.0000 C   0  0  0  0  0  0  0  0  0  0  0  0
    1.5234   -1.5850    0.0000 C   0  0  0  0  0  0  0  0  0  0  0  0
    1.0461   -3.0070    0.0000 F   0  0  0  0  0  0  0  0  0  0  0  0
   -3.4027    0.0685    0.0000 C   0  0  0  0  0  0  0  0  0  0  0  0
   -3.8800   -1.3536    0.0000 O   0  0  0  0  0  0  0  0  0  0  0  0
   -4.3955    1.1929    0.0000 O   0  0  0  0  0  0  0  0  0  0  0  0
  2  1  1  1
  2  3  1  0
  3  4  1  0
  4  5  1  0
  5  6  2  0
  6  7  1  0
  6  8  1  0
  8  9  2  0
  9 10  1  0
 10 11  1  0
  2 12  1  0
 12 13  2  0
 12 14  1  0
 10  4  2  0
M  END
>  <rName>  (2814) 
Phe_2F_5OH

>  <PQ_SYMBOL>  (2814) 
Phe_2F_5OH

>  <FULL_NAME>  (2814) 
6-Fluoro-3-tyrosine

>  <IUPAC_CONDENSED>  (2814) 
Phe(2-F,5-OH)

>  <IUPAC>  (2814) 
(2S)-2-amino-3-(2-fluoro-5-hydroxyphenyl)propanoic acid

>  <TYPE>  (2814) 
Backbone

>  <CLASS>  (2814) 
alpha

>  <ANALOG>  (2814) 
Tyr

>  <MOL_WT>  (2814) 
199.18099999999995

>  <LOGP>  (2814) 
0.48570000000000013

>  <TPSA>  (2814) 
83.55

>  <POPULARITY>  (2814) 
2.2

>  <PROTECTED>  (2814) 
TRUE

>  <SMILES>  (2814) 
N[C@@H](Cc1(cc(O)ccc1F))C(=O)O

>  <INCHIKEY>  (2814) 
YTYMWTLCTJSNDC-QMMMGPOBSA-N

$$$$
Phe_2F_5OMe
     RDKit          2D

 15 15  0  0  0  0  0  0  0  0999 V2000
   -1.4698    1.8520    0.0000 N   0  0  0  0  0  0  0  0  0  0  0  0
   -2.1710    0.5260    0.0000 C   0  0  0  0  0  0  0  0  0  0  0  0
   -1.3733   -0.7443    0.0000 C   0  0  0  0  0  0  0  0  0  0  0  0
    0.1257   -0.6886    0.0000 C   0  0  0  0  0  0  0  0  0  0  0  0
    0.8269    0.6374    0.0000 C   0  0  0  0  0  0  0  0  0  0  0  0
    2.3259    0.6931    0.0000 C   0  0  0  0  0  0  0  0  0  0  0  0
    3.0271    2.0191    0.0000 O   0  0  0  0  0  0  0  0  0  0  0  0
    4.5261    2.0748    0.0000 C   0  0  0  0  0  0  0  0  0  0  0  0
    3.1236   -0.5772    0.0000 C   0  0  0  0  0  0  0  0  0  0  0  0
    2.4223   -1.9032    0.0000 C   0  0  0  0  0  0  0  0  0  0  0  0
    0.9234   -1.9589    0.0000 C   0  0  0  0  0  0  0  0  0  0  0  0
    0.2221   -3.2849    0.0000 F   0  0  0  0  0  0  0  0  0  0  0  0
   -3.6700    0.4703    0.0000 C   0  0  0  0  0  0  0  0  0  0  0  0
   -4.3712   -0.8557    0.0000 O   0  0  0  0  0  0  0  0  0  0  0  0
   -4.4677    1.7405    0.0000 O   0  0  0  0  0  0  0  0  0  0  0  0
  2  1  1  1
  2  3  1  0
  3  4  1  0
  4  5  1  0
  5  6  2  0
  6  7  1  0
  7  8  1  0
  6  9  1  0
  9 10  2  0
 10 11  1  0
 11 12  1  0
  2 13  1  0
 13 14  2  0
 13 15  1  0
 11  4  2  0
M  END
>  <rName>  (2815) 
Phe_2F_5OMe

>  <PQ_SYMBOL>  (2815) 
Phe_2F_5OMe

>  <FULL_NAME>  (2815) 
(S)-2-Amino-3-(2-fluoro-5-methoxyphenyl)propanoic acid

>  <IUPAC_CONDENSED>  (2815) 
Phe(2-F,5-OMe)

>  <IUPAC>  (2815) 
(2S)-2-amino-3-(2-fluoro-5-methoxyphenyl)propanoic acid

>  <TYPE>  (2815) 
Backbone

>  <CLASS>  (2815) 
alpha

>  <ANALOG>  (2815) 
Tyr

>  <MOL_WT>  (2815) 
213.20799999999997

>  <LOGP>  (2815) 
0.7887000000000002

>  <TPSA>  (2815) 
72.55

>  <POPULARITY>  (2815) 
2.2

>  <PROTECTED>  (2815) 
TRUE

>  <SMILES>  (2815) 
N[C@@H](Cc1(cc(OC)ccc1F))C(=O)O

>  <INCHIKEY>  (2815) 
NSVKCUZIZFGPFX-VIFPVBQESA-N

$$$$
Phe_2F_6Br
     RDKit          2D

 14 14  0  0  0  0  0  0  0  0999 V2000
   -1.4856    1.6416    0.0000 N   0  0  0  0  0  0  0  0  0  0  0  0
   -1.7624    0.1673    0.0000 C   0  0  0  0  0  0  0  0  0  0  0  0
   -0.6240   -0.8095    0.0000 C   0  0  0  0  0  0  0  0  0  0  0  0
    0.7911   -0.3120    0.0000 C   0  0  0  0  0  0  0  0  0  0  0  0
    1.0678    1.1622    0.0000 C   0  0  0  0  0  0  0  0  0  0  0  0
   -0.0705    2.1390    0.0000 F   0  0  0  0  0  0  0  0  0  0  0  0
    2.4830    1.6597    0.0000 C   0  0  0  0  0  0  0  0  0  0  0  0
    3.6213    0.6829    0.0000 C   0  0  0  0  0  0  0  0  0  0  0  0
    3.3446   -0.7913    0.0000 C   0  0  0  0  0  0  0  0  0  0  0  0
    1.9295   -1.2888    0.0000 C   0  0  0  0  0  0  0  0  0  0  0  0
    1.6527   -2.7631    0.0000 Br  0  0  0  0  0  0  0  0  0  0  0  0
   -3.1775   -0.3302    0.0000 C   0  0  0  0  0  0  0  0  0  0  0  0
   -3.4542   -1.8044    0.0000 O   0  0  0  0  0  0  0  0  0  0  0  0
   -4.3158    0.6466    0.0000 O   0  0  0  0  0  0  0  0  0  0  0  0
  2  1  1  1
  2  3  1  0
  3  4  1  0
  4  5  2  0
  5  6  1  0
  5  7  1  0
  7  8  2  0
  8  9  1  0
  9 10  2  0
 10 11  1  0
  2 12  1  0
 12 13  2  0
 12 14  1  0
 10  4  1  0
M  END
>  <rName>  (2816) 
Phe_2F_6Br

>  <PQ_SYMBOL>  (2816) 
Phe_2F_6Br

>  <FULL_NAME>  (2816) 
2-bromo-6-fluoro-L-phenylalanine

>  <IUPAC_CONDENSED>  (2816) 
Phe(2-F,6-Br)

>  <IUPAC>  (2816) 
(2S)-2-amino-3-(2-bromo-6-fluorophenyl)propanoic acid

>  <TYPE>  (2816) 
Backbone

>  <CLASS>  (2816) 
alpha

>  <ANALOG>  (2816) 
Phe

>  <MOL_WT>  (2816) 
262.078

>  <LOGP>  (2816) 
1.5426000000000002

>  <TPSA>  (2816) 
63.32000000000001

>  <POPULARITY>  (2816) 
3.1

>  <PROTECTED>  (2816) 
TRUE

>  <SMILES>  (2816) 
N[C@@H](Cc1(c(F)cccc1Br))C(=O)O

>  <INCHIKEY>  (2816) 
DSZBSCMILBEQGW-QMMMGPOBSA-N

$$$$
Phe_2F_6CN
     RDKit          2D

 15 15  0  0  0  0  0  0  0  0999 V2000
   -1.7997    1.7178    0.0000 N   0  0  0  0  0  0  0  0  0  0  0  0
   -1.8951    0.2209    0.0000 C   0  0  0  0  0  0  0  0  0  0  0  0
   -0.6463   -0.6102    0.0000 C   0  0  0  0  0  0  0  0  0  0  0  0
    0.6978    0.0558    0.0000 C   0  0  0  0  0  0  0  0  0  0  0  0
    0.7931    1.5527    0.0000 C   0  0  0  0  0  0  0  0  0  0  0  0
   -0.4557    2.3838    0.0000 F   0  0  0  0  0  0  0  0  0  0  0  0
    2.1372    2.2187    0.0000 C   0  0  0  0  0  0  0  0  0  0  0  0
    3.3859    1.3876    0.0000 C   0  0  0  0  0  0  0  0  0  0  0  0
    3.2906   -0.1093    0.0000 C   0  0  0  0  0  0  0  0  0  0  0  0
    1.9465   -0.7753    0.0000 C   0  0  0  0  0  0  0  0  0  0  0  0
    1.8512   -2.2722    0.0000 C   0  0  0  0  0  0  0  0  0  0  0  0
    1.7559   -3.7692    0.0000 N   0  0  0  0  0  0  0  0  0  0  0  0
   -3.2391   -0.4451    0.0000 C   0  0  0  0  0  0  0  0  0  0  0  0
   -3.3344   -1.9420    0.0000 O   0  0  0  0  0  0  0  0  0  0  0  0
   -4.4879    0.3860    0.0000 O   0  0  0  0  0  0  0  0  0  0  0  0
  2  1  1  1
  2  3  1  0
  3  4  1  0
  4  5  2  0
  5  6  1  0
  5  7  1  0
  7  8  2  0
  8  9  1  0
  9 10  2  0
 10 11  1  0
 11 12  3  0
  2 13  1  0
 13 14  2  0
 13 15  1  0
 10  4  1  0
M  END
>  <rName>  (2817) 
Phe_2F_6CN

>  <PQ_SYMBOL>  (2817) 
Phe_2F_6CN

>  <FULL_NAME>  (2817) 
(S)-2-amino-3-(2-cyano-6-fluorophenyl)propanoic acid

>  <IUPAC_CONDENSED>  (2817) 
Phe(2-F,6-CN)

>  <IUPAC>  (2817) 
(2S)-2-amino-3-(2-fluoro-6-(nitrilomethyl)phenyl)propanoic acid

>  <TYPE>  (2817) 
Backbone

>  <CLASS>  (2817) 
alpha

>  <ANALOG>  (2817) 
Phe

>  <MOL_WT>  (2817) 
208.19199999999998

>  <LOGP>  (2817) 
0.65178

>  <TPSA>  (2817) 
87.11

>  <POPULARITY>  (2817) 
2.8

>  <PROTECTED>  (2817) 
TRUE

>  <SMILES>  (2817) 
N[C@@H](Cc1(c(F)cccc1C#N))C(=O)O

>  <INCHIKEY>  (2817) 
DNFPBPXJCMUWFH-VIFPVBQESA-N

$$$$
Phe_2F_6CO2H
     RDKit          2D

 16 16  0  0  0  0  0  0  0  0999 V2000
   -2.0704    1.6856    0.0000 N   0  0  0  0  0  0  0  0  0  0  0  0
   -2.0347    0.1860    0.0000 C   0  0  0  0  0  0  0  0  0  0  0  0
   -0.7182   -0.5329    0.0000 C   0  0  0  0  0  0  0  0  0  0  0  0
    0.5626    0.2478    0.0000 C   0  0  0  0  0  0  0  0  0  0  0  0
    0.5269    1.7474    0.0000 C   0  0  0  0  0  0  0  0  0  0  0  0
   -0.7896    2.4663    0.0000 F   0  0  0  0  0  0  0  0  0  0  0  0
    1.8077    2.5281    0.0000 C   0  0  0  0  0  0  0  0  0  0  0  0
    3.1242    1.8092    0.0000 C   0  0  0  0  0  0  0  0  0  0  0  0
    3.1599    0.3096    0.0000 C   0  0  0  0  0  0  0  0  0  0  0  0
    1.8791   -0.4710    0.0000 C   0  0  0  0  0  0  0  0  0  0  0  0
    1.9148   -1.9706    0.0000 C   0  0  0  0  0  0  0  0  0  0  0  0
    3.2313   -2.6895    0.0000 O   0  0  0  0  0  0  0  0  0  0  0  0
    0.6340   -2.7513    0.0000 O   0  0  0  0  0  0  0  0  0  0  0  0
   -3.3156   -0.5947    0.0000 C   0  0  0  0  0  0  0  0  0  0  0  0
   -3.2799   -2.0943    0.0000 O   0  0  0  0  0  0  0  0  0  0  0  0
   -4.6321    0.1242    0.0000 O   0  0  0  0  0  0  0  0  0  0  0  0
  2  1  1  1
  2  3  1  0
  3  4  1  0
  4  5  2  0
  5  6  1  0
  5  7  1  0
  7  8  2  0
  8  9  1  0
  9 10  2  0
 10 11  1  0
 11 12  2  0
 11 13  1  0
  2 14  1  0
 14 15  2  0
 14 16  1  0
 10  4  1  0
M  END
>  <rName>  (2818) 
Phe_2F_6CO2H

>  <PQ_SYMBOL>  (2818) 
Phe_2F_6CO2H

>  <FULL_NAME>  (2818) 
(S)-2-(2-amino-2-carboxyethyl)-3-fluorobenzoic acid

>  <IUPAC_CONDENSED>  (2818) 
Phe(2-F,6-CO2H)

>  <IUPAC>  (2818) 
2-((2S)-2-amino-3-hydroxy-3-oxopropyl)-3-fluorobenzene-1-carboxylic acid

>  <TYPE>  (2818) 
Backbone

>  <CLASS>  (2818) 
alpha

>  <ANALOG>  (2818) 
Phe

>  <MOL_WT>  (2818) 
227.19099999999997

>  <LOGP>  (2818) 
0.47829999999999984

>  <TPSA>  (2818) 
100.62000000000002

>  <POPULARITY>  (2818) 
2.7

>  <PROTECTED>  (2818) 
TRUE

>  <SMILES>  (2818) 
N[C@@H](Cc1(c(F)cccc1C(=O)O))C(=O)O

>  <INCHIKEY>  (2818) 
NEVQYAJBNKPXER-QMMMGPOBSA-N

$$$$
Phe_2F_6OMe
     RDKit          2D

 15 15  0  0  0  0  0  0  0  0999 V2000
   -1.9775    1.5683    0.0000 N   0  0  0  0  0  0  0  0  0  0  0  0
   -1.9913    0.0683    0.0000 C   0  0  0  0  0  0  0  0  0  0  0  0
   -0.6992   -0.6936    0.0000 C   0  0  0  0  0  0  0  0  0  0  0  0
    0.6067    0.0444    0.0000 C   0  0  0  0  0  0  0  0  0  0  0  0
    0.6205    1.5443    0.0000 C   0  0  0  0  0  0  0  0  0  0  0  0
   -0.6716    2.3063    0.0000 F   0  0  0  0  0  0  0  0  0  0  0  0
    1.9264    2.2824    0.0000 C   0  0  0  0  0  0  0  0  0  0  0  0
    3.2184    1.5204    0.0000 C   0  0  0  0  0  0  0  0  0  0  0  0
    3.2046    0.0205    0.0000 C   0  0  0  0  0  0  0  0  0  0  0  0
    1.8987   -0.7175    0.0000 C   0  0  0  0  0  0  0  0  0  0  0  0
    1.8849   -2.2175    0.0000 O   0  0  0  0  0  0  0  0  0  0  0  0
    3.1770   -2.9794    0.0000 C   0  0  0  0  0  0  0  0  0  0  0  0
   -3.2972   -0.6697    0.0000 C   0  0  0  0  0  0  0  0  0  0  0  0
   -3.3110   -2.1696    0.0000 O   0  0  0  0  0  0  0  0  0  0  0  0
   -4.5893    0.0923    0.0000 O   0  0  0  0  0  0  0  0  0  0  0  0
  2  1  1  1
  2  3  1  0
  3  4  1  0
  4  5  2  0
  5  6  1  0
  5  7  1  0
  7  8  2  0
  8  9  1  0
  9 10  2  0
 10 11  1  0
 11 12  1  0
  2 13  1  0
 13 14  2  0
 13 15  1  0
 10  4  1  0
M  END
>  <rName>  (2819) 
Phe_2F_6OMe

>  <PQ_SYMBOL>  (2819) 
Phe_2F_6OMe

>  <FULL_NAME>  (2819) 
(S)-2-amino-3-(2-fluoro-6-methoxyphenyl)propanoic acid

>  <IUPAC_CONDENSED>  (2819) 
Phe(2-F,6-OMe)

>  <IUPAC>  (2819) 
(2S)-2-amino-3-(2-fluoro-6-methoxyphenyl)propanoic acid

>  <TYPE>  (2819) 
Backbone

>  <CLASS>  (2819) 
alpha

>  <ANALOG>  (2819) 
Tyr

>  <MOL_WT>  (2819) 
213.20799999999997

>  <LOGP>  (2819) 
0.7887000000000002

>  <TPSA>  (2819) 
72.55

>  <POPULARITY>  (2819) 
3.0

>  <PROTECTED>  (2819) 
TRUE

>  <SMILES>  (2819) 
N[C@@H](Cc1(c(F)cccc1OC))C(=O)O

>  <INCHIKEY>  (2819) 
WNWTWYOBFIJWAK-QMMMGPOBSA-N

$$$$
Phe_2I
     RDKit          2D

 13 13  0  0  0  0  0  0  0  0999 V2000
   -1.4864    1.8099    0.0000 N   0  0  0  0  0  0  0  0  0  0  0  0
   -1.7669    0.3364    0.0000 C   0  0  0  0  0  0  0  0  0  0  0  0
   -0.6311   -0.6433    0.0000 C   0  0  0  0  0  0  0  0  0  0  0  0
    0.7853   -0.1495    0.0000 C   0  0  0  0  0  0  0  0  0  0  0  0
    1.0658    1.3241    0.0000 C   0  0  0  0  0  0  0  0  0  0  0  0
    2.4822    1.8179    0.0000 C   0  0  0  0  0  0  0  0  0  0  0  0
    3.6181    0.8382    0.0000 C   0  0  0  0  0  0  0  0  0  0  0  0
    3.3376   -0.6353    0.0000 C   0  0  0  0  0  0  0  0  0  0  0  0
    1.9212   -1.1292    0.0000 C   0  0  0  0  0  0  0  0  0  0  0  0
    1.6407   -2.6027    0.0000 I   0  0  0  0  0  0  0  0  0  0  0  0
   -3.1833   -0.1575    0.0000 C   0  0  0  0  0  0  0  0  0  0  0  0
   -3.4638   -1.6310    0.0000 O   0  0  0  0  0  0  0  0  0  0  0  0
   -4.3192    0.8222    0.0000 O   0  0  0  0  0  0  0  0  0  0  0  0
  2  1  1  1
  2  3  1  0
  3  4  1  0
  4  5  2  0
  5  6  1  0
  6  7  2  0
  7  8  1  0
  8  9  2  0
  9 10  1  0
  2 11  1  0
 11 12  2  0
 11 13  1  0
  9  4  1  0
M  END
>  <rName>  (2820) 
Phe_2I

>  <PQ_SYMBOL>  (2820) 
Phe_2I

>  <FULL_NAME>  (2820) 
m-Iodophenylalanine

>  <IUPAC_CONDENSED>  (2820) 
Phe(2-I)

>  <IUPAC>  (2820) 
(2S)-2-amino-3-(2-iodophenyl)propanoic acid

>  <TYPE>  (2820) 
Backbone

>  <CLASS>  (2820) 
alpha

>  <ANALOG>  (2820) 
Phe

>  <MOL_WT>  (2820) 
291.088

>  <LOGP>  (2820) 
1.2456000000000003

>  <TPSA>  (2820) 
63.32000000000001

>  <POPULARITY>  (2820) 
8.6

>  <PROTECTED>  (2820) 
TRUE

>  <SMILES>  (2820) 
N[C@@H](Cc1(ccccc1I))C(=O)O

>  <INCHIKEY>  (2820) 
BKXVGLPBXYBDDM-QMMMGPOBSA-N

$$$$
Phe_2I_4F
     RDKit          2D

 14 14  0  0  0  0  0  0  0  0999 V2000
   -1.7174    1.8436    0.0000 N   0  0  0  0  0  0  0  0  0  0  0  0
   -2.1036    0.3942    0.0000 C   0  0  0  0  0  0  0  0  0  0  0  0
   -1.0414   -0.6650    0.0000 C   0  0  0  0  0  0  0  0  0  0  0  0
    0.4069   -0.2747    0.0000 C   0  0  0  0  0  0  0  0  0  0  0  0
    0.7931    1.1747    0.0000 C   0  0  0  0  0  0  0  0  0  0  0  0
    2.2415    1.5649    0.0000 C   0  0  0  0  0  0  0  0  0  0  0  0
    3.3036    0.5057    0.0000 C   0  0  0  0  0  0  0  0  0  0  0  0
    4.7520    0.8960    0.0000 F   0  0  0  0  0  0  0  0  0  0  0  0
    2.9174   -0.9437    0.0000 C   0  0  0  0  0  0  0  0  0  0  0  0
    1.4691   -1.3339    0.0000 C   0  0  0  0  0  0  0  0  0  0  0  0
    1.0829   -2.7834    0.0000 I   0  0  0  0  0  0  0  0  0  0  0  0
   -3.5519    0.0039    0.0000 C   0  0  0  0  0  0  0  0  0  0  0  0
   -3.9381   -1.4455    0.0000 O   0  0  0  0  0  0  0  0  0  0  0  0
   -4.6140    1.0631    0.0000 O   0  0  0  0  0  0  0  0  0  0  0  0
  2  1  1  1
  2  3  1  0
  3  4  1  0
  4  5  1  0
  5  6  2  0
  6  7  1  0
  7  8  1  0
  7  9  2  0
  9 10  1  0
 10 11  1  0
  2 12  1  0
 12 13  2  0
 12 14  1  0
 10  4  2  0
M  END
>  <rName>  (2821) 
Phe_2I_4F

>  <PQ_SYMBOL>  (2821) 
Phe_2I_4F

>  <FULL_NAME>  (2821) 
(2S)-2-amino-3-(4-fluoro-2-iodophenyl)propanoic acid

>  <IUPAC_CONDENSED>  (2821) 
Phe(2-I,4-F)

>  <IUPAC>  (2821) 
(2S)-2-amino-3-(4-fluoro-2-iodophenyl)propanoic acid

>  <TYPE>  (2821) 
Backbone

>  <CLASS>  (2821) 
alpha

>  <ANALOG>  (2821) 
Phe

>  <MOL_WT>  (2821) 
309.07800000000003

>  <LOGP>  (2821) 
1.3847000000000003

>  <TPSA>  (2821) 
63.32000000000001

>  <POPULARITY>  (2821) 
2.2

>  <PROTECTED>  (2821) 
TRUE

>  <SMILES>  (2821) 
N[C@@H](Cc1(ccc(F)cc1I))C(=O)O

>  <INCHIKEY>  (2821) 
GVNIIHKUDKSHSY-QMMMGPOBSA-N

$$$$
Phe_2Me
     RDKit          2D

 13 13  0  0  0  0  0  0  0  0999 V2000
   -1.4864    1.8099    0.0000 N   0  0  0  0  0  0  0  0  0  0  0  0
   -1.7669    0.3364    0.0000 C   0  0  0  0  0  0  0  0  0  0  0  0
   -0.6311   -0.6433    0.0000 C   0  0  0  0  0  0  0  0  0  0  0  0
    0.7853   -0.1495    0.0000 C   0  0  0  0  0  0  0  0  0  0  0  0
    1.0658    1.3241    0.0000 C   0  0  0  0  0  0  0  0  0  0  0  0
    2.4822    1.8179    0.0000 C   0  0  0  0  0  0  0  0  0  0  0  0
    3.6181    0.8382    0.0000 C   0  0  0  0  0  0  0  0  0  0  0  0
    3.3376   -0.6353    0.0000 C   0  0  0  0  0  0  0  0  0  0  0  0
    1.9212   -1.1292    0.0000 C   0  0  0  0  0  0  0  0  0  0  0  0
    1.6407   -2.6027    0.0000 C   0  0  0  0  0  0  0  0  0  0  0  0
   -3.1833   -0.1575    0.0000 C   0  0  0  0  0  0  0  0  0  0  0  0
   -3.4638   -1.6310    0.0000 O   0  0  0  0  0  0  0  0  0  0  0  0
   -4.3192    0.8222    0.0000 O   0  0  0  0  0  0  0  0  0  0  0  0
  2  1  1  1
  2  3  1  0
  3  4  1  0
  4  5  2  0
  5  6  1  0
  6  7  2  0
  7  8  1  0
  8  9  2  0
  9 10  1  0
  2 11  1  0
 11 12  2  0
 11 13  1  0
  9  4  1  0
M  END
>  <rName>  (2822) 
Phe_2Me

>  <PQ_SYMBOL>  (2822) 
Phe_2Me

>  <FULL_NAME>  (2822) 
2-Methyl-L-Phenylalanine

>  <IUPAC_CONDENSED>  (2822) 
Phe(2-Me)

>  <IUPAC>  (2822) 
(2S)-2-amino-3-(2-methylphenyl)propanoic acid

>  <TYPE>  (2822) 
Backbone

>  <CLASS>  (2822) 
alpha

>  <ANALOG>  (2822) 
Phe

>  <MOL_WT>  (2822) 
179.21899999999997

>  <LOGP>  (2822) 
0.9494199999999999

>  <TPSA>  (2822) 
63.32000000000001

>  <POPULARITY>  (2822) 
22.2

>  <PROTECTED>  (2822) 
TRUE

>  <SMILES>  (2822) 
N[C@@H](Cc1(ccccc1C))C(=O)O

>  <INCHIKEY>  (2822) 
NHBKDLSKDKUGSB-VIFPVBQESA-N

$$$$
Phe_2MeNH2
     RDKit          2D

 14 14  0  0  0  0  0  0  0  0999 V2000
   -1.9781    1.7869    0.0000 N   0  0  0  0  0  0  0  0  0  0  0  0
   -2.0323    0.2879    0.0000 C   0  0  0  0  0  0  0  0  0  0  0  0
   -0.7612   -0.5086    0.0000 C   0  0  0  0  0  0  0  0  0  0  0  0
    0.5641    0.1940    0.0000 C   0  0  0  0  0  0  0  0  0  0  0  0
    0.6183    1.6931    0.0000 C   0  0  0  0  0  0  0  0  0  0  0  0
    1.9435    2.3957    0.0000 C   0  0  0  0  0  0  0  0  0  0  0  0
    3.2146    1.5993    0.0000 C   0  0  0  0  0  0  0  0  0  0  0  0
    3.1605    0.1002    0.0000 C   0  0  0  0  0  0  0  0  0  0  0  0
    1.8352   -0.6024    0.0000 C   0  0  0  0  0  0  0  0  0  0  0  0
    1.7811   -2.1014    0.0000 C   0  0  0  0  0  0  0  0  0  0  0  0
    3.0522   -2.8978    0.0000 N   0  0  0  0  0  0  0  0  0  0  0  0
   -3.3575   -0.4148    0.0000 C   0  0  0  0  0  0  0  0  0  0  0  0
   -3.4117   -1.9138    0.0000 O   0  0  0  0  0  0  0  0  0  0  0  0
   -4.6287    0.3817    0.0000 O   0  0  0  0  0  0  0  0  0  0  0  0
  2  1  1  1
  2  3  1  0
  3  4  1  0
  4  5  2  0
  5  6  1  0
  6  7  2  0
  7  8  1  0
  8  9  2  0
  9 10  1  0
 10 11  1  0
  2 12  1  0
 12 13  2  0
 12 14  1  0
  9  4  1  0
M  END
>  <rName>  (2823) 
Phe_2MeNH2

>  <PQ_SYMBOL>  (2823) 
Phe_2MeNH2

>  <FULL_NAME>  (2823) 
2-(Aminomethyl)-L-Phenylalanine

>  <IUPAC_CONDENSED>  (2823) 
Phe(2-MeNH2)

>  <IUPAC>  (2823) 
(2S)-2-amino-3-(2-(aminomethyl)phenyl)propanoic acid

>  <TYPE>  (2823) 
Backbone

>  <CLASS>  (2823) 
alpha

>  <ANALOG>  (2823) 
Phe

>  <MOL_WT>  (2823) 
194.23399999999995

>  <LOGP>  (2823) 
0.09970000000000018

>  <TPSA>  (2823) 
89.34

>  <POPULARITY>  (2823) 
11.7

>  <PROTECTED>  (2823) 
TRUE

>  <SMILES>  (2823) 
N[C@@H](Cc1(ccccc1CN))C(=O)O

>  <INCHIKEY>  (2823) 
RDAKEAJYLGZEEA-VIFPVBQESA-N

$$$$
Phe_2MeOH
     RDKit          2D

 14 14  0  0  0  0  0  0  0  0999 V2000
   -1.9781    1.7869    0.0000 N   0  0  0  0  0  0  0  0  0  0  0  0
   -2.0323    0.2879    0.0000 C   0  0  0  0  0  0  0  0  0  0  0  0
   -0.7612   -0.5086    0.0000 C   0  0  0  0  0  0  0  0  0  0  0  0
    0.5641    0.1940    0.0000 C   0  0  0  0  0  0  0  0  0  0  0  0
    0.6183    1.6931    0.0000 C   0  0  0  0  0  0  0  0  0  0  0  0
    1.9435    2.3957    0.0000 C   0  0  0  0  0  0  0  0  0  0  0  0
    3.2146    1.5993    0.0000 C   0  0  0  0  0  0  0  0  0  0  0  0
    3.1605    0.1002    0.0000 C   0  0  0  0  0  0  0  0  0  0  0  0
    1.8352   -0.6024    0.0000 C   0  0  0  0  0  0  0  0  0  0  0  0
    1.7811   -2.1014    0.0000 C   0  0  0  0  0  0  0  0  0  0  0  0
    3.0522   -2.8978    0.0000 O   0  0  0  0  0  0  0  0  0  0  0  0
   -3.3575   -0.4148    0.0000 C   0  0  0  0  0  0  0  0  0  0  0  0
   -3.4117   -1.9138    0.0000 O   0  0  0  0  0  0  0  0  0  0  0  0
   -4.6287    0.3817    0.0000 O   0  0  0  0  0  0  0  0  0  0  0  0
  2  1  1  1
  2  3  1  0
  3  4  1  0
  4  5  2  0
  5  6  1  0
  6  7  2  0
  7  8  1  0
  8  9  2  0
  9 10  1  0
 10 11  1  0
  2 12  1  0
 12 13  2  0
 12 14  1  0
  9  4  1  0
M  END
>  <rName>  (2824) 
Phe_2MeOH

>  <PQ_SYMBOL>  (2824) 
Phe_2MeOH

>  <FULL_NAME>  (2824) 
(S)-2-amino-3-(2-(hydroxymethyl)phenyl)propanoic acid

>  <IUPAC_CONDENSED>  (2824) 
Phe(2-MeOH)

>  <IUPAC>  (2824) 
(2S)-2-amino-3-(2-(hydroxymethyl)phenyl)propanoic acid

>  <TYPE>  (2824) 
Backbone

>  <CLASS>  (2824) 
alpha

>  <ANALOG>  (2824) 
Phe

>  <MOL_WT>  (2824) 
195.21799999999996

>  <LOGP>  (2824) 
0.13329999999999997

>  <TPSA>  (2824) 
83.55

>  <POPULARITY>  (2824) 
3.7

>  <PROTECTED>  (2824) 
TRUE

>  <SMILES>  (2824) 
N[C@@H](Cc1(ccccc1CO))C(=O)O

>  <INCHIKEY>  (2824) 
VEKGNCOFKMYVGL-VIFPVBQESA-N

$$$$
Phe_2Me_3CN
     RDKit          2D

 15 15  0  0  0  0  0  0  0  0999 V2000
   -2.4994    1.6682    0.0000 N   0  0  0  0  0  0  0  0  0  0  0  0
   -2.5103    0.1683    0.0000 C   0  0  0  0  0  0  0  0  0  0  0  0
   -1.2168   -0.5912    0.0000 C   0  0  0  0  0  0  0  0  0  0  0  0
    0.0877    0.1494    0.0000 C   0  0  0  0  0  0  0  0  0  0  0  0
    0.0986    1.6493    0.0000 C   0  0  0  0  0  0  0  0  0  0  0  0
    1.4031    2.3899    0.0000 C   0  0  0  0  0  0  0  0  0  0  0  0
    2.6966    1.6304    0.0000 C   0  0  0  0  0  0  0  0  0  0  0  0
    2.6857    0.1305    0.0000 C   0  0  0  0  0  0  0  0  0  0  0  0
    3.9792   -0.6290    0.0000 C   0  0  0  0  0  0  0  0  0  0  0  0
    5.2728   -1.3884    0.0000 N   0  0  0  0  0  0  0  0  0  0  0  0
    1.3812   -0.6101    0.0000 C   0  0  0  0  0  0  0  0  0  0  0  0
    1.3703   -2.1100    0.0000 C   0  0  0  0  0  0  0  0  0  0  0  0
   -3.8148   -0.5723    0.0000 C   0  0  0  0  0  0  0  0  0  0  0  0
   -3.8257   -2.0722    0.0000 O   0  0  0  0  0  0  0  0  0  0  0  0
   -5.1083    0.1872    0.0000 O   0  0  0  0  0  0  0  0  0  0  0  0
  2  1  1  1
  2  3  1  0
  3  4  1  0
  4  5  2  0
  5  6  1  0
  6  7  2  0
  7  8  1  0
  8  9  1  0
  9 10  3  0
  8 11  2  0
 11 12  1  0
  2 13  1  0
 13 14  2  0
 13 15  1  0
 11  4  1  0
M  END
>  <rName>  (2825) 
Phe_2Me_3CN

>  <PQ_SYMBOL>  (2825) 
Phe_2Me_3CN

>  <FULL_NAME>  (2825) 
(S)-2-amino-3-(3-cyano-2-methylphenyl)propanoic acid

>  <IUPAC_CONDENSED>  (2825) 
Phe(2-Me,3-CN)

>  <IUPAC>  (2825) 
(2S)-2-amino-3-(2-methyl-3-(nitrilomethyl)phenyl)propanoic acid

>  <TYPE>  (2825) 
Backbone

>  <CLASS>  (2825) 
alpha

>  <ANALOG>  (2825) 
Phe

>  <MOL_WT>  (2825) 
204.22899999999996

>  <LOGP>  (2825) 
0.8211000000000002

>  <TPSA>  (2825) 
87.11

>  <POPULARITY>  (2825) 
2.6

>  <PROTECTED>  (2825) 
TRUE

>  <SMILES>  (2825) 
N[C@@H](Cc1(cccc(C#N)c1C))C(=O)O

>  <INCHIKEY>  (2825) 
XZJZFMBGBINFEQ-JTQLQIEISA-N

$$$$
Phe_2Me_3CO2H
     RDKit          2D

 16 16  0  0  0  0  0  0  0  0999 V2000
   -2.7535    1.6987    0.0000 N   0  0  0  0  0  0  0  0  0  0  0  0
   -2.7597    0.1988    0.0000 C   0  0  0  0  0  0  0  0  0  0  0  0
   -1.4637   -0.5565    0.0000 C   0  0  0  0  0  0  0  0  0  0  0  0
   -0.1616    0.1882    0.0000 C   0  0  0  0  0  0  0  0  0  0  0  0
   -0.1555    1.6881    0.0000 C   0  0  0  0  0  0  0  0  0  0  0  0
    1.1466    2.4328    0.0000 C   0  0  0  0  0  0  0  0  0  0  0  0
    2.4426    1.6775    0.0000 C   0  0  0  0  0  0  0  0  0  0  0  0
    2.4364    0.1776    0.0000 C   0  0  0  0  0  0  0  0  0  0  0  0
    3.7324   -0.5777    0.0000 C   0  0  0  0  0  0  0  0  0  0  0  0
    3.7263   -2.0777    0.0000 O   0  0  0  0  0  0  0  0  0  0  0  0
    5.0345    0.1670    0.0000 O   0  0  0  0  0  0  0  0  0  0  0  0
    1.1344   -0.5671    0.0000 C   0  0  0  0  0  0  0  0  0  0  0  0
    1.1282   -2.0671    0.0000 C   0  0  0  0  0  0  0  0  0  0  0  0
   -4.0618   -0.5459    0.0000 C   0  0  0  0  0  0  0  0  0  0  0  0
   -4.0679   -2.0459    0.0000 O   0  0  0  0  0  0  0  0  0  0  0  0
   -5.3577    0.2094    0.0000 O   0  0  0  0  0  0  0  0  0  0  0  0
  2  1  1  1
  2  3  1  0
  3  4  1  0
  4  5  1  0
  5  6  2  0
  6  7  1  0
  7  8  2  0
  8  9  1  0
  9 10  2  0
  9 11  1  0
  8 12  1  0
 12 13  1  0
  2 14  1  0
 14 15  2  0
 14 16  1  0
 12  4  2  0
M  END
>  <rName>  (2826) 
Phe_2Me_3CO2H

>  <PQ_SYMBOL>  (2826) 
Phe_2Me_3CO2H

>  <FULL_NAME>  (2826) 
(S)-3-(2-amino-2-carboxyethyl)-2-methylbenzoic acid

>  <IUPAC_CONDENSED>  (2826) 
Phe(2-Me,3-CO2H)

>  <IUPAC>  (2826) 
3-((2S)-2-amino-3-hydroxy-3-oxopropyl)-2-methylbenzene-1-carboxylic acid

>  <TYPE>  (2826) 
Backbone

>  <CLASS>  (2826) 
alpha

>  <ANALOG>  (2826) 
Phe

>  <MOL_WT>  (2826) 
223.22799999999995

>  <LOGP>  (2826) 
0.64762

>  <TPSA>  (2826) 
100.62000000000002

>  <POPULARITY>  (2826) 
2.7

>  <PROTECTED>  (2826) 
TRUE

>  <SMILES>  (2826) 
N[C@@H](Cc1(cccc(C(=O)O)c1C))C(=O)O

>  <INCHIKEY>  (2826) 
LNTRVTAJYIWVEJ-VIFPVBQESA-N

$$$$
Phe_2Me_3Cl
     RDKit          2D

 14 14  0  0  0  0  0  0  0  0999 V2000
   -1.9599    1.7683    0.0000 N   0  0  0  0  0  0  0  0  0  0  0  0
   -2.1168    0.2766    0.0000 C   0  0  0  0  0  0  0  0  0  0  0  0
   -0.9034   -0.6052    0.0000 C   0  0  0  0  0  0  0  0  0  0  0  0
    0.4670    0.0047    0.0000 C   0  0  0  0  0  0  0  0  0  0  0  0
    0.6239    1.4965    0.0000 C   0  0  0  0  0  0  0  0  0  0  0  0
    1.9943    2.1065    0.0000 C   0  0  0  0  0  0  0  0  0  0  0  0
    3.2078    1.2247    0.0000 C   0  0  0  0  0  0  0  0  0  0  0  0
    3.0508   -0.2671    0.0000 C   0  0  0  0  0  0  0  0  0  0  0  0
    4.2643   -1.1489    0.0000 Cl  0  0  0  0  0  0  0  0  0  0  0  0
    1.6804   -0.8771    0.0000 C   0  0  0  0  0  0  0  0  0  0  0  0
    1.5235   -2.3688    0.0000 C   0  0  0  0  0  0  0  0  0  0  0  0
   -3.4872   -0.3334    0.0000 C   0  0  0  0  0  0  0  0  0  0  0  0
   -3.6441   -1.8252    0.0000 O   0  0  0  0  0  0  0  0  0  0  0  0
   -4.7006    0.5484    0.0000 O   0  0  0  0  0  0  0  0  0  0  0  0
  2  1  1  1
  2  3  1  0
  3  4  1  0
  4  5  2  0
  5  6  1  0
  6  7  2  0
  7  8  1  0
  8  9  1  0
  8 10  2  0
 10 11  1  0
  2 12  1  0
 12 13  2  0
 12 14  1  0
 10  4  1  0
M  END
>  <rName>  (2827) 
Phe_2Me_3Cl

>  <PQ_SYMBOL>  (2827) 
Phe_2Me_3Cl

>  <FULL_NAME>  (2827) 
(S)-2-amino-3-(3-chloro-2-methylphenyl)propanoic acid

>  <IUPAC_CONDENSED>  (2827) 
Phe(2-Me,3-Cl)

>  <IUPAC>  (2827) 
(2S)-2-amino-3-(3-chloro-2-methylphenyl)propanoic acid

>  <TYPE>  (2827) 
Backbone

>  <CLASS>  (2827) 
alpha

>  <ANALOG>  (2827) 
Phe

>  <MOL_WT>  (2827) 
213.66399999999996

>  <LOGP>  (2827) 
1.6028200000000001

>  <TPSA>  (2827) 
63.32000000000001

>  <POPULARITY>  (2827) 
3.5

>  <PROTECTED>  (2827) 
TRUE

>  <SMILES>  (2827) 
N[C@@H](Cc1(cccc(Cl)c1C))C(=O)O

>  <INCHIKEY>  (2827) 
WTRMMPQFCOJINO-VIFPVBQESA-N

$$$$
Phe_2Me_3F
     RDKit          2D

 14 14  0  0  0  0  0  0  0  0999 V2000
   -1.9599    1.7683    0.0000 N   0  0  0  0  0  0  0  0  0  0  0  0
   -2.1168    0.2766    0.0000 C   0  0  0  0  0  0  0  0  0  0  0  0
   -0.9034   -0.6052    0.0000 C   0  0  0  0  0  0  0  0  0  0  0  0
    0.4670    0.0047    0.0000 C   0  0  0  0  0  0  0  0  0  0  0  0
    0.6239    1.4965    0.0000 C   0  0  0  0  0  0  0  0  0  0  0  0
    1.9943    2.1065    0.0000 C   0  0  0  0  0  0  0  0  0  0  0  0
    3.2078    1.2247    0.0000 C   0  0  0  0  0  0  0  0  0  0  0  0
    3.0508   -0.2671    0.0000 C   0  0  0  0  0  0  0  0  0  0  0  0
    4.2643   -1.1489    0.0000 F   0  0  0  0  0  0  0  0  0  0  0  0
    1.6804   -0.8771    0.0000 C   0  0  0  0  0  0  0  0  0  0  0  0
    1.5235   -2.3688    0.0000 C   0  0  0  0  0  0  0  0  0  0  0  0
   -3.4872   -0.3334    0.0000 C   0  0  0  0  0  0  0  0  0  0  0  0
   -3.6441   -1.8252    0.0000 O   0  0  0  0  0  0  0  0  0  0  0  0
   -4.7006    0.5484    0.0000 O   0  0  0  0  0  0  0  0  0  0  0  0
  2  1  1  1
  2  3  1  0
  3  4  1  0
  4  5  2  0
  5  6  1  0
  6  7  2  0
  7  8  1  0
  8  9  1  0
  8 10  2  0
 10 11  1  0
  2 12  1  0
 12 13  2  0
 12 14  1  0
 10  4  1  0
M  END
>  <rName>  (2828) 
Phe_2Me_3F

>  <PQ_SYMBOL>  (2828) 
Phe_2Me_3F

>  <FULL_NAME>  (2828) 
(S)-2-amino-3-(3-fluoro-2-methylphenyl)propanoic acid

>  <IUPAC_CONDENSED>  (2828) 
Phe(2-Me,3-F)

>  <IUPAC>  (2828) 
(2S)-2-amino-3-(3-fluoro-2-methylphenyl)propanoic acid

>  <TYPE>  (2828) 
Backbone

>  <CLASS>  (2828) 
alpha

>  <ANALOG>  (2828) 
Phe

>  <MOL_WT>  (2828) 
197.20899999999997

>  <LOGP>  (2828) 
1.0885200000000002

>  <TPSA>  (2828) 
63.32000000000001

>  <POPULARITY>  (2828) 
4.7

>  <PROTECTED>  (2828) 
TRUE

>  <SMILES>  (2828) 
N[C@@H](Cc1(cccc(F)c1C))C(=O)O

>  <INCHIKEY>  (2828) 
GTXNGJQJNNNKGD-VIFPVBQESA-N

$$$$
Phe_2Me_3NH2
     RDKit          2D

 14 14  0  0  0  0  0  0  0  0999 V2000
   -1.9599    1.7683    0.0000 N   0  0  0  0  0  0  0  0  0  0  0  0
   -2.1168    0.2766    0.0000 C   0  0  0  0  0  0  0  0  0  0  0  0
   -0.9034   -0.6052    0.0000 C   0  0  0  0  0  0  0  0  0  0  0  0
    0.4670    0.0047    0.0000 C   0  0  0  0  0  0  0  0  0  0  0  0
    0.6239    1.4965    0.0000 C   0  0  0  0  0  0  0  0  0  0  0  0
    1.9943    2.1065    0.0000 C   0  0  0  0  0  0  0  0  0  0  0  0
    3.2078    1.2247    0.0000 C   0  0  0  0  0  0  0  0  0  0  0  0
    3.0508   -0.2671    0.0000 C   0  0  0  0  0  0  0  0  0  0  0  0
    4.2643   -1.1489    0.0000 N   0  0  0  0  0  0  0  0  0  0  0  0
    1.6804   -0.8771    0.0000 C   0  0  0  0  0  0  0  0  0  0  0  0
    1.5235   -2.3688    0.0000 C   0  0  0  0  0  0  0  0  0  0  0  0
   -3.4872   -0.3334    0.0000 C   0  0  0  0  0  0  0  0  0  0  0  0
   -3.6441   -1.8252    0.0000 O   0  0  0  0  0  0  0  0  0  0  0  0
   -4.7006    0.5484    0.0000 O   0  0  0  0  0  0  0  0  0  0  0  0
  2  1  1  1
  2  3  1  0
  3  4  1  0
  4  5  2  0
  5  6  1  0
  6  7  2  0
  7  8  1  0
  8  9  1  0
  8 10  2  0
 10 11  1  0
  2 12  1  0
 12 13  2  0
 12 14  1  0
 10  4  1  0
M  END
>  <rName>  (2829) 
Phe_2Me_3NH2

>  <PQ_SYMBOL>  (2829) 
Phe_2Me_3NH2

>  <FULL_NAME>  (2829) 
(S)-2-amino-3-(3-amino-2-methylphenyl)propanoic acid

>  <IUPAC_CONDENSED>  (2829) 
Phe(2-Me,3-NH2)

>  <IUPAC>  (2829) 
(2S)-2-amino-3-(3-amino-2-methylphenyl)propanoic acid

>  <TYPE>  (2829) 
Backbone

>  <CLASS>  (2829) 
alpha

>  <ANALOG>  (2829) 
Phe

>  <MOL_WT>  (2829) 
194.23399999999998

>  <LOGP>  (2829) 
0.53162

>  <TPSA>  (2829) 
89.34

>  <POPULARITY>  (2829) 
4.0

>  <PROTECTED>  (2829) 
TRUE

>  <SMILES>  (2829) 
N[C@@H](Cc1(cccc(N)c1C))C(=O)O

>  <INCHIKEY>  (2829) 
SXTSGDAJEJBSNU-VIFPVBQESA-N

$$$$
Phe_2Me_3NO2
     RDKit          2D

 16 16  0  0  0  0  0  0  0  0999 V2000
   -2.7535    1.6987    0.0000 N   0  0  0  0  0  0  0  0  0  0  0  0
   -2.7597    0.1988    0.0000 C   0  0  0  0  0  0  0  0  0  0  0  0
   -1.4637   -0.5565    0.0000 C   0  0  0  0  0  0  0  0  0  0  0  0
   -0.1616    0.1882    0.0000 C   0  0  0  0  0  0  0  0  0  0  0  0
   -0.1555    1.6881    0.0000 C   0  0  0  0  0  0  0  0  0  0  0  0
    1.1466    2.4328    0.0000 C   0  0  0  0  0  0  0  0  0  0  0  0
    2.4426    1.6775    0.0000 C   0  0  0  0  0  0  0  0  0  0  0  0
    2.4364    0.1776    0.0000 C   0  0  0  0  0  0  0  0  0  0  0  0
    1.1344   -0.5671    0.0000 C   0  0  0  0  0  0  0  0  0  0  0  0
    1.1282   -2.0671    0.0000 C   0  0  0  0  0  0  0  0  0  0  0  0
    3.7324   -0.5777    0.0000 N   0  0  0  0  0  0  0  0  0  0  0  0
    3.7263   -2.0777    0.0000 O   0  0  0  0  0  0  0  0  0  0  0  0
    5.0345    0.1670    0.0000 O   0  0  0  0  0  0  0  0  0  0  0  0
   -4.0618   -0.5459    0.0000 C   0  0  0  0  0  0  0  0  0  0  0  0
   -4.0679   -2.0459    0.0000 O   0  0  0  0  0  0  0  0  0  0  0  0
   -5.3577    0.2094    0.0000 O   0  0  0  0  0  0  0  0  0  0  0  0
  2  1  1  1
  2  3  1  0
  3  4  1  0
  4  5  1  0
  5  6  2  0
  6  7  1  0
  7  8  2  0
  8  9  1  0
  9 10  1  0
  8 11  1  0
 11 12  2  0
 11 13  1  0
  2 14  1  0
 14 15  2  0
 14 16  1  0
  9  4  2  0
M  CHG  2  11   1  13  -1
M  END
>  <rName>  (2830) 
Phe_2Me_3NO2

>  <PQ_SYMBOL>  (2830) 
Phe_2Me_3NO2

>  <FULL_NAME>  (2830) 
(S)-2-amino-3-(2-methyl-3-nitrophenyl)propanoic acid

>  <IUPAC_CONDENSED>  (2830) 
Phe(2-Me,3-NO2)

>  <IUPAC>  (2830) 
(2S)-2-amino-3-(2-methyl-3-nitrophenyl)propanoic acid

>  <TYPE>  (2830) 
Backbone

>  <CLASS>  (2830) 
alpha

>  <ANALOG>  (2830) 
Phe

>  <MOL_WT>  (2830) 
224.21599999999995

>  <LOGP>  (2830) 
0.85762

>  <TPSA>  (2830) 
106.46

>  <POPULARITY>  (2830) 
2.9

>  <PROTECTED>  (2830) 
TRUE

>  <SMILES>  (2830) 
N[C@@H](Cc1(cccc(c1C)[N+](=O)[O-]))C(=O)O

>  <INCHIKEY>  (2830) 
XYBTWNVYEHHMRY-QMMMGPOBSA-N

$$$$
Phe_2Me_3NO2_5Cl
     RDKit          2D

 17 17  0  0  0  0  0  0  0  0999 V2000
   -2.7602    1.5794    0.0000 N   0  0  0  0  0  0  0  0  0  0  0  0
   -2.8265    0.0809    0.0000 C   0  0  0  0  0  0  0  0  0  0  0  0
   -1.5619   -0.7258    0.0000 C   0  0  0  0  0  0  0  0  0  0  0  0
   -0.2310   -0.0339    0.0000 C   0  0  0  0  0  0  0  0  0  0  0  0
   -0.1647    1.4646    0.0000 C   0  0  0  0  0  0  0  0  0  0  0  0
    1.1662    2.1564    0.0000 C   0  0  0  0  0  0  0  0  0  0  0  0
    1.2325    3.6550    0.0000 Cl  0  0  0  0  0  0  0  0  0  0  0  0
    2.4309    1.3498    0.0000 C   0  0  0  0  0  0  0  0  0  0  0  0
    2.3646   -0.1488    0.0000 C   0  0  0  0  0  0  0  0  0  0  0  0
    1.0337   -0.8406    0.0000 C   0  0  0  0  0  0  0  0  0  0  0  0
    0.9674   -2.3392    0.0000 C   0  0  0  0  0  0  0  0  0  0  0  0
    3.6292   -0.9555    0.0000 N   0  0  0  0  0  0  0  0  0  0  0  0
    3.5629   -2.4540    0.0000 O   0  0  0  0  0  0  0  0  0  0  0  0
    4.9601   -0.2636    0.0000 O   0  0  0  0  0  0  0  0  0  0  0  0
   -4.1574   -0.6110    0.0000 C   0  0  0  0  0  0  0  0  0  0  0  0
   -4.2237   -2.1095    0.0000 O   0  0  0  0  0  0  0  0  0  0  0  0
   -5.4220    0.1957    0.0000 O   0  0  0  0  0  0  0  0  0  0  0  0
  2  1  1  1
  2  3  1  0
  3  4  1  0
  4  5  1  0
  5  6  2  0
  6  7  1  0
  6  8  1  0
  8  9  2  0
  9 10  1  0
 10 11  1  0
  9 12  1  0
 12 13  2  0
 12 14  1  0
  2 15  1  0
 15 16  2  0
 15 17  1  0
 10  4  2  0
M  CHG  2  12   1  14  -1
M  END
>  <rName>  (2831) 
Phe_2Me_3NO2_5Cl

>  <PQ_SYMBOL>  (2831) 
Phe_2Me_3NO2_5Cl

>  <FULL_NAME>  (2831) 
(S)-2-amino-3-(5-chloro-2-methyl-3-nitrophenyl)propanoic acid

>  <IUPAC_CONDENSED>  (2831) 
Phe(2-Me,3-NO2,5-Cl)

>  <IUPAC>  (2831) 
(2S)-2-amino-3-(5-chloro-2-methyl-3-nitrophenyl)propanoic acid

>  <TYPE>  (2831) 
Backbone

>  <CLASS>  (2831) 
alpha

>  <ANALOG>  (2831) 
Phe

>  <MOL_WT>  (2831) 
258.66099999999994

>  <LOGP>  (2831) 
1.51102

>  <TPSA>  (2831) 
106.46

>  <POPULARITY>  (2831) 
2.5

>  <PROTECTED>  (2831) 
TRUE

>  <SMILES>  (2831) 
N[C@@H](Cc1(cc(Cl)cc(c1C)[N+](=O)[O-]))C(=O)O

>  <INCHIKEY>  (2831) 
QZIFVOYJSSJWML-QMMMGPOBSA-N

$$$$
Phe_2Me_3OBn
     RDKit          2D

 22 23  0  0  0  0  0  0  0  0999 V2000
   -5.1961    1.7609    0.0000 N   0  0  0  0  0  0  0  0  0  0  0  0
   -5.3094    0.2652    0.0000 C   0  0  0  0  0  0  0  0  0  0  0  0
   -4.0707   -0.5807    0.0000 C   0  0  0  0  0  0  0  0  0  0  0  0
   -2.7187    0.0691    0.0000 C   0  0  0  0  0  0  0  0  0  0  0  0
   -2.6055    1.5648    0.0000 C   0  0  0  0  0  0  0  0  0  0  0  0
   -1.2535    2.2146    0.0000 C   0  0  0  0  0  0  0  0  0  0  0  0
   -0.0148    1.3687    0.0000 C   0  0  0  0  0  0  0  0  0  0  0  0
   -0.1281   -0.1271    0.0000 C   0  0  0  0  0  0  0  0  0  0  0  0
    1.1107   -0.9730    0.0000 C   0  0  0  0  0  0  0  0  0  0  0  0
    2.4626   -0.3232    0.0000 O   0  0  0  0  0  0  0  0  0  0  0  0
    3.7013   -1.1691    0.0000 C   0  0  0  0  0  0  0  0  0  0  0  0
    5.0533   -0.5193    0.0000 C   0  0  0  0  0  0  0  0  0  0  0  0
    6.2920   -1.3652    0.0000 C   0  0  0  0  0  0  0  0  0  0  0  0
    7.6439   -0.7154    0.0000 C   0  0  0  0  0  0  0  0  0  0  0  0
    7.7572    0.7803    0.0000 C   0  0  0  0  0  0  0  0  0  0  0  0
    6.5185    1.6262    0.0000 C   0  0  0  0  0  0  0  0  0  0  0  0
    5.1665    0.9764    0.0000 C   0  0  0  0  0  0  0  0  0  0  0  0
   -1.4800   -0.7769    0.0000 C   0  0  0  0  0  0  0  0  0  0  0  0
   -1.5932   -2.2726    0.0000 C   0  0  0  0  0  0  0  0  0  0  0  0
   -6.6613   -0.3846    0.0000 C   0  0  0  0  0  0  0  0  0  0  0  0
   -6.7746   -1.8803    0.0000 O   0  0  0  0  0  0  0  0  0  0  0  0
   -7.9000    0.4613    0.0000 O   0  0  0  0  0  0  0  0  0  0  0  0
  2  1  1  1
  2  3  1  0
  3  4  1  0
  4  5  2  0
  5  6  1  0
  6  7  2  0
  7  8  1  0
  8  9  1  0
  9 10  1  0
 10 11  1  0
 11 12  1  0
 12 13  2  0
 13 14  1  0
 14 15  2  0
 15 16  1  0
 16 17  2  0
  8 18  2  0
 18 19  1  0
  2 20  1  0
 20 21  2  0
 20 22  1  0
 17 12  1  0
 18  4  1  0
M  END
>  <rName>  (2832) 
Phe_2Me_3OBn

>  <PQ_SYMBOL>  (2832) 
Phe_2Me_3OBn

>  <FULL_NAME>  (2832) 
(S)-2-amino-3-(3-((benzyloxy)methyl)-2-methylphenyl)propanoic acid

>  <IUPAC_CONDENSED>  (2832) 
Phe(2-Me,3-OBn)

>  <IUPAC>  (2832) 
(2S)-2-amino-3-(3-(benzyloxymethyl)-2-methylphenyl)propanoic acid

>  <TYPE>  (2832) 
Backbone

>  <CLASS>  (2832) 
alpha

>  <ANALOG>  (2832) 
Phe

>  <MOL_WT>  (2832) 
299.37

>  <LOGP>  (2832) 
2.666220000000001

>  <TPSA>  (2832) 
72.55

>  <POPULARITY>  (2832) 
2.3

>  <PROTECTED>  (2832) 
TRUE

>  <SMILES>  (2832) 
N[C@@H](Cc2(cccc(COCc1(ccccc1))c2C))C(=O)O

>  <INCHIKEY>  (2832) 
PZHWTQRJJDVPKO-KRWDZBQOSA-N

$$$$
Phe_2Me_4CO2H
     RDKit          2D

 16 16  0  0  0  0  0  0  0  0999 V2000
   -2.2742    1.8739    0.0000 N   0  0  0  0  0  0  0  0  0  0  0  0
   -2.7626    0.4557    0.0000 C   0  0  0  0  0  0  0  0  0  0  0  0
   -1.7786   -0.6765    0.0000 C   0  0  0  0  0  0  0  0  0  0  0  0
   -0.3062   -0.3903    0.0000 C   0  0  0  0  0  0  0  0  0  0  0  0
    0.1823    1.0279    0.0000 C   0  0  0  0  0  0  0  0  0  0  0  0
    1.6547    1.3140    0.0000 C   0  0  0  0  0  0  0  0  0  0  0  0
    2.6387    0.1819    0.0000 C   0  0  0  0  0  0  0  0  0  0  0  0
    2.1503   -1.2363    0.0000 C   0  0  0  0  0  0  0  0  0  0  0  0
    0.6779   -1.5225    0.0000 C   0  0  0  0  0  0  0  0  0  0  0  0
    0.1894   -2.9407    0.0000 C   0  0  0  0  0  0  0  0  0  0  0  0
    4.1112    0.4680    0.0000 C   0  0  0  0  0  0  0  0  0  0  0  0
    4.5996    1.8863    0.0000 O   0  0  0  0  0  0  0  0  0  0  0  0
    5.0952   -0.6641    0.0000 O   0  0  0  0  0  0  0  0  0  0  0  0
   -4.2351    0.1695    0.0000 C   0  0  0  0  0  0  0  0  0  0  0  0
   -4.7235   -1.2487    0.0000 O   0  0  0  0  0  0  0  0  0  0  0  0
   -5.2191    1.3017    0.0000 O   0  0  0  0  0  0  0  0  0  0  0  0
  2  1  1  1
  2  3  1  0
  3  4  1  0
  4  5  1  0
  5  6  2  0
  6  7  1  0
  7  8  2  0
  8  9  1  0
  9 10  1  0
  7 11  1  0
 11 12  2  0
 11 13  1  0
  2 14  1  0
 14 15  2  0
 14 16  1  0
  9  4  2  0
M  END
>  <rName>  (2833) 
Phe_2Me_4CO2H

>  <PQ_SYMBOL>  (2833) 
Phe_2Me_4CO2H

>  <FULL_NAME>  (2833) 
(S)-4-(2-amino-2-carboxyethyl)-3-methylbenzoic acid

>  <IUPAC_CONDENSED>  (2833) 
Phe(2-Me,4-CO2H)

>  <IUPAC>  (2833) 
4-((2S)-2-amino-3-hydroxy-3-oxopropyl)-3-methylbenzene-1-carboxylic acid

>  <TYPE>  (2833) 
Backbone

>  <CLASS>  (2833) 
alpha

>  <ANALOG>  (2833) 
Phe

>  <MOL_WT>  (2833) 
223.22799999999995

>  <LOGP>  (2833) 
0.64762

>  <TPSA>  (2833) 
100.62000000000002

>  <POPULARITY>  (2833) 
2.9

>  <PROTECTED>  (2833) 
TRUE

>  <SMILES>  (2833) 
N[C@@H](Cc1(ccc(cc1C)C(=O)O))C(=O)O

>  <INCHIKEY>  (2833) 
BCCNJCIBDRJGPB-VIFPVBQESA-N

$$$$
Phe_2Me_4Cl
     RDKit          2D

 14 14  0  0  0  0  0  0  0  0999 V2000
   -1.7174    1.8436    0.0000 N   0  0  0  0  0  0  0  0  0  0  0  0
   -2.1036    0.3942    0.0000 C   0  0  0  0  0  0  0  0  0  0  0  0
   -1.0414   -0.6650    0.0000 C   0  0  0  0  0  0  0  0  0  0  0  0
    0.4069   -0.2747    0.0000 C   0  0  0  0  0  0  0  0  0  0  0  0
    0.7931    1.1747    0.0000 C   0  0  0  0  0  0  0  0  0  0  0  0
    2.2415    1.5649    0.0000 C   0  0  0  0  0  0  0  0  0  0  0  0
    3.3036    0.5057    0.0000 C   0  0  0  0  0  0  0  0  0  0  0  0
    4.7520    0.8960    0.0000 Cl  0  0  0  0  0  0  0  0  0  0  0  0
    2.9174   -0.9437    0.0000 C   0  0  0  0  0  0  0  0  0  0  0  0
    1.4691   -1.3339    0.0000 C   0  0  0  0  0  0  0  0  0  0  0  0
    1.0829   -2.7834    0.0000 C   0  0  0  0  0  0  0  0  0  0  0  0
   -3.5519    0.0039    0.0000 C   0  0  0  0  0  0  0  0  0  0  0  0
   -3.9381   -1.4455    0.0000 O   0  0  0  0  0  0  0  0  0  0  0  0
   -4.6140    1.0631    0.0000 O   0  0  0  0  0  0  0  0  0  0  0  0
  2  1  1  1
  2  3  1  0
  3  4  1  0
  4  5  1  0
  5  6  2  0
  6  7  1  0
  7  8  1  0
  7  9  2  0
  9 10  1  0
 10 11  1  0
  2 12  1  0
 12 13  2  0
 12 14  1  0
 10  4  2  0
M  END
>  <rName>  (2834) 
Phe_2Me_4Cl

>  <PQ_SYMBOL>  (2834) 
Phe_2Me_4Cl

>  <FULL_NAME>  (2834) 
(S)-2-amino-3-(4-chloro-2-methylphenyl)propanoic acid

>  <IUPAC_CONDENSED>  (2834) 
Phe(2-Me,4-Cl)

>  <IUPAC>  (2834) 
(2S)-2-amino-3-(4-chloro-2-methylphenyl)propanoic acid

>  <TYPE>  (2834) 
Backbone

>  <CLASS>  (2834) 
alpha

>  <ANALOG>  (2834) 
Phe

>  <MOL_WT>  (2834) 
213.664

>  <LOGP>  (2834) 
1.6028200000000001

>  <TPSA>  (2834) 
63.32000000000001

>  <POPULARITY>  (2834) 
4.8

>  <PROTECTED>  (2834) 
TRUE

>  <SMILES>  (2834) 
N[C@@H](Cc1(ccc(Cl)cc1C))C(=O)O

>  <INCHIKEY>  (2834) 
HOPMBDAOMZVFGR-VIFPVBQESA-N

$$$$
Phe_2Me_4F
     RDKit          2D

 14 14  0  0  0  0  0  0  0  0999 V2000
   -1.7174    1.8436    0.0000 N   0  0  0  0  0  0  0  0  0  0  0  0
   -2.1036    0.3942    0.0000 C   0  0  0  0  0  0  0  0  0  0  0  0
   -1.0414   -0.6650    0.0000 C   0  0  0  0  0  0  0  0  0  0  0  0
    0.4069   -0.2747    0.0000 C   0  0  0  0  0  0  0  0  0  0  0  0
    0.7931    1.1747    0.0000 C   0  0  0  0  0  0  0  0  0  0  0  0
    2.2415    1.5649    0.0000 C   0  0  0  0  0  0  0  0  0  0  0  0
    3.3036    0.5057    0.0000 C   0  0  0  0  0  0  0  0  0  0  0  0
    4.7520    0.8960    0.0000 F   0  0  0  0  0  0  0  0  0  0  0  0
    2.9174   -0.9437    0.0000 C   0  0  0  0  0  0  0  0  0  0  0  0
    1.4691   -1.3339    0.0000 C   0  0  0  0  0  0  0  0  0  0  0  0
    1.0829   -2.7834    0.0000 C   0  0  0  0  0  0  0  0  0  0  0  0
   -3.5519    0.0039    0.0000 C   0  0  0  0  0  0  0  0  0  0  0  0
   -3.9381   -1.4455    0.0000 O   0  0  0  0  0  0  0  0  0  0  0  0
   -4.6140    1.0631    0.0000 O   0  0  0  0  0  0  0  0  0  0  0  0
  2  1  1  1
  2  3  1  0
  3  4  1  0
  4  5  1  0
  5  6  2  0
  6  7  1  0
  7  8  1  0
  7  9  2  0
  9 10  1  0
 10 11  1  0
  2 12  1  0
 12 13  2  0
 12 14  1  0
 10  4  2  0
M  END
>  <rName>  (2835) 
Phe_2Me_4F

>  <PQ_SYMBOL>  (2835) 
Phe_2Me_4F

>  <FULL_NAME>  (2835) 
(S)-2-amino-3-(4-fluoro-2-methylphenyl)propanoic acid

>  <IUPAC_CONDENSED>  (2835) 
Phe(2-Me,4-F)

>  <IUPAC>  (2835) 
(2S)-2-amino-3-(4-fluoro-2-methylphenyl)propanoic acid

>  <TYPE>  (2835) 
Backbone

>  <CLASS>  (2835) 
alpha

>  <ANALOG>  (2835) 
Phe

>  <MOL_WT>  (2835) 
197.20899999999997

>  <LOGP>  (2835) 
1.0885200000000002

>  <TPSA>  (2835) 
63.32000000000001

>  <POPULARITY>  (2835) 
5.5

>  <PROTECTED>  (2835) 
TRUE

>  <SMILES>  (2835) 
N[C@@H](Cc1(ccc(F)cc1C))C(=O)O

>  <INCHIKEY>  (2835) 
WDSUDTPFZZINJC-VIFPVBQESA-N

$$$$
Phe_2Me_4NH2
     RDKit          2D

 14 14  0  0  0  0  0  0  0  0999 V2000
   -1.7174    1.8436    0.0000 N   0  0  0  0  0  0  0  0  0  0  0  0
   -2.1036    0.3942    0.0000 C   0  0  0  0  0  0  0  0  0  0  0  0
   -1.0414   -0.6650    0.0000 C   0  0  0  0  0  0  0  0  0  0  0  0
    0.4069   -0.2747    0.0000 C   0  0  0  0  0  0  0  0  0  0  0  0
    0.7931    1.1747    0.0000 C   0  0  0  0  0  0  0  0  0  0  0  0
    2.2415    1.5649    0.0000 C   0  0  0  0  0  0  0  0  0  0  0  0
    3.3036    0.5057    0.0000 C   0  0  0  0  0  0  0  0  0  0  0  0
    4.7520    0.8960    0.0000 N   0  0  0  0  0  0  0  0  0  0  0  0
    2.9174   -0.9437    0.0000 C   0  0  0  0  0  0  0  0  0  0  0  0
    1.4691   -1.3339    0.0000 C   0  0  0  0  0  0  0  0  0  0  0  0
    1.0829   -2.7834    0.0000 C   0  0  0  0  0  0  0  0  0  0  0  0
   -3.5519    0.0039    0.0000 C   0  0  0  0  0  0  0  0  0  0  0  0
   -3.9381   -1.4455    0.0000 O   0  0  0  0  0  0  0  0  0  0  0  0
   -4.6140    1.0631    0.0000 O   0  0  0  0  0  0  0  0  0  0  0  0
  2  1  1  1
  2  3  1  0
  3  4  1  0
  4  5  1  0
  5  6  2  0
  6  7  1  0
  7  8  1  0
  7  9  2  0
  9 10  1  0
 10 11  1  0
  2 12  1  0
 12 13  2  0
 12 14  1  0
 10  4  2  0
M  END
>  <rName>  (2836) 
Phe_2Me_4NH2

>  <PQ_SYMBOL>  (2836) 
Phe_2Me_4NH2

>  <FULL_NAME>  (2836) 
(S)-2-amino-3-(4-amino-2-methylphenyl)propanoic acid

>  <IUPAC_CONDENSED>  (2836) 
Phe(2-Me,4-NH2)

>  <IUPAC>  (2836) 
(2S)-2-amino-3-(4-amino-2-methylphenyl)propanoic acid

>  <TYPE>  (2836) 
Backbone

>  <CLASS>  (2836) 
alpha

>  <ANALOG>  (2836) 
Phe

>  <MOL_WT>  (2836) 
194.23399999999998

>  <LOGP>  (2836) 
0.5316199999999995

>  <TPSA>  (2836) 
89.34

>  <POPULARITY>  (2836) 
6.3

>  <PROTECTED>  (2836) 
TRUE

>  <SMILES>  (2836) 
N[C@@H](Cc1(ccc(N)cc1C))C(=O)O

>  <INCHIKEY>  (2836) 
NTJIKYSOUNWZSL-VIFPVBQESA-N

$$$$
Phe_2Me_4NO2_5NH2
     RDKit          2D

 17 17  0  0  0  0  0  0  0  0999 V2000
   -2.3272    1.8112    0.0000 N   0  0  0  0  0  0  0  0  0  0  0  0
   -2.8740    0.4145    0.0000 C   0  0  0  0  0  0  0  0  0  0  0  0
   -1.9378   -0.7575    0.0000 C   0  0  0  0  0  0  0  0  0  0  0  0
   -0.4547   -0.5327    0.0000 C   0  0  0  0  0  0  0  0  0  0  0  0
    0.0921    0.8641    0.0000 C   0  0  0  0  0  0  0  0  0  0  0  0
    1.5752    1.0889    0.0000 C   0  0  0  0  0  0  0  0  0  0  0  0
    2.1220    2.4857    0.0000 N   0  0  0  0  0  0  0  0  0  0  0  0
    2.5114   -0.0830    0.0000 C   0  0  0  0  0  0  0  0  0  0  0  0
    1.9646   -1.4798    0.0000 C   0  0  0  0  0  0  0  0  0  0  0  0
    0.4815   -1.7046    0.0000 C   0  0  0  0  0  0  0  0  0  0  0  0
   -0.0653   -3.1014    0.0000 C   0  0  0  0  0  0  0  0  0  0  0  0
    3.9945    0.1418    0.0000 N   0  0  0  0  0  0  0  0  0  0  0  0
    4.5413    1.5386    0.0000 O   0  0  0  0  0  0  0  0  0  0  0  0
    4.9307   -1.0301    0.0000 O   0  0  0  0  0  0  0  0  0  0  0  0
   -4.3571    0.1896    0.0000 C   0  0  0  0  0  0  0  0  0  0  0  0
   -4.9039   -1.2071    0.0000 O   0  0  0  0  0  0  0  0  0  0  0  0
   -5.2933    1.3616    0.0000 O   0  0  0  0  0  0  0  0  0  0  0  0
  2  1  1  1
  2  3  1  0
  3  4  1  0
  4  5  1  0
  5  6  2  0
  6  7  1  0
  6  8  1  0
  8  9  2  0
  9 10  1  0
 10 11  1  0
  8 12  1  0
 12 13  2  0
 12 14  1  0
  2 15  1  0
 15 16  2  0
 15 17  1  0
 10  4  2  0
M  CHG  2  12   1  14  -1
M  END
>  <rName>  (2837) 
Phe_2Me_4NO2_5NH2

>  <PQ_SYMBOL>  (2837) 
Phe_2Me_4NO2_5NH2

>  <FULL_NAME>  (2837) 
(S)-2-amino-3-(5-amino-2-methyl-4-nitrophenyl)propanoic acid

>  <IUPAC_CONDENSED>  (2837) 
Phe(2-Me,4-NO2,5-NH2)

>  <IUPAC>  (2837) 
(2S)-2-amino-3-(5-amino-2-methyl-4-nitrophenyl)propanoic acid

>  <TYPE>  (2837) 
Backbone

>  <CLASS>  (2837) 
alpha

>  <ANALOG>  (2837) 
Phe

>  <MOL_WT>  (2837) 
239.23099999999997

>  <LOGP>  (2837) 
0.4398200000000001

>  <TPSA>  (2837) 
132.48

>  <POPULARITY>  (2837) 
2.2

>  <PROTECTED>  (2837) 
TRUE

>  <SMILES>  (2837) 
N[C@@H](Cc1(cc(N)c(cc1C)[N+](=O)[O-]))C(=O)O

>  <INCHIKEY>  (2837) 
IQNOJBHCHICZEE-QMMMGPOBSA-N

$$$$
Phe_2Me_4OMe
     RDKit          2D

 15 15  0  0  0  0  0  0  0  0999 V2000
   -2.1188    1.8386    0.0000 N   0  0  0  0  0  0  0  0  0  0  0  0
   -2.4941    0.3864    0.0000 C   0  0  0  0  0  0  0  0  0  0  0  0
   -1.4241   -0.6648    0.0000 C   0  0  0  0  0  0  0  0  0  0  0  0
    0.0213   -0.2637    0.0000 C   0  0  0  0  0  0  0  0  0  0  0  0
    0.3966    1.1886    0.0000 C   0  0  0  0  0  0  0  0  0  0  0  0
    1.8420    1.5897    0.0000 C   0  0  0  0  0  0  0  0  0  0  0  0
    2.9120    0.5385    0.0000 C   0  0  0  0  0  0  0  0  0  0  0  0
    4.3574    0.9396    0.0000 O   0  0  0  0  0  0  0  0  0  0  0  0
    5.4275   -0.1116    0.0000 C   0  0  0  0  0  0  0  0  0  0  0  0
    2.5367   -0.9138    0.0000 C   0  0  0  0  0  0  0  0  0  0  0  0
    1.0914   -1.3149    0.0000 C   0  0  0  0  0  0  0  0  0  0  0  0
    0.7160   -2.7672    0.0000 C   0  0  0  0  0  0  0  0  0  0  0  0
   -3.9395   -0.0148    0.0000 C   0  0  0  0  0  0  0  0  0  0  0  0
   -4.3148   -1.4670    0.0000 O   0  0  0  0  0  0  0  0  0  0  0  0
   -5.0096    1.0364    0.0000 O   0  0  0  0  0  0  0  0  0  0  0  0
  2  1  1  1
  2  3  1  0
  3  4  1  0
  4  5  1  0
  5  6  2  0
  6  7  1  0
  7  8  1  0
  8  9  1  0
  7 10  2  0
 10 11  1  0
 11 12  1  0
  2 13  1  0
 13 14  2  0
 13 15  1  0
 11  4  2  0
M  END
>  <rName>  (2838) 
Phe_2Me_4OMe

>  <PQ_SYMBOL>  (2838) 
Phe_2Me_4OMe

>  <FULL_NAME>  (2838) 
(S)-2-amino-3-(4-methoxy-2-methylphenyl)propanoic acid

>  <IUPAC_CONDENSED>  (2838) 
Phe(2-Me,4-OMe)

>  <IUPAC>  (2838) 
(2S)-2-amino-3-(4-methoxy-2-methylphenyl)propanoic acid

>  <TYPE>  (2838) 
Backbone

>  <CLASS>  (2838) 
alpha

>  <ANALOG>  (2838) 
Tyr

>  <MOL_WT>  (2838) 
209.24499999999998

>  <LOGP>  (2838) 
0.9580199999999999

>  <TPSA>  (2838) 
72.55

>  <POPULARITY>  (2838) 
10.3

>  <PROTECTED>  (2838) 
TRUE

>  <SMILES>  (2838) 
N[C@@H](Cc1(ccc(OC)cc1C))C(=O)O

>  <INCHIKEY>  (2838) 
JSBGJZZYJLWLGU-JTQLQIEISA-N

$$$$
Phe_2Me_5CO2H
     RDKit          2D

 16 16  0  0  0  0  0  0  0  0999 V2000
    1.4458   -1.7915    0.0000 N   0  0  0  0  0  0  0  0  0  0  0  0
    2.2696   -0.5380    0.0000 C   0  0  0  0  0  0  0  0  0  0  0  0
    1.5959    0.8022    0.0000 C   0  0  0  0  0  0  0  0  0  0  0  0
    0.0984    0.8889    0.0000 C   0  0  0  0  0  0  0  0  0  0  0  0
   -0.7254   -0.3646    0.0000 C   0  0  0  0  0  0  0  0  0  0  0  0
   -2.2229   -0.2780    0.0000 C   0  0  0  0  0  0  0  0  0  0  0  0
   -2.8966    1.0622    0.0000 C   0  0  0  0  0  0  0  0  0  0  0  0
   -2.0728    2.3158    0.0000 C   0  0  0  0  0  0  0  0  0  0  0  0
   -0.5753    2.2291    0.0000 C   0  0  0  0  0  0  0  0  0  0  0  0
    0.2485    3.4826    0.0000 C   0  0  0  0  0  0  0  0  0  0  0  0
   -3.0467   -1.5315    0.0000 C   0  0  0  0  0  0  0  0  0  0  0  0
   -2.3730   -2.8717    0.0000 O   0  0  0  0  0  0  0  0  0  0  0  0
   -4.5442   -1.4448    0.0000 O   0  0  0  0  0  0  0  0  0  0  0  0
    3.7671   -0.6247    0.0000 C   0  0  0  0  0  0  0  0  0  0  0  0
    4.5909    0.6289    0.0000 O   0  0  0  0  0  0  0  0  0  0  0  0
    4.4408   -1.9649    0.0000 O   0  0  0  0  0  0  0  0  0  0  0  0
  2  1  1  1
  2  3  1  0
  3  4  1  0
  4  5  1  0
  5  6  2  0
  6  7  1  0
  7  8  2  0
  8  9  1  0
  9 10  1  0
  6 11  1  0
 11 12  2  0
 11 13  1  0
  2 14  1  0
 14 15  2  0
 14 16  1  0
  9  4  2  0
M  END
>  <rName>  (2839) 
Phe_2Me_5CO2H

>  <PQ_SYMBOL>  (2839) 
Phe_2Me_5CO2H

>  <FULL_NAME>  (2839) 
(S)-3-(2-amino-2-carboxyethyl)-4-methylbenzoic acid

>  <IUPAC_CONDENSED>  (2839) 
Phe(2-Me,5-CO2H)

>  <IUPAC>  (2839) 
3-((2S)-2-amino-3-hydroxy-3-oxopropyl)-4-methylbenzene-1-carboxylic acid

>  <TYPE>  (2839) 
Backbone

>  <CLASS>  (2839) 
alpha

>  <ANALOG>  (2839) 
Phe

>  <MOL_WT>  (2839) 
223.22799999999995

>  <LOGP>  (2839) 
0.64762

>  <TPSA>  (2839) 
100.62000000000002

>  <POPULARITY>  (2839) 
3.2

>  <PROTECTED>  (2839) 
TRUE

>  <SMILES>  (2839) 
N[C@@H](Cc1(cc(ccc1C)C(=O)O))C(=O)O

>  <INCHIKEY>  (2839) 
LFTWZDOHVWZXDQ-VIFPVBQESA-N

$$$$
Phe_2Me_5Cl
     RDKit          2D

 14 14  0  0  0  0  0  0  0  0999 V2000
   -1.4552    1.7882    0.0000 N   0  0  0  0  0  0  0  0  0  0  0  0
   -1.9325    0.3661    0.0000 C   0  0  0  0  0  0  0  0  0  0  0  0
   -0.9397   -0.7583    0.0000 C   0  0  0  0  0  0  0  0  0  0  0  0
    0.5305   -0.4606    0.0000 C   0  0  0  0  0  0  0  0  0  0  0  0
    1.0078    0.9614    0.0000 C   0  0  0  0  0  0  0  0  0  0  0  0
    2.4780    1.2591    0.0000 C   0  0  0  0  0  0  0  0  0  0  0  0
    2.9553    2.6811    0.0000 Cl  0  0  0  0  0  0  0  0  0  0  0  0
    3.4709    0.1347    0.0000 C   0  0  0  0  0  0  0  0  0  0  0  0
    2.9935   -1.2874    0.0000 C   0  0  0  0  0  0  0  0  0  0  0  0
    1.5234   -1.5850    0.0000 C   0  0  0  0  0  0  0  0  0  0  0  0
    1.0461   -3.0070    0.0000 C   0  0  0  0  0  0  0  0  0  0  0  0
   -3.4027    0.0685    0.0000 C   0  0  0  0  0  0  0  0  0  0  0  0
   -3.8800   -1.3536    0.0000 O   0  0  0  0  0  0  0  0  0  0  0  0
   -4.3955    1.1929    0.0000 O   0  0  0  0  0  0  0  0  0  0  0  0
  2  1  1  1
  2  3  1  0
  3  4  1  0
  4  5  1  0
  5  6  2  0
  6  7  1  0
  6  8  1  0
  8  9  2  0
  9 10  1  0
 10 11  1  0
  2 12  1  0
 12 13  2  0
 12 14  1  0
 10  4  2  0
M  END
>  <rName>  (2840) 
Phe_2Me_5Cl

>  <PQ_SYMBOL>  (2840) 
Phe_2Me_5Cl

>  <FULL_NAME>  (2840) 
(S)-2-amino-3-(5-chloro-2-methylphenyl)propanoic acid

>  <IUPAC_CONDENSED>  (2840) 
Phe(2-Me,5-Cl)

>  <IUPAC>  (2840) 
(2S)-2-amino-3-(5-chloro-2-methylphenyl)propanoic acid

>  <TYPE>  (2840) 
Backbone

>  <CLASS>  (2840) 
alpha

>  <ANALOG>  (2840) 
Phe

>  <MOL_WT>  (2840) 
213.664

>  <LOGP>  (2840) 
1.6028200000000001

>  <TPSA>  (2840) 
63.32000000000001

>  <POPULARITY>  (2840) 
5.7

>  <PROTECTED>  (2840) 
TRUE

>  <SMILES>  (2840) 
N[C@@H](Cc1(cc(Cl)ccc1C))C(=O)O

>  <INCHIKEY>  (2840) 
XOJPGEIIQISZFF-VIFPVBQESA-N

$$$$
Phe_2Me_5F
     RDKit          2D

 14 14  0  0  0  0  0  0  0  0999 V2000
   -1.4552    1.7882    0.0000 N   0  0  0  0  0  0  0  0  0  0  0  0
   -1.9325    0.3661    0.0000 C   0  0  0  0  0  0  0  0  0  0  0  0
   -0.9397   -0.7583    0.0000 C   0  0  0  0  0  0  0  0  0  0  0  0
    0.5305   -0.4606    0.0000 C   0  0  0  0  0  0  0  0  0  0  0  0
    1.0078    0.9614    0.0000 C   0  0  0  0  0  0  0  0  0  0  0  0
    2.4780    1.2591    0.0000 C   0  0  0  0  0  0  0  0  0  0  0  0
    2.9553    2.6811    0.0000 F   0  0  0  0  0  0  0  0  0  0  0  0
    3.4709    0.1347    0.0000 C   0  0  0  0  0  0  0  0  0  0  0  0
    2.9935   -1.2874    0.0000 C   0  0  0  0  0  0  0  0  0  0  0  0
    1.5234   -1.5850    0.0000 C   0  0  0  0  0  0  0  0  0  0  0  0
    1.0461   -3.0070    0.0000 C   0  0  0  0  0  0  0  0  0  0  0  0
   -3.4027    0.0685    0.0000 C   0  0  0  0  0  0  0  0  0  0  0  0
   -3.8800   -1.3536    0.0000 O   0  0  0  0  0  0  0  0  0  0  0  0
   -4.3955    1.1929    0.0000 O   0  0  0  0  0  0  0  0  0  0  0  0
  2  1  1  1
  2  3  1  0
  3  4  1  0
  4  5  1  0
  5  6  2  0
  6  7  1  0
  6  8  1  0
  8  9  2  0
  9 10  1  0
 10 11  1  0
  2 12  1  0
 12 13  2  0
 12 14  1  0
 10  4  2  0
M  END
>  <rName>  (2841) 
Phe_2Me_5F

>  <PQ_SYMBOL>  (2841) 
Phe_2Me_5F

>  <FULL_NAME>  (2841) 
(S)-2-amino-3-(5-fluoro-2-methylphenyl)propanoic acid

>  <IUPAC_CONDENSED>  (2841) 
Phe(2-Me,5-F)

>  <IUPAC>  (2841) 
(2S)-2-amino-3-(5-fluoro-2-methylphenyl)propanoic acid

>  <TYPE>  (2841) 
Backbone

>  <CLASS>  (2841) 
alpha

>  <ANALOG>  (2841) 
Phe

>  <MOL_WT>  (2841) 
197.20899999999997

>  <LOGP>  (2841) 
1.0885200000000002

>  <TPSA>  (2841) 
63.32000000000001

>  <POPULARITY>  (2841) 
4.2

>  <PROTECTED>  (2841) 
TRUE

>  <SMILES>  (2841) 
N[C@@H](Cc1(cc(F)ccc1C))C(=O)O

>  <INCHIKEY>  (2841) 
GEAWAECTQJKAAV-VIFPVBQESA-N

$$$$
Phe_2Me_5I
     RDKit          2D

 14 14  0  0  0  0  0  0  0  0999 V2000
   -1.4552    1.7882    0.0000 N   0  0  0  0  0  0  0  0  0  0  0  0
   -1.9325    0.3661    0.0000 C   0  0  0  0  0  0  0  0  0  0  0  0
   -0.9397   -0.7583    0.0000 C   0  0  0  0  0  0  0  0  0  0  0  0
    0.5305   -0.4606    0.0000 C   0  0  0  0  0  0  0  0  0  0  0  0
    1.0078    0.9614    0.0000 C   0  0  0  0  0  0  0  0  0  0  0  0
    2.4780    1.2591    0.0000 C   0  0  0  0  0  0  0  0  0  0  0  0
    2.9553    2.6811    0.0000 I   0  0  0  0  0  0  0  0  0  0  0  0
    3.4709    0.1347    0.0000 C   0  0  0  0  0  0  0  0  0  0  0  0
    2.9935   -1.2874    0.0000 C   0  0  0  0  0  0  0  0  0  0  0  0
    1.5234   -1.5850    0.0000 C   0  0  0  0  0  0  0  0  0  0  0  0
    1.0461   -3.0070    0.0000 C   0  0  0  0  0  0  0  0  0  0  0  0
   -3.4027    0.0685    0.0000 C   0  0  0  0  0  0  0  0  0  0  0  0
   -3.8800   -1.3536    0.0000 O   0  0  0  0  0  0  0  0  0  0  0  0
   -4.3955    1.1929    0.0000 O   0  0  0  0  0  0  0  0  0  0  0  0
  2  1  1  1
  2  3  1  0
  3  4  1  0
  4  5  1  0
  5  6  2  0
  6  7  1  0
  6  8  1  0
  8  9  2  0
  9 10  1  0
 10 11  1  0
  2 12  1  0
 12 13  2  0
 12 14  1  0
 10  4  2  0
M  END
>  <rName>  (2842) 
Phe_2Me_5I

>  <PQ_SYMBOL>  (2842) 
Phe_2Me_5I

>  <FULL_NAME>  (2842) 
5-Iodo-2-methyl-L-phenylalanine

>  <IUPAC_CONDENSED>  (2842) 
Phe(2-Me,5-I)

>  <IUPAC>  (2842) 
(2S)-2-amino-3-(5-iodo-2-methylphenyl)propanoic acid

>  <TYPE>  (2842) 
Backbone

>  <CLASS>  (2842) 
alpha

>  <ANALOG>  (2842) 
Phe

>  <MOL_WT>  (2842) 
305.11500000000007

>  <LOGP>  (2842) 
1.5540200000000002

>  <TPSA>  (2842) 
63.32000000000001

>  <POPULARITY>  (2842) 
2.2

>  <PROTECTED>  (2842) 
TRUE

>  <SMILES>  (2842) 
N[C@@H](Cc1(cc(I)ccc1C))C(=O)O

>  <INCHIKEY>  (2842) 
LZZKZHLFOKVYEW-VIFPVBQESA-N

$$$$
Phe_2Me_5NH2
     RDKit          2D

 14 14  0  0  0  0  0  0  0  0999 V2000
   -1.4552    1.7882    0.0000 N   0  0  0  0  0  0  0  0  0  0  0  0
   -1.9325    0.3661    0.0000 C   0  0  0  0  0  0  0  0  0  0  0  0
   -0.9397   -0.7583    0.0000 C   0  0  0  0  0  0  0  0  0  0  0  0
    0.5305   -0.4606    0.0000 C   0  0  0  0  0  0  0  0  0  0  0  0
    1.0078    0.9614    0.0000 C   0  0  0  0  0  0  0  0  0  0  0  0
    2.4780    1.2591    0.0000 C   0  0  0  0  0  0  0  0  0  0  0  0
    2.9553    2.6811    0.0000 N   0  0  0  0  0  0  0  0  0  0  0  0
    3.4709    0.1347    0.0000 C   0  0  0  0  0  0  0  0  0  0  0  0
    2.9935   -1.2874    0.0000 C   0  0  0  0  0  0  0  0  0  0  0  0
    1.5234   -1.5850    0.0000 C   0  0  0  0  0  0  0  0  0  0  0  0
    1.0461   -3.0070    0.0000 C   0  0  0  0  0  0  0  0  0  0  0  0
   -3.4027    0.0685    0.0000 C   0  0  0  0  0  0  0  0  0  0  0  0
   -3.8800   -1.3536    0.0000 O   0  0  0  0  0  0  0  0  0  0  0  0
   -4.3955    1.1929    0.0000 O   0  0  0  0  0  0  0  0  0  0  0  0
  2  1  1  1
  2  3  1  0
  3  4  1  0
  4  5  1  0
  5  6  2  0
  6  7  1  0
  6  8  1  0
  8  9  2  0
  9 10  1  0
 10 11  1  0
  2 12  1  0
 12 13  2  0
 12 14  1  0
 10  4  2  0
M  END
>  <rName>  (2843) 
Phe_2Me_5NH2

>  <PQ_SYMBOL>  (2843) 
Phe_2Me_5NH2

>  <FULL_NAME>  (2843) 
(S)-2-amino-3-(5-amino-2-methylphenyl)propanoic acid

>  <IUPAC_CONDENSED>  (2843) 
Phe(2-Me,5-NH2)

>  <IUPAC>  (2843) 
(2S)-2-amino-3-(5-amino-2-methylphenyl)propanoic acid

>  <TYPE>  (2843) 
Backbone

>  <CLASS>  (2843) 
alpha

>  <ANALOG>  (2843) 
Phe

>  <MOL_WT>  (2843) 
194.23399999999998

>  <LOGP>  (2843) 
0.5316199999999995

>  <TPSA>  (2843) 
89.34

>  <POPULARITY>  (2843) 
4.9

>  <PROTECTED>  (2843) 
TRUE

>  <SMILES>  (2843) 
N[C@@H](Cc1(cc(N)ccc1C))C(=O)O

>  <INCHIKEY>  (2843) 
XIQZLXAKQBWHGM-VIFPVBQESA-N

$$$$
Phe_2Me_5NO2
     RDKit          2D

 16 16  0  0  0  0  0  0  0  0999 V2000
    1.4458   -1.7915    0.0000 N   0  0  0  0  0  0  0  0  0  0  0  0
    2.2696   -0.5380    0.0000 C   0  0  0  0  0  0  0  0  0  0  0  0
    1.5959    0.8022    0.0000 C   0  0  0  0  0  0  0  0  0  0  0  0
    0.0984    0.8889    0.0000 C   0  0  0  0  0  0  0  0  0  0  0  0
   -0.7254   -0.3646    0.0000 C   0  0  0  0  0  0  0  0  0  0  0  0
   -2.2229   -0.2780    0.0000 C   0  0  0  0  0  0  0  0  0  0  0  0
   -2.8966    1.0622    0.0000 C   0  0  0  0  0  0  0  0  0  0  0  0
   -2.0728    2.3158    0.0000 C   0  0  0  0  0  0  0  0  0  0  0  0
   -0.5753    2.2291    0.0000 C   0  0  0  0  0  0  0  0  0  0  0  0
    0.2485    3.4826    0.0000 C   0  0  0  0  0  0  0  0  0  0  0  0
   -3.0467   -1.5315    0.0000 N   0  0  0  0  0  0  0  0  0  0  0  0
   -2.3730   -2.8717    0.0000 O   0  0  0  0  0  0  0  0  0  0  0  0
   -4.5442   -1.4448    0.0000 O   0  0  0  0  0  0  0  0  0  0  0  0
    3.7671   -0.6247    0.0000 C   0  0  0  0  0  0  0  0  0  0  0  0
    4.5909    0.6289    0.0000 O   0  0  0  0  0  0  0  0  0  0  0  0
    4.4408   -1.9649    0.0000 O   0  0  0  0  0  0  0  0  0  0  0  0
  2  1  1  1
  2  3  1  0
  3  4  1  0
  4  5  1  0
  5  6  2  0
  6  7  1  0
  7  8  2  0
  8  9  1  0
  9 10  1  0
  6 11  1  0
 11 12  2  0
 11 13  1  0
  2 14  1  0
 14 15  2  0
 14 16  1  0
  9  4  2  0
M  CHG  2  11   1  13  -1
M  END
>  <rName>  (2844) 
Phe_2Me_5NO2

>  <PQ_SYMBOL>  (2844) 
Phe_2Me_5NO2

>  <FULL_NAME>  (2844) 
(S)-2-amino-3-(2-methyl-5-nitrophenyl)propanoic acid

>  <IUPAC_CONDENSED>  (2844) 
Phe(2-Me,5-NO2)

>  <IUPAC>  (2844) 
(2S)-2-amino-3-(2-methyl-5-nitrophenyl)propanoic acid

>  <TYPE>  (2844) 
Backbone

>  <CLASS>  (2844) 
alpha

>  <ANALOG>  (2844) 
Phe

>  <MOL_WT>  (2844) 
224.21599999999995

>  <LOGP>  (2844) 
0.85762

>  <TPSA>  (2844) 
106.46

>  <POPULARITY>  (2844) 
3.3

>  <PROTECTED>  (2844) 
TRUE

>  <SMILES>  (2844) 
N[C@@H](Cc1(cc(ccc1C)[N+](=O)[O-]))C(=O)O

>  <INCHIKEY>  (2844) 
VEIPSQLVFOAEBD-VIFPVBQESA-N

$$$$
Phe_2Me_5OH
     RDKit          2D

 14 14  0  0  0  0  0  0  0  0999 V2000
   -1.4552    1.7882    0.0000 N   0  0  0  0  0  0  0  0  0  0  0  0
   -1.9325    0.3661    0.0000 C   0  0  0  0  0  0  0  0  0  0  0  0
   -0.9397   -0.7583    0.0000 C   0  0  0  0  0  0  0  0  0  0  0  0
    0.5305   -0.4606    0.0000 C   0  0  0  0  0  0  0  0  0  0  0  0
    1.0078    0.9614    0.0000 C   0  0  0  0  0  0  0  0  0  0  0  0
    2.4780    1.2591    0.0000 C   0  0  0  0  0  0  0  0  0  0  0  0
    2.9553    2.6811    0.0000 O   0  0  0  0  0  0  0  0  0  0  0  0
    3.4709    0.1347    0.0000 C   0  0  0  0  0  0  0  0  0  0  0  0
    2.9935   -1.2874    0.0000 C   0  0  0  0  0  0  0  0  0  0  0  0
    1.5234   -1.5850    0.0000 C   0  0  0  0  0  0  0  0  0  0  0  0
    1.0461   -3.0070    0.0000 C   0  0  0  0  0  0  0  0  0  0  0  0
   -3.4027    0.0685    0.0000 C   0  0  0  0  0  0  0  0  0  0  0  0
   -3.8800   -1.3536    0.0000 O   0  0  0  0  0  0  0  0  0  0  0  0
   -4.3955    1.1929    0.0000 O   0  0  0  0  0  0  0  0  0  0  0  0
  2  1  1  1
  2  3  1  0
  3  4  1  0
  4  5  1  0
  5  6  2  0
  6  7  1  0
  6  8  1  0
  8  9  2  0
  9 10  1  0
 10 11  1  0
  2 12  1  0
 12 13  2  0
 12 14  1  0
 10  4  2  0
M  END
>  <rName>  (2845) 
Phe_2Me_5OH

>  <PQ_SYMBOL>  (2845) 
Phe_2Me_5OH

>  <FULL_NAME>  (2845) 
(S)-2-amino-3-(5-hydroxy-2-methylphenyl)propanoic acid

>  <IUPAC_CONDENSED>  (2845) 
Phe(2-Me,5-OH)

>  <IUPAC>  (2845) 
(2S)-2-amino-3-(5-hydroxy-2-methylphenyl)propanoic acid

>  <TYPE>  (2845) 
Backbone

>  <CLASS>  (2845) 
alpha

>  <ANALOG>  (2845) 
Tyr

>  <MOL_WT>  (2845) 
195.21799999999996

>  <LOGP>  (2845) 
0.6550199999999999

>  <TPSA>  (2845) 
83.55

>  <POPULARITY>  (2845) 
9.0

>  <PROTECTED>  (2845) 
TRUE

>  <SMILES>  (2845) 
N[C@@H](Cc1(cc(O)ccc1C))C(=O)O

>  <INCHIKEY>  (2845) 
SPJQYZBNWVPMDM-VIFPVBQESA-N

$$$$
Phe_2Me_6CO2H
     RDKit          2D

 16 16  0  0  0  0  0  0  0  0999 V2000
   -2.0704    1.6856    0.0000 N   0  0  0  0  0  0  0  0  0  0  0  0
   -2.0347    0.1860    0.0000 C   0  0  0  0  0  0  0  0  0  0  0  0
   -0.7182   -0.5329    0.0000 C   0  0  0  0  0  0  0  0  0  0  0  0
    0.5626    0.2478    0.0000 C   0  0  0  0  0  0  0  0  0  0  0  0
    0.5269    1.7474    0.0000 C   0  0  0  0  0  0  0  0  0  0  0  0
   -0.7896    2.4663    0.0000 C   0  0  0  0  0  0  0  0  0  0  0  0
    1.8077    2.5281    0.0000 C   0  0  0  0  0  0  0  0  0  0  0  0
    3.1242    1.8092    0.0000 C   0  0  0  0  0  0  0  0  0  0  0  0
    3.1599    0.3096    0.0000 C   0  0  0  0  0  0  0  0  0  0  0  0
    1.8791   -0.4710    0.0000 C   0  0  0  0  0  0  0  0  0  0  0  0
    1.9148   -1.9706    0.0000 C   0  0  0  0  0  0  0  0  0  0  0  0
    0.6340   -2.7513    0.0000 O   0  0  0  0  0  0  0  0  0  0  0  0
    3.2313   -2.6895    0.0000 O   0  0  0  0  0  0  0  0  0  0  0  0
   -3.3156   -0.5947    0.0000 C   0  0  0  0  0  0  0  0  0  0  0  0
   -3.2799   -2.0943    0.0000 O   0  0  0  0  0  0  0  0  0  0  0  0
   -4.6321    0.1242    0.0000 O   0  0  0  0  0  0  0  0  0  0  0  0
  2  1  1  1
  2  3  1  0
  3  4  1  0
  4  5  2  0
  5  6  1  0
  5  7  1  0
  7  8  2  0
  8  9  1  0
  9 10  2  0
 10 11  1  0
 11 12  2  0
 11 13  1  0
  2 14  1  0
 14 15  2  0
 14 16  1  0
 10  4  1  0
M  END
>  <rName>  (2846) 
Phe_2Me_6CO2H

>  <PQ_SYMBOL>  (2846) 
Phe_2Me_6CO2H

>  <FULL_NAME>  (2846) 
(S)-2-(2-amino-2-carboxyethyl)-3-methylbenzoic acid

>  <IUPAC_CONDENSED>  (2846) 
Phe(2-Me,6-CO2H)

>  <IUPAC>  (2846) 
2-((2S)-2-amino-3-hydroxy-3-oxopropyl)-3-methylbenzene-1-carboxylic acid

>  <TYPE>  (2846) 
Backbone

>  <CLASS>  (2846) 
alpha

>  <ANALOG>  (2846) 
Phe

>  <MOL_WT>  (2846) 
223.22799999999995

>  <LOGP>  (2846) 
0.64762

>  <TPSA>  (2846) 
100.62000000000002

>  <POPULARITY>  (2846) 
2.7

>  <PROTECTED>  (2846) 
TRUE

>  <SMILES>  (2846) 
N[C@@H](Cc1(c(C)cccc1C(=O)O))C(=O)O

>  <INCHIKEY>  (2846) 
KBMVPHFGZCASFJ-VIFPVBQESA-N

$$$$
Phe_2Me_6CONH2
     RDKit          2D

 16 16  0  0  0  0  0  0  0  0999 V2000
   -2.0704    1.6856    0.0000 N   0  0  0  0  0  0  0  0  0  0  0  0
   -2.0347    0.1860    0.0000 C   0  0  0  0  0  0  0  0  0  0  0  0
   -0.7182   -0.5329    0.0000 C   0  0  0  0  0  0  0  0  0  0  0  0
    0.5626    0.2478    0.0000 C   0  0  0  0  0  0  0  0  0  0  0  0
    0.5269    1.7474    0.0000 C   0  0  0  0  0  0  0  0  0  0  0  0
   -0.7896    2.4663    0.0000 C   0  0  0  0  0  0  0  0  0  0  0  0
    1.8077    2.5281    0.0000 C   0  0  0  0  0  0  0  0  0  0  0  0
    3.1242    1.8092    0.0000 C   0  0  0  0  0  0  0  0  0  0  0  0
    3.1599    0.3096    0.0000 C   0  0  0  0  0  0  0  0  0  0  0  0
    1.8791   -0.4710    0.0000 C   0  0  0  0  0  0  0  0  0  0  0  0
    1.9148   -1.9706    0.0000 C   0  0  0  0  0  0  0  0  0  0  0  0
    0.6340   -2.7513    0.0000 O   0  0  0  0  0  0  0  0  0  0  0  0
    3.2313   -2.6895    0.0000 N   0  0  0  0  0  0  0  0  0  0  0  0
   -3.3156   -0.5947    0.0000 C   0  0  0  0  0  0  0  0  0  0  0  0
   -3.2799   -2.0943    0.0000 O   0  0  0  0  0  0  0  0  0  0  0  0
   -4.6321    0.1242    0.0000 O   0  0  0  0  0  0  0  0  0  0  0  0
  2  1  1  1
  2  3  1  0
  3  4  1  0
  4  5  2  0
  5  6  1  0
  5  7  1  0
  7  8  2  0
  8  9  1  0
  9 10  2  0
 10 11  1  0
 11 12  2  0
 11 13  1  0
  2 14  1  0
 14 15  2  0
 14 16  1  0
 10  4  1  0
M  END
>  <rName>  (2847) 
Phe_2Me_6CONH2

>  <PQ_SYMBOL>  (2847) 
Phe_2Me_6CONH2

>  <FULL_NAME>  (2847) 
(S)-2-amino-3-(2-carbamoyl-6-methylphenyl)propanoic acid

>  <IUPAC_CONDENSED>  (2847) 
Phe(2-Me,6-CONH2)

>  <IUPAC>  (2847) 
(2S)-2-amino-3-(2-carbamoyl-6-methylphenyl)propanoic acid

>  <TYPE>  (2847) 
Backbone

>  <CLASS>  (2847) 
alpha

>  <ANALOG>  (2847) 
Phe

>  <MOL_WT>  (2847) 
222.24399999999994

>  <LOGP>  (2847) 
0.048320000000000196

>  <TPSA>  (2847) 
106.41000000000001

>  <POPULARITY>  (2847) 
2.4

>  <PROTECTED>  (2847) 
TRUE

>  <SMILES>  (2847) 
N[C@@H](Cc1(c(C)cccc1C(=O)N))C(=O)O

>  <INCHIKEY>  (2847) 
XAQMIDBTMAXVKZ-VIFPVBQESA-N

$$$$
Phe_2Me_6Cl
     RDKit          2D

 14 14  0  0  0  0  0  0  0  0999 V2000
    1.4856    1.6416    0.0000 N   0  0  0  0  0  0  0  0  0  0  0  0
    1.7624    0.1673    0.0000 C   0  0  0  0  0  0  0  0  0  0  0  0
    0.6240   -0.8095    0.0000 C   0  0  0  0  0  0  0  0  0  0  0  0
   -0.7911   -0.3120    0.0000 C   0  0  0  0  0  0  0  0  0  0  0  0
   -1.9295   -1.2888    0.0000 C   0  0  0  0  0  0  0  0  0  0  0  0
   -1.6527   -2.7631    0.0000 C   0  0  0  0  0  0  0  0  0  0  0  0
   -3.3446   -0.7913    0.0000 C   0  0  0  0  0  0  0  0  0  0  0  0
   -3.6213    0.6829    0.0000 C   0  0  0  0  0  0  0  0  0  0  0  0
   -2.4830    1.6597    0.0000 C   0  0  0  0  0  0  0  0  0  0  0  0
   -1.0678    1.1622    0.0000 C   0  0  0  0  0  0  0  0  0  0  0  0
    0.0705    2.1390    0.0000 Cl  0  0  0  0  0  0  0  0  0  0  0  0
    3.1775   -0.3302    0.0000 C   0  0  0  0  0  0  0  0  0  0  0  0
    3.4542   -1.8044    0.0000 O   0  0  0  0  0  0  0  0  0  0  0  0
    4.3158    0.6466    0.0000 O   0  0  0  0  0  0  0  0  0  0  0  0
  2  1  1  6
  2  3  1  0
  3  4  1  0
  4  5  2  0
  5  6  1  0
  5  7  1  0
  7  8  2  0
  8  9  1  0
  9 10  2  0
 10 11  1  0
  2 12  1  0
 12 13  2  0
 12 14  1  0
 10  4  1  0
M  END
>  <rName>  (2848) 
Phe_2Me_6Cl

>  <PQ_SYMBOL>  (2848) 
Phe_2Me_6Cl

>  <FULL_NAME>  (2848) 
(S)-2-amino-3-(2-chloro-6-methylphenyl)propanoic acid

>  <IUPAC_CONDENSED>  (2848) 
Phe(2-Me,6-Cl)

>  <IUPAC>  (2848) 
(2S)-2-amino-3-(2-chloro-6-methylphenyl)propanoic acid

>  <TYPE>  (2848) 
Backbone

>  <CLASS>  (2848) 
alpha

>  <ANALOG>  (2848) 
Phe

>  <MOL_WT>  (2848) 
213.66399999999996

>  <LOGP>  (2848) 
1.6028200000000004

>  <TPSA>  (2848) 
63.32000000000001

>  <POPULARITY>  (2848) 
3.0

>  <PROTECTED>  (2848) 
TRUE

>  <SMILES>  (2848) 
N[C@@H](Cc1(c(C)cccc1Cl))C(=O)O

>  <INCHIKEY>  (2848) 
JPTASNSNGGFCES-VIFPVBQESA-N

$$$$
Phe_2Me_6F
     RDKit          2D

 14 14  0  0  0  0  0  0  0  0999 V2000
    1.4856    1.6416    0.0000 N   0  0  0  0  0  0  0  0  0  0  0  0
    1.7624    0.1673    0.0000 C   0  0  0  0  0  0  0  0  0  0  0  0
    0.6240   -0.8095    0.0000 C   0  0  0  0  0  0  0  0  0  0  0  0
   -0.7911   -0.3120    0.0000 C   0  0  0  0  0  0  0  0  0  0  0  0
   -1.9295   -1.2888    0.0000 C   0  0  0  0  0  0  0  0  0  0  0  0
   -1.6527   -2.7631    0.0000 C   0  0  0  0  0  0  0  0  0  0  0  0
   -3.3446   -0.7913    0.0000 C   0  0  0  0  0  0  0  0  0  0  0  0
   -3.6213    0.6829    0.0000 C   0  0  0  0  0  0  0  0  0  0  0  0
   -2.4830    1.6597    0.0000 C   0  0  0  0  0  0  0  0  0  0  0  0
   -1.0678    1.1622    0.0000 C   0  0  0  0  0  0  0  0  0  0  0  0
    0.0705    2.1390    0.0000 F   0  0  0  0  0  0  0  0  0  0  0  0
    3.1775   -0.3302    0.0000 C   0  0  0  0  0  0  0  0  0  0  0  0
    3.4542   -1.8044    0.0000 O   0  0  0  0  0  0  0  0  0  0  0  0
    4.3158    0.6466    0.0000 O   0  0  0  0  0  0  0  0  0  0  0  0
  2  1  1  6
  2  3  1  0
  3  4  1  0
  4  5  2  0
  5  6  1  0
  5  7  1  0
  7  8  2  0
  8  9  1  0
  9 10  2  0
 10 11  1  0
  2 12  1  0
 12 13  2  0
 12 14  1  0
 10  4  1  0
M  END
>  <rName>  (2849) 
Phe_2Me_6F

>  <PQ_SYMBOL>  (2849) 
Phe_2Me_6F

>  <FULL_NAME>  (2849) 
(S)-2-amino-3-(2-fluoro-6-methylphenyl)propanoic acid

>  <IUPAC_CONDENSED>  (2849) 
Phe(2-Me,6-F)

>  <IUPAC>  (2849) 
(2S)-2-amino-3-(2-fluoro-6-methylphenyl)propanoic acid

>  <TYPE>  (2849) 
Backbone

>  <CLASS>  (2849) 
alpha

>  <ANALOG>  (2849) 
Phe

>  <MOL_WT>  (2849) 
197.20899999999995

>  <LOGP>  (2849) 
1.0885200000000002

>  <TPSA>  (2849) 
63.32000000000001

>  <POPULARITY>  (2849) 
3.6

>  <PROTECTED>  (2849) 
TRUE

>  <SMILES>  (2849) 
N[C@@H](Cc1(c(C)cccc1F))C(=O)O

>  <INCHIKEY>  (2849) 
MSMXPWDERTUNKF-VIFPVBQESA-N

$$$$
Phe_2Me_6NO2
     RDKit          2D

 16 16  0  0  0  0  0  0  0  0999 V2000
   -2.0704    1.6856    0.0000 N   0  0  0  0  0  0  0  0  0  0  0  0
   -2.0347    0.1860    0.0000 C   0  0  0  0  0  0  0  0  0  0  0  0
   -0.7182   -0.5329    0.0000 C   0  0  0  0  0  0  0  0  0  0  0  0
    0.5626    0.2478    0.0000 C   0  0  0  0  0  0  0  0  0  0  0  0
    0.5269    1.7474    0.0000 C   0  0  0  0  0  0  0  0  0  0  0  0
   -0.7896    2.4663    0.0000 C   0  0  0  0  0  0  0  0  0  0  0  0
    1.8077    2.5281    0.0000 C   0  0  0  0  0  0  0  0  0  0  0  0
    3.1242    1.8092    0.0000 C   0  0  0  0  0  0  0  0  0  0  0  0
    3.1599    0.3096    0.0000 C   0  0  0  0  0  0  0  0  0  0  0  0
    1.8791   -0.4710    0.0000 C   0  0  0  0  0  0  0  0  0  0  0  0
    1.9148   -1.9706    0.0000 N   0  0  0  0  0  0  0  0  0  0  0  0
    0.6340   -2.7513    0.0000 O   0  0  0  0  0  0  0  0  0  0  0  0
    3.2313   -2.6895    0.0000 O   0  0  0  0  0  0  0  0  0  0  0  0
   -3.3156   -0.5947    0.0000 C   0  0  0  0  0  0  0  0  0  0  0  0
   -3.2799   -2.0943    0.0000 O   0  0  0  0  0  0  0  0  0  0  0  0
   -4.6321    0.1242    0.0000 O   0  0  0  0  0  0  0  0  0  0  0  0
  2  1  1  1
  2  3  1  0
  3  4  1  0
  4  5  2  0
  5  6  1  0
  5  7  1  0
  7  8  2  0
  8  9  1  0
  9 10  2  0
 10 11  1  0
 11 12  2  0
 11 13  1  0
  2 14  1  0
 14 15  2  0
 14 16  1  0
 10  4  1  0
M  CHG  2  11   1  13  -1
M  END
>  <rName>  (2850) 
Phe_2Me_6NO2

>  <PQ_SYMBOL>  (2850) 
Phe_2Me_6NO2

>  <FULL_NAME>  (2850) 
(S)-2-amino-3-(2-methyl-6-nitrophenyl)propanoic acid

>  <IUPAC_CONDENSED>  (2850) 
Phe(2-Me,6-NO2)

>  <IUPAC>  (2850) 
(2S)-2-amino-3-(2-methyl-6-nitrophenyl)propanoic acid

>  <TYPE>  (2850) 
Backbone

>  <CLASS>  (2850) 
alpha

>  <ANALOG>  (2850) 
Phe

>  <MOL_WT>  (2850) 
224.21599999999995

>  <LOGP>  (2850) 
0.8576200000000003

>  <TPSA>  (2850) 
106.46

>  <POPULARITY>  (2850) 
2.9

>  <PROTECTED>  (2850) 
TRUE

>  <SMILES>  (2850) 
N[C@@H](Cc1(c(C)cccc1[N+](=O)[O-]))C(=O)O

>  <INCHIKEY>  (2850) 
CQWVFQSIMLVFKH-QMMMGPOBSA-N

$$$$
Phe_2Meoxiranylketone
     RDKit          2D

 15 16  0  0  0  0  0  0  0  0999 V2000
   -0.4374    1.4008    0.0000 N   0  0  0  0  0  0  0  0  0  0  0  0
   -0.6717   -0.0808    0.0000 C   0  0  0  0  0  0  0  0  0  0  0  0
   -2.0720   -0.6186    0.0000 C   0  0  0  0  0  0  0  0  0  0  0  0
   -2.3064   -2.1001    0.0000 O   0  0  0  0  0  0  0  0  0  0  0  0
   -3.2379    0.3252    0.0000 C   0  0  0  0  0  0  0  0  0  0  0  0
   -4.6563    0.8133    0.0000 O   0  0  0  0  0  0  0  0  0  0  0  0
   -4.3698   -0.6591    0.0000 C   0  0  0  0  0  0  0  0  0  0  0  0
   -2.5109    1.6373    0.0000 C   0  0  0  0  0  0  0  0  0  0  0  0
    0.4942   -1.0245    0.0000 C   0  0  0  0  0  0  0  0  0  0  0  0
    1.8944   -0.4867    0.0000 C   0  0  0  0  0  0  0  0  0  0  0  0
    3.0603   -1.4305    0.0000 C   0  0  0  0  0  0  0  0  0  0  0  0
    4.4606   -0.8927    0.0000 C   0  0  0  0  0  0  0  0  0  0  0  0
    4.6950    0.5889    0.0000 C   0  0  0  0  0  0  0  0  0  0  0  0
    3.5291    1.5327    0.0000 C   0  0  0  0  0  0  0  0  0  0  0  0
    2.1288    0.9949    0.0000 C   0  0  0  0  0  0  0  0  0  0  0  0
  2  1  1  1
  2  3  1  0
  3  4  2  0
  3  5  1  0
  5  6  1  0
  6  7  1  0
  5  8  1  6
  2  9  1  0
  9 10  1  0
 10 11  2  0
 11 12  1  0
 12 13  2  0
 13 14  1  0
 14 15  2  0
 15 10  1  0
  7  5  1  0
M  END
>  <rName>  (2851) 
Phe_2Meoxiranylketone

>  <PQ_SYMBOL>  (2851) 
Phe_2Meoxiranylketone

>  <FULL_NAME>  (2851) 
(2S)-2-amino-1-[(2R)-2-methyloxiran-2-yl]-3-phenylpropan-1-one

>  <IUPAC_CONDENSED>  (2851) 
Phe(2Me-oxiranyl-ketone)

>  <IUPAC>  (2851) 
(2S)-2-amino-1-((2R)-2-methyl-oxiran-2-yl)-3-phenylpropan-1-one

>  <TYPE>  (2851) 
C-term cap

>  <CLASS>  (2851) 
c_cap

>  <ANALOG>  (2851) 
X

>  <MOL_WT>  (2851) 
205.257

>  <LOGP>  (2851) 
0.9143999999999992

>  <TPSA>  (2851) 
55.620000000000005

>  <POPULARITY>  (2851) 
11.4

>  <PROTECTED>  (2851) 
TRUE

>  <SMILES>  (2851) 
N[C@H](C(=O)[C@@]2(OC2)(C))Cc1ccccc1

>  <INCHIKEY>  (2851) 
KWADEJYHBBQJTA-CMPLNLGQSA-N

$$$$
Phe_2NH2
     RDKit          2D

 13 13  0  0  0  0  0  0  0  0999 V2000
   -1.4864    1.8099    0.0000 N   0  0  0  0  0  0  0  0  0  0  0  0
   -1.7669    0.3364    0.0000 C   0  0  0  0  0  0  0  0  0  0  0  0
   -0.6311   -0.6433    0.0000 C   0  0  0  0  0  0  0  0  0  0  0  0
    0.7853   -0.1495    0.0000 C   0  0  0  0  0  0  0  0  0  0  0  0
    1.0658    1.3241    0.0000 C   0  0  0  0  0  0  0  0  0  0  0  0
    2.4822    1.8179    0.0000 C   0  0  0  0  0  0  0  0  0  0  0  0
    3.6181    0.8382    0.0000 C   0  0  0  0  0  0  0  0  0  0  0  0
    3.3376   -0.6353    0.0000 C   0  0  0  0  0  0  0  0  0  0  0  0
    1.9212   -1.1292    0.0000 C   0  0  0  0  0  0  0  0  0  0  0  0
    1.6407   -2.6027    0.0000 N   0  0  0  0  0  0  0  0  0  0  0  0
   -3.1833   -0.1575    0.0000 C   0  0  0  0  0  0  0  0  0  0  0  0
   -3.4638   -1.6310    0.0000 O   0  0  0  0  0  0  0  0  0  0  0  0
   -4.3192    0.8222    0.0000 O   0  0  0  0  0  0  0  0  0  0  0  0
  2  1  1  1
  2  3  1  0
  3  4  1  0
  4  5  2  0
  5  6  1  0
  6  7  2  0
  7  8  1  0
  8  9  2  0
  9 10  1  0
  2 11  1  0
 11 12  2  0
 11 13  1  0
  9  4  1  0
M  END
>  <rName>  (2852) 
Phe_2NH2

>  <PQ_SYMBOL>  (2852) 
Phe_2NH2

>  <FULL_NAME>  (2852) 
2-Amino-L-Phenylalanine

>  <IUPAC_CONDENSED>  (2852) 
Phe(2-NH2)

>  <IUPAC>  (2852) 
(2S)-2-amino-3-(2-aminophenyl)propanoic acid

>  <TYPE>  (2852) 
Backbone

>  <CLASS>  (2852) 
alpha

>  <ANALOG>  (2852) 
Phe

>  <MOL_WT>  (2852) 
180.20699999999994

>  <LOGP>  (2852) 
0.22320000000000012

>  <TPSA>  (2852) 
89.34

>  <POPULARITY>  (2852) 
7.7

>  <PROTECTED>  (2852) 
TRUE

>  <SMILES>  (2852) 
N[C@@H](Cc1(ccccc1N))C(=O)O

>  <INCHIKEY>  (2852) 
DJZAVKNBQZFEAL-QMMMGPOBSA-N

$$$$
Phe_2NH2_45diMe
     RDKit          2D

 15 15  0  0  0  0  0  0  0  0999 V2000
   -1.7432    1.8004    0.0000 N   0  0  0  0  0  0  0  0  0  0  0  0
   -2.2534    0.3899    0.0000 C   0  0  0  0  0  0  0  0  0  0  0  0
   -1.2870   -0.7573    0.0000 C   0  0  0  0  0  0  0  0  0  0  0  0
    0.1897   -0.4940    0.0000 C   0  0  0  0  0  0  0  0  0  0  0  0
    0.7000    0.9165    0.0000 C   0  0  0  0  0  0  0  0  0  0  0  0
    2.1767    1.1799    0.0000 C   0  0  0  0  0  0  0  0  0  0  0  0
    2.6869    2.5904    0.0000 C   0  0  0  0  0  0  0  0  0  0  0  0
    3.1431    0.0327    0.0000 C   0  0  0  0  0  0  0  0  0  0  0  0
    4.6198    0.2961    0.0000 C   0  0  0  0  0  0  0  0  0  0  0  0
    2.6328   -1.3778    0.0000 C   0  0  0  0  0  0  0  0  0  0  0  0
    1.1561   -1.6412    0.0000 C   0  0  0  0  0  0  0  0  0  0  0  0
    0.6458   -3.0517    0.0000 N   0  0  0  0  0  0  0  0  0  0  0  0
   -3.7301    0.1265    0.0000 C   0  0  0  0  0  0  0  0  0  0  0  0
   -4.2404   -1.2840    0.0000 O   0  0  0  0  0  0  0  0  0  0  0  0
   -4.6966    1.2737    0.0000 O   0  0  0  0  0  0  0  0  0  0  0  0
  2  1  1  1
  2  3  1  0
  3  4  1  0
  4  5  1  0
  5  6  2  0
  6  7  1  0
  6  8  1  0
  8  9  1  0
  8 10  2  0
 10 11  1  0
 11 12  1  0
  2 13  1  0
 13 14  2  0
 13 15  1  0
 11  4  2  0
M  END
>  <rName>  (2853) 
Phe_2NH2_45diMe

>  <PQ_SYMBOL>  (2853) 
Phe_2NH2_45diMe

>  <FULL_NAME>  (2853) 
(S)-2-amino-3-(2-amino-4,5-dimethylphenyl)propanoic acid

>  <IUPAC_CONDENSED>  (2853) 
Phe(2-NH2,4,5-diMe)

>  <IUPAC>  (2853) 
(2S)-2-amino-3-(2-amino-4,5-dimethylphenyl)propanoic acid

>  <TYPE>  (2853) 
Backbone

>  <CLASS>  (2853) 
alpha

>  <ANALOG>  (2853) 
Phe

>  <MOL_WT>  (2853) 
208.26099999999997

>  <LOGP>  (2853) 
0.8400399999999999

>  <TPSA>  (2853) 
89.34

>  <POPULARITY>  (2853) 
3.0

>  <PROTECTED>  (2853) 
TRUE

>  <SMILES>  (2853) 
N[C@@H](Cc1(cc(C)c(C)cc1N))C(=O)O

>  <INCHIKEY>  (2853) 
GYURMXIHJKDLFC-JTQLQIEISA-N

$$$$
Phe_2NH2_4CF3
     RDKit          2D

 17 17  0  0  0  0  0  0  0  0999 V2000
   -2.4937    1.8764    0.0000 N   0  0  0  0  0  0  0  0  0  0  0  0
   -2.9991    0.4641    0.0000 C   0  0  0  0  0  0  0  0  0  0  0  0
   -2.0288   -0.6797    0.0000 C   0  0  0  0  0  0  0  0  0  0  0  0
   -0.5530   -0.4113    0.0000 C   0  0  0  0  0  0  0  0  0  0  0  0
   -0.0476    1.0010    0.0000 C   0  0  0  0  0  0  0  0  0  0  0  0
    1.4282    1.2695    0.0000 C   0  0  0  0  0  0  0  0  0  0  0  0
    2.3986    0.1256    0.0000 C   0  0  0  0  0  0  0  0  0  0  0  0
    1.8932   -1.2867    0.0000 C   0  0  0  0  0  0  0  0  0  0  0  0
    0.4174   -1.5551    0.0000 C   0  0  0  0  0  0  0  0  0  0  0  0
   -0.0880   -2.9674    0.0000 N   0  0  0  0  0  0  0  0  0  0  0  0
    3.8744    0.3941    0.0000 C   0  0  0  0  0  0  0  0  0  0  0  0
    5.3502    0.6625    0.0000 F   0  0  0  0  0  0  0  0  0  0  0  0
    4.1428   -1.0817    0.0000 F   0  0  0  0  0  0  0  0  0  0  0  0
    3.6059    1.8699    0.0000 F   0  0  0  0  0  0  0  0  0  0  0  0
   -4.4749    0.1957    0.0000 C   0  0  0  0  0  0  0  0  0  0  0  0
   -4.9803   -1.2166    0.0000 O   0  0  0  0  0  0  0  0  0  0  0  0
   -5.4453    1.3395    0.0000 O   0  0  0  0  0  0  0  0  0  0  0  0
  2  1  1  1
  2  3  1  0
  3  4  1  0
  4  5  1  0
  5  6  2  0
  6  7  1  0
  7  8  2  0
  8  9  1  0
  9 10  1  0
  7 11  1  0
 11 12  1  0
 11 13  1  0
 11 14  1  0
  2 15  1  0
 15 16  2  0
 15 17  1  0
  9  4  2  0
M  END
>  <rName>  (2854) 
Phe_2NH2_4CF3

>  <PQ_SYMBOL>  (2854) 
Phe_2NH2_4CF3

>  <FULL_NAME>  (2854) 
(S)-2-amino-3-(2-amino-4-(trifluoromethyl)phenyl)propanoic acid

>  <IUPAC_CONDENSED>  (2854) 
Phe(2-NH2,4-CF3)

>  <IUPAC>  (2854) 
(2S)-2-amino-3-(2-amino-4-(trifluoromethyl)phenyl)propanoic acid

>  <TYPE>  (2854) 
Backbone

>  <CLASS>  (2854) 
alpha

>  <ANALOG>  (2854) 
Phe

>  <MOL_WT>  (2854) 
248.20399999999992

>  <LOGP>  (2854) 
1.2420000000000002

>  <TPSA>  (2854) 
89.34

>  <POPULARITY>  (2854) 
2.9

>  <PROTECTED>  (2854) 
TRUE

>  <SMILES>  (2854) 
N[C@@H](Cc1(ccc(cc1N)C(F)(F)F))C(=O)O

>  <INCHIKEY>  (2854) 
PHVRLXVCQZNDSZ-QMMMGPOBSA-N

$$$$
Phe_2NH2_4CN
     RDKit          2D

 15 15  0  0  0  0  0  0  0  0999 V2000
   -2.0190    1.8851    0.0000 N   0  0  0  0  0  0  0  0  0  0  0  0
   -2.4933    0.4621    0.0000 C   0  0  0  0  0  0  0  0  0  0  0  0
   -1.4981   -0.6602    0.0000 C   0  0  0  0  0  0  0  0  0  0  0  0
   -0.0285   -0.3594    0.0000 C   0  0  0  0  0  0  0  0  0  0  0  0
    0.4458    1.0636    0.0000 C   0  0  0  0  0  0  0  0  0  0  0  0
    1.9153    1.3644    0.0000 C   0  0  0  0  0  0  0  0  0  0  0  0
    2.9106    0.2421    0.0000 C   0  0  0  0  0  0  0  0  0  0  0  0
    4.3801    0.5428    0.0000 C   0  0  0  0  0  0  0  0  0  0  0  0
    5.8496    0.8436    0.0000 N   0  0  0  0  0  0  0  0  0  0  0  0
    2.4363   -1.1810    0.0000 C   0  0  0  0  0  0  0  0  0  0  0  0
    0.9667   -1.4817    0.0000 C   0  0  0  0  0  0  0  0  0  0  0  0
    0.4924   -2.9047    0.0000 N   0  0  0  0  0  0  0  0  0  0  0  0
   -3.9628    0.1614    0.0000 C   0  0  0  0  0  0  0  0  0  0  0  0
   -4.4371   -1.2617    0.0000 O   0  0  0  0  0  0  0  0  0  0  0  0
   -4.9581    1.2836    0.0000 O   0  0  0  0  0  0  0  0  0  0  0  0
  2  1  1  1
  2  3  1  0
  3  4  1  0
  4  5  1  0
  5  6  2  0
  6  7  1  0
  7  8  1  0
  8  9  3  0
  7 10  2  0
 10 11  1  0
 11 12  1  0
  2 13  1  0
 13 14  2  0
 13 15  1  0
 11  4  2  0
M  END
>  <rName>  (2855) 
Phe_2NH2_4CN

>  <PQ_SYMBOL>  (2855) 
Phe_2NH2_4CN

>  <FULL_NAME>  (2855) 
(S)-2-amino-3-(2-amino-4-cyanophenyl)propanoic acid

>  <IUPAC_CONDENSED>  (2855) 
Phe(2-NH2,4-CN)

>  <IUPAC>  (2855) 
(2S)-2-amino-3-(2-amino-4-(nitrilomethyl)phenyl)propanoic acid

>  <TYPE>  (2855) 
Backbone

>  <CLASS>  (2855) 
alpha

>  <ANALOG>  (2855) 
Phe

>  <MOL_WT>  (2855) 
205.21699999999998

>  <LOGP>  (2855) 
0.09487999999999991

>  <TPSA>  (2855) 
113.13000000000001

>  <POPULARITY>  (2855) 
2.8

>  <PROTECTED>  (2855) 
TRUE

>  <SMILES>  (2855) 
N[C@@H](Cc1(ccc(C#N)cc1N))C(=O)O

>  <INCHIKEY>  (2855) 
GURRFLGVWOKQHJ-VIFPVBQESA-N

$$$$
Phe_2NH2_4Me
     RDKit          2D

 14 14  0  0  0  0  0  0  0  0999 V2000
   -1.7174    1.8436    0.0000 N   0  0  0  0  0  0  0  0  0  0  0  0
   -2.1036    0.3942    0.0000 C   0  0  0  0  0  0  0  0  0  0  0  0
   -1.0414   -0.6650    0.0000 C   0  0  0  0  0  0  0  0  0  0  0  0
    0.4069   -0.2747    0.0000 C   0  0  0  0  0  0  0  0  0  0  0  0
    0.7931    1.1747    0.0000 C   0  0  0  0  0  0  0  0  0  0  0  0
    2.2415    1.5649    0.0000 C   0  0  0  0  0  0  0  0  0  0  0  0
    3.3036    0.5057    0.0000 C   0  0  0  0  0  0  0  0  0  0  0  0
    4.7520    0.8960    0.0000 C   0  0  0  0  0  0  0  0  0  0  0  0
    2.9174   -0.9437    0.0000 C   0  0  0  0  0  0  0  0  0  0  0  0
    1.4691   -1.3339    0.0000 C   0  0  0  0  0  0  0  0  0  0  0  0
    1.0829   -2.7834    0.0000 N   0  0  0  0  0  0  0  0  0  0  0  0
   -3.5519    0.0039    0.0000 C   0  0  0  0  0  0  0  0  0  0  0  0
   -3.9381   -1.4455    0.0000 O   0  0  0  0  0  0  0  0  0  0  0  0
   -4.6140    1.0631    0.0000 O   0  0  0  0  0  0  0  0  0  0  0  0
  2  1  1  1
  2  3  1  0
  3  4  1  0
  4  5  1  0
  5  6  2  0
  6  7  1  0
  7  8  1  0
  7  9  2  0
  9 10  1  0
 10 11  1  0
  2 12  1  0
 12 13  2  0
 12 14  1  0
 10  4  2  0
M  END
>  <rName>  (2856) 
Phe_2NH2_4Me

>  <PQ_SYMBOL>  (2856) 
Phe_2NH2_4Me

>  <FULL_NAME>  (2856) 
(S)-2-amino-3-(2-amino-4-methylphenyl)propanoic acid

>  <IUPAC_CONDENSED>  (2856) 
Phe(2-NH2,4-Me)

>  <IUPAC>  (2856) 
(2S)-2-amino-3-(2-amino-4-methylphenyl)propanoic acid

>  <TYPE>  (2856) 
Backbone

>  <CLASS>  (2856) 
alpha

>  <ANALOG>  (2856) 
Phe

>  <MOL_WT>  (2856) 
194.23399999999995

>  <LOGP>  (2856) 
0.53162

>  <TPSA>  (2856) 
89.34

>  <POPULARITY>  (2856) 
3.7

>  <PROTECTED>  (2856) 
TRUE

>  <SMILES>  (2856) 
N[C@@H](Cc1(ccc(C)cc1N))C(=O)O

>  <INCHIKEY>  (2856) 
ZIAYHZBNDYJFKK-VIFPVBQESA-N

$$$$
Phe_2NH2_5Ac
     RDKit          2D

 16 16  0  0  0  0  0  0  0  0999 V2000
    1.4458   -1.7915    0.0000 N   0  0  0  0  0  0  0  0  0  0  0  0
    2.2696   -0.5380    0.0000 C   0  0  0  0  0  0  0  0  0  0  0  0
    1.5959    0.8022    0.0000 C   0  0  0  0  0  0  0  0  0  0  0  0
    0.0984    0.8889    0.0000 C   0  0  0  0  0  0  0  0  0  0  0  0
   -0.7254   -0.3646    0.0000 C   0  0  0  0  0  0  0  0  0  0  0  0
   -2.2229   -0.2780    0.0000 C   0  0  0  0  0  0  0  0  0  0  0  0
   -2.8966    1.0622    0.0000 C   0  0  0  0  0  0  0  0  0  0  0  0
   -2.0728    2.3158    0.0000 C   0  0  0  0  0  0  0  0  0  0  0  0
   -0.5753    2.2291    0.0000 C   0  0  0  0  0  0  0  0  0  0  0  0
    0.2485    3.4826    0.0000 N   0  0  0  0  0  0  0  0  0  0  0  0
   -3.0467   -1.5315    0.0000 C   0  0  0  0  0  0  0  0  0  0  0  0
   -2.3730   -2.8717    0.0000 O   0  0  0  0  0  0  0  0  0  0  0  0
   -4.5442   -1.4448    0.0000 C   0  0  0  0  0  0  0  0  0  0  0  0
    3.7671   -0.6247    0.0000 C   0  0  0  0  0  0  0  0  0  0  0  0
    4.5909    0.6289    0.0000 O   0  0  0  0  0  0  0  0  0  0  0  0
    4.4408   -1.9649    0.0000 O   0  0  0  0  0  0  0  0  0  0  0  0
  2  1  1  1
  2  3  1  0
  3  4  1  0
  4  5  1  0
  5  6  2  0
  6  7  1  0
  7  8  2  0
  8  9  1  0
  9 10  1  0
  6 11  1  0
 11 12  2  0
 11 13  1  0
  2 14  1  0
 14 15  2  0
 14 16  1  0
  9  4  2  0
M  END
>  <rName>  (2857) 
Phe_2NH2_5Ac

>  <PQ_SYMBOL>  (2857) 
Phe_2NH2_5Ac

>  <FULL_NAME>  (2857) 
(S)-3-(5-acetyl-2-aminophenyl)-2-aminopropanoic acid

>  <IUPAC_CONDENSED>  (2857) 
Phe(2-NH2,5-Ac)

>  <IUPAC>  (2857) 
(2S)-3-(5-(acetyl)-2-aminophenyl)-2-aminopropanoic acid

>  <TYPE>  (2857) 
Backbone

>  <CLASS>  (2857) 
alpha

>  <ANALOG>  (2857) 
Phe

>  <MOL_WT>  (2857) 
222.24399999999994

>  <LOGP>  (2857) 
0.4258

>  <TPSA>  (2857) 
106.41000000000001

>  <POPULARITY>  (2857) 
2.7

>  <PROTECTED>  (2857) 
TRUE

>  <SMILES>  (2857) 
N[C@@H](Cc1(cc(ccc1N)C(=O)C))C(=O)O

>  <INCHIKEY>  (2857) 
WRKGLUWMGNRNOT-JTQLQIEISA-N

$$$$
Phe_2NH2_5CN
     RDKit          2D

 15 15  0  0  0  0  0  0  0  0999 V2000
    1.3277   -1.8350    0.0000 N   0  0  0  0  0  0  0  0  0  0  0  0
    2.0935   -0.5452    0.0000 C   0  0  0  0  0  0  0  0  0  0  0  0
    1.3594    0.7629    0.0000 C   0  0  0  0  0  0  0  0  0  0  0  0
   -0.1405    0.7812    0.0000 C   0  0  0  0  0  0  0  0  0  0  0  0
   -0.9063   -0.5086    0.0000 C   0  0  0  0  0  0  0  0  0  0  0  0
   -2.4062   -0.4903    0.0000 C   0  0  0  0  0  0  0  0  0  0  0  0
   -3.1719   -1.7801    0.0000 C   0  0  0  0  0  0  0  0  0  0  0  0
   -3.9377   -3.0699    0.0000 N   0  0  0  0  0  0  0  0  0  0  0  0
   -3.1403    0.8178    0.0000 C   0  0  0  0  0  0  0  0  0  0  0  0
   -2.3745    2.1076    0.0000 C   0  0  0  0  0  0  0  0  0  0  0  0
   -0.8746    2.0893    0.0000 C   0  0  0  0  0  0  0  0  0  0  0  0
   -0.1088    3.3791    0.0000 N   0  0  0  0  0  0  0  0  0  0  0  0
    3.5934   -0.5635    0.0000 C   0  0  0  0  0  0  0  0  0  0  0  0
    4.3592    0.7263    0.0000 O   0  0  0  0  0  0  0  0  0  0  0  0
    4.3275   -1.8716    0.0000 O   0  0  0  0  0  0  0  0  0  0  0  0
  2  1  1  1
  2  3  1  0
  3  4  1  0
  4  5  1  0
  5  6  2  0
  6  7  1  0
  7  8  3  0
  6  9  1  0
  9 10  2  0
 10 11  1  0
 11 12  1  0
  2 13  1  0
 13 14  2  0
 13 15  1  0
 11  4  2  0
M  END
>  <rName>  (2858) 
Phe_2NH2_5CN

>  <PQ_SYMBOL>  (2858) 
Phe_2NH2_5CN

>  <FULL_NAME>  (2858) 
(S)-2-amino-3-(2-amino-5-cyanophenyl)propanoic acid

>  <IUPAC_CONDENSED>  (2858) 
Phe(2-NH2,5-CN)

>  <IUPAC>  (2858) 
(2S)-2-amino-3-(2-amino-5-(nitrilomethyl)phenyl)propanoic acid

>  <TYPE>  (2858) 
Backbone

>  <CLASS>  (2858) 
alpha

>  <ANALOG>  (2858) 
Phe

>  <MOL_WT>  (2858) 
205.21699999999998

>  <LOGP>  (2858) 
0.09487999999999991

>  <TPSA>  (2858) 
113.13000000000001

>  <POPULARITY>  (2858) 
2.8

>  <PROTECTED>  (2858) 
TRUE

>  <SMILES>  (2858) 
N[C@@H](Cc1(cc(C#N)ccc1N))C(=O)O

>  <INCHIKEY>  (2858) 
VUXLQLGTQIWNFI-VIFPVBQESA-N

$$$$
Phe_2NH2_5CO2H
     RDKit          2D

 16 16  0  0  0  0  0  0  0  0999 V2000
    1.4458   -1.7915    0.0000 N   0  0  0  0  0  0  0  0  0  0  0  0
    2.2696   -0.5380    0.0000 C   0  0  0  0  0  0  0  0  0  0  0  0
    1.5959    0.8022    0.0000 C   0  0  0  0  0  0  0  0  0  0  0  0
    0.0984    0.8889    0.0000 C   0  0  0  0  0  0  0  0  0  0  0  0
   -0.7254   -0.3646    0.0000 C   0  0  0  0  0  0  0  0  0  0  0  0
   -2.2229   -0.2780    0.0000 C   0  0  0  0  0  0  0  0  0  0  0  0
   -2.8966    1.0622    0.0000 C   0  0  0  0  0  0  0  0  0  0  0  0
   -2.0728    2.3158    0.0000 C   0  0  0  0  0  0  0  0  0  0  0  0
   -0.5753    2.2291    0.0000 C   0  0  0  0  0  0  0  0  0  0  0  0
    0.2485    3.4826    0.0000 N   0  0  0  0  0  0  0  0  0  0  0  0
   -3.0467   -1.5315    0.0000 C   0  0  0  0  0  0  0  0  0  0  0  0
   -2.3730   -2.8717    0.0000 O   0  0  0  0  0  0  0  0  0  0  0  0
   -4.5442   -1.4448    0.0000 O   0  0  0  0  0  0  0  0  0  0  0  0
    3.7671   -0.6247    0.0000 C   0  0  0  0  0  0  0  0  0  0  0  0
    4.5909    0.6289    0.0000 O   0  0  0  0  0  0  0  0  0  0  0  0
    4.4408   -1.9649    0.0000 O   0  0  0  0  0  0  0  0  0  0  0  0
  2  1  1  1
  2  3  1  0
  3  4  1  0
  4  5  1  0
  5  6  2  0
  6  7  1  0
  7  8  2  0
  8  9  1  0
  9 10  1  0
  6 11  1  0
 11 12  2  0
 11 13  1  0
  2 14  1  0
 14 15  2  0
 14 16  1  0
  9  4  2  0
M  END
>  <rName>  (2859) 
Phe_2NH2_5CO2H

>  <PQ_SYMBOL>  (2859) 
Phe_2NH2_5CO2H

>  <FULL_NAME>  (2859) 
(S)-4-amino-3-(2-amino-2-carboxyethyl)benzoic acid

>  <IUPAC_CONDENSED>  (2859) 
Phe(2-NH2,5-CO2H)

>  <IUPAC>  (2859) 
4-amino-3-((2S)-2-amino-3-hydroxy-3-oxopropyl)benzoic acid

>  <TYPE>  (2859) 
Backbone

>  <CLASS>  (2859) 
alpha

>  <ANALOG>  (2859) 
Phe

>  <MOL_WT>  (2859) 
224.21599999999995

>  <LOGP>  (2859) 
-0.07860000000000034

>  <TPSA>  (2859) 
126.64

>  <POPULARITY>  (2859) 
3.0

>  <PROTECTED>  (2859) 
TRUE

>  <SMILES>  (2859) 
N[C@@H](Cc1(cc(ccc1N)C(=O)O))C(=O)O

>  <INCHIKEY>  (2859) 
LDJURSVBWRDIII-QMMMGPOBSA-N

$$$$
Phe_2NH2_5F
     RDKit          2D

 14 14  0  0  0  0  0  0  0  0999 V2000
   -1.4552    1.7882    0.0000 N   0  0  0  0  0  0  0  0  0  0  0  0
   -1.9325    0.3661    0.0000 C   0  0  0  0  0  0  0  0  0  0  0  0
   -0.9397   -0.7583    0.0000 C   0  0  0  0  0  0  0  0  0  0  0  0
    0.5305   -0.4606    0.0000 C   0  0  0  0  0  0  0  0  0  0  0  0
    1.0078    0.9614    0.0000 C   0  0  0  0  0  0  0  0  0  0  0  0
    2.4780    1.2591    0.0000 C   0  0  0  0  0  0  0  0  0  0  0  0
    2.9553    2.6811    0.0000 F   0  0  0  0  0  0  0  0  0  0  0  0
    3.4709    0.1347    0.0000 C   0  0  0  0  0  0  0  0  0  0  0  0
    2.9935   -1.2874    0.0000 C   0  0  0  0  0  0  0  0  0  0  0  0
    1.5234   -1.5850    0.0000 C   0  0  0  0  0  0  0  0  0  0  0  0
    1.0461   -3.0070    0.0000 N   0  0  0  0  0  0  0  0  0  0  0  0
   -3.4027    0.0685    0.0000 C   0  0  0  0  0  0  0  0  0  0  0  0
   -3.8800   -1.3536    0.0000 O   0  0  0  0  0  0  0  0  0  0  0  0
   -4.3955    1.1929    0.0000 O   0  0  0  0  0  0  0  0  0  0  0  0
  2  1  1  1
  2  3  1  0
  3  4  1  0
  4  5  1  0
  5  6  2  0
  6  7  1  0
  6  8  1  0
  8  9  2  0
  9 10  1  0
 10 11  1  0
  2 12  1  0
 12 13  2  0
 12 14  1  0
 10  4  2  0
M  END
>  <rName>  (2860) 
Phe_2NH2_5F

>  <PQ_SYMBOL>  (2860) 
Phe_2NH2_5F

>  <FULL_NAME>  (2860) 
(S)-2-amino-3-(2-amino-5-fluorophenyl)propanoic acid

>  <IUPAC_CONDENSED>  (2860) 
Phe(2-NH2,5-F)

>  <IUPAC>  (2860) 
(2S)-2-amino-3-(2-amino-5-fluorophenyl)propanoic acid

>  <TYPE>  (2860) 
Backbone

>  <CLASS>  (2860) 
alpha

>  <ANALOG>  (2860) 
Phe

>  <MOL_WT>  (2860) 
198.19699999999997

>  <LOGP>  (2860) 
0.3622999999999999

>  <TPSA>  (2860) 
89.34

>  <POPULARITY>  (2860) 
3.1

>  <PROTECTED>  (2860) 
TRUE

>  <SMILES>  (2860) 
N[C@@H](Cc1(cc(F)ccc1N))C(=O)O

>  <INCHIKEY>  (2860) 
QBYSIDZVTCDJSV-QMMMGPOBSA-N

$$$$
Phe_2NH2_5Me
     RDKit          2D

 14 14  0  0  0  0  0  0  0  0999 V2000
   -1.4552    1.7882    0.0000 N   0  0  0  0  0  0  0  0  0  0  0  0
   -1.9325    0.3661    0.0000 C   0  0  0  0  0  0  0  0  0  0  0  0
   -0.9397   -0.7583    0.0000 C   0  0  0  0  0  0  0  0  0  0  0  0
    0.5305   -0.4606    0.0000 C   0  0  0  0  0  0  0  0  0  0  0  0
    1.0078    0.9614    0.0000 C   0  0  0  0  0  0  0  0  0  0  0  0
    2.4780    1.2591    0.0000 C   0  0  0  0  0  0  0  0  0  0  0  0
    2.9553    2.6811    0.0000 C   0  0  0  0  0  0  0  0  0  0  0  0
    3.4709    0.1347    0.0000 C   0  0  0  0  0  0  0  0  0  0  0  0
    2.9935   -1.2874    0.0000 C   0  0  0  0  0  0  0  0  0  0  0  0
    1.5234   -1.5850    0.0000 C   0  0  0  0  0  0  0  0  0  0  0  0
    1.0461   -3.0070    0.0000 N   0  0  0  0  0  0  0  0  0  0  0  0
   -3.4027    0.0685    0.0000 C   0  0  0  0  0  0  0  0  0  0  0  0
   -3.8800   -1.3536    0.0000 O   0  0  0  0  0  0  0  0  0  0  0  0
   -4.3955    1.1929    0.0000 O   0  0  0  0  0  0  0  0  0  0  0  0
  2  1  1  1
  2  3  1  0
  3  4  1  0
  4  5  1  0
  5  6  2  0
  6  7  1  0
  6  8  1  0
  8  9  2  0
  9 10  1  0
 10 11  1  0
  2 12  1  0
 12 13  2  0
 12 14  1  0
 10  4  2  0
M  END
>  <rName>  (2861) 
Phe_2NH2_5Me

>  <PQ_SYMBOL>  (2861) 
Phe_2NH2_5Me

>  <FULL_NAME>  (2861) 
(S)-2-amino-3-(2-amino-5-methylphenyl)propanoic acid

>  <IUPAC_CONDENSED>  (2861) 
Phe(2-NH2,5-Me)

>  <IUPAC>  (2861) 
(2S)-2-amino-3-(2-amino-5-methylphenyl)propanoic acid

>  <TYPE>  (2861) 
Backbone

>  <CLASS>  (2861) 
alpha

>  <ANALOG>  (2861) 
Phe

>  <MOL_WT>  (2861) 
194.23399999999995

>  <LOGP>  (2861) 
0.53162

>  <TPSA>  (2861) 
89.34

>  <POPULARITY>  (2861) 
4.3

>  <PROTECTED>  (2861) 
TRUE

>  <SMILES>  (2861) 
N[C@@H](Cc1(cc(C)ccc1N))C(=O)O

>  <INCHIKEY>  (2861) 
YBTVDJJROZMERN-VIFPVBQESA-N

$$$$
Phe_2NO2
     RDKit          2D

 15 15  0  0  0  0  0  0  0  0999 V2000
   -2.0511    1.9295    0.0000 N   0  0  0  0  0  0  0  0  0  0  0  0
   -2.0725    0.4296    0.0000 C   0  0  0  0  0  0  0  0  0  0  0  0
   -0.7843   -0.3388    0.0000 C   0  0  0  0  0  0  0  0  0  0  0  0
    0.5253    0.3925    0.0000 C   0  0  0  0  0  0  0  0  0  0  0  0
    0.5467    1.8924    0.0000 C   0  0  0  0  0  0  0  0  0  0  0  0
    1.8563    2.6238    0.0000 C   0  0  0  0  0  0  0  0  0  0  0  0
    3.1445    1.8553    0.0000 C   0  0  0  0  0  0  0  0  0  0  0  0
    3.1231    0.3555    0.0000 C   0  0  0  0  0  0  0  0  0  0  0  0
    1.8135   -0.3759    0.0000 C   0  0  0  0  0  0  0  0  0  0  0  0
    1.7921   -1.8758    0.0000 N   0  0  0  0  0  0  0  0  0  0  0  0
    0.4825   -2.6072    0.0000 O   0  0  0  0  0  0  0  0  0  0  0  0
    3.0803   -2.6442    0.0000 O   0  0  0  0  0  0  0  0  0  0  0  0
   -3.3821   -0.3018    0.0000 C   0  0  0  0  0  0  0  0  0  0  0  0
   -3.4036   -1.8016    0.0000 O   0  0  0  0  0  0  0  0  0  0  0  0
   -4.6704    0.4667    0.0000 O   0  0  0  0  0  0  0  0  0  0  0  0
  2  1  1  1
  2  3  1  0
  3  4  1  0
  4  5  2  0
  5  6  1  0
  6  7  2  0
  7  8  1  0
  8  9  2  0
  9 10  1  0
 10 11  2  0
 10 12  1  0
  2 13  1  0
 13 14  2  0
 13 15  1  0
  9  4  1  0
M  CHG  2  10   1  12  -1
M  END
>  <rName>  (2862) 
Phe_2NO2

>  <PQ_SYMBOL>  (2862) 
Phe_2NO2

>  <FULL_NAME>  (2862) 
2-Nitro-L-Phenylalanine

>  <IUPAC_CONDENSED>  (2862) 
Phe(2-NO2)

>  <IUPAC>  (2862) 
(2S)-2-amino-3-(2-nitrophenyl)propanoic acid

>  <TYPE>  (2862) 
Backbone

>  <CLASS>  (2862) 
alpha

>  <ANALOG>  (2862) 
Phe

>  <MOL_WT>  (2862) 
210.18899999999994

>  <LOGP>  (2862) 
0.5492000000000001

>  <TPSA>  (2862) 
106.46

>  <POPULARITY>  (2862) 
7.0

>  <PROTECTED>  (2862) 
TRUE

>  <SMILES>  (2862) 
N[C@@H](Cc1(ccccc1[N+](=O)[O-]))C(=O)O

>  <INCHIKEY>  (2862) 
SDZGVFSSLGTJAJ-ZETCQYMHSA-N

$$$$
Phe_2NO2_4CF3
     RDKit          2D

 19 19  0  0  0  0  0  0  0  0999 V2000
   -2.4374    2.2852    0.0000 N   0  0  0  0  0  0  0  0  0  0  0  0
   -2.9555    0.8775    0.0000 C   0  0  0  0  0  0  0  0  0  0  0  0
   -1.9955   -0.2750    0.0000 C   0  0  0  0  0  0  0  0  0  0  0  0
   -0.5173   -0.0199    0.0000 C   0  0  0  0  0  0  0  0  0  0  0  0
    0.0008    1.3878    0.0000 C   0  0  0  0  0  0  0  0  0  0  0  0
    1.4790    1.6429    0.0000 C   0  0  0  0  0  0  0  0  0  0  0  0
    2.4390    0.4904    0.0000 C   0  0  0  0  0  0  0  0  0  0  0  0
    1.9209   -0.9173    0.0000 C   0  0  0  0  0  0  0  0  0  0  0  0
    0.4427   -1.1725    0.0000 C   0  0  0  0  0  0  0  0  0  0  0  0
   -0.0754   -2.5801    0.0000 N   0  0  0  0  0  0  0  0  0  0  0  0
   -1.5535   -2.8353    0.0000 O   0  0  0  0  0  0  0  0  0  0  0  0
    0.8846   -3.7327    0.0000 O   0  0  0  0  0  0  0  0  0  0  0  0
    3.9171    0.7455    0.0000 C   0  0  0  0  0  0  0  0  0  0  0  0
    5.3953    1.0006    0.0000 F   0  0  0  0  0  0  0  0  0  0  0  0
    4.1723   -0.7327    0.0000 F   0  0  0  0  0  0  0  0  0  0  0  0
    3.6620    2.2236    0.0000 F   0  0  0  0  0  0  0  0  0  0  0  0
   -4.4336    0.6224    0.0000 C   0  0  0  0  0  0  0  0  0  0  0  0
   -4.9517   -0.7853    0.0000 O   0  0  0  0  0  0  0  0  0  0  0  0
   -5.3936    1.7749    0.0000 O   0  0  0  0  0  0  0  0  0  0  0  0
  2  1  1  1
  2  3  1  0
  3  4  1  0
  4  5  1  0
  5  6  2  0
  6  7  1  0
  7  8  2  0
  8  9  1  0
  9 10  1  0
 10 11  2  0
 10 12  1  0
  7 13  1  0
 13 14  1  0
 13 15  1  0
 13 16  1  0
  2 17  1  0
 17 18  2  0
 17 19  1  0
  9  4  2  0
M  CHG  2  10   1  12  -1
M  END
>  <rName>  (2863) 
Phe_2NO2_4CF3

>  <PQ_SYMBOL>  (2863) 
Phe_2NO2_4CF3

>  <FULL_NAME>  (2863) 
(S)-2-amino-3-(2-nitro-4-(trifluoromethyl)phenyl)propanoic acid

>  <IUPAC_CONDENSED>  (2863) 
Phe(2-NO2,4-CF3)

>  <IUPAC>  (2863) 
(2S)-2-amino-3-(2-nitro-4-(trifluoromethyl)phenyl)propanoic acid

>  <TYPE>  (2863) 
Backbone

>  <CLASS>  (2863) 
alpha

>  <ANALOG>  (2863) 
Phe

>  <MOL_WT>  (2863) 
278.1859999999999

>  <LOGP>  (2863) 
1.568

>  <TPSA>  (2863) 
106.46

>  <POPULARITY>  (2863) 
2.6

>  <PROTECTED>  (2863) 
TRUE

>  <SMILES>  (2863) 
N[C@@H](Cc1(ccc(cc1[N+](=O)[O-])C(F)(F)F))C(=O)O

>  <INCHIKEY>  (2863) 
PJILYQVCCFLYSL-ZETCQYMHSA-N

$$$$
Phe_2NO2_4CN
     RDKit          2D

 17 17  0  0  0  0  0  0  0  0999 V2000
   -2.1084    2.2565    0.0000 N   0  0  0  0  0  0  0  0  0  0  0  0
   -2.5455    0.8216    0.0000 C   0  0  0  0  0  0  0  0  0  0  0  0
   -1.5215   -0.2744    0.0000 C   0  0  0  0  0  0  0  0  0  0  0  0
   -0.0602    0.0645    0.0000 C   0  0  0  0  0  0  0  0  0  0  0  0
    0.3769    1.4994    0.0000 C   0  0  0  0  0  0  0  0  0  0  0  0
    1.8381    1.8382    0.0000 C   0  0  0  0  0  0  0  0  0  0  0  0
    2.8622    0.7422    0.0000 C   0  0  0  0  0  0  0  0  0  0  0  0
    4.3234    1.0811    0.0000 C   0  0  0  0  0  0  0  0  0  0  0  0
    5.7846    1.4200    0.0000 N   0  0  0  0  0  0  0  0  0  0  0  0
    2.4251   -0.6927    0.0000 C   0  0  0  0  0  0  0  0  0  0  0  0
    0.9639   -1.0315    0.0000 C   0  0  0  0  0  0  0  0  0  0  0  0
    0.5267   -2.4664    0.0000 N   0  0  0  0  0  0  0  0  0  0  0  0
   -0.9345   -2.8053    0.0000 O   0  0  0  0  0  0  0  0  0  0  0  0
    1.5508   -3.5624    0.0000 O   0  0  0  0  0  0  0  0  0  0  0  0
   -4.0068    0.4827    0.0000 C   0  0  0  0  0  0  0  0  0  0  0  0
   -4.4439   -0.9522    0.0000 O   0  0  0  0  0  0  0  0  0  0  0  0
   -5.0309    1.5787    0.0000 O   0  0  0  0  0  0  0  0  0  0  0  0
  2  1  1  1
  2  3  1  0
  3  4  1  0
  4  5  1  0
  5  6  2  0
  6  7  1  0
  7  8  1  0
  8  9  3  0
  7 10  2  0
 10 11  1  0
 11 12  1  0
 12 13  2  0
 12 14  1  0
  2 15  1  0
 15 16  2  0
 15 17  1  0
 11  4  2  0
M  CHG  2  12   1  14  -1
M  END
>  <rName>  (2864) 
Phe_2NO2_4CN

>  <PQ_SYMBOL>  (2864) 
Phe_2NO2_4CN

>  <FULL_NAME>  (2864) 
(S)-2-amino-3-(4-cyano-2-nitrophenyl)propanoic acid

>  <IUPAC_CONDENSED>  (2864) 
Phe(2-NO2,4-CN)

>  <IUPAC>  (2864) 
(2S)-2-amino-3-(4-(nitrilomethyl)-2-nitrophenyl)propanoic acid

>  <TYPE>  (2864) 
Backbone

>  <CLASS>  (2864) 
alpha

>  <ANALOG>  (2864) 
Phe

>  <MOL_WT>  (2864) 
235.19899999999998

>  <LOGP>  (2864) 
0.42087999999999987

>  <TPSA>  (2864) 
130.25

>  <POPULARITY>  (2864) 
2.6

>  <PROTECTED>  (2864) 
TRUE

>  <SMILES>  (2864) 
N[C@@H](Cc1(ccc(C#N)cc1[N+](=O)[O-]))C(=O)O

>  <INCHIKEY>  (2864) 
PWAANDSNQHWUET-QMMMGPOBSA-N

$$$$
Phe_2NO2_4CO2H
     RDKit          2D

 18 18  0  0  0  0  0  0  0  0999 V2000
   -2.2817    2.2658    0.0000 N   0  0  0  0  0  0  0  0  0  0  0  0
   -2.7617    0.8447    0.0000 C   0  0  0  0  0  0  0  0  0  0  0  0
   -1.7709   -0.2815    0.0000 C   0  0  0  0  0  0  0  0  0  0  0  0
   -0.3002    0.0134    0.0000 C   0  0  0  0  0  0  0  0  0  0  0  0
    0.1798    1.4346    0.0000 C   0  0  0  0  0  0  0  0  0  0  0  0
    1.6505    1.7295    0.0000 C   0  0  0  0  0  0  0  0  0  0  0  0
    2.6413    0.6033    0.0000 C   0  0  0  0  0  0  0  0  0  0  0  0
    2.1613   -0.8179    0.0000 C   0  0  0  0  0  0  0  0  0  0  0  0
    0.6906   -1.1128    0.0000 C   0  0  0  0  0  0  0  0  0  0  0  0
    0.2107   -2.5339    0.0000 N   0  0  0  0  0  0  0  0  0  0  0  0
   -1.2601   -2.8289    0.0000 O   0  0  0  0  0  0  0  0  0  0  0  0
    1.2014   -3.6602    0.0000 O   0  0  0  0  0  0  0  0  0  0  0  0
    4.1120    0.8982    0.0000 C   0  0  0  0  0  0  0  0  0  0  0  0
    4.5919    2.3193    0.0000 O   0  0  0  0  0  0  0  0  0  0  0  0
    5.1028   -0.2280    0.0000 O   0  0  0  0  0  0  0  0  0  0  0  0
   -4.2324    0.5498    0.0000 C   0  0  0  0  0  0  0  0  0  0  0  0
   -4.7123   -0.8714    0.0000 O   0  0  0  0  0  0  0  0  0  0  0  0
   -5.2232    1.6760    0.0000 O   0  0  0  0  0  0  0  0  0  0  0  0
  2  1  1  1
  2  3  1  0
  3  4  1  0
  4  5  1  0
  5  6  2  0
  6  7  1  0
  7  8  2  0
  8  9  1  0
  9 10  1  0
 10 11  2  0
 10 12  1  0
  7 13  1  0
 13 14  2  0
 13 15  1  0
  2 16  1  0
 16 17  2  0
 16 18  1  0
  9  4  2  0
M  CHG  2  10   1  12  -1
M  END
>  <rName>  (2865) 
Phe_2NO2_4CO2H

>  <PQ_SYMBOL>  (2865) 
Phe_2NO2_4CO2H

>  <FULL_NAME>  (2865) 
(S)-4-(2-amino-2-carboxyethyl)-3-nitrobenzoic acid

>  <IUPAC_CONDENSED>  (2865) 
Phe(2-NO2,4-CO2H)

>  <IUPAC>  (2865) 
4-((2S)-2-amino-3-hydroxy-3-oxopropyl)-3-nitrobenzene-1-carboxylic acid

>  <TYPE>  (2865) 
Backbone

>  <CLASS>  (2865) 
alpha

>  <ANALOG>  (2865) 
Phe

>  <MOL_WT>  (2865) 
254.19799999999995

>  <LOGP>  (2865) 
0.24739999999999973

>  <TPSA>  (2865) 
143.76

>  <POPULARITY>  (2865) 
2.7

>  <PROTECTED>  (2865) 
TRUE

>  <SMILES>  (2865) 
N[C@@H](Cc1(ccc(cc1[N+](=O)[O-])C(=O)O))C(=O)O

>  <INCHIKEY>  (2865) 
TUHDGYXTIWOGES-ZETCQYMHSA-N

$$$$
Phe_2NO2_4OMe
     RDKit          2D

 17 17  0  0  0  0  0  0  0  0999 V2000
   -2.2707    2.1590    0.0000 N   0  0  0  0  0  0  0  0  0  0  0  0
   -2.5866    0.6926    0.0000 C   0  0  0  0  0  0  0  0  0  0  0  0
   -1.4747   -0.3141    0.0000 C   0  0  0  0  0  0  0  0  0  0  0  0
   -0.0468    0.1455    0.0000 C   0  0  0  0  0  0  0  0  0  0  0  0
    0.2691    1.6118    0.0000 C   0  0  0  0  0  0  0  0  0  0  0  0
    1.6969    2.0714    0.0000 C   0  0  0  0  0  0  0  0  0  0  0  0
    2.8089    1.0647    0.0000 C   0  0  0  0  0  0  0  0  0  0  0  0
    4.2367    1.5243    0.0000 O   0  0  0  0  0  0  0  0  0  0  0  0
    5.3487    0.5175    0.0000 C   0  0  0  0  0  0  0  0  0  0  0  0
    2.4930   -0.4017    0.0000 C   0  0  0  0  0  0  0  0  0  0  0  0
    1.0651   -0.8613    0.0000 C   0  0  0  0  0  0  0  0  0  0  0  0
    0.7492   -2.3276    0.0000 N   0  0  0  0  0  0  0  0  0  0  0  0
   -0.6786   -2.7872    0.0000 O   0  0  0  0  0  0  0  0  0  0  0  0
    1.8612   -3.3344    0.0000 O   0  0  0  0  0  0  0  0  0  0  0  0
   -4.0145    0.2330    0.0000 C   0  0  0  0  0  0  0  0  0  0  0  0
   -4.3304   -1.2333    0.0000 O   0  0  0  0  0  0  0  0  0  0  0  0
   -5.1264    1.2398    0.0000 O   0  0  0  0  0  0  0  0  0  0  0  0
  2  1  1  1
  2  3  1  0
  3  4  1  0
  4  5  1  0
  5  6  2  0
  6  7  1  0
  7  8  1  0
  8  9  1  0
  7 10  2  0
 10 11  1  0
 11 12  1  0
 12 13  2  0
 12 14  1  0
  2 15  1  0
 15 16  2  0
 15 17  1  0
 11  4  2  0
M  CHG  2  12   1  14  -1
M  END
>  <rName>  (2866) 
Phe_2NO2_4OMe

>  <PQ_SYMBOL>  (2866) 
Phe_2NO2_4OMe

>  <FULL_NAME>  (2866) 
(S)-2-amino-3-(4-methoxy-2-nitrophenyl)propanoic acid

>  <IUPAC_CONDENSED>  (2866) 
Phe(2-NO2,4-OMe)

>  <IUPAC>  (2866) 
(2S)-2-amino-3-(4-methoxy-2-nitrophenyl)propanoic acid

>  <TYPE>  (2866) 
Backbone

>  <CLASS>  (2866) 
alpha

>  <ANALOG>  (2866) 
Tyr

>  <MOL_WT>  (2866) 
240.21499999999997

>  <LOGP>  (2866) 
0.5578000000000001

>  <TPSA>  (2866) 
115.69000000000001

>  <POPULARITY>  (2866) 
3.3

>  <PROTECTED>  (2866) 
TRUE

>  <SMILES>  (2866) 
N[C@@H](Cc1(ccc(OC)cc1[N+](=O)[O-]))C(=O)O

>  <INCHIKEY>  (2866) 
MWEASQYLIDPNTB-QMMMGPOBSA-N

$$$$
Phe_2NO2_5OMe
     RDKit          2D

 17 17  0  0  0  0  0  0  0  0999 V2000
   -1.4771    2.3022    0.0000 N   0  0  0  0  0  0  0  0  0  0  0  0
   -2.1654    0.9694    0.0000 C   0  0  0  0  0  0  0  0  0  0  0  0
   -1.3554   -0.2930    0.0000 C   0  0  0  0  0  0  0  0  0  0  0  0
    0.1429   -0.2228    0.0000 C   0  0  0  0  0  0  0  0  0  0  0  0
    0.8313    1.1100    0.0000 C   0  0  0  0  0  0  0  0  0  0  0  0
    2.3296    1.1802    0.0000 C   0  0  0  0  0  0  0  0  0  0  0  0
    3.0180    2.5130    0.0000 O   0  0  0  0  0  0  0  0  0  0  0  0
    4.5163    2.5832    0.0000 C   0  0  0  0  0  0  0  0  0  0  0  0
    3.1397   -0.0823    0.0000 C   0  0  0  0  0  0  0  0  0  0  0  0
    2.4513   -1.4150    0.0000 C   0  0  0  0  0  0  0  0  0  0  0  0
    0.9530   -1.4853    0.0000 C   0  0  0  0  0  0  0  0  0  0  0  0
    0.2646   -2.8180    0.0000 N   0  0  0  0  0  0  0  0  0  0  0  0
   -1.2337   -2.8883    0.0000 O   0  0  0  0  0  0  0  0  0  0  0  0
    1.0747   -4.0805    0.0000 O   0  0  0  0  0  0  0  0  0  0  0  0
   -3.6638    0.8992    0.0000 C   0  0  0  0  0  0  0  0  0  0  0  0
   -4.3521   -0.4336    0.0000 O   0  0  0  0  0  0  0  0  0  0  0  0
   -4.4738    2.1617    0.0000 O   0  0  0  0  0  0  0  0  0  0  0  0
  2  1  1  1
  2  3  1  0
  3  4  1  0
  4  5  1  0
  5  6  2  0
  6  7  1  0
  7  8  1  0
  6  9  1  0
  9 10  2  0
 10 11  1  0
 11 12  1  0
 12 13  2  0
 12 14  1  0
  2 15  1  0
 15 16  2  0
 15 17  1  0
 11  4  2  0
M  CHG  2  12   1  14  -1
M  END
>  <rName>  (2867) 
Phe_2NO2_5OMe

>  <PQ_SYMBOL>  (2867) 
Phe_2NO2_5OMe

>  <FULL_NAME>  (2867) 
(S)-2-amino-3-(5-methoxy-2-nitrophenyl)propanoic acid

>  <IUPAC_CONDENSED>  (2867) 
Phe(2-NO2,5-OMe)

>  <IUPAC>  (2867) 
(2S)-2-amino-3-(5-methoxy-2-nitrophenyl)propanoic acid

>  <TYPE>  (2867) 
Backbone

>  <CLASS>  (2867) 
alpha

>  <ANALOG>  (2867) 
Tyr

>  <MOL_WT>  (2867) 
240.21499999999997

>  <LOGP>  (2867) 
0.5578000000000001

>  <TPSA>  (2867) 
115.69000000000001

>  <POPULARITY>  (2867) 
3.5

>  <PROTECTED>  (2867) 
TRUE

>  <SMILES>  (2867) 
N[C@@H](Cc1(cc(OC)ccc1[N+](=O)[O-]))C(=O)O

>  <INCHIKEY>  (2867) 
LKLUGRJBXBWZEK-QMMMGPOBSA-N

$$$$
Phe_2OBn_5CF3
     RDKit          2D

 25 26  0  0  0  0  0  0  0  0999 V2000
   -4.3985   -1.4474    0.0000 N   0  0  0  0  0  0  0  0  0  0  0  0
   -3.2152   -2.3693    0.0000 C   0  0  0  0  0  0  0  0  0  0  0  0
   -1.8252   -1.8056    0.0000 C   0  0  0  0  0  0  0  0  0  0  0  0
   -1.6184   -0.3199    0.0000 C   0  0  0  0  0  0  0  0  0  0  0  0
   -2.8016    0.6020    0.0000 C   0  0  0  0  0  0  0  0  0  0  0  0
   -2.5948    2.0877    0.0000 C   0  0  0  0  0  0  0  0  0  0  0  0
   -1.2048    2.6514    0.0000 C   0  0  0  0  0  0  0  0  0  0  0  0
   -0.0216    1.7295    0.0000 C   0  0  0  0  0  0  0  0  0  0  0  0
   -0.2284    0.2438    0.0000 C   0  0  0  0  0  0  0  0  0  0  0  0
    0.9549   -0.6781    0.0000 C   0  0  0  0  0  0  0  0  0  0  0  0
    2.3449   -0.1144    0.0000 O   0  0  0  0  0  0  0  0  0  0  0  0
    3.5281   -1.0363    0.0000 C   0  0  0  0  0  0  0  0  0  0  0  0
    4.9182   -0.4726    0.0000 C   0  0  0  0  0  0  0  0  0  0  0  0
    6.1014   -1.3945    0.0000 C   0  0  0  0  0  0  0  0  0  0  0  0
    7.4914   -0.8308    0.0000 C   0  0  0  0  0  0  0  0  0  0  0  0
    7.6982    0.6549    0.0000 C   0  0  0  0  0  0  0  0  0  0  0  0
    6.5150    1.5768    0.0000 C   0  0  0  0  0  0  0  0  0  0  0  0
    5.1250    1.0131    0.0000 C   0  0  0  0  0  0  0  0  0  0  0  0
   -3.7781    3.0096    0.0000 C   0  0  0  0  0  0  0  0  0  0  0  0
   -4.9613    3.9316    0.0000 F   0  0  0  0  0  0  0  0  0  0  0  0
   -2.8561    4.1928    0.0000 F   0  0  0  0  0  0  0  0  0  0  0  0
   -4.7000    1.8264    0.0000 F   0  0  0  0  0  0  0  0  0  0  0  0
   -3.4220   -3.8550    0.0000 C   0  0  0  0  0  0  0  0  0  0  0  0
   -2.2388   -4.7770    0.0000 O   0  0  0  0  0  0  0  0  0  0  0  0
   -4.8121   -4.4188    0.0000 O   0  0  0  0  0  0  0  0  0  0  0  0
  2  1  1  1
  2  3  1  0
  3  4  1  0
  4  5  1  0
  5  6  2  0
  6  7  1  0
  7  8  2  0
  8  9  1  0
  9 10  1  0
 10 11  1  0
 11 12  1  0
 12 13  1  0
 13 14  2  0
 14 15  1  0
 15 16  2  0
 16 17  1  0
 17 18  2  0
  6 19  1  0
 19 20  1  0
 19 21  1  0
 19 22  1  0
  2 23  1  0
 23 24  2  0
 23 25  1  0
  9  4  2  0
 18 13  1  0
M  END
>  <rName>  (2868) 
Phe_2OBn_5CF3

>  <PQ_SYMBOL>  (2868) 
Phe_2OBn_5CF3

>  <FULL_NAME>  (2868) 
(S)-2-amino-3-(2-((benzyloxy)methyl)-5-(trifluoromethyl)phenyl)propanoic acid

>  <IUPAC_CONDENSED>  (2868) 
Phe(2-OBn,5-CF3)

>  <IUPAC>  (2868) 
(2S)-2-amino-3-(2-(benzyloxymethyl)-5-(trifluoromethyl)phenyl)propanoic acid

>  <TYPE>  (2868) 
Backbone

>  <CLASS>  (2868) 
alpha

>  <ANALOG>  (2868) 
Phe

>  <MOL_WT>  (2868) 
353.34

>  <LOGP>  (2868) 
3.3766000000000016

>  <TPSA>  (2868) 
72.55

>  <POPULARITY>  (2868) 
2.2

>  <PROTECTED>  (2868) 
TRUE

>  <SMILES>  (2868) 
N[C@@H](Cc1(cc(ccc1COCc2(ccccc2))C(F)(F)F))C(=O)O

>  <INCHIKEY>  (2868) 
DAIQAINVAGFNEB-INIZCTEOSA-N

$$$$
Phe_2OCF3
     RDKit          2D

 17 17  0  0  0  0  0  0  0  0999 V2000
   -3.2166    1.3671    0.0000 N   0  0  0  0  0  0  0  0  0  0  0  0
   -2.7769   -0.0670    0.0000 C   0  0  0  0  0  0  0  0  0  0  0  0
   -1.3150   -0.4032    0.0000 C   0  0  0  0  0  0  0  0  0  0  0  0
   -0.2929    0.6946    0.0000 C   0  0  0  0  0  0  0  0  0  0  0  0
   -0.7327    2.1287    0.0000 C   0  0  0  0  0  0  0  0  0  0  0  0
    0.2894    3.2266    0.0000 C   0  0  0  0  0  0  0  0  0  0  0  0
    1.7513    2.8904    0.0000 C   0  0  0  0  0  0  0  0  0  0  0  0
    2.1910    1.4563    0.0000 C   0  0  0  0  0  0  0  0  0  0  0  0
    1.1689    0.3584    0.0000 C   0  0  0  0  0  0  0  0  0  0  0  0
    1.6086   -1.0757    0.0000 O   0  0  0  0  0  0  0  0  0  0  0  0
    3.0705   -1.4119    0.0000 C   0  0  0  0  0  0  0  0  0  0  0  0
    4.5323   -1.7481    0.0000 F   0  0  0  0  0  0  0  0  0  0  0  0
    2.7342   -2.8737    0.0000 F   0  0  0  0  0  0  0  0  0  0  0  0
    3.4067    0.0499    0.0000 F   0  0  0  0  0  0  0  0  0  0  0  0
   -3.7990   -1.1649    0.0000 C   0  0  0  0  0  0  0  0  0  0  0  0
   -3.3592   -2.5990    0.0000 O   0  0  0  0  0  0  0  0  0  0  0  0
   -5.2608   -0.8286    0.0000 O   0  0  0  0  0  0  0  0  0  0  0  0
  2  1  1  1
  2  3  1  0
  3  4  1  0
  4  5  2  0
  5  6  1  0
  6  7  2  0
  7  8  1  0
  8  9  2  0
  9 10  1  0
 10 11  1  0
 11 12  1  0
 11 13  1  0
 11 14  1  0
  2 15  1  0
 15 16  2  0
 15 17  1  0
  9  4  1  0
M  END
>  <rName>  (2869) 
Phe_2OCF3

>  <PQ_SYMBOL>  (2869) 
Phe_2OCF3

>  <FULL_NAME>  (2869) 
(S)-2-amino-3-(2-(trifluoromethoxy)phenyl)propanoic acid

>  <IUPAC_CONDENSED>  (2869) 
Phe(2-OCF3)

>  <IUPAC>  (2869) 
(2S)-2-amino-3-(2-((trifluoromethyl)oxy)phenyl)propanoic acid

>  <TYPE>  (2869) 
Backbone

>  <CLASS>  (2869) 
alpha

>  <ANALOG>  (2869) 
Tyr

>  <MOL_WT>  (2869) 
249.18799999999993

>  <LOGP>  (2869) 
1.5396000000000003

>  <TPSA>  (2869) 
72.55

>  <POPULARITY>  (2869) 
5.7

>  <PROTECTED>  (2869) 
TRUE

>  <SMILES>  (2869) 
N[C@@H](Cc1(ccccc1OC(F)(F)F))C(=O)O

>  <INCHIKEY>  (2869) 
ILPKLBNKYRAICX-ZETCQYMHSA-N

$$$$
Phe_2OCF3_5NO2
     RDKit          2D

 20 20  0  0  0  0  0  0  0  0999 V2000
   -3.2263    0.0935    0.0000 N   0  0  0  0  0  0  0  0  0  0  0  0
   -2.5679   -1.2543    0.0000 C   0  0  0  0  0  0  0  0  0  0  0  0
   -1.0715   -1.3581    0.0000 C   0  0  0  0  0  0  0  0  0  0  0  0
   -0.2334   -0.1140    0.0000 C   0  0  0  0  0  0  0  0  0  0  0  0
   -0.8918    1.2338    0.0000 C   0  0  0  0  0  0  0  0  0  0  0  0
   -0.0537    2.4778    0.0000 C   0  0  0  0  0  0  0  0  0  0  0  0
    1.4427    2.3741    0.0000 C   0  0  0  0  0  0  0  0  0  0  0  0
    2.1010    1.0262    0.0000 C   0  0  0  0  0  0  0  0  0  0  0  0
    1.2630   -0.2178    0.0000 C   0  0  0  0  0  0  0  0  0  0  0  0
    1.9213   -1.5656    0.0000 O   0  0  0  0  0  0  0  0  0  0  0  0
    3.4177   -1.6694    0.0000 C   0  0  0  0  0  0  0  0  0  0  0  0
    4.9141   -1.7731    0.0000 F   0  0  0  0  0  0  0  0  0  0  0  0
    3.3139   -3.1658    0.0000 F   0  0  0  0  0  0  0  0  0  0  0  0
    3.5215   -0.1730    0.0000 F   0  0  0  0  0  0  0  0  0  0  0  0
   -0.7121    3.8256    0.0000 N   0  0  0  0  0  0  0  0  0  0  0  0
   -2.2085    3.9294    0.0000 O   0  0  0  0  0  0  0  0  0  0  0  0
    0.1260    5.0697    0.0000 O   0  0  0  0  0  0  0  0  0  0  0  0
   -3.4060   -2.4983    0.0000 C   0  0  0  0  0  0  0  0  0  0  0  0
   -2.7477   -3.8462    0.0000 O   0  0  0  0  0  0  0  0  0  0  0  0
   -4.9024   -2.3946    0.0000 O   0  0  0  0  0  0  0  0  0  0  0  0
  2  1  1  1
  2  3  1  0
  3  4  1  0
  4  5  1  0
  5  6  2  0
  6  7  1  0
  7  8  2  0
  8  9  1  0
  9 10  1  0
 10 11  1  0
 11 12  1  0
 11 13  1  0
 11 14  1  0
  6 15  1  0
 15 16  2  0
 15 17  1  0
  2 18  1  0
 18 19  2  0
 18 20  1  0
  9  4  2  0
M  CHG  2  15   1  17  -1
M  END
>  <rName>  (2870) 
Phe_2OCF3_5NO2

>  <PQ_SYMBOL>  (2870) 
Phe_2OCF3_5NO2

>  <FULL_NAME>  (2870) 
(S)-2-amino-3-(5-nitro-2-(trifluoromethoxy)phenyl)propanoic acid

>  <IUPAC_CONDENSED>  (2870) 
Phe(2-OCF3,5-NO2)

>  <IUPAC>  (2870) 
(2S)-2-amino-3-(5-nitro-2-((trifluoromethyl)oxy)phenyl)propanoic acid

>  <TYPE>  (2870) 
Backbone

>  <CLASS>  (2870) 
alpha

>  <ANALOG>  (2870) 
Tyr

>  <MOL_WT>  (2870) 
294.18499999999995

>  <LOGP>  (2870) 
1.4478

>  <TPSA>  (2870) 
115.69000000000001

>  <POPULARITY>  (2870) 
2.2

>  <PROTECTED>  (2870) 
TRUE

>  <SMILES>  (2870) 
N[C@@H](Cc1(cc(ccc1OC(F)(F)F)[N+](=O)[O-]))C(=O)O

>  <INCHIKEY>  (2870) 
MYHGAVZFZLMLIP-ZETCQYMHSA-N

$$$$
Phe_2OCHF2
     RDKit          2D

 16 16  0  0  0  0  0  0  0  0999 V2000
   -2.9416    1.4600    0.0000 N   0  0  0  0  0  0  0  0  0  0  0  0
   -2.5896    0.0018    0.0000 C   0  0  0  0  0  0  0  0  0  0  0  0
   -1.1509   -0.4224    0.0000 C   0  0  0  0  0  0  0  0  0  0  0  0
   -0.0641    0.6114    0.0000 C   0  0  0  0  0  0  0  0  0  0  0  0
   -0.4160    2.0695    0.0000 C   0  0  0  0  0  0  0  0  0  0  0  0
    0.6708    3.1034    0.0000 C   0  0  0  0  0  0  0  0  0  0  0  0
    2.1095    2.6791    0.0000 C   0  0  0  0  0  0  0  0  0  0  0  0
    2.4615    1.2210    0.0000 C   0  0  0  0  0  0  0  0  0  0  0  0
    1.3747    0.1871    0.0000 C   0  0  0  0  0  0  0  0  0  0  0  0
    1.7266   -1.2710    0.0000 O   0  0  0  0  0  0  0  0  0  0  0  0
    3.1654   -1.6953    0.0000 C   0  0  0  0  0  0  0  0  0  0  0  0
    3.5173   -3.1534    0.0000 F   0  0  0  0  0  0  0  0  0  0  0  0
    4.2522   -0.6614    0.0000 F   0  0  0  0  0  0  0  0  0  0  0  0
   -3.6764   -1.0320    0.0000 C   0  0  0  0  0  0  0  0  0  0  0  0
   -3.3245   -2.4902    0.0000 O   0  0  0  0  0  0  0  0  0  0  0  0
   -5.1152   -0.6078    0.0000 O   0  0  0  0  0  0  0  0  0  0  0  0
  2  1  1  1
  2  3  1  0
  3  4  1  0
  4  5  2  0
  5  6  1  0
  6  7  2  0
  7  8  1  0
  8  9  2  0
  9 10  1  0
 10 11  1  0
 11 12  1  0
 11 13  1  0
  2 14  1  0
 14 15  2  0
 14 16  1  0
  9  4  1  0
M  END
>  <rName>  (2871) 
Phe_2OCHF2

>  <PQ_SYMBOL>  (2871) 
Phe_2OCHF2

>  <FULL_NAME>  (2871) 
(S)-2-amino-3-(2-(difluoromethoxy)phenyl)propanoic acid

>  <IUPAC_CONDENSED>  (2871) 
Phe(2-OCHF2)

>  <IUPAC>  (2871) 
(2S)-2-amino-3-(2-((difluoromethyl)oxy)phenyl)propanoic acid

>  <TYPE>  (2871) 
Backbone

>  <CLASS>  (2871) 
alpha

>  <ANALOG>  (2871) 
Tyr

>  <MOL_WT>  (2871) 
231.19799999999995

>  <LOGP>  (2871) 
1.2424000000000002

>  <TPSA>  (2871) 
72.55

>  <POPULARITY>  (2871) 
3.5

>  <PROTECTED>  (2871) 
TRUE

>  <SMILES>  (2871) 
N[C@@H](Cc1(ccccc1OC(F)F))C(=O)O

>  <INCHIKEY>  (2871) 
BKVQCKOCBSJQSZ-ZETCQYMHSA-N

$$$$
Phe_2OH
     RDKit          2D

 13 13  0  0  0  0  0  0  0  0999 V2000
   -1.4864    1.8099    0.0000 N   0  0  0  0  0  0  0  0  0  0  0  0
   -1.7669    0.3364    0.0000 C   0  0  0  0  0  0  0  0  0  0  0  0
   -0.6311   -0.6433    0.0000 C   0  0  0  0  0  0  0  0  0  0  0  0
    0.7853   -0.1495    0.0000 C   0  0  0  0  0  0  0  0  0  0  0  0
    1.0658    1.3241    0.0000 C   0  0  0  0  0  0  0  0  0  0  0  0
    2.4822    1.8179    0.0000 C   0  0  0  0  0  0  0  0  0  0  0  0
    3.6181    0.8382    0.0000 C   0  0  0  0  0  0  0  0  0  0  0  0
    3.3376   -0.6353    0.0000 C   0  0  0  0  0  0  0  0  0  0  0  0
    1.9212   -1.1292    0.0000 C   0  0  0  0  0  0  0  0  0  0  0  0
    1.6407   -2.6027    0.0000 O   0  0  0  0  0  0  0  0  0  0  0  0
   -3.1833   -0.1575    0.0000 C   0  0  0  0  0  0  0  0  0  0  0  0
   -3.4638   -1.6310    0.0000 O   0  0  0  0  0  0  0  0  0  0  0  0
   -4.3192    0.8222    0.0000 O   0  0  0  0  0  0  0  0  0  0  0  0
  2  1  1  1
  2  3  1  0
  3  4  1  0
  4  5  2  0
  5  6  1  0
  6  7  2  0
  7  8  1  0
  8  9  2  0
  9 10  1  0
  2 11  1  0
 11 12  2  0
 11 13  1  0
  9  4  1  0
M  END
>  <rName>  (2872) 
Phe_2OH

>  <PQ_SYMBOL>  (2872) 
Phe_2OH

>  <FULL_NAME>  (2872) 
2-Hydroxy-L-Phenylalanine

>  <IUPAC_CONDENSED>  (2872) 
Phe(2-OH)

>  <IUPAC>  (2872) 
(2S)-2-amino-3-(2-hydroxyphenyl)propanoic acid

>  <TYPE>  (2872) 
Backbone

>  <CLASS>  (2872) 
alpha

>  <ANALOG>  (2872) 
Tyr

>  <MOL_WT>  (2872) 
181.19099999999997

>  <LOGP>  (2872) 
0.3466

>  <TPSA>  (2872) 
83.55

>  <POPULARITY>  (2872) 
8.7

>  <PROTECTED>  (2872) 
TRUE

>  <SMILES>  (2872) 
N[C@@H](Cc1(ccccc1O))C(=O)O

>  <INCHIKEY>  (2872) 
WRFPVMFCRNYQNR-ZETCQYMHSA-N

$$$$
Phe_2OH_3F
     RDKit          2D

 14 14  0  0  0  0  0  0  0  0999 V2000
   -1.9599    1.7683    0.0000 N   0  0  0  0  0  0  0  0  0  0  0  0
   -2.1168    0.2766    0.0000 C   0  0  0  0  0  0  0  0  0  0  0  0
   -0.9034   -0.6052    0.0000 C   0  0  0  0  0  0  0  0  0  0  0  0
    0.4670    0.0047    0.0000 C   0  0  0  0  0  0  0  0  0  0  0  0
    0.6239    1.4965    0.0000 C   0  0  0  0  0  0  0  0  0  0  0  0
    1.9943    2.1065    0.0000 C   0  0  0  0  0  0  0  0  0  0  0  0
    3.2078    1.2247    0.0000 C   0  0  0  0  0  0  0  0  0  0  0  0
    3.0508   -0.2671    0.0000 C   0  0  0  0  0  0  0  0  0  0  0  0
    4.2643   -1.1489    0.0000 F   0  0  0  0  0  0  0  0  0  0  0  0
    1.6804   -0.8771    0.0000 C   0  0  0  0  0  0  0  0  0  0  0  0
    1.5235   -2.3688    0.0000 O   0  0  0  0  0  0  0  0  0  0  0  0
   -3.4872   -0.3334    0.0000 C   0  0  0  0  0  0  0  0  0  0  0  0
   -3.6441   -1.8252    0.0000 O   0  0  0  0  0  0  0  0  0  0  0  0
   -4.7006    0.5484    0.0000 O   0  0  0  0  0  0  0  0  0  0  0  0
  2  1  1  1
  2  3  1  0
  3  4  1  0
  4  5  2  0
  5  6  1  0
  6  7  2  0
  7  8  1  0
  8  9  1  0
  8 10  2  0
 10 11  1  0
  2 12  1  0
 12 13  2  0
 12 14  1  0
 10  4  1  0
M  END
>  <rName>  (2873) 
Phe_2OH_3F

>  <PQ_SYMBOL>  (2873) 
Phe_2OH_3F

>  <FULL_NAME>  (2873) 
(2S)-2-amino-3-(3-fluoro-2-hydroxyphenyl)propanoic acid

>  <IUPAC_CONDENSED>  (2873) 
Phe(2-OH,3-F)

>  <IUPAC>  (2873) 
(2S)-2-amino-3-(3-fluoro-2-hydroxyphenyl)propanoic acid

>  <TYPE>  (2873) 
Backbone

>  <CLASS>  (2873) 
alpha

>  <ANALOG>  (2873) 
Tyr

>  <MOL_WT>  (2873) 
199.18099999999998

>  <LOGP>  (2873) 
0.48570000000000013

>  <TPSA>  (2873) 
83.55

>  <POPULARITY>  (2873) 
2.2

>  <PROTECTED>  (2873) 
TRUE

>  <SMILES>  (2873) 
N[C@@H](Cc1(cccc(F)c1O))C(=O)O

>  <INCHIKEY>  (2873) 
SXLIICLRRKYPSD-ZETCQYMHSA-N

$$$$
Phe_2OH_4tBu
     RDKit          2D

 17 17  0  0  0  0  0  0  0  0999 V2000
   -2.4937    1.8764    0.0000 N   0  0  0  0  0  0  0  0  0  0  0  0
   -2.9991    0.4641    0.0000 C   0  0  0  0  0  0  0  0  0  0  0  0
   -2.0288   -0.6797    0.0000 C   0  0  0  0  0  0  0  0  0  0  0  0
   -0.5530   -0.4113    0.0000 C   0  0  0  0  0  0  0  0  0  0  0  0
   -0.0476    1.0010    0.0000 C   0  0  0  0  0  0  0  0  0  0  0  0
    1.4282    1.2695    0.0000 C   0  0  0  0  0  0  0  0  0  0  0  0
    2.3986    0.1256    0.0000 C   0  0  0  0  0  0  0  0  0  0  0  0
    1.8932   -1.2867    0.0000 C   0  0  0  0  0  0  0  0  0  0  0  0
    0.4174   -1.5551    0.0000 C   0  0  0  0  0  0  0  0  0  0  0  0
   -0.0880   -2.9674    0.0000 O   0  0  0  0  0  0  0  0  0  0  0  0
    3.8744    0.3941    0.0000 C   0  0  0  0  0  0  0  0  0  0  0  0
    4.1428   -1.0817    0.0000 C   0  0  0  0  0  0  0  0  0  0  0  0
    3.6059    1.8699    0.0000 C   0  0  0  0  0  0  0  0  0  0  0  0
    5.3502    0.6625    0.0000 C   0  0  0  0  0  0  0  0  0  0  0  0
   -4.4749    0.1957    0.0000 C   0  0  0  0  0  0  0  0  0  0  0  0
   -4.9803   -1.2166    0.0000 O   0  0  0  0  0  0  0  0  0  0  0  0
   -5.4453    1.3395    0.0000 O   0  0  0  0  0  0  0  0  0  0  0  0
  2  1  1  1
  2  3  1  0
  3  4  1  0
  4  5  1  0
  5  6  2  0
  6  7  1  0
  7  8  2  0
  8  9  1  0
  9 10  1  0
  7 11  1  0
 11 12  1  0
 11 13  1  0
 11 14  1  0
  2 15  1  0
 15 16  2  0
 15 17  1  0
  9  4  2  0
M  END
>  <rName>  (2874) 
Phe_2OH_4tBu

>  <PQ_SYMBOL>  (2874) 
Phe_2OH_4tBu

>  <FULL_NAME>  (2874) 
(S)-2-amino-3-(4-(tert-butyl)-2-hydroxyphenyl)propanoic acid

>  <IUPAC_CONDENSED>  (2874) 
Phe(2-OH,4-tBu)

>  <IUPAC>  (2874) 
(2S)-2-amino-3-(4-(tert-butyl)-2-hydroxyphenyl)propanoic acid

>  <TYPE>  (2874) 
Backbone

>  <CLASS>  (2874) 
alpha

>  <ANALOG>  (2874) 
Tyr

>  <MOL_WT>  (2874) 
237.29899999999995

>  <LOGP>  (2874) 
1.6441000000000001

>  <TPSA>  (2874) 
83.55

>  <POPULARITY>  (2874) 
2.5

>  <PROTECTED>  (2874) 
TRUE

>  <SMILES>  (2874) 
N[C@@H](Cc1(ccc(cc1O)C(C)(C)C))C(=O)O

>  <INCHIKEY>  (2874) 
JGPDCKDIFJNPAX-JTQLQIEISA-N

$$$$
Phe_2OH_5Cl
     RDKit          2D

 14 14  0  0  0  0  0  0  0  0999 V2000
   -1.4552    1.7882    0.0000 N   0  0  0  0  0  0  0  0  0  0  0  0
   -1.9325    0.3661    0.0000 C   0  0  0  0  0  0  0  0  0  0  0  0
   -0.9397   -0.7583    0.0000 C   0  0  0  0  0  0  0  0  0  0  0  0
    0.5305   -0.4606    0.0000 C   0  0  0  0  0  0  0  0  0  0  0  0
    1.0078    0.9614    0.0000 C   0  0  0  0  0  0  0  0  0  0  0  0
    2.4780    1.2591    0.0000 C   0  0  0  0  0  0  0  0  0  0  0  0
    2.9553    2.6811    0.0000 Cl  0  0  0  0  0  0  0  0  0  0  0  0
    3.4709    0.1347    0.0000 C   0  0  0  0  0  0  0  0  0  0  0  0
    2.9935   -1.2874    0.0000 C   0  0  0  0  0  0  0  0  0  0  0  0
    1.5234   -1.5850    0.0000 C   0  0  0  0  0  0  0  0  0  0  0  0
    1.0461   -3.0070    0.0000 O   0  0  0  0  0  0  0  0  0  0  0  0
   -3.4027    0.0685    0.0000 C   0  0  0  0  0  0  0  0  0  0  0  0
   -3.8800   -1.3536    0.0000 O   0  0  0  0  0  0  0  0  0  0  0  0
   -4.3955    1.1929    0.0000 O   0  0  0  0  0  0  0  0  0  0  0  0
  2  1  1  1
  2  3  1  0
  3  4  1  0
  4  5  1  0
  5  6  2  0
  6  7  1  0
  6  8  1  0
  8  9  2  0
  9 10  1  0
 10 11  1  0
  2 12  1  0
 12 13  2  0
 12 14  1  0
 10  4  2  0
M  END
>  <rName>  (2875) 
Phe_2OH_5Cl

>  <PQ_SYMBOL>  (2875) 
Phe_2OH_5Cl

>  <FULL_NAME>  (2875) 
5-Chloro-2-hydroxy-L-phenylalanine

>  <IUPAC_CONDENSED>  (2875) 
Phe(2-OH,5-Cl)

>  <IUPAC>  (2875) 
(2S)-2-amino-3-(5-chloro-2-hydroxyphenyl)propanoic acid

>  <TYPE>  (2875) 
Backbone

>  <CLASS>  (2875) 
alpha

>  <ANALOG>  (2875) 
Tyr

>  <MOL_WT>  (2875) 
215.636

>  <LOGP>  (2875) 
1.0

>  <TPSA>  (2875) 
83.55

>  <POPULARITY>  (2875) 
2.2

>  <PROTECTED>  (2875) 
TRUE

>  <SMILES>  (2875) 
N[C@@H](Cc1(cc(Cl)ccc1O))C(=O)O

>  <INCHIKEY>  (2875) 
DXLFYVYETGDOGT-ZETCQYMHSA-N

$$$$
Phe_2OH_5Ph_4CN
     RDKit          2D

 21 22  0  0  0  0  0  0  0  0999 V2000
    1.8623   -2.0042    0.0000 N   0  0  0  0  0  0  0  0  0  0  0  0
    3.2257   -1.3788    0.0000 C   0  0  0  0  0  0  0  0  0  0  0  0
    3.3658    0.1147    0.0000 C   0  0  0  0  0  0  0  0  0  0  0  0
    2.1425    0.9827    0.0000 C   0  0  0  0  0  0  0  0  0  0  0  0
    0.7791    0.3574    0.0000 C   0  0  0  0  0  0  0  0  0  0  0  0
   -0.4442    1.2254    0.0000 C   0  0  0  0  0  0  0  0  0  0  0  0
   -0.3041    2.7189    0.0000 C   0  0  0  0  0  0  0  0  0  0  0  0
    1.0593    3.3442    0.0000 C   0  0  0  0  0  0  0  0  0  0  0  0
    2.2826    2.4762    0.0000 C   0  0  0  0  0  0  0  0  0  0  0  0
    3.6460    3.1015    0.0000 O   0  0  0  0  0  0  0  0  0  0  0  0
   -1.8076    0.6000    0.0000 C   0  0  0  0  0  0  0  0  0  0  0  0
   -3.0309    1.4681    0.0000 C   0  0  0  0  0  0  0  0  0  0  0  0
   -4.3943    0.8427    0.0000 C   0  0  0  0  0  0  0  0  0  0  0  0
   -4.5345   -0.6507    0.0000 C   0  0  0  0  0  0  0  0  0  0  0  0
   -5.8979   -1.2761    0.0000 C   0  0  0  0  0  0  0  0  0  0  0  0
   -7.2613   -1.9015    0.0000 N   0  0  0  0  0  0  0  0  0  0  0  0
   -3.3112   -1.5188    0.0000 C   0  0  0  0  0  0  0  0  0  0  0  0
   -1.9477   -0.8934    0.0000 C   0  0  0  0  0  0  0  0  0  0  0  0
    4.4490   -2.2468    0.0000 C   0  0  0  0  0  0  0  0  0  0  0  0
    5.8124   -1.6215    0.0000 O   0  0  0  0  0  0  0  0  0  0  0  0
    4.3089   -3.7403    0.0000 O   0  0  0  0  0  0  0  0  0  0  0  0
  2  1  1  1
  2  3  1  0
  3  4  1  0
  4  5  1  0
  5  6  2  0
  6  7  1  0
  7  8  2  0
  8  9  1  0
  9 10  1  0
  6 11  1  0
 11 12  1  0
 12 13  2  0
 13 14  1  0
 14 15  1  0
 15 16  3  0
 14 17  2  0
 17 18  1  0
  2 19  1  0
 19 20  2  0
 19 21  1  0
  9  4  2  0
 18 11  2  0
M  END
>  <rName>  (2876) 
Phe_2OH_5Ph_4CN

>  <PQ_SYMBOL>  (2876) 
Phe_2OH_5Ph_4CN

>  <FULL_NAME>  (2876) 
(S)-2-amino-3-(4'-cyano-4-hydroxy-[1,1'-biphenyl]-3-yl)propanoic acid

>  <IUPAC_CONDENSED>  (2876) 
Phe(2-OH,5-Ph(4-CN))

>  <IUPAC>  (2876) 
(2S)-2-amino-3-(2-hydroxy-5-(4-(nitrilomethyl)phenyl)phenyl)propanoic acid

>  <TYPE>  (2876) 
Backbone

>  <CLASS>  (2876) 
alpha

>  <ANALOG>  (2876) 
Tyr

>  <MOL_WT>  (2876) 
282.299

>  <LOGP>  (2876) 
1.88528

>  <TPSA>  (2876) 
107.33999999999999

>  <POPULARITY>  (2876) 
2.2

>  <PROTECTED>  (2876) 
TRUE

>  <SMILES>  (2876) 
N[C@@H](Cc1(cc(ccc1O)c2(ccc(C#N)cc2)))C(=O)O

>  <INCHIKEY>  (2876) 
WZHRBHKUVWJWDF-AWEZNQCLSA-N

$$$$
Phe_2OH_5tBu
     RDKit          2D

 17 17  0  0  0  0  0  0  0  0999 V2000
    1.5288   -1.7884    0.0000 N   0  0  0  0  0  0  0  0  0  0  0  0
    2.4204   -0.5821    0.0000 C   0  0  0  0  0  0  0  0  0  0  0  0
    1.8216    0.7932    0.0000 C   0  0  0  0  0  0  0  0  0  0  0  0
    0.3311    0.9622    0.0000 C   0  0  0  0  0  0  0  0  0  0  0  0
   -0.5605   -0.2441    0.0000 C   0  0  0  0  0  0  0  0  0  0  0  0
   -2.0509   -0.0750    0.0000 C   0  0  0  0  0  0  0  0  0  0  0  0
   -2.6498    1.3002    0.0000 C   0  0  0  0  0  0  0  0  0  0  0  0
   -1.7582    2.5065    0.0000 C   0  0  0  0  0  0  0  0  0  0  0  0
   -0.2677    2.3375    0.0000 C   0  0  0  0  0  0  0  0  0  0  0  0
    0.6239    3.5437    0.0000 O   0  0  0  0  0  0  0  0  0  0  0  0
   -2.9425   -1.2813    0.0000 C   0  0  0  0  0  0  0  0  0  0  0  0
   -4.1488   -0.3897    0.0000 C   0  0  0  0  0  0  0  0  0  0  0  0
   -1.7363   -2.1729    0.0000 C   0  0  0  0  0  0  0  0  0  0  0  0
   -3.8341   -2.4875    0.0000 C   0  0  0  0  0  0  0  0  0  0  0  0
    3.9109   -0.7511    0.0000 C   0  0  0  0  0  0  0  0  0  0  0  0
    4.8025    0.4551    0.0000 O   0  0  0  0  0  0  0  0  0  0  0  0
    4.5097   -2.1264    0.0000 O   0  0  0  0  0  0  0  0  0  0  0  0
  2  1  1  1
  2  3  1  0
  3  4  1  0
  4  5  1  0
  5  6  2  0
  6  7  1  0
  7  8  2  0
  8  9  1  0
  9 10  1  0
  6 11  1  0
 11 12  1  0
 11 13  1  0
 11 14  1  0
  2 15  1  0
 15 16  2  0
 15 17  1  0
  9  4  2  0
M  END
>  <rName>  (2877) 
Phe_2OH_5tBu

>  <PQ_SYMBOL>  (2877) 
Phe_2OH_5tBu

>  <FULL_NAME>  (2877) 
(S)-2-amino-3-(5-(tert-butyl)-2-hydroxyphenyl)propanoic acid

>  <IUPAC_CONDENSED>  (2877) 
Phe(2-OH,5-tBu)

>  <IUPAC>  (2877) 
(2S)-2-amino-3-(5-(tert-butyl)-2-hydroxyphenyl)propanoic acid

>  <TYPE>  (2877) 
Backbone

>  <CLASS>  (2877) 
alpha

>  <ANALOG>  (2877) 
Tyr

>  <MOL_WT>  (2877) 
237.29899999999995

>  <LOGP>  (2877) 
1.6441000000000001

>  <TPSA>  (2877) 
83.55

>  <POPULARITY>  (2877) 
2.8

>  <PROTECTED>  (2877) 
TRUE

>  <SMILES>  (2877) 
N[C@@H](Cc1(cc(ccc1O)C(C)(C)C))C(=O)O

>  <INCHIKEY>  (2877) 
QTPBNPXYWOFVJR-JTQLQIEISA-N

$$$$
Phe_2OMOM
     RDKit          2D

 16 16  0  0  0  0  0  0  0  0999 V2000
   -3.2504    1.0225    0.0000 N   0  0  0  0  0  0  0  0  0  0  0  0
   -2.6183   -0.3379    0.0000 C   0  0  0  0  0  0  0  0  0  0  0  0
   -1.1242   -0.4706    0.0000 C   0  0  0  0  0  0  0  0  0  0  0  0
   -0.2621    0.7569    0.0000 C   0  0  0  0  0  0  0  0  0  0  0  0
   -0.8942    2.1172    0.0000 C   0  0  0  0  0  0  0  0  0  0  0  0
   -0.0321    3.3448    0.0000 C   0  0  0  0  0  0  0  0  0  0  0  0
    1.4620    3.2120    0.0000 C   0  0  0  0  0  0  0  0  0  0  0  0
    2.0940    1.8516    0.0000 C   0  0  0  0  0  0  0  0  0  0  0  0
    1.2320    0.6241    0.0000 C   0  0  0  0  0  0  0  0  0  0  0  0
    1.8640   -0.7362    0.0000 O   0  0  0  0  0  0  0  0  0  0  0  0
    3.3581   -0.8690    0.0000 C   0  0  0  0  0  0  0  0  0  0  0  0
    3.9902   -2.2294    0.0000 O   0  0  0  0  0  0  0  0  0  0  0  0
    5.4843   -2.3622    0.0000 C   0  0  0  0  0  0  0  0  0  0  0  0
   -3.4804   -1.5654    0.0000 C   0  0  0  0  0  0  0  0  0  0  0  0
   -2.8483   -2.9257    0.0000 O   0  0  0  0  0  0  0  0  0  0  0  0
   -4.9745   -1.4326    0.0000 O   0  0  0  0  0  0  0  0  0  0  0  0
  2  1  1  1
  2  3  1  0
  3  4  1  0
  4  5  2  0
  5  6  1  0
  6  7  2  0
  7  8  1  0
  8  9  2  0
  9 10  1  0
 10 11  1  0
 11 12  1  0
 12 13  1  0
  2 14  1  0
 14 15  2  0
 14 16  1  0
  9  4  1  0
M  END
>  <rName>  (2878) 
Phe_2OMOM

>  <PQ_SYMBOL>  (2878) 
Phe_2OMOM

>  <FULL_NAME>  (2878) 
Phe(2-OMOM)

>  <IUPAC_CONDENSED>  (2878) 
Phe(2-OMOM)

>  <IUPAC>  (2878) 
(2S)-2-amino-3-(2-(methoxymethoxy)phenyl)propanoic acid

>  <TYPE>  (2878) 
Backbone

>  <CLASS>  (2878) 
alpha

>  <ANALOG>  (2878) 
Tyr

>  <MOL_WT>  (2878) 
225.24399999999994

>  <LOGP>  (2878) 
0.6236999999999999

>  <TPSA>  (2878) 
81.78

>  <POPULARITY>  (2878) 
2.2

>  <PROTECTED>  (2878) 
TRUE

>  <SMILES>  (2878) 
N[C@@H](Cc1(ccccc1OCOC))C(=O)O

>  <INCHIKEY>  (2878) 
VALKSSASPYXQDS-VIFPVBQESA-N

$$$$
Phe_2OMe
     RDKit          2D

 14 14  0  0  0  0  0  0  0  0999 V2000
   -1.9781    1.7869    0.0000 N   0  0  0  0  0  0  0  0  0  0  0  0
   -2.0323    0.2879    0.0000 C   0  0  0  0  0  0  0  0  0  0  0  0
   -0.7612   -0.5086    0.0000 C   0  0  0  0  0  0  0  0  0  0  0  0
    0.5641    0.1940    0.0000 C   0  0  0  0  0  0  0  0  0  0  0  0
    0.6183    1.6931    0.0000 C   0  0  0  0  0  0  0  0  0  0  0  0
    1.9435    2.3957    0.0000 C   0  0  0  0  0  0  0  0  0  0  0  0
    3.2146    1.5993    0.0000 C   0  0  0  0  0  0  0  0  0  0  0  0
    3.1605    0.1002    0.0000 C   0  0  0  0  0  0  0  0  0  0  0  0
    1.8352   -0.6024    0.0000 C   0  0  0  0  0  0  0  0  0  0  0  0
    1.7811   -2.1014    0.0000 O   0  0  0  0  0  0  0  0  0  0  0  0
    3.0522   -2.8978    0.0000 C   0  0  0  0  0  0  0  0  0  0  0  0
   -3.3575   -0.4148    0.0000 C   0  0  0  0  0  0  0  0  0  0  0  0
   -3.4117   -1.9138    0.0000 O   0  0  0  0  0  0  0  0  0  0  0  0
   -4.6287    0.3817    0.0000 O   0  0  0  0  0  0  0  0  0  0  0  0
  2  1  1  1
  2  3  1  0
  3  4  1  0
  4  5  2  0
  5  6  1  0
  6  7  2  0
  7  8  1  0
  8  9  2  0
  9 10  1  0
 10 11  1  0
  2 12  1  0
 12 13  2  0
 12 14  1  0
  9  4  1  0
M  END
>  <rName>  (2879) 
Phe_2OMe

>  <PQ_SYMBOL>  (2879) 
Phe_2OMe

>  <FULL_NAME>  (2879) 
(2S)-2-amino-3-(2-methoxyphenyl)propan-1-ol

>  <IUPAC_CONDENSED>  (2879) 
Phe(2-OMe)

>  <IUPAC>  (2879) 
(2S)-2-amino-3-(2-methoxyphenyl)propanoic acid

>  <TYPE>  (2879) 
Backbone

>  <CLASS>  (2879) 
alpha

>  <ANALOG>  (2879) 
Tyr

>  <MOL_WT>  (2879) 
195.21799999999996

>  <LOGP>  (2879) 
0.6496

>  <TPSA>  (2879) 
72.55

>  <POPULARITY>  (2879) 
12.7

>  <PROTECTED>  (2879) 
TRUE

>  <SMILES>  (2879) 
N[C@@H](Cc1(ccccc1OC))C(=O)O

>  <INCHIKEY>  (2879) 
SEUPQWHWULSGJC-QMMMGPOBSA-N

$$$$
Phe_2OMe_3Cl
     RDKit          2D

 15 15  0  0  0  0  0  0  0  0999 V2000
   -2.3383    1.7500    0.0000 N   0  0  0  0  0  0  0  0  0  0  0  0
   -2.3383    0.2500    0.0000 C   0  0  0  0  0  0  0  0  0  0  0  0
   -1.0392   -0.5000    0.0000 C   0  0  0  0  0  0  0  0  0  0  0  0
    0.2598    0.2500    0.0000 C   0  0  0  0  0  0  0  0  0  0  0  0
    0.2598    1.7500    0.0000 C   0  0  0  0  0  0  0  0  0  0  0  0
    1.5588    2.5000    0.0000 C   0  0  0  0  0  0  0  0  0  0  0  0
    2.8579    1.7500    0.0000 C   0  0  0  0  0  0  0  0  0  0  0  0
    2.8579    0.2500    0.0000 C   0  0  0  0  0  0  0  0  0  0  0  0
    4.1569   -0.5000    0.0000 Cl  0  0  0  0  0  0  0  0  0  0  0  0
    1.5588   -0.5000    0.0000 C   0  0  0  0  0  0  0  0  0  0  0  0
    1.5588   -2.0000    0.0000 O   0  0  0  0  0  0  0  0  0  0  0  0
    2.8579   -2.7500    0.0000 C   0  0  0  0  0  0  0  0  0  0  0  0
   -3.6373   -0.5000    0.0000 C   0  0  0  0  0  0  0  0  0  0  0  0
   -3.6373   -2.0000    0.0000 O   0  0  0  0  0  0  0  0  0  0  0  0
   -4.9363    0.2500    0.0000 O   0  0  0  0  0  0  0  0  0  0  0  0
  2  1  1  1
  2  3  1  0
  3  4  1  0
  4  5  2  0
  5  6  1  0
  6  7  2  0
  7  8  1  0
  8  9  1  0
  8 10  2  0
 10 11  1  0
 11 12  1  0
  2 13  1  0
 13 14  2  0
 13 15  1  0
 10  4  1  0
M  END
>  <rName>  (2880) 
Phe_2OMe_3Cl

>  <PQ_SYMBOL>  (2880) 
Phe_2OMe_3Cl

>  <FULL_NAME>  (2880) 
(S)-2-amino-3-(3-chloro-2-methoxyphenyl)propanoic acid

>  <IUPAC_CONDENSED>  (2880) 
Phe(2-OMe,3-Cl)

>  <IUPAC>  (2880) 
(2S)-2-amino-3-(3-chloro-2-methoxyphenyl)propanoic acid

>  <TYPE>  (2880) 
Backbone

>  <CLASS>  (2880) 
alpha

>  <ANALOG>  (2880) 
Tyr

>  <MOL_WT>  (2880) 
229.66299999999995

>  <LOGP>  (2880) 
1.3030000000000002

>  <TPSA>  (2880) 
72.55

>  <POPULARITY>  (2880) 
2.9

>  <PROTECTED>  (2880) 
TRUE

>  <SMILES>  (2880) 
N[C@@H](Cc1(cccc(Cl)c1OC))C(=O)O

>  <INCHIKEY>  (2880) 
CTGFLAJTRCVESO-QMMMGPOBSA-N

$$$$
Phe_2OMe_3F
     RDKit          2D

 15 15  0  0  0  0  0  0  0  0999 V2000
   -2.3383    1.7500    0.0000 N   0  0  0  0  0  0  0  0  0  0  0  0
   -2.3383    0.2500    0.0000 C   0  0  0  0  0  0  0  0  0  0  0  0
   -1.0392   -0.5000    0.0000 C   0  0  0  0  0  0  0  0  0  0  0  0
    0.2598    0.2500    0.0000 C   0  0  0  0  0  0  0  0  0  0  0  0
    0.2598    1.7500    0.0000 C   0  0  0  0  0  0  0  0  0  0  0  0
    1.5588    2.5000    0.0000 C   0  0  0  0  0  0  0  0  0  0  0  0
    2.8579    1.7500    0.0000 C   0  0  0  0  0  0  0  0  0  0  0  0
    2.8579    0.2500    0.0000 C   0  0  0  0  0  0  0  0  0  0  0  0
    4.1569   -0.5000    0.0000 F   0  0  0  0  0  0  0  0  0  0  0  0
    1.5588   -0.5000    0.0000 C   0  0  0  0  0  0  0  0  0  0  0  0
    1.5588   -2.0000    0.0000 O   0  0  0  0  0  0  0  0  0  0  0  0
    2.8579   -2.7500    0.0000 C   0  0  0  0  0  0  0  0  0  0  0  0
   -3.6373   -0.5000    0.0000 C   0  0  0  0  0  0  0  0  0  0  0  0
   -3.6373   -2.0000    0.0000 O   0  0  0  0  0  0  0  0  0  0  0  0
   -4.9363    0.2500    0.0000 O   0  0  0  0  0  0  0  0  0  0  0  0
  2  1  1  1
  2  3  1  0
  3  4  1  0
  4  5  2  0
  5  6  1  0
  6  7  2  0
  7  8  1  0
  8  9  1  0
  8 10  2  0
 10 11  1  0
 11 12  1  0
  2 13  1  0
 13 14  2  0
 13 15  1  0
 10  4  1  0
M  END
>  <rName>  (2881) 
Phe_2OMe_3F

>  <PQ_SYMBOL>  (2881) 
Phe_2OMe_3F

>  <FULL_NAME>  (2881) 
(S)-2-amino-3-(3-fluoro-2-methoxyphenyl)propanoic acid

>  <IUPAC_CONDENSED>  (2881) 
Phe(2-OMe,3-F)

>  <IUPAC>  (2881) 
(2S)-2-amino-3-(3-fluoro-2-methoxyphenyl)propanoic acid

>  <TYPE>  (2881) 
Backbone

>  <CLASS>  (2881) 
alpha

>  <ANALOG>  (2881) 
Tyr

>  <MOL_WT>  (2881) 
213.20799999999997

>  <LOGP>  (2881) 
0.7887000000000002

>  <TPSA>  (2881) 
72.55

>  <POPULARITY>  (2881) 
3.1

>  <PROTECTED>  (2881) 
TRUE

>  <SMILES>  (2881) 
N[C@@H](Cc1(cccc(F)c1OC))C(=O)O

>  <INCHIKEY>  (2881) 
DZDIMQMNUOMEAX-QMMMGPOBSA-N

$$$$
Phe_2OMe_4CN
     RDKit          2D

 16 16  0  0  0  0  0  0  0  0999 V2000
   -2.2193    2.0252    0.0000 N   0  0  0  0  0  0  0  0  0  0  0  0
   -2.6196    0.5796    0.0000 C   0  0  0  0  0  0  0  0  0  0  0  0
   -1.5679   -0.4899    0.0000 C   0  0  0  0  0  0  0  0  0  0  0  0
   -0.1158   -0.1139    0.0000 C   0  0  0  0  0  0  0  0  0  0  0  0
    0.2846    1.3317    0.0000 C   0  0  0  0  0  0  0  0  0  0  0  0
    1.7367    1.7078    0.0000 C   0  0  0  0  0  0  0  0  0  0  0  0
    2.7884    0.6383    0.0000 C   0  0  0  0  0  0  0  0  0  0  0  0
    4.2405    1.0144    0.0000 C   0  0  0  0  0  0  0  0  0  0  0  0
    5.6926    1.3905    0.0000 N   0  0  0  0  0  0  0  0  0  0  0  0
    2.3881   -0.8073    0.0000 C   0  0  0  0  0  0  0  0  0  0  0  0
    0.9360   -1.1834    0.0000 C   0  0  0  0  0  0  0  0  0  0  0  0
    0.5356   -2.6289    0.0000 O   0  0  0  0  0  0  0  0  0  0  0  0
    1.5873   -3.6985    0.0000 C   0  0  0  0  0  0  0  0  0  0  0  0
   -4.0717    0.2035    0.0000 C   0  0  0  0  0  0  0  0  0  0  0  0
   -4.4720   -1.2421    0.0000 O   0  0  0  0  0  0  0  0  0  0  0  0
   -5.1234    1.2730    0.0000 O   0  0  0  0  0  0  0  0  0  0  0  0
  2  1  1  1
  2  3  1  0
  3  4  1  0
  4  5  1  0
  5  6  2  0
  6  7  1  0
  7  8  1  0
  8  9  3  0
  7 10  2  0
 10 11  1  0
 11 12  1  0
 12 13  1  0
  2 14  1  0
 14 15  2  0
 14 16  1  0
 11  4  2  0
M  END
>  <rName>  (2882) 
Phe_2OMe_4CN

>  <PQ_SYMBOL>  (2882) 
Phe_2OMe_4CN

>  <FULL_NAME>  (2882) 
4-cyano-2-methoxy-L-phenylalanine

>  <IUPAC_CONDENSED>  (2882) 
Phe(2-OMe,4-CN)

>  <IUPAC>  (2882) 
(2S)-2-amino-3-(2-methoxy-4-(nitrilomethyl)phenyl)propanoic acid

>  <TYPE>  (2882) 
Backbone

>  <CLASS>  (2882) 
alpha

>  <ANALOG>  (2882) 
Tyr

>  <MOL_WT>  (2882) 
220.22799999999998

>  <LOGP>  (2882) 
0.5212800000000002

>  <TPSA>  (2882) 
96.34000000000002

>  <POPULARITY>  (2882) 
2.8

>  <PROTECTED>  (2882) 
TRUE

>  <SMILES>  (2882) 
N[C@@H](Cc1(ccc(C#N)cc1OC))C(=O)O

>  <INCHIKEY>  (2882) 
VUXGBHGWXGCDSW-VIFPVBQESA-N

$$$$
Phe_2OMe_4CO2H
     RDKit          2D

 17 17  0  0  0  0  0  0  0  0999 V2000
   -2.4200    2.0251    0.0000 N   0  0  0  0  0  0  0  0  0  0  0  0
   -2.8555    0.5897    0.0000 C   0  0  0  0  0  0  0  0  0  0  0  0
   -1.8302   -0.5051    0.0000 C   0  0  0  0  0  0  0  0  0  0  0  0
   -0.3693   -0.1646    0.0000 C   0  0  0  0  0  0  0  0  0  0  0  0
    0.0661    1.2708    0.0000 C   0  0  0  0  0  0  0  0  0  0  0  0
    1.5270    1.6114    0.0000 C   0  0  0  0  0  0  0  0  0  0  0  0
    2.5523    0.5166    0.0000 C   0  0  0  0  0  0  0  0  0  0  0  0
    2.1168   -0.9188    0.0000 C   0  0  0  0  0  0  0  0  0  0  0  0
    0.6560   -1.2594    0.0000 C   0  0  0  0  0  0  0  0  0  0  0  0
    0.2205   -2.6948    0.0000 O   0  0  0  0  0  0  0  0  0  0  0  0
    1.2459   -3.7896    0.0000 C   0  0  0  0  0  0  0  0  0  0  0  0
    4.0131    0.8571    0.0000 C   0  0  0  0  0  0  0  0  0  0  0  0
    4.4486    2.2925    0.0000 O   0  0  0  0  0  0  0  0  0  0  0  0
    5.0385   -0.2377    0.0000 O   0  0  0  0  0  0  0  0  0  0  0  0
   -4.3163    0.2491    0.0000 C   0  0  0  0  0  0  0  0  0  0  0  0
   -4.7518   -1.1863    0.0000 O   0  0  0  0  0  0  0  0  0  0  0  0
   -5.3417    1.3440    0.0000 O   0  0  0  0  0  0  0  0  0  0  0  0
  2  1  1  1
  2  3  1  0
  3  4  1  0
  4  5  1  0
  5  6  2  0
  6  7  1  0
  7  8  2  0
  8  9  1  0
  9 10  1  0
 10 11  1  0
  7 12  1  0
 12 13  2  0
 12 14  1  0
  2 15  1  0
 15 16  2  0
 15 17  1  0
  9  4  2  0
M  END
>  <rName>  (2883) 
Phe_2OMe_4CO2H

>  <PQ_SYMBOL>  (2883) 
Phe_2OMe_4CO2H

>  <FULL_NAME>  (2883) 
(S)-4-(2-amino-2-carboxyethyl)-3-methoxybenzoic acid

>  <IUPAC_CONDENSED>  (2883) 
Phe(2-OMe,4-CO2H)

>  <IUPAC>  (2883) 
4-((2S)-2-amino-3-hydroxy-3-oxopropyl)-3-methoxybenzene-1-carboxylic acid

>  <TYPE>  (2883) 
Backbone

>  <CLASS>  (2883) 
alpha

>  <ANALOG>  (2883) 
Tyr

>  <MOL_WT>  (2883) 
239.22699999999995

>  <LOGP>  (2883) 
0.3478

>  <TPSA>  (2883) 
109.85000000000001

>  <POPULARITY>  (2883) 
2.5

>  <PROTECTED>  (2883) 
TRUE

>  <SMILES>  (2883) 
N[C@@H](Cc1(ccc(cc1OC)C(=O)O))C(=O)O

>  <INCHIKEY>  (2883) 
CZIBHXBFGQRHCH-QMMMGPOBSA-N

$$$$
Phe_2OMe_4Cl
     RDKit          2D

 15 15  0  0  0  0  0  0  0  0999 V2000
   -2.0582    1.9063    0.0000 N   0  0  0  0  0  0  0  0  0  0  0  0
   -2.2997    0.4259    0.0000 C   0  0  0  0  0  0  0  0  0  0  0  0
   -1.1384   -0.5235    0.0000 C   0  0  0  0  0  0  0  0  0  0  0  0
    0.2645    0.0075    0.0000 C   0  0  0  0  0  0  0  0  0  0  0  0
    0.5060    1.4879    0.0000 C   0  0  0  0  0  0  0  0  0  0  0  0
    1.9089    2.0190    0.0000 C   0  0  0  0  0  0  0  0  0  0  0  0
    3.0702    1.0696    0.0000 C   0  0  0  0  0  0  0  0  0  0  0  0
    4.4730    1.6006    0.0000 Cl  0  0  0  0  0  0  0  0  0  0  0  0
    2.8286   -0.4108    0.0000 C   0  0  0  0  0  0  0  0  0  0  0  0
    1.4258   -0.9419    0.0000 C   0  0  0  0  0  0  0  0  0  0  0  0
    1.1842   -2.4223    0.0000 O   0  0  0  0  0  0  0  0  0  0  0  0
    2.3456   -3.3717    0.0000 C   0  0  0  0  0  0  0  0  0  0  0  0
   -3.7026   -0.1052    0.0000 C   0  0  0  0  0  0  0  0  0  0  0  0
   -3.9441   -1.5856    0.0000 O   0  0  0  0  0  0  0  0  0  0  0  0
   -4.8639    0.8442    0.0000 O   0  0  0  0  0  0  0  0  0  0  0  0
  2  1  1  1
  2  3  1  0
  3  4  1  0
  4  5  1  0
  5  6  2  0
  6  7  1  0
  7  8  1  0
  7  9  2  0
  9 10  1  0
 10 11  1  0
 11 12  1  0
  2 13  1  0
 13 14  2  0
 13 15  1  0
 10  4  2  0
M  END
>  <rName>  (2884) 
Phe_2OMe_4Cl

>  <PQ_SYMBOL>  (2884) 
Phe_2OMe_4Cl

>  <FULL_NAME>  (2884) 
(S)-2-amino-3-(4-chloro-2-methoxyphenyl)propanoic acid

>  <IUPAC_CONDENSED>  (2884) 
Phe(2-OMe,4-Cl)

>  <IUPAC>  (2884) 
(2S)-2-amino-3-(4-chloro-2-methoxyphenyl)propanoic acid

>  <TYPE>  (2884) 
Backbone

>  <CLASS>  (2884) 
alpha

>  <ANALOG>  (2884) 
Tyr

>  <MOL_WT>  (2884) 
229.66299999999998

>  <LOGP>  (2884) 
1.3030000000000002

>  <TPSA>  (2884) 
72.55

>  <POPULARITY>  (2884) 
4.2

>  <PROTECTED>  (2884) 
TRUE

>  <SMILES>  (2884) 
N[C@@H](Cc1(ccc(Cl)cc1OC))C(=O)O

>  <INCHIKEY>  (2884) 
CRVNEIVGFSMKNQ-QMMMGPOBSA-N

$$$$
Phe_2OMe_4F
     RDKit          2D

 15 15  0  0  0  0  0  0  0  0999 V2000
   -2.0582    1.9063    0.0000 N   0  0  0  0  0  0  0  0  0  0  0  0
   -2.2997    0.4259    0.0000 C   0  0  0  0  0  0  0  0  0  0  0  0
   -1.1384   -0.5235    0.0000 C   0  0  0  0  0  0  0  0  0  0  0  0
    0.2645    0.0075    0.0000 C   0  0  0  0  0  0  0  0  0  0  0  0
    0.5060    1.4879    0.0000 C   0  0  0  0  0  0  0  0  0  0  0  0
    1.9089    2.0190    0.0000 C   0  0  0  0  0  0  0  0  0  0  0  0
    3.0702    1.0696    0.0000 C   0  0  0  0  0  0  0  0  0  0  0  0
    4.4730    1.6006    0.0000 F   0  0  0  0  0  0  0  0  0  0  0  0
    2.8286   -0.4108    0.0000 C   0  0  0  0  0  0  0  0  0  0  0  0
    1.4258   -0.9419    0.0000 C   0  0  0  0  0  0  0  0  0  0  0  0
    1.1842   -2.4223    0.0000 O   0  0  0  0  0  0  0  0  0  0  0  0
    2.3456   -3.3717    0.0000 C   0  0  0  0  0  0  0  0  0  0  0  0
   -3.7026   -0.1052    0.0000 C   0  0  0  0  0  0  0  0  0  0  0  0
   -3.9441   -1.5856    0.0000 O   0  0  0  0  0  0  0  0  0  0  0  0
   -4.8639    0.8442    0.0000 O   0  0  0  0  0  0  0  0  0  0  0  0
  2  1  1  1
  2  3  1  0
  3  4  1  0
  4  5  1  0
  5  6  2  0
  6  7  1  0
  7  8  1  0
  7  9  2  0
  9 10  1  0
 10 11  1  0
 11 12  1  0
  2 13  1  0
 13 14  2  0
 13 15  1  0
 10  4  2  0
M  END
>  <rName>  (2885) 
Phe_2OMe_4F

>  <PQ_SYMBOL>  (2885) 
Phe_2OMe_4F

>  <FULL_NAME>  (2885) 
(S)-2-amino-3-(4-fluoro-2-methoxyphenyl)propanoic acid

>  <IUPAC_CONDENSED>  (2885) 
Phe(2-OMe,4-F)

>  <IUPAC>  (2885) 
(2S)-2-amino-3-(4-fluoro-2-methoxyphenyl)propanoic acid

>  <TYPE>  (2885) 
Backbone

>  <CLASS>  (2885) 
alpha

>  <ANALOG>  (2885) 
Tyr

>  <MOL_WT>  (2885) 
213.20799999999997

>  <LOGP>  (2885) 
0.7887000000000002

>  <TPSA>  (2885) 
72.55

>  <POPULARITY>  (2885) 
3.1

>  <PROTECTED>  (2885) 
TRUE

>  <SMILES>  (2885) 
N[C@@H](Cc1(ccc(F)cc1OC))C(=O)O

>  <INCHIKEY>  (2885) 
AOIQADHQEFSRNL-QMMMGPOBSA-N

$$$$
Phe_2OMe_5Ac
     RDKit          2D

 17 17  0  0  0  0  0  0  0  0999 V2000
    1.5479   -2.0183    0.0000 N   0  0  0  0  0  0  0  0  0  0  0  0
    2.3239   -0.7347    0.0000 C   0  0  0  0  0  0  0  0  0  0  0  0
    1.6002    0.5792    0.0000 C   0  0  0  0  0  0  0  0  0  0  0  0
    0.1005    0.6094    0.0000 C   0  0  0  0  0  0  0  0  0  0  0  0
   -0.6755   -0.6743    0.0000 C   0  0  0  0  0  0  0  0  0  0  0  0
   -2.1752   -0.6441    0.0000 C   0  0  0  0  0  0  0  0  0  0  0  0
   -2.8989    0.6698    0.0000 C   0  0  0  0  0  0  0  0  0  0  0  0
   -2.1229    1.9535    0.0000 C   0  0  0  0  0  0  0  0  0  0  0  0
   -0.6232    1.9233    0.0000 C   0  0  0  0  0  0  0  0  0  0  0  0
    0.1528    3.2070    0.0000 O   0  0  0  0  0  0  0  0  0  0  0  0
   -0.5709    4.5208    0.0000 C   0  0  0  0  0  0  0  0  0  0  0  0
   -2.9512   -1.9278    0.0000 C   0  0  0  0  0  0  0  0  0  0  0  0
   -2.2275   -3.2416    0.0000 O   0  0  0  0  0  0  0  0  0  0  0  0
   -4.4509   -1.8976    0.0000 C   0  0  0  0  0  0  0  0  0  0  0  0
    3.8236   -0.7648    0.0000 C   0  0  0  0  0  0  0  0  0  0  0  0
    4.5996    0.5188    0.0000 O   0  0  0  0  0  0  0  0  0  0  0  0
    4.5473   -2.0787    0.0000 O   0  0  0  0  0  0  0  0  0  0  0  0
  2  1  1  1
  2  3  1  0
  3  4  1  0
  4  5  1  0
  5  6  2  0
  6  7  1  0
  7  8  2  0
  8  9  1  0
  9 10  1  0
 10 11  1  0
  6 12  1  0
 12 13  2  0
 12 14  1  0
  2 15  1  0
 15 16  2  0
 15 17  1  0
  9  4  2  0
M  END
>  <rName>  (2886) 
Phe_2OMe_5Ac

>  <PQ_SYMBOL>  (2886) 
Phe_2OMe_5Ac

>  <FULL_NAME>  (2886) 
(S)-3-(5-acetyl-2-methoxyphenyl)-2-aminopropanoic acid

>  <IUPAC_CONDENSED>  (2886) 
Phe(2-OMe,5-Ac)

>  <IUPAC>  (2886) 
(2S)-3-(5-(acetyl)-2-methoxyphenyl)-2-aminopropanoic acid

>  <TYPE>  (2886) 
Backbone

>  <CLASS>  (2886) 
alpha

>  <ANALOG>  (2886) 
Tyr

>  <MOL_WT>  (2886) 
237.25499999999994

>  <LOGP>  (2886) 
0.8521999999999998

>  <TPSA>  (2886) 
89.62

>  <POPULARITY>  (2886) 
2.9

>  <PROTECTED>  (2886) 
TRUE

>  <SMILES>  (2886) 
N[C@@H](Cc1(cc(ccc1OC)C(=O)C))C(=O)O

>  <INCHIKEY>  (2886) 
YUVCAIOWQHLTOB-JTQLQIEISA-N

$$$$
Phe_2OMe_5Br
     RDKit          2D

 15 15  0  0  0  0  0  0  0  0999 V2000
   -1.8812    1.8031    0.0000 N   0  0  0  0  0  0  0  0  0  0  0  0
   -2.1410    0.3258    0.0000 C   0  0  0  0  0  0  0  0  0  0  0  0
   -0.9915   -0.6379    0.0000 C   0  0  0  0  0  0  0  0  0  0  0  0
    0.4178   -0.1243    0.0000 C   0  0  0  0  0  0  0  0  0  0  0  0
    0.6776    1.3531    0.0000 C   0  0  0  0  0  0  0  0  0  0  0  0
    2.0870    1.8667    0.0000 C   0  0  0  0  0  0  0  0  0  0  0  0
    2.3468    3.3440    0.0000 Br  0  0  0  0  0  0  0  0  0  0  0  0
    3.2364    0.9030    0.0000 C   0  0  0  0  0  0  0  0  0  0  0  0
    2.9766   -0.5743    0.0000 C   0  0  0  0  0  0  0  0  0  0  0  0
    1.5673   -1.0879    0.0000 C   0  0  0  0  0  0  0  0  0  0  0  0
    1.3074   -2.5653    0.0000 O   0  0  0  0  0  0  0  0  0  0  0  0
    2.4569   -3.5290    0.0000 C   0  0  0  0  0  0  0  0  0  0  0  0
   -3.5503   -0.1878    0.0000 C   0  0  0  0  0  0  0  0  0  0  0  0
   -3.8102   -1.6651    0.0000 O   0  0  0  0  0  0  0  0  0  0  0  0
   -4.6998    0.7759    0.0000 O   0  0  0  0  0  0  0  0  0  0  0  0
  2  1  1  1
  2  3  1  0
  3  4  1  0
  4  5  1  0
  5  6  2  0
  6  7  1  0
  6  8  1  0
  8  9  2  0
  9 10  1  0
 10 11  1  0
 11 12  1  0
  2 13  1  0
 13 14  2  0
 13 15  1  0
 10  4  2  0
M  END
>  <rName>  (2887) 
Phe_2OMe_5Br

>  <PQ_SYMBOL>  (2887) 
Phe_2OMe_5Br

>  <FULL_NAME>  (2887) 
(S)-2-amino-3-(5-bromo-2-methoxyphenyl)propanoic acid

>  <IUPAC_CONDENSED>  (2887) 
Phe(2-OMe,5-Br)

>  <IUPAC>  (2887) 
(2S)-2-amino-3-(5-bromo-2-methoxyphenyl)propanoic acid

>  <TYPE>  (2887) 
Backbone

>  <CLASS>  (2887) 
alpha

>  <ANALOG>  (2887) 
Tyr

>  <MOL_WT>  (2887) 
274.114

>  <LOGP>  (2887) 
1.4121000000000001

>  <TPSA>  (2887) 
72.55

>  <POPULARITY>  (2887) 
4.4

>  <PROTECTED>  (2887) 
TRUE

>  <SMILES>  (2887) 
N[C@@H](Cc1(cc(Br)ccc1OC))C(=O)O

>  <INCHIKEY>  (2887) 
REWQRRCVTMPNHM-QMMMGPOBSA-N

$$$$
Phe_2OMe_5CO2H
     RDKit          2D

 17 17  0  0  0  0  0  0  0  0999 V2000
    1.5479   -2.0183    0.0000 N   0  0  0  0  0  0  0  0  0  0  0  0
    2.3239   -0.7347    0.0000 C   0  0  0  0  0  0  0  0  0  0  0  0
    1.6002    0.5792    0.0000 C   0  0  0  0  0  0  0  0  0  0  0  0
    0.1005    0.6094    0.0000 C   0  0  0  0  0  0  0  0  0  0  0  0
   -0.6755   -0.6743    0.0000 C   0  0  0  0  0  0  0  0  0  0  0  0
   -2.1752   -0.6441    0.0000 C   0  0  0  0  0  0  0  0  0  0  0  0
   -2.8989    0.6698    0.0000 C   0  0  0  0  0  0  0  0  0  0  0  0
   -2.1229    1.9535    0.0000 C   0  0  0  0  0  0  0  0  0  0  0  0
   -0.6232    1.9233    0.0000 C   0  0  0  0  0  0  0  0  0  0  0  0
    0.1528    3.2070    0.0000 O   0  0  0  0  0  0  0  0  0  0  0  0
   -0.5709    4.5208    0.0000 C   0  0  0  0  0  0  0  0  0  0  0  0
   -2.9512   -1.9278    0.0000 C   0  0  0  0  0  0  0  0  0  0  0  0
   -2.2275   -3.2416    0.0000 O   0  0  0  0  0  0  0  0  0  0  0  0
   -4.4509   -1.8976    0.0000 O   0  0  0  0  0  0  0  0  0  0  0  0
    3.8236   -0.7648    0.0000 C   0  0  0  0  0  0  0  0  0  0  0  0
    4.5996    0.5188    0.0000 O   0  0  0  0  0  0  0  0  0  0  0  0
    4.5473   -2.0787    0.0000 O   0  0  0  0  0  0  0  0  0  0  0  0
  2  1  1  1
  2  3  1  0
  3  4  1  0
  4  5  1  0
  5  6  2  0
  6  7  1  0
  7  8  2  0
  8  9  1  0
  9 10  1  0
 10 11  1  0
  6 12  1  0
 12 13  2  0
 12 14  1  0
  2 15  1  0
 15 16  2  0
 15 17  1  0
  9  4  2  0
M  END
>  <rName>  (2888) 
Phe_2OMe_5CO2H

>  <PQ_SYMBOL>  (2888) 
Phe_2OMe_5CO2H

>  <FULL_NAME>  (2888) 
(S)-3-(2-amino-2-carboxyethyl)-4-methoxybenzoic acid

>  <IUPAC_CONDENSED>  (2888) 
Phe(2-OMe,5-CO2H)

>  <IUPAC>  (2888) 
3-((2S)-2-amino-3-hydroxy-3-oxopropyl)-4-methoxybenzene-1-carboxylic acid

>  <TYPE>  (2888) 
Backbone

>  <CLASS>  (2888) 
alpha

>  <ANALOG>  (2888) 
Tyr

>  <MOL_WT>  (2888) 
239.22699999999995

>  <LOGP>  (2888) 
0.3478

>  <TPSA>  (2888) 
109.85000000000001

>  <POPULARITY>  (2888) 
2.6

>  <PROTECTED>  (2888) 
TRUE

>  <SMILES>  (2888) 
N[C@@H](Cc1(cc(ccc1OC)C(=O)O))C(=O)O

>  <INCHIKEY>  (2888) 
BVVLWXUBFSPWJW-QMMMGPOBSA-N

$$$$
Phe_2OMe_5Cl
     RDKit          2D

 15 15  0  0  0  0  0  0  0  0999 V2000
   -1.8812    1.8031    0.0000 N   0  0  0  0  0  0  0  0  0  0  0  0
   -2.1410    0.3258    0.0000 C   0  0  0  0  0  0  0  0  0  0  0  0
   -0.9915   -0.6379    0.0000 C   0  0  0  0  0  0  0  0  0  0  0  0
    0.4178   -0.1243    0.0000 C   0  0  0  0  0  0  0  0  0  0  0  0
    0.6776    1.3531    0.0000 C   0  0  0  0  0  0  0  0  0  0  0  0
    2.0870    1.8667    0.0000 C   0  0  0  0  0  0  0  0  0  0  0  0
    2.3468    3.3440    0.0000 Cl  0  0  0  0  0  0  0  0  0  0  0  0
    3.2364    0.9030    0.0000 C   0  0  0  0  0  0  0  0  0  0  0  0
    2.9766   -0.5743    0.0000 C   0  0  0  0  0  0  0  0  0  0  0  0
    1.5673   -1.0879    0.0000 C   0  0  0  0  0  0  0  0  0  0  0  0
    1.3074   -2.5653    0.0000 O   0  0  0  0  0  0  0  0  0  0  0  0
    2.4569   -3.5290    0.0000 C   0  0  0  0  0  0  0  0  0  0  0  0
   -3.5503   -0.1878    0.0000 C   0  0  0  0  0  0  0  0  0  0  0  0
   -3.8102   -1.6651    0.0000 O   0  0  0  0  0  0  0  0  0  0  0  0
   -4.6998    0.7759    0.0000 O   0  0  0  0  0  0  0  0  0  0  0  0
  2  1  1  1
  2  3  1  0
  3  4  1  0
  4  5  1  0
  5  6  2  0
  6  7  1  0
  6  8  1  0
  8  9  2  0
  9 10  1  0
 10 11  1  0
 11 12  1  0
  2 13  1  0
 13 14  2  0
 13 15  1  0
 10  4  2  0
M  END
>  <rName>  (2889) 
Phe_2OMe_5Cl

>  <PQ_SYMBOL>  (2889) 
Phe_2OMe_5Cl

>  <FULL_NAME>  (2889) 
(S)-2-amino-3-(5-chloro-2-methoxyphenyl)propanoic acid

>  <IUPAC_CONDENSED>  (2889) 
Phe(2-OMe,5-Cl)

>  <IUPAC>  (2889) 
(2S)-2-amino-3-(5-chloro-2-methoxyphenyl)propanoic acid

>  <TYPE>  (2889) 
Backbone

>  <CLASS>  (2889) 
alpha

>  <ANALOG>  (2889) 
Tyr

>  <MOL_WT>  (2889) 
229.66299999999998

>  <LOGP>  (2889) 
1.303

>  <TPSA>  (2889) 
72.55

>  <POPULARITY>  (2889) 
3.1

>  <PROTECTED>  (2889) 
TRUE

>  <SMILES>  (2889) 
N[C@@H](Cc1(cc(Cl)ccc1OC))C(=O)O

>  <INCHIKEY>  (2889) 
GYEARKBBUBYION-QMMMGPOBSA-N

$$$$
Phe_2OMe_5NO2
     RDKit          2D

 17 17  0  0  0  0  0  0  0  0999 V2000
    1.5479   -2.0183    0.0000 N   0  0  0  0  0  0  0  0  0  0  0  0
    2.3239   -0.7347    0.0000 C   0  0  0  0  0  0  0  0  0  0  0  0
    1.6002    0.5792    0.0000 C   0  0  0  0  0  0  0  0  0  0  0  0
    0.1005    0.6094    0.0000 C   0  0  0  0  0  0  0  0  0  0  0  0
   -0.6755   -0.6743    0.0000 C   0  0  0  0  0  0  0  0  0  0  0  0
   -2.1752   -0.6441    0.0000 C   0  0  0  0  0  0  0  0  0  0  0  0
   -2.8989    0.6698    0.0000 C   0  0  0  0  0  0  0  0  0  0  0  0
   -2.1229    1.9535    0.0000 C   0  0  0  0  0  0  0  0  0  0  0  0
   -0.6232    1.9233    0.0000 C   0  0  0  0  0  0  0  0  0  0  0  0
    0.1528    3.2070    0.0000 O   0  0  0  0  0  0  0  0  0  0  0  0
   -0.5709    4.5208    0.0000 C   0  0  0  0  0  0  0  0  0  0  0  0
   -2.9512   -1.9278    0.0000 N   0  0  0  0  0  0  0  0  0  0  0  0
   -2.2275   -3.2416    0.0000 O   0  0  0  0  0  0  0  0  0  0  0  0
   -4.4509   -1.8976    0.0000 O   0  0  0  0  0  0  0  0  0  0  0  0
    3.8236   -0.7648    0.0000 C   0  0  0  0  0  0  0  0  0  0  0  0
    4.5996    0.5188    0.0000 O   0  0  0  0  0  0  0  0  0  0  0  0
    4.5473   -2.0787    0.0000 O   0  0  0  0  0  0  0  0  0  0  0  0
  2  1  1  1
  2  3  1  0
  3  4  1  0
  4  5  1  0
  5  6  2  0
  6  7  1  0
  7  8  2  0
  8  9  1  0
  9 10  1  0
 10 11  1  0
  6 12  1  0
 12 13  2  0
 12 14  1  0
  2 15  1  0
 15 16  2  0
 15 17  1  0
  9  4  2  0
M  CHG  2  12   1  14  -1
M  END
>  <rName>  (2890) 
Phe_2OMe_5NO2

>  <PQ_SYMBOL>  (2890) 
Phe_2OMe_5NO2

>  <FULL_NAME>  (2890) 
(S)-2-amino-3-(2-methoxy-5-nitrophenyl)propanoic acid

>  <IUPAC_CONDENSED>  (2890) 
Phe(2-OMe,5-NO2)

>  <IUPAC>  (2890) 
(2S)-2-amino-3-(2-methoxy-5-nitrophenyl)propanoic acid

>  <TYPE>  (2890) 
Backbone

>  <CLASS>  (2890) 
alpha

>  <ANALOG>  (2890) 
Tyr

>  <MOL_WT>  (2890) 
240.21499999999995

>  <LOGP>  (2890) 
0.5578000000000001

>  <TPSA>  (2890) 
115.69000000000001

>  <POPULARITY>  (2890) 
3.2

>  <PROTECTED>  (2890) 
TRUE

>  <SMILES>  (2890) 
N[C@@H](Cc1(cc(ccc1OC)[N+](=O)[O-]))C(=O)O

>  <INCHIKEY>  (2890) 
QUYPVQLXQVVAGB-QMMMGPOBSA-N

$$$$
Phe_2OMe_6NO2
     RDKit          2D

 17 17  0  0  0  0  0  0  0  0999 V2000
   -2.1422    1.2681    0.0000 N   0  0  0  0  0  0  0  0  0  0  0  0
   -1.9743   -0.2225    0.0000 C   0  0  0  0  0  0  0  0  0  0  0  0
   -0.5994   -0.8223    0.0000 C   0  0  0  0  0  0  0  0  0  0  0  0
    0.6075    0.0684    0.0000 C   0  0  0  0  0  0  0  0  0  0  0  0
    0.4395    1.5590    0.0000 C   0  0  0  0  0  0  0  0  0  0  0  0
   -0.9353    2.1588    0.0000 O   0  0  0  0  0  0  0  0  0  0  0  0
   -1.1033    3.6494    0.0000 C   0  0  0  0  0  0  0  0  0  0  0  0
    1.6464    2.4498    0.0000 C   0  0  0  0  0  0  0  0  0  0  0  0
    3.0213    1.8499    0.0000 C   0  0  0  0  0  0  0  0  0  0  0  0
    3.1892    0.3594    0.0000 C   0  0  0  0  0  0  0  0  0  0  0  0
    1.9823   -0.5314    0.0000 C   0  0  0  0  0  0  0  0  0  0  0  0
    2.1503   -2.0219    0.0000 N   0  0  0  0  0  0  0  0  0  0  0  0
    0.9434   -2.9127    0.0000 O   0  0  0  0  0  0  0  0  0  0  0  0
    3.5251   -2.6218    0.0000 O   0  0  0  0  0  0  0  0  0  0  0  0
   -3.1812   -1.1132    0.0000 C   0  0  0  0  0  0  0  0  0  0  0  0
   -3.0132   -2.6038    0.0000 O   0  0  0  0  0  0  0  0  0  0  0  0
   -4.5560   -0.5134    0.0000 O   0  0  0  0  0  0  0  0  0  0  0  0
  2  1  1  1
  2  3  1  0
  3  4  1  0
  4  5  2  0
  5  6  1  0
  6  7  1  0
  5  8  1  0
  8  9  2  0
  9 10  1  0
 10 11  2  0
 11 12  1  0
 12 13  2  0
 12 14  1  0
  2 15  1  0
 15 16  2  0
 15 17  1  0
 11  4  1  0
M  CHG  2  12   1  14  -1
M  END
>  <rName>  (2891) 
Phe_2OMe_6NO2

>  <PQ_SYMBOL>  (2891) 
Phe_2OMe_6NO2

>  <FULL_NAME>  (2891) 
(S)-2-amino-3-(2-methoxy-6-nitrophenyl)propanoic acid

>  <IUPAC_CONDENSED>  (2891) 
Phe(2-OMe,6-NO2)

>  <IUPAC>  (2891) 
(2S)-2-amino-3-(2-methoxy-6-nitrophenyl)propanoic acid

>  <TYPE>  (2891) 
Backbone

>  <CLASS>  (2891) 
alpha

>  <ANALOG>  (2891) 
Tyr

>  <MOL_WT>  (2891) 
240.21499999999997

>  <LOGP>  (2891) 
0.5578000000000001

>  <TPSA>  (2891) 
115.69000000000001

>  <POPULARITY>  (2891) 
2.7

>  <PROTECTED>  (2891) 
TRUE

>  <SMILES>  (2891) 
N[C@@H](Cc1(c(OC)cccc1[N+](=O)[O-]))C(=O)O

>  <INCHIKEY>  (2891) 
HDGUHYNXCFJPJO-ZETCQYMHSA-N

$$$$
Phe_2Ph
     RDKit          2D

 18 19  0  0  0  0  0  0  0  0999 V2000
   -3.4104    0.9652    0.0000 N   0  0  0  0  0  0  0  0  0  0  0  0
   -2.6159   -0.3071    0.0000 C   0  0  0  0  0  0  0  0  0  0  0  0
   -1.1168   -0.2553    0.0000 C   0  0  0  0  0  0  0  0  0  0  0  0
   -0.4122    1.0689    0.0000 C   0  0  0  0  0  0  0  0  0  0  0  0
   -1.2067    2.3412    0.0000 C   0  0  0  0  0  0  0  0  0  0  0  0
   -0.5020    3.6654    0.0000 C   0  0  0  0  0  0  0  0  0  0  0  0
    0.9971    3.7173    0.0000 C   0  0  0  0  0  0  0  0  0  0  0  0
    1.7915    2.4450    0.0000 C   0  0  0  0  0  0  0  0  0  0  0  0
    1.0869    1.1208    0.0000 C   0  0  0  0  0  0  0  0  0  0  0  0
    1.8814   -0.1515    0.0000 C   0  0  0  0  0  0  0  0  0  0  0  0
    1.1767   -1.4757    0.0000 C   0  0  0  0  0  0  0  0  0  0  0  0
    1.9712   -2.7481    0.0000 C   0  0  0  0  0  0  0  0  0  0  0  0
    3.4703   -2.6962    0.0000 C   0  0  0  0  0  0  0  0  0  0  0  0
    4.1749   -1.3720    0.0000 C   0  0  0  0  0  0  0  0  0  0  0  0
    3.3805   -0.0997    0.0000 C   0  0  0  0  0  0  0  0  0  0  0  0
   -3.3206   -1.6313    0.0000 C   0  0  0  0  0  0  0  0  0  0  0  0
   -2.5261   -2.9037    0.0000 O   0  0  0  0  0  0  0  0  0  0  0  0
   -4.8197   -1.6832    0.0000 O   0  0  0  0  0  0  0  0  0  0  0  0
  2  1  1  1
  2  3  1  0
  3  4  1  0
  4  5  2  0
  5  6  1  0
  6  7  2  0
  7  8  1  0
  8  9  2  0
  9 10  1  0
 10 11  2  0
 11 12  1  0
 12 13  2  0
 13 14  1  0
 14 15  2  0
  2 16  1  0
 16 17  2  0
 16 18  1  0
  9  4  1  0
 15 10  1  0
M  END
>  <rName>  (2892) 
Phe_2Ph

>  <PQ_SYMBOL>  (2892) 
Phe_2Ph

>  <FULL_NAME>  (2892) 
(S)-3-([1,1'-biphenyl]-2-yl)-2-aminopropanoic acid

>  <IUPAC_CONDENSED>  (2892) 
Phe(2-Ph)

>  <IUPAC>  (2892) 
(2S)-2-amino-3-(2-phenylphenyl)propanoic acid

>  <TYPE>  (2892) 
Backbone

>  <CLASS>  (2892) 
alpha

>  <ANALOG>  (2892) 
Phe

>  <MOL_WT>  (2892) 
241.29

>  <LOGP>  (2892) 
2.308

>  <TPSA>  (2892) 
63.32000000000001

>  <POPULARITY>  (2892) 
6.6

>  <PROTECTED>  (2892) 
TRUE

>  <SMILES>  (2892) 
N[C@@H](Cc1(ccccc1c2(ccccc2)))C(=O)O

>  <INCHIKEY>  (2892) 
DBMVJVZQGTXWTP-AWEZNQCLSA-N

$$$$
Phe_2_1SMOMEt_4F
     RDKit          2D

 19 19  0  0  0  0  0  0  0  0999 V2000
   -0.3883   -3.3946    0.0000 N   0  0  0  0  0  0  0  0  0  0  0  0
    0.7238   -2.3880    0.0000 C   0  0  0  0  0  0  0  0  0  0  0  0
    0.4082   -0.9216    0.0000 C   0  0  0  0  0  0  0  0  0  0  0  0
   -1.0196   -0.4617    0.0000 C   0  0  0  0  0  0  0  0  0  0  0  0
   -2.1317   -1.4683    0.0000 C   0  0  0  0  0  0  0  0  0  0  0  0
   -3.5595   -1.0084    0.0000 C   0  0  0  0  0  0  0  0  0  0  0  0
   -3.8751    0.4580    0.0000 C   0  0  0  0  0  0  0  0  0  0  0  0
   -5.3029    0.9179    0.0000 F   0  0  0  0  0  0  0  0  0  0  0  0
   -2.7630    1.4646    0.0000 C   0  0  0  0  0  0  0  0  0  0  0  0
   -1.3352    1.0047    0.0000 C   0  0  0  0  0  0  0  0  0  0  0  0
   -0.2231    2.0112    0.0000 C   0  0  0  0  0  0  0  0  0  0  0  0
    1.2047    1.5514    0.0000 O   0  0  0  0  0  0  0  0  0  0  0  0
    2.3168    2.5579    0.0000 C   0  0  0  0  0  0  0  0  0  0  0  0
    3.7446    2.0981    0.0000 O   0  0  0  0  0  0  0  0  0  0  0  0
    4.8567    3.1046    0.0000 C   0  0  0  0  0  0  0  0  0  0  0  0
   -0.5387    3.4777    0.0000 C   0  0  0  0  0  0  0  0  0  0  0  0
    2.1516   -2.8479    0.0000 C   0  0  0  0  0  0  0  0  0  0  0  0
    3.2637   -1.8413    0.0000 O   0  0  0  0  0  0  0  0  0  0  0  0
    2.4672   -4.3143    0.0000 O   0  0  0  0  0  0  0  0  0  0  0  0
  2  1  1  1
  2  3  1  0
  3  4  1  0
  4  5  1  0
  5  6  2  0
  6  7  1  0
  7  8  1  0
  7  9  2  0
  9 10  1  0
 10 11  1  0
 11 12  1  0
 12 13  1  0
 13 14  1  0
 14 15  1  0
 11 16  1  6
  2 17  1  0
 17 18  2  0
 17 19  1  0
 10  4  2  0
M  END
>  <rName>  (2893) 
Phe_2_1SMOMEt_4F

>  <PQ_SYMBOL>  (2893) 
Phe_2_1SMOMEt_4F

>  <FULL_NAME>  (2893) 
(S)-2-amino-3-(4-fluoro-2-((S)-1-(methoxymethoxy)ethyl)phenyl)propanoic acid

>  <IUPAC_CONDENSED>  (2893) 
Phe(2-(1S-MOM-Et),4-F)

>  <IUPAC>  (2893) 
(2S)-2-amino-3-(4-fluoro-2-((1S)-1-(methoxymethoxy)ethyl)phenyl)propanoic acid

>  <TYPE>  (2893) 
Backbone

>  <CLASS>  (2893) 
alpha

>  <ANALOG>  (2893) 
Phe

>  <MOL_WT>  (2893) 
271.28799999999995

>  <LOGP>  (2893) 
1.4616

>  <TPSA>  (2893) 
81.78

>  <POPULARITY>  (2893) 
2.2

>  <PROTECTED>  (2893) 
TRUE

>  <SMILES>  (2893) 
N[C@@H](Cc1(ccc(F)cc1[C@@H](OCOC)C))C(=O)O

>  <INCHIKEY>  (2893) 
WDNZZOKSCVCYQP-UFBFGSQYSA-N

$$$$
Phe_2ethynyl
     RDKit          2D

 14 14  0  0  0  0  0  0  0  0999 V2000
   -1.7887    1.9295    0.0000 N   0  0  0  0  0  0  0  0  0  0  0  0
   -1.9182    0.4351    0.0000 C   0  0  0  0  0  0  0  0  0  0  0  0
   -0.6887   -0.4243    0.0000 C   0  0  0  0  0  0  0  0  0  0  0  0
    0.6702    0.2108    0.0000 C   0  0  0  0  0  0  0  0  0  0  0  0
    0.7997    1.7052    0.0000 C   0  0  0  0  0  0  0  0  0  0  0  0
    2.1586    2.3403    0.0000 C   0  0  0  0  0  0  0  0  0  0  0  0
    3.3881    1.4809    0.0000 C   0  0  0  0  0  0  0  0  0  0  0  0
    3.2586   -0.0135    0.0000 C   0  0  0  0  0  0  0  0  0  0  0  0
    1.8997   -0.6485    0.0000 C   0  0  0  0  0  0  0  0  0  0  0  0
    1.7702   -2.1429    0.0000 C   0  0  0  0  0  0  0  0  0  0  0  0
    1.6407   -3.6373    0.0000 C   0  0  0  0  0  0  0  0  0  0  0  0
   -3.2771   -0.2000    0.0000 C   0  0  0  0  0  0  0  0  0  0  0  0
   -3.4066   -1.6944    0.0000 O   0  0  0  0  0  0  0  0  0  0  0  0
   -4.5065    0.6593    0.0000 O   0  0  0  0  0  0  0  0  0  0  0  0
  2  1  1  1
  2  3  1  0
  3  4  1  0
  4  5  2  0
  5  6  1  0
  6  7  2  0
  7  8  1  0
  8  9  2  0
  9 10  1  0
 10 11  3  0
  2 12  1  0
 12 13  2  0
 12 14  1  0
  9  4  1  0
M  END
>  <rName>  (2894) 
Phe_2ethynyl

>  <PQ_SYMBOL>  (2894) 
Phe_2ethynyl

>  <FULL_NAME>  (2894) 
(S)-2-amino-3-(2-ethynylphenyl)propanoic acid

>  <IUPAC_CONDENSED>  (2894) 
Phe(2-ethynyl)

>  <IUPAC>  (2894) 
(2S)-2-amino-3-(2-(ethynyl)phenyl)propanoic acid

>  <TYPE>  (2894) 
Backbone

>  <CLASS>  (2894) 
alpha

>  <ANALOG>  (2894) 
Phe

>  <MOL_WT>  (2894) 
189.21399999999997

>  <LOGP>  (2894) 
0.6223000000000001

>  <TPSA>  (2894) 
63.32000000000001

>  <POPULARITY>  (2894) 
4.1

>  <PROTECTED>  (2894) 
TRUE

>  <SMILES>  (2894) 
N[C@@H](Cc1(ccccc1C#C))C(=O)O

>  <INCHIKEY>  (2894) 
APKBULUIYAENSD-JTQLQIEISA-N

$$$$
Phe_2iPr
     RDKit          2D

 15 15  0  0  0  0  0  0  0  0999 V2000
   -2.0511    1.9295    0.0000 N   0  0  0  0  0  0  0  0  0  0  0  0
   -2.0725    0.4296    0.0000 C   0  0  0  0  0  0  0  0  0  0  0  0
   -0.7843   -0.3388    0.0000 C   0  0  0  0  0  0  0  0  0  0  0  0
    0.5253    0.3925    0.0000 C   0  0  0  0  0  0  0  0  0  0  0  0
    0.5467    1.8924    0.0000 C   0  0  0  0  0  0  0  0  0  0  0  0
    1.8563    2.6238    0.0000 C   0  0  0  0  0  0  0  0  0  0  0  0
    3.1445    1.8553    0.0000 C   0  0  0  0  0  0  0  0  0  0  0  0
    3.1231    0.3555    0.0000 C   0  0  0  0  0  0  0  0  0  0  0  0
    1.8135   -0.3759    0.0000 C   0  0  0  0  0  0  0  0  0  0  0  0
    1.7921   -1.8758    0.0000 C   0  0  0  0  0  0  0  0  0  0  0  0
    3.0803   -2.6442    0.0000 C   0  0  0  0  0  0  0  0  0  0  0  0
    0.4825   -2.6072    0.0000 C   0  0  0  0  0  0  0  0  0  0  0  0
   -3.3821   -0.3018    0.0000 C   0  0  0  0  0  0  0  0  0  0  0  0
   -3.4036   -1.8016    0.0000 O   0  0  0  0  0  0  0  0  0  0  0  0
   -4.6704    0.4667    0.0000 O   0  0  0  0  0  0  0  0  0  0  0  0
  2  1  1  1
  2  3  1  0
  3  4  1  0
  4  5  2  0
  5  6  1  0
  6  7  2  0
  7  8  1  0
  8  9  2  0
  9 10  1  0
 10 11  1  0
 10 12  1  0
  2 13  1  0
 13 14  2  0
 13 15  1  0
  9  4  1  0
M  END
>  <rName>  (2895) 
Phe_2iPr

>  <PQ_SYMBOL>  (2895) 
Phe_2iPr

>  <FULL_NAME>  (2895) 
(S)-2-amino-3-(2-isopropylphenyl)propanoic acid

>  <IUPAC_CONDENSED>  (2895) 
Phe(2-iPr)

>  <IUPAC>  (2895) 
(2S)-2-amino-3-(2-(propan-2-yl)phenyl)propanoic acid

>  <TYPE>  (2895) 
Backbone

>  <CLASS>  (2895) 
alpha

>  <ANALOG>  (2895) 
Phe

>  <MOL_WT>  (2895) 
207.27299999999997

>  <LOGP>  (2895) 
1.7644000000000002

>  <TPSA>  (2895) 
63.32000000000001

>  <POPULARITY>  (2895) 
4.8

>  <PROTECTED>  (2895) 
TRUE

>  <SMILES>  (2895) 
N[C@@H](Cc1(ccccc1C(C)C))C(=O)O

>  <INCHIKEY>  (2895) 
VHNJMPJZDTZETC-NSHDSACASA-N

$$$$
Phe_34_5triF
     RDKit          2D

 15 15  0  0  0  0  0  0  0  0999 V2000
   -2.0609    1.6226    0.0000 N   0  0  0  0  0  0  0  0  0  0  0  0
   -2.4694    0.1793    0.0000 C   0  0  0  0  0  0  0  0  0  0  0  0
   -1.4237   -0.8961    0.0000 C   0  0  0  0  0  0  0  0  0  0  0  0
    0.0305   -0.5283    0.0000 C   0  0  0  0  0  0  0  0  0  0  0  0
    0.4390    0.9150    0.0000 C   0  0  0  0  0  0  0  0  0  0  0  0
    1.8932    1.2829    0.0000 C   0  0  0  0  0  0  0  0  0  0  0  0
    2.3017    2.7262    0.0000 F   0  0  0  0  0  0  0  0  0  0  0  0
    2.9389    0.2075    0.0000 C   0  0  0  0  0  0  0  0  0  0  0  0
    4.3931    0.5753    0.0000 F   0  0  0  0  0  0  0  0  0  0  0  0
    2.5304   -1.2358    0.0000 C   0  0  0  0  0  0  0  0  0  0  0  0
    3.5760   -2.3113    0.0000 F   0  0  0  0  0  0  0  0  0  0  0  0
    1.0762   -1.6037    0.0000 C   0  0  0  0  0  0  0  0  0  0  0  0
   -3.9236   -0.1886    0.0000 C   0  0  0  0  0  0  0  0  0  0  0  0
   -4.3321   -1.6319    0.0000 O   0  0  0  0  0  0  0  0  0  0  0  0
   -4.9693    0.8868    0.0000 O   0  0  0  0  0  0  0  0  0  0  0  0
  2  1  1  1
  2  3  1  0
  3  4  1  0
  4  5  2  0
  5  6  1  0
  6  7  1  0
  6  8  2  0
  8  9  1  0
  8 10  1  0
 10 11  1  0
 10 12  2  0
  2 13  1  0
 13 14  2  0
 13 15  1  0
 12  4  1  0
M  END
>  <rName>  (2896) 
Phe_34_5triF

>  <PQ_SYMBOL>  (2896) 
Phe_34_5triF

>  <FULL_NAME>  (2896) 
(S)-2-amino-3-(3,4,5-trifluorophenyl)propanoic acid

>  <IUPAC_CONDENSED>  (2896) 
Phe(3,4,5-triF)

>  <IUPAC>  (2896) 
(2S)-2-amino-3-(3,4,5-trifluorophenyl)propanoic acid

>  <TYPE>  (2896) 
Backbone

>  <CLASS>  (2896) 
alpha

>  <ANALOG>  (2896) 
Phe

>  <MOL_WT>  (2896) 
219.16199999999998

>  <LOGP>  (2896) 
1.0583000000000002

>  <TPSA>  (2896) 
63.32000000000001

>  <POPULARITY>  (2896) 
7.7

>  <PROTECTED>  (2896) 
TRUE

>  <SMILES>  (2896) 
N[C@@H](Cc1(cc(F)c(F)c(F)c1))C(=O)O

>  <INCHIKEY>  (2896) 
SFKCVRLOYOHGFK-ZETCQYMHSA-N

$$$$
Phe_34_5triOMe
     RDKit          2D

 18 18  0  0  0  0  0  0  0  0999 V2000
   -2.7773    1.6378    0.0000 N   0  0  0  0  0  0  0  0  0  0  0  0
   -3.1600    0.1874    0.0000 C   0  0  0  0  0  0  0  0  0  0  0  0
   -2.0953   -0.8692    0.0000 C   0  0  0  0  0  0  0  0  0  0  0  0
   -0.6479   -0.4754    0.0000 C   0  0  0  0  0  0  0  0  0  0  0  0
   -0.2652    0.9749    0.0000 C   0  0  0  0  0  0  0  0  0  0  0  0
    1.1822    1.3687    0.0000 C   0  0  0  0  0  0  0  0  0  0  0  0
    1.5649    2.8190    0.0000 O   0  0  0  0  0  0  0  0  0  0  0  0
    3.0123    3.2128    0.0000 C   0  0  0  0  0  0  0  0  0  0  0  0
    2.2469    0.3121    0.0000 C   0  0  0  0  0  0  0  0  0  0  0  0
    3.6943    0.7058    0.0000 O   0  0  0  0  0  0  0  0  0  0  0  0
    4.7590   -0.3508    0.0000 C   0  0  0  0  0  0  0  0  0  0  0  0
    1.8642   -1.1383    0.0000 C   0  0  0  0  0  0  0  0  0  0  0  0
    2.9289   -2.1949    0.0000 O   0  0  0  0  0  0  0  0  0  0  0  0
    2.5462   -3.6453    0.0000 C   0  0  0  0  0  0  0  0  0  0  0  0
    0.4168   -1.5320    0.0000 C   0  0  0  0  0  0  0  0  0  0  0  0
   -4.6074   -0.2063    0.0000 C   0  0  0  0  0  0  0  0  0  0  0  0
   -4.9901   -1.6567    0.0000 O   0  0  0  0  0  0  0  0  0  0  0  0
   -5.6721    0.8503    0.0000 O   0  0  0  0  0  0  0  0  0  0  0  0
  2  1  1  1
  2  3  1  0
  3  4  1  0
  4  5  2  0
  5  6  1  0
  6  7  1  0
  7  8  1  0
  6  9  2  0
  9 10  1  0
 10 11  1  0
  9 12  1  0
 12 13  1  0
 13 14  1  0
 12 15  2  0
  2 16  1  0
 16 17  2  0
 16 18  1  0
 15  4  1  0
M  END
>  <rName>  (2897) 
Phe_34_5triOMe

>  <PQ_SYMBOL>  (2897) 
Phe_34_5triOMe

>  <FULL_NAME>  (2897) 
(S)-2-amino-3-(3,4,5-trimethoxyphenyl)propanoic acid

>  <IUPAC_CONDENSED>  (2897) 
Phe(3,4,5-triOMe)

>  <IUPAC>  (2897) 
(2S)-2-amino-3-(3,4,5-trimethoxyphenyl)propanoic acid

>  <TYPE>  (2897) 
Backbone

>  <CLASS>  (2897) 
alpha

>  <ANALOG>  (2897) 
Tyr

>  <MOL_WT>  (2897) 
255.26999999999995

>  <LOGP>  (2897) 
0.6667999999999998

>  <TPSA>  (2897) 
91.01

>  <POPULARITY>  (2897) 
6.6

>  <PROTECTED>  (2897) 
TRUE

>  <SMILES>  (2897) 
N[C@@H](Cc1(cc(OC)c(OC)c(OC)c1))C(=O)O

>  <INCHIKEY>  (2897) 
AYPXBNMIJGVJDE-QMMMGPOBSA-N

$$$$
Phe_34diCN
     RDKit          2D

 16 16  0  0  0  0  0  0  0  0999 V2000
   -2.7430    1.6952    0.0000 N   0  0  0  0  0  0  0  0  0  0  0  0
   -3.0139    0.2198    0.0000 C   0  0  0  0  0  0  0  0  0  0  0  0
   -1.8717   -0.7525    0.0000 C   0  0  0  0  0  0  0  0  0  0  0  0
   -0.4585   -0.2494    0.0000 C   0  0  0  0  0  0  0  0  0  0  0  0
   -0.1876    1.2259    0.0000 C   0  0  0  0  0  0  0  0  0  0  0  0
    1.2255    1.7290    0.0000 C   0  0  0  0  0  0  0  0  0  0  0  0
    2.3677    0.7567    0.0000 C   0  0  0  0  0  0  0  0  0  0  0  0
    3.7809    1.2597    0.0000 C   0  0  0  0  0  0  0  0  0  0  0  0
    5.1940    1.7628    0.0000 N   0  0  0  0  0  0  0  0  0  0  0  0
    2.0968   -0.7186    0.0000 C   0  0  0  0  0  0  0  0  0  0  0  0
    3.2390   -1.6909    0.0000 C   0  0  0  0  0  0  0  0  0  0  0  0
    4.3812   -2.6632    0.0000 N   0  0  0  0  0  0  0  0  0  0  0  0
    0.6837   -1.2217    0.0000 C   0  0  0  0  0  0  0  0  0  0  0  0
   -4.4270   -0.2832    0.0000 C   0  0  0  0  0  0  0  0  0  0  0  0
   -4.6979   -1.7585    0.0000 O   0  0  0  0  0  0  0  0  0  0  0  0
   -5.5692    0.6891    0.0000 O   0  0  0  0  0  0  0  0  0  0  0  0
  2  1  1  1
  2  3  1  0
  3  4  1  0
  4  5  1  0
  5  6  2  0
  6  7  1  0
  7  8  1  0
  8  9  3  0
  7 10  2  0
 10 11  1  0
 11 12  3  0
 10 13  1  0
  2 14  1  0
 14 15  2  0
 14 16  1  0
 13  4  2  0
M  END
>  <rName>  (2898) 
Phe_34diCN

>  <PQ_SYMBOL>  (2898) 
Phe_34diCN

>  <FULL_NAME>  (2898) 
(S)-2-amino-3-(3,4-dicyanophenyl)propanoic acid

>  <IUPAC_CONDENSED>  (2898) 
Phe(3,4-diCN)

>  <IUPAC>  (2898) 
(2S)-2-amino-3-(3,4-bis(nitrilomethyl)phenyl)propanoic acid

>  <TYPE>  (2898) 
Backbone

>  <CLASS>  (2898) 
alpha

>  <ANALOG>  (2898) 
Phe

>  <MOL_WT>  (2898) 
215.212

>  <LOGP>  (2898) 
0.38436

>  <TPSA>  (2898) 
110.89999999999999

>  <POPULARITY>  (2898) 
2.5

>  <PROTECTED>  (2898) 
TRUE

>  <SMILES>  (2898) 
N[C@@H](Cc1(ccc(C#N)c(C#N)c1))C(=O)O

>  <INCHIKEY>  (2898) 
CTNQYACBNXLFKC-JTQLQIEISA-N

$$$$
Phe_34diCO2H
     RDKit          2D

 18 18  0  0  0  0  0  0  0  0999 V2000
   -3.1302    1.7241    0.0000 N   0  0  0  0  0  0  0  0  0  0  0  0
   -3.4035    0.2492    0.0000 C   0  0  0  0  0  0  0  0  0  0  0  0
   -2.2628   -0.7249    0.0000 C   0  0  0  0  0  0  0  0  0  0  0  0
   -0.8489   -0.2241    0.0000 C   0  0  0  0  0  0  0  0  0  0  0  0
   -0.5756    1.2508    0.0000 C   0  0  0  0  0  0  0  0  0  0  0  0
    0.8383    1.7516    0.0000 C   0  0  0  0  0  0  0  0  0  0  0  0
    1.9790    0.7775    0.0000 C   0  0  0  0  0  0  0  0  0  0  0  0
    3.3929    1.2783    0.0000 C   0  0  0  0  0  0  0  0  0  0  0  0
    3.6661    2.7532    0.0000 O   0  0  0  0  0  0  0  0  0  0  0  0
    4.5336    0.3042    0.0000 O   0  0  0  0  0  0  0  0  0  0  0  0
    1.7057   -0.6974    0.0000 C   0  0  0  0  0  0  0  0  0  0  0  0
    0.2918   -1.1982    0.0000 C   0  0  0  0  0  0  0  0  0  0  0  0
    2.8464   -1.6715    0.0000 C   0  0  0  0  0  0  0  0  0  0  0  0
    4.2603   -1.1707    0.0000 O   0  0  0  0  0  0  0  0  0  0  0  0
    2.5732   -3.1464    0.0000 O   0  0  0  0  0  0  0  0  0  0  0  0
   -4.8174   -0.2517    0.0000 C   0  0  0  0  0  0  0  0  0  0  0  0
   -5.0907   -1.7266    0.0000 O   0  0  0  0  0  0  0  0  0  0  0  0
   -5.9581    0.7224    0.0000 O   0  0  0  0  0  0  0  0  0  0  0  0
  2  1  1  1
  2  3  1  0
  3  4  1  0
  4  5  1  0
  5  6  2  0
  6  7  1  0
  7  8  1  0
  8  9  2  0
  8 10  1  0
  7 11  2  0
 11 12  1  0
 11 13  1  0
 13 14  2  0
 13 15  1  0
  2 16  1  0
 16 17  2  0
 16 18  1  0
 12  4  2  0
M  END
>  <rName>  (2899) 
Phe_34diCO2H

>  <PQ_SYMBOL>  (2899) 
Phe_34diCO2H

>  <FULL_NAME>  (2899) 
(S)-4-(2-amino-2-carboxyethyl)phthalic acid

>  <IUPAC_CONDENSED>  (2899) 
Phe(3,4-diCO2H)

>  <IUPAC>  (2899) 
4-((2S)-2-amino-3-hydroxy-3-oxopropyl)benzene-1,2-dicarboxylic acid

>  <TYPE>  (2899) 
Backbone

>  <CLASS>  (2899) 
alpha

>  <ANALOG>  (2899) 
Phe

>  <MOL_WT>  (2899) 
253.20999999999998

>  <LOGP>  (2899) 
0.03739999999999977

>  <TPSA>  (2899) 
137.92000000000002

>  <POPULARITY>  (2899) 
2.7

>  <PROTECTED>  (2899) 
TRUE

>  <SMILES>  (2899) 
N[C@@H](Cc1(ccc(C(=O)O)c(c1)C(=O)O))C(=O)O

>  <INCHIKEY>  (2899) 
DSZCXCQDLAVEHT-QMMMGPOBSA-N

$$$$
Phe_34diCl
     RDKit          2D

 14 14  0  0  0  0  0  0  0  0999 V2000
   -2.0094    1.6916    0.0000 N   0  0  0  0  0  0  0  0  0  0  0  0
   -2.3243    0.2250    0.0000 C   0  0  0  0  0  0  0  0  0  0  0  0
   -1.2116   -0.7809    0.0000 C   0  0  0  0  0  0  0  0  0  0  0  0
    0.2159   -0.3203    0.0000 C   0  0  0  0  0  0  0  0  0  0  0  0
    0.5308    1.1463    0.0000 C   0  0  0  0  0  0  0  0  0  0  0  0
    1.9583    1.6069    0.0000 C   0  0  0  0  0  0  0  0  0  0  0  0
    3.0710    0.6009    0.0000 C   0  0  0  0  0  0  0  0  0  0  0  0
    4.4985    1.0615    0.0000 Cl  0  0  0  0  0  0  0  0  0  0  0  0
    2.7561   -0.8657    0.0000 C   0  0  0  0  0  0  0  0  0  0  0  0
    3.8688   -1.8716    0.0000 Cl  0  0  0  0  0  0  0  0  0  0  0  0
    1.3286   -1.3263    0.0000 C   0  0  0  0  0  0  0  0  0  0  0  0
   -3.7518   -0.2356    0.0000 C   0  0  0  0  0  0  0  0  0  0  0  0
   -4.0666   -1.7022    0.0000 O   0  0  0  0  0  0  0  0  0  0  0  0
   -4.8644    0.7704    0.0000 O   0  0  0  0  0  0  0  0  0  0  0  0
  2  1  1  1
  2  3  1  0
  3  4  1  0
  4  5  1  0
  5  6  2  0
  6  7  1  0
  7  8  1  0
  7  9  2  0
  9 10  1  0
  9 11  1  0
  2 12  1  0
 12 13  2  0
 12 14  1  0
 11  4  2  0
M  END
>  <rName>  (2900) 
Phe_34diCl

>  <PQ_SYMBOL>  (2900) 
Phe_34diCl

>  <FULL_NAME>  (2900) 
3,4-Dichloro-L-Phenylalanine

>  <IUPAC_CONDENSED>  (2900) 
Phe(3,4-diCl)

>  <IUPAC>  (2900) 
(2S)-2-amino-3-(3,4-dichlorophenyl)propanoic acid

>  <TYPE>  (2900) 
Backbone

>  <CLASS>  (2900) 
alpha

>  <ANALOG>  (2900) 
Phe

>  <MOL_WT>  (2900) 
234.082

>  <LOGP>  (2900) 
1.9478

>  <TPSA>  (2900) 
63.32000000000001

>  <POPULARITY>  (2900) 
24.8

>  <PROTECTED>  (2900) 
TRUE

>  <SMILES>  (2900) 
N[C@@H](Cc1(ccc(Cl)c(Cl)c1))C(=O)O

>  <INCHIKEY>  (2900) 
NRCSJHVDTAAISV-QMMMGPOBSA-N

$$$$
Phe_34diF
     RDKit          2D

 14 14  0  0  0  0  0  0  0  0999 V2000
   -2.0094    1.6916    0.0000 N   0  0  0  0  0  0  0  0  0  0  0  0
   -2.3243    0.2250    0.0000 C   0  0  0  0  0  0  0  0  0  0  0  0
   -1.2116   -0.7809    0.0000 C   0  0  0  0  0  0  0  0  0  0  0  0
    0.2159   -0.3203    0.0000 C   0  0  0  0  0  0  0  0  0  0  0  0
    0.5308    1.1463    0.0000 C   0  0  0  0  0  0  0  0  0  0  0  0
    1.9583    1.6069    0.0000 C   0  0  0  0  0  0  0  0  0  0  0  0
    3.0710    0.6009    0.0000 C   0  0  0  0  0  0  0  0  0  0  0  0
    4.4985    1.0615    0.0000 F   0  0  0  0  0  0  0  0  0  0  0  0
    2.7561   -0.8657    0.0000 C   0  0  0  0  0  0  0  0  0  0  0  0
    3.8688   -1.8716    0.0000 F   0  0  0  0  0  0  0  0  0  0  0  0
    1.3286   -1.3263    0.0000 C   0  0  0  0  0  0  0  0  0  0  0  0
   -3.7518   -0.2356    0.0000 C   0  0  0  0  0  0  0  0  0  0  0  0
   -4.0666   -1.7022    0.0000 O   0  0  0  0  0  0  0  0  0  0  0  0
   -4.8644    0.7704    0.0000 O   0  0  0  0  0  0  0  0  0  0  0  0
  2  1  1  1
  2  3  1  0
  3  4  1  0
  4  5  1  0
  5  6  2  0
  6  7  1  0
  7  8  1  0
  7  9  2  0
  9 10  1  0
  9 11  1  0
  2 12  1  0
 12 13  2  0
 12 14  1  0
 11  4  2  0
M  END
>  <rName>  (2901) 
Phe_34diF

>  <PQ_SYMBOL>  (2901) 
Phe_34diF

>  <FULL_NAME>  (2901) 
3,4-Difluoro-L-Phenylalanine

>  <IUPAC_CONDENSED>  (2901) 
Phe(3,4-diF)

>  <IUPAC>  (2901) 
(2S)-2-amino-3-(3,4-difluorophenyl)propanoic acid

>  <TYPE>  (2901) 
Backbone

>  <CLASS>  (2901) 
alpha

>  <ANALOG>  (2901) 
Phe

>  <MOL_WT>  (2901) 
201.17199999999997

>  <LOGP>  (2901) 
0.9192

>  <TPSA>  (2901) 
63.32000000000001

>  <POPULARITY>  (2901) 
13.5

>  <PROTECTED>  (2901) 
TRUE

>  <SMILES>  (2901) 
N[C@@H](Cc1(ccc(F)c(F)c1))C(=O)O

>  <INCHIKEY>  (2901) 
PRAWYXDDKCVZTL-QMMMGPOBSA-N

$$$$
Phe_34diMe
     RDKit          2D

 14 14  0  0  0  0  0  0  0  0999 V2000
   -2.0094    1.6916    0.0000 N   0  0  0  0  0  0  0  0  0  0  0  0
   -2.3243    0.2250    0.0000 C   0  0  0  0  0  0  0  0  0  0  0  0
   -1.2116   -0.7809    0.0000 C   0  0  0  0  0  0  0  0  0  0  0  0
    0.2159   -0.3203    0.0000 C   0  0  0  0  0  0  0  0  0  0  0  0
    0.5308    1.1463    0.0000 C   0  0  0  0  0  0  0  0  0  0  0  0
    1.9583    1.6069    0.0000 C   0  0  0  0  0  0  0  0  0  0  0  0
    3.0710    0.6009    0.0000 C   0  0  0  0  0  0  0  0  0  0  0  0
    4.4985    1.0615    0.0000 C   0  0  0  0  0  0  0  0  0  0  0  0
    2.7561   -0.8657    0.0000 C   0  0  0  0  0  0  0  0  0  0  0  0
    3.8688   -1.8716    0.0000 C   0  0  0  0  0  0  0  0  0  0  0  0
    1.3286   -1.3263    0.0000 C   0  0  0  0  0  0  0  0  0  0  0  0
   -3.7518   -0.2356    0.0000 C   0  0  0  0  0  0  0  0  0  0  0  0
   -4.0666   -1.7022    0.0000 O   0  0  0  0  0  0  0  0  0  0  0  0
   -4.8644    0.7704    0.0000 O   0  0  0  0  0  0  0  0  0  0  0  0
  2  1  1  1
  2  3  1  0
  3  4  1  0
  4  5  1  0
  5  6  2  0
  6  7  1  0
  7  8  1  0
  7  9  2  0
  9 10  1  0
  9 11  1  0
  2 12  1  0
 12 13  2  0
 12 14  1  0
 11  4  2  0
M  END
>  <rName>  (2902) 
Phe_34diMe

>  <PQ_SYMBOL>  (2902) 
Phe_34diMe

>  <FULL_NAME>  (2902) 
3,4-Dimethyl-L-Phenylalanine

>  <IUPAC_CONDENSED>  (2902) 
Phe(3,4-diMe)

>  <IUPAC>  (2902) 
(2S)-2-amino-3-(3,4-dimethylphenyl)propanoic acid

>  <TYPE>  (2902) 
Backbone

>  <CLASS>  (2902) 
alpha

>  <ANALOG>  (2902) 
Phe

>  <MOL_WT>  (2902) 
193.24599999999998

>  <LOGP>  (2902) 
1.25784

>  <TPSA>  (2902) 
63.32000000000001

>  <POPULARITY>  (2902) 
8.2

>  <PROTECTED>  (2902) 
TRUE

>  <SMILES>  (2902) 
N[C@@H](Cc1(ccc(C)c(C)c1))C(=O)O

>  <INCHIKEY>  (2902) 
PHTDECHKNDJYMG-JTQLQIEISA-N

$$$$
Phe_34diOMe
     RDKit          2D

 16 16  0  0  0  0  0  0  0  0999 V2000
   -2.7122    1.7058    0.0000 N   0  0  0  0  0  0  0  0  0  0  0  0
   -2.9205    0.2203    0.0000 C   0  0  0  0  0  0  0  0  0  0  0  0
   -1.7383   -0.7029    0.0000 C   0  0  0  0  0  0  0  0  0  0  0  0
   -0.3477   -0.1406    0.0000 C   0  0  0  0  0  0  0  0  0  0  0  0
   -0.1393    1.3449    0.0000 C   0  0  0  0  0  0  0  0  0  0  0  0
    1.2513    1.9072    0.0000 C   0  0  0  0  0  0  0  0  0  0  0  0
    2.4336    0.9840    0.0000 C   0  0  0  0  0  0  0  0  0  0  0  0
    3.8242    1.5463    0.0000 O   0  0  0  0  0  0  0  0  0  0  0  0
    5.0065    0.6231    0.0000 C   0  0  0  0  0  0  0  0  0  0  0  0
    2.2252   -0.5015    0.0000 C   0  0  0  0  0  0  0  0  0  0  0  0
    3.4075   -1.4246    0.0000 O   0  0  0  0  0  0  0  0  0  0  0  0
    3.1991   -2.9101    0.0000 C   0  0  0  0  0  0  0  0  0  0  0  0
    0.8346   -1.0637    0.0000 C   0  0  0  0  0  0  0  0  0  0  0  0
   -4.3112   -0.3420    0.0000 C   0  0  0  0  0  0  0  0  0  0  0  0
   -4.5195   -1.8274    0.0000 O   0  0  0  0  0  0  0  0  0  0  0  0
   -5.4934    0.5812    0.0000 O   0  0  0  0  0  0  0  0  0  0  0  0
  2  1  1  1
  2  3  1  0
  3  4  1  0
  4  5  1  0
  5  6  2  0
  6  7  1  0
  7  8  1  0
  8  9  1  0
  7 10  2  0
 10 11  1  0
 11 12  1  0
 10 13  1  0
  2 14  1  0
 14 15  2  0
 14 16  1  0
 13  4  2  0
M  END
>  <rName>  (2903) 
Phe_34diOMe

>  <PQ_SYMBOL>  (2903) 
Phe_34diOMe

>  <FULL_NAME>  (2903) 
(3,4)-Dimethoxy-L-Phenylalanine

>  <IUPAC_CONDENSED>  (2903) 
Phe(3,4-diOMe)

>  <IUPAC>  (2903) 
(2S)-2-amino-3-(3,4-dimethoxyphenyl)propanoic acid

>  <TYPE>  (2903) 
Backbone

>  <CLASS>  (2903) 
alpha

>  <ANALOG>  (2903) 
Tyr

>  <MOL_WT>  (2903) 
225.24399999999997

>  <LOGP>  (2903) 
0.6581999999999999

>  <TPSA>  (2903) 
81.78

>  <POPULARITY>  (2903) 
13.4

>  <PROTECTED>  (2903) 
TRUE

>  <SMILES>  (2903) 
N[C@@H](Cc1(ccc(OC)c(OC)c1))C(=O)O

>  <INCHIKEY>  (2903) 
VWTFNYVAFGYEKI-QMMMGPOBSA-N

$$$$
Phe_35diCF3
     RDKit          2D

 20 20  0  0  0  0  0  0  0  0999 V2000
   -2.9633    1.2252    0.0000 N   0  0  0  0  0  0  0  0  0  0  0  0
   -3.1963   -0.2566    0.0000 C   0  0  0  0  0  0  0  0  0  0  0  0
   -2.0296   -1.1993    0.0000 C   0  0  0  0  0  0  0  0  0  0  0  0
   -0.6298   -0.6602    0.0000 C   0  0  0  0  0  0  0  0  0  0  0  0
   -0.3968    0.8216    0.0000 C   0  0  0  0  0  0  0  0  0  0  0  0
    1.0030    1.3607    0.0000 C   0  0  0  0  0  0  0  0  0  0  0  0
    2.1697    0.4180    0.0000 C   0  0  0  0  0  0  0  0  0  0  0  0
    1.9367   -1.0638    0.0000 C   0  0  0  0  0  0  0  0  0  0  0  0
    0.5370   -1.6029    0.0000 C   0  0  0  0  0  0  0  0  0  0  0  0
    3.1035   -2.0064    0.0000 C   0  0  0  0  0  0  0  0  0  0  0  0
    4.2703   -2.9491    0.0000 F   0  0  0  0  0  0  0  0  0  0  0  0
    2.1608   -3.1732    0.0000 F   0  0  0  0  0  0  0  0  0  0  0  0
    4.0462   -0.8397    0.0000 F   0  0  0  0  0  0  0  0  0  0  0  0
    1.2360    2.8425    0.0000 C   0  0  0  0  0  0  0  0  0  0  0  0
    1.4690    4.3243    0.0000 F   0  0  0  0  0  0  0  0  0  0  0  0
    2.7178    2.6095    0.0000 F   0  0  0  0  0  0  0  0  0  0  0  0
   -0.2458    3.0755    0.0000 F   0  0  0  0  0  0  0  0  0  0  0  0
   -4.5961   -0.7957    0.0000 C   0  0  0  0  0  0  0  0  0  0  0  0
   -4.8291   -2.2775    0.0000 O   0  0  0  0  0  0  0  0  0  0  0  0
   -5.7629    0.1470    0.0000 O   0  0  0  0  0  0  0  0  0  0  0  0
  2  1  1  1
  2  3  1  0
  3  4  1  0
  4  5  1  0
  5  6  2  0
  6  7  1  0
  7  8  2  0
  8  9  1  0
  8 10  1  0
 10 11  1  0
 10 12  1  0
 10 13  1  0
  6 14  1  0
 14 15  1  0
 14 16  1  0
 14 17  1  0
  2 18  1  0
 18 19  2  0
 18 20  1  0
  9  4  2  0
M  END
>  <rName>  (2904) 
Phe_35diCF3

>  <PQ_SYMBOL>  (2904) 
Phe_35diCF3

>  <FULL_NAME>  (2904) 
(2S)-2-amino-3-[3,5-bis(trifluoromethyl)phenyl]propanoic acid

>  <IUPAC_CONDENSED>  (2904) 
Phe(3,5-diCF3)

>  <IUPAC>  (2904) 
(2S)-2-amino-3-(3,5-bis(trifluoromethyl)phenyl)propanoic acid

>  <TYPE>  (2904) 
Backbone

>  <CLASS>  (2904) 
alpha

>  <ANALOG>  (2904) 
Phe

>  <MOL_WT>  (2904) 
301.186

>  <LOGP>  (2904) 
2.6786000000000003

>  <TPSA>  (2904) 
63.32000000000001

>  <POPULARITY>  (2904) 
9.6

>  <PROTECTED>  (2904) 
TRUE

>  <SMILES>  (2904) 
N[C@@H](Cc1(cc(cc(c1)C(F)(F)F)C(F)(F)F))C(=O)O

>  <INCHIKEY>  (2904) 
NMTMNIDBMOGRKI-QMMMGPOBSA-N

$$$$
Phe_35diCl
     RDKit          2D

 14 14  0  0  0  0  0  0  0  0999 V2000
   -1.8014    1.6047    0.0000 N   0  0  0  0  0  0  0  0  0  0  0  0
   -2.1617    0.1486    0.0000 C   0  0  0  0  0  0  0  0  0  0  0  0
   -1.0809   -0.8915    0.0000 C   0  0  0  0  0  0  0  0  0  0  0  0
    0.3603   -0.4755    0.0000 C   0  0  0  0  0  0  0  0  0  0  0  0
    0.7206    0.9806    0.0000 C   0  0  0  0  0  0  0  0  0  0  0  0
    2.1617    1.3967    0.0000 C   0  0  0  0  0  0  0  0  0  0  0  0
    2.5220    2.8527    0.0000 Cl  0  0  0  0  0  0  0  0  0  0  0  0
    3.2426    0.3566    0.0000 C   0  0  0  0  0  0  0  0  0  0  0  0
    2.8823   -1.0995    0.0000 C   0  0  0  0  0  0  0  0  0  0  0  0
    3.9632   -2.1396    0.0000 Cl  0  0  0  0  0  0  0  0  0  0  0  0
    1.4412   -1.5155    0.0000 C   0  0  0  0  0  0  0  0  0  0  0  0
   -3.6029   -0.2674    0.0000 C   0  0  0  0  0  0  0  0  0  0  0  0
   -3.9632   -1.7235    0.0000 O   0  0  0  0  0  0  0  0  0  0  0  0
   -4.6837    0.7726    0.0000 O   0  0  0  0  0  0  0  0  0  0  0  0
  2  1  1  1
  2  3  1  0
  3  4  1  0
  4  5  2  0
  5  6  1  0
  6  7  1  0
  6  8  2  0
  8  9  1  0
  9 10  1  0
  9 11  2  0
  2 12  1  0
 12 13  2  0
 12 14  1  0
 11  4  1  0
M  END
>  <rName>  (2905) 
Phe_35diCl

>  <PQ_SYMBOL>  (2905) 
Phe_35diCl

>  <FULL_NAME>  (2905) 
3,5-Dichloro-L-Phenylalanine

>  <IUPAC_CONDENSED>  (2905) 
Phe(3,5-diCl)

>  <IUPAC>  (2905) 
(2S)-2-amino-3-(3,5-dichlorophenyl)propanoic acid

>  <TYPE>  (2905) 
Backbone

>  <CLASS>  (2905) 
alpha

>  <ANALOG>  (2905) 
Phe

>  <MOL_WT>  (2905) 
234.082

>  <LOGP>  (2905) 
1.9478

>  <TPSA>  (2905) 
63.32000000000001

>  <POPULARITY>  (2905) 
7.2

>  <PROTECTED>  (2905) 
TRUE

>  <SMILES>  (2905) 
N[C@@H](Cc1(cc(Cl)cc(Cl)c1))C(=O)O

>  <INCHIKEY>  (2905) 
UAODYKLBUMXKDC-QMMMGPOBSA-N

$$$$
Phe_35diCl_4F
     RDKit          2D

 15 15  0  0  0  0  0  0  0  0999 V2000
   -2.0609    1.6226    0.0000 N   0  0  0  0  0  0  0  0  0  0  0  0
   -2.4694    0.1793    0.0000 C   0  0  0  0  0  0  0  0  0  0  0  0
   -1.4237   -0.8961    0.0000 C   0  0  0  0  0  0  0  0  0  0  0  0
    0.0305   -0.5283    0.0000 C   0  0  0  0  0  0  0  0  0  0  0  0
    0.4390    0.9150    0.0000 C   0  0  0  0  0  0  0  0  0  0  0  0
    1.8932    1.2829    0.0000 C   0  0  0  0  0  0  0  0  0  0  0  0
    2.3017    2.7262    0.0000 Cl  0  0  0  0  0  0  0  0  0  0  0  0
    2.9389    0.2075    0.0000 C   0  0  0  0  0  0  0  0  0  0  0  0
    4.3931    0.5753    0.0000 F   0  0  0  0  0  0  0  0  0  0  0  0
    2.5304   -1.2358    0.0000 C   0  0  0  0  0  0  0  0  0  0  0  0
    3.5760   -2.3113    0.0000 Cl  0  0  0  0  0  0  0  0  0  0  0  0
    1.0762   -1.6037    0.0000 C   0  0  0  0  0  0  0  0  0  0  0  0
   -3.9236   -0.1886    0.0000 C   0  0  0  0  0  0  0  0  0  0  0  0
   -4.3321   -1.6319    0.0000 O   0  0  0  0  0  0  0  0  0  0  0  0
   -4.9693    0.8868    0.0000 O   0  0  0  0  0  0  0  0  0  0  0  0
  2  1  1  1
  2  3  1  0
  3  4  1  0
  4  5  2  0
  5  6  1  0
  6  7  1  0
  6  8  2  0
  8  9  1  0
  8 10  1  0
 10 11  1  0
 10 12  2  0
  2 13  1  0
 13 14  2  0
 13 15  1  0
 12  4  1  0
M  END
>  <rName>  (2906) 
Phe_35diCl_4F

>  <PQ_SYMBOL>  (2906) 
Phe_35diCl_4F

>  <FULL_NAME>  (2906) 
(S)-2-Amino-3-(3,5-dichloro-4-fluorophenyl)propanoic Acid

>  <IUPAC_CONDENSED>  (2906) 
Phe(3,5-diCl,4-F)

>  <IUPAC>  (2906) 
(2S)-2-amino-3-(3,5-dichloro-4-fluorophenyl)propanoic acid

>  <TYPE>  (2906) 
Backbone

>  <CLASS>  (2906) 
alpha

>  <ANALOG>  (2906) 
Phe

>  <MOL_WT>  (2906) 
252.07199999999997

>  <LOGP>  (2906) 
2.0869

>  <TPSA>  (2906) 
63.32000000000001

>  <POPULARITY>  (2906) 
2.2

>  <PROTECTED>  (2906) 
TRUE

>  <SMILES>  (2906) 
N[C@@H](Cc1(cc(Cl)c(F)c(Cl)c1))C(=O)O

>  <INCHIKEY>  (2906) 
XLALGJXCEMPOPB-ZETCQYMHSA-N

$$$$
Phe_35diCl_4OMe
     RDKit          2D

 16 16  0  0  0  0  0  0  0  0999 V2000
   -2.4330    1.6061    0.0000 N   0  0  0  0  0  0  0  0  0  0  0  0
   -2.8129    0.1551    0.0000 C   0  0  0  0  0  0  0  0  0  0  0  0
   -1.7462   -0.8995    0.0000 C   0  0  0  0  0  0  0  0  0  0  0  0
   -0.2996   -0.5030    0.0000 C   0  0  0  0  0  0  0  0  0  0  0  0
    0.0804    0.9481    0.0000 C   0  0  0  0  0  0  0  0  0  0  0  0
    1.5270    1.3446    0.0000 C   0  0  0  0  0  0  0  0  0  0  0  0
    1.9070    2.7956    0.0000 Cl  0  0  0  0  0  0  0  0  0  0  0  0
    2.5937    0.2900    0.0000 C   0  0  0  0  0  0  0  0  0  0  0  0
    4.0404    0.6865    0.0000 O   0  0  0  0  0  0  0  0  0  0  0  0
    5.1071   -0.3681    0.0000 C   0  0  0  0  0  0  0  0  0  0  0  0
    2.2138   -1.1611    0.0000 C   0  0  0  0  0  0  0  0  0  0  0  0
    3.2805   -2.2157    0.0000 Cl  0  0  0  0  0  0  0  0  0  0  0  0
    0.7671   -1.5576    0.0000 C   0  0  0  0  0  0  0  0  0  0  0  0
   -4.2596   -0.2414    0.0000 C   0  0  0  0  0  0  0  0  0  0  0  0
   -4.6395   -1.6925    0.0000 O   0  0  0  0  0  0  0  0  0  0  0  0
   -5.3263    0.8131    0.0000 O   0  0  0  0  0  0  0  0  0  0  0  0
  2  1  1  1
  2  3  1  0
  3  4  1  0
  4  5  2  0
  5  6  1  0
  6  7  1  0
  6  8  2  0
  8  9  1  0
  9 10  1  0
  8 11  1  0
 11 12  1  0
 11 13  2  0
  2 14  1  0
 14 15  2  0
 14 16  1  0
 13  4  1  0
M  END
>  <rName>  (2907) 
Phe_35diCl_4OMe

>  <PQ_SYMBOL>  (2907) 
Phe_35diCl_4OMe

>  <FULL_NAME>  (2907) 
(S)-2-amino-3-(3,5-dichloro-4-methoxyphenyl)propanoic acid

>  <IUPAC_CONDENSED>  (2907) 
Phe(3,5-diCl,4-OMe)

>  <IUPAC>  (2907) 
(2S)-2-amino-3-(3,5-dichloro-4-methoxyphenyl)propanoic acid

>  <TYPE>  (2907) 
Backbone

>  <CLASS>  (2907) 
alpha

>  <ANALOG>  (2907) 
Tyr

>  <MOL_WT>  (2907) 
264.10799999999995

>  <LOGP>  (2907) 
1.9564000000000001

>  <TPSA>  (2907) 
72.55

>  <POPULARITY>  (2907) 
4.3

>  <PROTECTED>  (2907) 
TRUE

>  <SMILES>  (2907) 
N[C@@H](Cc1(cc(Cl)c(OC)c(Cl)c1))C(=O)O

>  <INCHIKEY>  (2907) 
ZSUQOXQAJJUKLS-QMMMGPOBSA-N

$$$$
Phe_35diF
     RDKit          2D

 14 14  0  0  0  0  0  0  0  0999 V2000
   -1.8014    1.6047    0.0000 N   0  0  0  0  0  0  0  0  0  0  0  0
   -2.1617    0.1486    0.0000 C   0  0  0  0  0  0  0  0  0  0  0  0
   -1.0809   -0.8915    0.0000 C   0  0  0  0  0  0  0  0  0  0  0  0
    0.3603   -0.4755    0.0000 C   0  0  0  0  0  0  0  0  0  0  0  0
    0.7206    0.9806    0.0000 C   0  0  0  0  0  0  0  0  0  0  0  0
    2.1617    1.3967    0.0000 C   0  0  0  0  0  0  0  0  0  0  0  0
    2.5220    2.8527    0.0000 F   0  0  0  0  0  0  0  0  0  0  0  0
    3.2426    0.3566    0.0000 C   0  0  0  0  0  0  0  0  0  0  0  0
    2.8823   -1.0995    0.0000 C   0  0  0  0  0  0  0  0  0  0  0  0
    3.9632   -2.1396    0.0000 F   0  0  0  0  0  0  0  0  0  0  0  0
    1.4412   -1.5155    0.0000 C   0  0  0  0  0  0  0  0  0  0  0  0
   -3.6029   -0.2674    0.0000 C   0  0  0  0  0  0  0  0  0  0  0  0
   -3.9632   -1.7235    0.0000 O   0  0  0  0  0  0  0  0  0  0  0  0
   -4.6837    0.7726    0.0000 O   0  0  0  0  0  0  0  0  0  0  0  0
  2  1  1  1
  2  3  1  0
  3  4  1  0
  4  5  2  0
  5  6  1  0
  6  7  1  0
  6  8  2  0
  8  9  1  0
  9 10  1  0
  9 11  2  0
  2 12  1  0
 12 13  2  0
 12 14  1  0
 11  4  1  0
M  END
>  <rName>  (2908) 
Phe_35diF

>  <PQ_SYMBOL>  (2908) 
Phe_35diF

>  <FULL_NAME>  (2908) 
3,5-Difluoro-L-Phenylalanine

>  <IUPAC_CONDENSED>  (2908) 
Phe(3,5-diF)

>  <IUPAC>  (2908) 
(2S)-2-amino-3-(3,5-difluorophenyl)propanoic acid

>  <TYPE>  (2908) 
Backbone

>  <CLASS>  (2908) 
alpha

>  <ANALOG>  (2908) 
Phe

>  <MOL_WT>  (2908) 
201.17199999999997

>  <LOGP>  (2908) 
0.9192

>  <TPSA>  (2908) 
63.32000000000001

>  <POPULARITY>  (2908) 
20.0

>  <PROTECTED>  (2908) 
TRUE

>  <SMILES>  (2908) 
N[C@@H](Cc1(cc(F)cc(F)c1))C(=O)O

>  <INCHIKEY>  (2908) 
QFGMPXZFCIHYIR-QMMMGPOBSA-N

$$$$
Phe_35diF_4OMe
     RDKit          2D

 16 16  0  0  0  0  0  0  0  0999 V2000
   -2.4330    1.6061    0.0000 N   0  0  0  0  0  0  0  0  0  0  0  0
   -2.8129    0.1551    0.0000 C   0  0  0  0  0  0  0  0  0  0  0  0
   -1.7462   -0.8995    0.0000 C   0  0  0  0  0  0  0  0  0  0  0  0
   -0.2996   -0.5030    0.0000 C   0  0  0  0  0  0  0  0  0  0  0  0
    0.0804    0.9481    0.0000 C   0  0  0  0  0  0  0  0  0  0  0  0
    1.5270    1.3446    0.0000 C   0  0  0  0  0  0  0  0  0  0  0  0
    1.9070    2.7956    0.0000 F   0  0  0  0  0  0  0  0  0  0  0  0
    2.5937    0.2900    0.0000 C   0  0  0  0  0  0  0  0  0  0  0  0
    4.0404    0.6865    0.0000 O   0  0  0  0  0  0  0  0  0  0  0  0
    5.1071   -0.3681    0.0000 C   0  0  0  0  0  0  0  0  0  0  0  0
    2.2138   -1.1611    0.0000 C   0  0  0  0  0  0  0  0  0  0  0  0
    3.2805   -2.2157    0.0000 F   0  0  0  0  0  0  0  0  0  0  0  0
    0.7671   -1.5576    0.0000 C   0  0  0  0  0  0  0  0  0  0  0  0
   -4.2596   -0.2414    0.0000 C   0  0  0  0  0  0  0  0  0  0  0  0
   -4.6395   -1.6925    0.0000 O   0  0  0  0  0  0  0  0  0  0  0  0
   -5.3263    0.8131    0.0000 O   0  0  0  0  0  0  0  0  0  0  0  0
  2  1  1  1
  2  3  1  0
  3  4  1  0
  4  5  2  0
  5  6  1  0
  6  7  1  0
  6  8  2  0
  8  9  1  0
  9 10  1  0
  8 11  1  0
 11 12  1  0
 11 13  2  0
  2 14  1  0
 14 15  2  0
 14 16  1  0
 13  4  1  0
M  END
>  <rName>  (2909) 
Phe_35diF_4OMe

>  <PQ_SYMBOL>  (2909) 
Phe_35diF_4OMe

>  <FULL_NAME>  (2909) 
(S)-2-amino-3-(3,5-difluoro-4-methoxyphenyl)propanoic acid

>  <IUPAC_CONDENSED>  (2909) 
Phe(3,5-diF,4-OMe)

>  <IUPAC>  (2909) 
(2S)-2-amino-3-(3,5-difluoro-4-methoxyphenyl)propanoic acid

>  <TYPE>  (2909) 
Backbone

>  <CLASS>  (2909) 
alpha

>  <ANALOG>  (2909) 
Tyr

>  <MOL_WT>  (2909) 
231.19799999999998

>  <LOGP>  (2909) 
0.9278

>  <TPSA>  (2909) 
72.55

>  <POPULARITY>  (2909) 
3.0

>  <PROTECTED>  (2909) 
TRUE

>  <SMILES>  (2909) 
N[C@@H](Cc1(cc(F)c(OC)c(F)c1))C(=O)O

>  <INCHIKEY>  (2909) 
CWCYNBXXDKLYGK-QMMMGPOBSA-N

$$$$
Phe_35diMe
     RDKit          2D

 14 14  0  0  0  0  0  0  0  0999 V2000
   -1.8014    1.6047    0.0000 N   0  0  0  0  0  0  0  0  0  0  0  0
   -2.1617    0.1486    0.0000 C   0  0  0  0  0  0  0  0  0  0  0  0
   -1.0809   -0.8915    0.0000 C   0  0  0  0  0  0  0  0  0  0  0  0
    0.3603   -0.4755    0.0000 C   0  0  0  0  0  0  0  0  0  0  0  0
    0.7206    0.9806    0.0000 C   0  0  0  0  0  0  0  0  0  0  0  0
    2.1617    1.3967    0.0000 C   0  0  0  0  0  0  0  0  0  0  0  0
    2.5220    2.8527    0.0000 C   0  0  0  0  0  0  0  0  0  0  0  0
    3.2426    0.3566    0.0000 C   0  0  0  0  0  0  0  0  0  0  0  0
    2.8823   -1.0995    0.0000 C   0  0  0  0  0  0  0  0  0  0  0  0
    3.9632   -2.1396    0.0000 C   0  0  0  0  0  0  0  0  0  0  0  0
    1.4412   -1.5155    0.0000 C   0  0  0  0  0  0  0  0  0  0  0  0
   -3.6029   -0.2674    0.0000 C   0  0  0  0  0  0  0  0  0  0  0  0
   -3.9632   -1.7235    0.0000 O   0  0  0  0  0  0  0  0  0  0  0  0
   -4.6837    0.7726    0.0000 O   0  0  0  0  0  0  0  0  0  0  0  0
  2  1  1  1
  2  3  1  0
  3  4  1  0
  4  5  2  0
  5  6  1  0
  6  7  1  0
  6  8  2  0
  8  9  1  0
  9 10  1  0
  9 11  2  0
  2 12  1  0
 12 13  2  0
 12 14  1  0
 11  4  1  0
M  END
>  <rName>  (2910) 
Phe_35diMe

>  <PQ_SYMBOL>  (2910) 
Phe_35diMe

>  <FULL_NAME>  (2910) 
(2S)-2-amino-3-(3,5-dimethylphenyl)propanoic acid

>  <IUPAC_CONDENSED>  (2910) 
Phe(3,5-diMe)

>  <IUPAC>  (2910) 
(2S)-2-amino-3-(3,5-dimethylphenyl)propanoic acid

>  <TYPE>  (2910) 
Backbone

>  <CLASS>  (2910) 
alpha

>  <ANALOG>  (2910) 
Phe

>  <MOL_WT>  (2910) 
193.24599999999998

>  <LOGP>  (2910) 
1.25784

>  <TPSA>  (2910) 
63.32000000000001

>  <POPULARITY>  (2910) 
11.1

>  <PROTECTED>  (2910) 
TRUE

>  <SMILES>  (2910) 
N[C@@H](Cc1(cc(C)cc(C)c1))C(=O)O

>  <INCHIKEY>  (2910) 
BJEFUMBSVAPULZ-JTQLQIEISA-N

$$$$
Phe_35diMe_4F
     RDKit          2D

 15 15  0  0  0  0  0  0  0  0999 V2000
   -2.0609    1.6226    0.0000 N   0  0  0  0  0  0  0  0  0  0  0  0
   -2.4694    0.1793    0.0000 C   0  0  0  0  0  0  0  0  0  0  0  0
   -1.4237   -0.8961    0.0000 C   0  0  0  0  0  0  0  0  0  0  0  0
    0.0305   -0.5283    0.0000 C   0  0  0  0  0  0  0  0  0  0  0  0
    0.4390    0.9150    0.0000 C   0  0  0  0  0  0  0  0  0  0  0  0
    1.8932    1.2829    0.0000 C   0  0  0  0  0  0  0  0  0  0  0  0
    2.3017    2.7262    0.0000 C   0  0  0  0  0  0  0  0  0  0  0  0
    2.9389    0.2075    0.0000 C   0  0  0  0  0  0  0  0  0  0  0  0
    4.3931    0.5753    0.0000 F   0  0  0  0  0  0  0  0  0  0  0  0
    2.5304   -1.2358    0.0000 C   0  0  0  0  0  0  0  0  0  0  0  0
    3.5760   -2.3113    0.0000 C   0  0  0  0  0  0  0  0  0  0  0  0
    1.0762   -1.6037    0.0000 C   0  0  0  0  0  0  0  0  0  0  0  0
   -3.9236   -0.1886    0.0000 C   0  0  0  0  0  0  0  0  0  0  0  0
   -4.3321   -1.6319    0.0000 O   0  0  0  0  0  0  0  0  0  0  0  0
   -4.9693    0.8868    0.0000 O   0  0  0  0  0  0  0  0  0  0  0  0
  2  1  1  1
  2  3  1  0
  3  4  1  0
  4  5  2  0
  5  6  1  0
  6  7  1  0
  6  8  2  0
  8  9  1  0
  8 10  1  0
 10 11  1  0
 10 12  2  0
  2 13  1  0
 13 14  2  0
 13 15  1  0
 12  4  1  0
M  END
>  <rName>  (2911) 
Phe_35diMe_4F

>  <PQ_SYMBOL>  (2911) 
Phe_35diMe_4F

>  <FULL_NAME>  (2911) 
(S)-2-amino-3-(4-fluoro-3,5-dimethylphenyl)propanoic acid

>  <IUPAC_CONDENSED>  (2911) 
Phe(3,5-diMe,4-F)

>  <IUPAC>  (2911) 
(2S)-2-amino-3-(4-fluoro-3,5-dimethylphenyl)propanoic acid

>  <TYPE>  (2911) 
Backbone

>  <CLASS>  (2911) 
alpha

>  <ANALOG>  (2911) 
Phe

>  <MOL_WT>  (2911) 
211.236

>  <LOGP>  (2911) 
1.3969400000000003

>  <TPSA>  (2911) 
63.32000000000001

>  <POPULARITY>  (2911) 
2.7

>  <PROTECTED>  (2911) 
TRUE

>  <SMILES>  (2911) 
N[C@@H](Cc1(cc(C)c(F)c(C)c1))C(=O)O

>  <INCHIKEY>  (2911) 
ZDXQFWPMVPQNOY-VIFPVBQESA-N

$$$$
Phe_35diMe_4NH2
     RDKit          2D

 15 15  0  0  0  0  0  0  0  0999 V2000
   -2.0609    1.6226    0.0000 N   0  0  0  0  0  0  0  0  0  0  0  0
   -2.4694    0.1793    0.0000 C   0  0  0  0  0  0  0  0  0  0  0  0
   -1.4237   -0.8961    0.0000 C   0  0  0  0  0  0  0  0  0  0  0  0
    0.0305   -0.5283    0.0000 C   0  0  0  0  0  0  0  0  0  0  0  0
    0.4390    0.9150    0.0000 C   0  0  0  0  0  0  0  0  0  0  0  0
    1.8932    1.2829    0.0000 C   0  0  0  0  0  0  0  0  0  0  0  0
    2.3017    2.7262    0.0000 C   0  0  0  0  0  0  0  0  0  0  0  0
    2.9389    0.2075    0.0000 C   0  0  0  0  0  0  0  0  0  0  0  0
    4.3931    0.5753    0.0000 N   0  0  0  0  0  0  0  0  0  0  0  0
    2.5304   -1.2358    0.0000 C   0  0  0  0  0  0  0  0  0  0  0  0
    3.5760   -2.3113    0.0000 C   0  0  0  0  0  0  0  0  0  0  0  0
    1.0762   -1.6037    0.0000 C   0  0  0  0  0  0  0  0  0  0  0  0
   -3.9236   -0.1886    0.0000 C   0  0  0  0  0  0  0  0  0  0  0  0
   -4.3321   -1.6319    0.0000 O   0  0  0  0  0  0  0  0  0  0  0  0
   -4.9693    0.8868    0.0000 O   0  0  0  0  0  0  0  0  0  0  0  0
  2  1  1  1
  2  3  1  0
  3  4  1  0
  4  5  2  0
  5  6  1  0
  6  7  1  0
  6  8  2  0
  8  9  1  0
  8 10  1  0
 10 11  1  0
 10 12  2  0
  2 13  1  0
 13 14  2  0
 13 15  1  0
 12  4  1  0
M  END
>  <rName>  (2912) 
Phe_35diMe_4NH2

>  <PQ_SYMBOL>  (2912) 
Phe_35diMe_4NH2

>  <FULL_NAME>  (2912) 
(S)-2-amino-3-(4-amino-3,5-dimethylphenyl)propanoic acid

>  <IUPAC_CONDENSED>  (2912) 
Phe(3,5-diMe,4-NH2)

>  <IUPAC>  (2912) 
(2S)-2-amino-3-(4-amino-3,5-dimethylphenyl)propanoic acid

>  <TYPE>  (2912) 
Backbone

>  <CLASS>  (2912) 
alpha

>  <ANALOG>  (2912) 
Phe

>  <MOL_WT>  (2912) 
208.261

>  <LOGP>  (2912) 
0.8400399999999999

>  <TPSA>  (2912) 
89.34

>  <POPULARITY>  (2912) 
3.3

>  <PROTECTED>  (2912) 
TRUE

>  <SMILES>  (2912) 
N[C@@H](Cc1(cc(C)c(N)c(C)c1))C(=O)O

>  <INCHIKEY>  (2912) 
MMXFOJSYRDUIKR-VIFPVBQESA-N

$$$$
Phe_35diMe_4OMe
     RDKit          2D

 16 16  0  0  0  0  0  0  0  0999 V2000
   -2.4330    1.6061    0.0000 N   0  0  0  0  0  0  0  0  0  0  0  0
   -2.8129    0.1551    0.0000 C   0  0  0  0  0  0  0  0  0  0  0  0
   -1.7462   -0.8995    0.0000 C   0  0  0  0  0  0  0  0  0  0  0  0
   -0.2996   -0.5030    0.0000 C   0  0  0  0  0  0  0  0  0  0  0  0
    0.0804    0.9481    0.0000 C   0  0  0  0  0  0  0  0  0  0  0  0
    1.5270    1.3446    0.0000 C   0  0  0  0  0  0  0  0  0  0  0  0
    1.9070    2.7956    0.0000 C   0  0  0  0  0  0  0  0  0  0  0  0
    2.5937    0.2900    0.0000 C   0  0  0  0  0  0  0  0  0  0  0  0
    4.0404    0.6865    0.0000 O   0  0  0  0  0  0  0  0  0  0  0  0
    5.1071   -0.3681    0.0000 C   0  0  0  0  0  0  0  0  0  0  0  0
    2.2138   -1.1611    0.0000 C   0  0  0  0  0  0  0  0  0  0  0  0
    3.2805   -2.2157    0.0000 C   0  0  0  0  0  0  0  0  0  0  0  0
    0.7671   -1.5576    0.0000 C   0  0  0  0  0  0  0  0  0  0  0  0
   -4.2596   -0.2414    0.0000 C   0  0  0  0  0  0  0  0  0  0  0  0
   -4.6395   -1.6925    0.0000 O   0  0  0  0  0  0  0  0  0  0  0  0
   -5.3263    0.8131    0.0000 O   0  0  0  0  0  0  0  0  0  0  0  0
  2  1  1  1
  2  3  1  0
  3  4  1  0
  4  5  2  0
  5  6  1  0
  6  7  1  0
  6  8  2  0
  8  9  1  0
  9 10  1  0
  8 11  1  0
 11 12  1  0
 11 13  2  0
  2 14  1  0
 14 15  2  0
 14 16  1  0
 13  4  1  0
M  END
>  <rName>  (2913) 
Phe_35diMe_4OMe

>  <PQ_SYMBOL>  (2913) 
Phe_35diMe_4OMe

>  <FULL_NAME>  (2913) 
(S)-2-amino-3-(4-methoxy-3,5-dimethylphenyl)propanoic acid

>  <IUPAC_CONDENSED>  (2913) 
Phe(3,5-diMe,4-OMe)

>  <IUPAC>  (2913) 
(2S)-2-amino-3-(4-methoxy-3,5-dimethylphenyl)propanoic acid

>  <TYPE>  (2913) 
Backbone

>  <CLASS>  (2913) 
alpha

>  <ANALOG>  (2913) 
Tyr

>  <MOL_WT>  (2913) 
223.27199999999996

>  <LOGP>  (2913) 
1.2664400000000002

>  <TPSA>  (2913) 
72.55

>  <POPULARITY>  (2913) 
6.5

>  <PROTECTED>  (2913) 
TRUE

>  <SMILES>  (2913) 
N[C@@H](Cc1(cc(C)c(OC)c(C)c1))C(=O)O

>  <INCHIKEY>  (2913) 
ZNXKVMBAFAWSKI-JTQLQIEISA-N

$$$$
Phe_35diOMe
     RDKit          2D

 16 16  0  0  0  0  0  0  0  0999 V2000
   -2.2713    1.6293    0.0000 N   0  0  0  0  0  0  0  0  0  0  0  0
   -2.6343    0.1739    0.0000 C   0  0  0  0  0  0  0  0  0  0  0  0
   -1.5554   -0.8682    0.0000 C   0  0  0  0  0  0  0  0  0  0  0  0
   -0.1134   -0.4548    0.0000 C   0  0  0  0  0  0  0  0  0  0  0  0
    0.2496    1.0006    0.0000 C   0  0  0  0  0  0  0  0  0  0  0  0
    1.6915    1.4139    0.0000 C   0  0  0  0  0  0  0  0  0  0  0  0
    2.0545    2.8694    0.0000 O   0  0  0  0  0  0  0  0  0  0  0  0
    3.4964    3.2827    0.0000 C   0  0  0  0  0  0  0  0  0  0  0  0
    2.7704    0.3719    0.0000 C   0  0  0  0  0  0  0  0  0  0  0  0
    2.4074   -1.0836    0.0000 C   0  0  0  0  0  0  0  0  0  0  0  0
    3.4863   -2.1256    0.0000 O   0  0  0  0  0  0  0  0  0  0  0  0
    3.1233   -3.5810    0.0000 C   0  0  0  0  0  0  0  0  0  0  0  0
    0.9655   -1.4969    0.0000 C   0  0  0  0  0  0  0  0  0  0  0  0
   -4.0762   -0.2394    0.0000 C   0  0  0  0  0  0  0  0  0  0  0  0
   -4.4392   -1.6948    0.0000 O   0  0  0  0  0  0  0  0  0  0  0  0
   -5.1551    0.8027    0.0000 O   0  0  0  0  0  0  0  0  0  0  0  0
  2  1  1  1
  2  3  1  0
  3  4  1  0
  4  5  2  0
  5  6  1  0
  6  7  1  0
  7  8  1  0
  6  9  2  0
  9 10  1  0
 10 11  1  0
 11 12  1  0
 10 13  2  0
  2 14  1  0
 14 15  2  0
 14 16  1  0
 13  4  1  0
M  END
>  <rName>  (2914) 
Phe_35diOMe

>  <PQ_SYMBOL>  (2914) 
Phe_35diOMe

>  <FULL_NAME>  (2914) 
(S)-2-amino-3-(3,5-dimethoxyphenyl)propanoic acid

>  <IUPAC_CONDENSED>  (2914) 
Phe(3,5-diOMe)

>  <IUPAC>  (2914) 
(2S)-2-amino-3-(3,5-dimethoxyphenyl)propanoic acid

>  <TYPE>  (2914) 
Backbone

>  <CLASS>  (2914) 
alpha

>  <ANALOG>  (2914) 
Tyr

>  <MOL_WT>  (2914) 
225.24399999999997

>  <LOGP>  (2914) 
0.6581999999999999

>  <TPSA>  (2914) 
81.78

>  <POPULARITY>  (2914) 
5.9

>  <PROTECTED>  (2914) 
TRUE

>  <SMILES>  (2914) 
N[C@@H](Cc1(cc(OC)cc(OC)c1))C(=O)O

>  <INCHIKEY>  (2914) 
RGJFWLUOTAIYGQ-JTQLQIEISA-N

$$$$
Phe_3Ac
     RDKit          2D

 15 15  0  0  0  0  0  0  0  0999 V2000
   -2.6461    1.6149    0.0000 N   0  0  0  0  0  0  0  0  0  0  0  0
   -2.6827    0.1154    0.0000 C   0  0  0  0  0  0  0  0  0  0  0  0
   -1.4023   -0.6660    0.0000 C   0  0  0  0  0  0  0  0  0  0  0  0
   -0.0854    0.0521    0.0000 C   0  0  0  0  0  0  0  0  0  0  0  0
   -0.0488    1.5516    0.0000 C   0  0  0  0  0  0  0  0  0  0  0  0
    1.2681    2.2698    0.0000 C   0  0  0  0  0  0  0  0  0  0  0  0
    2.5485    1.4884    0.0000 C   0  0  0  0  0  0  0  0  0  0  0  0
    2.5119   -0.0112    0.0000 C   0  0  0  0  0  0  0  0  0  0  0  0
    1.1950   -0.7293    0.0000 C   0  0  0  0  0  0  0  0  0  0  0  0
    3.7923   -0.7926    0.0000 C   0  0  0  0  0  0  0  0  0  0  0  0
    5.1093   -0.0745    0.0000 O   0  0  0  0  0  0  0  0  0  0  0  0
    3.7558   -2.2922    0.0000 C   0  0  0  0  0  0  0  0  0  0  0  0
   -3.9996   -0.6028    0.0000 C   0  0  0  0  0  0  0  0  0  0  0  0
   -4.0361   -2.1023    0.0000 O   0  0  0  0  0  0  0  0  0  0  0  0
   -5.2800    0.1787    0.0000 O   0  0  0  0  0  0  0  0  0  0  0  0
  2  1  1  1
  2  3  1  0
  3  4  1  0
  4  5  1  0
  5  6  2  0
  6  7  1  0
  7  8  2  0
  8  9  1  0
  8 10  1  0
 10 11  2  0
 10 12  1  0
  2 13  1  0
 13 14  2  0
 13 15  1  0
  9  4  2  0
M  END
>  <rName>  (2915) 
Phe_3Ac

>  <PQ_SYMBOL>  (2915) 
Phe_3Ac

>  <FULL_NAME>  (2915) 
(2S)-2-amino-5-[[amino-(cyanoamino)methylidene]amino]pentanoic acid

>  <IUPAC_CONDENSED>  (2915) 
Phe(3-Ac)

>  <IUPAC>  (2915) 
(2S)-3-(3-(acetyl)phenyl)-2-aminopropanoic acid

>  <TYPE>  (2915) 
Backbone

>  <CLASS>  (2915) 
alpha

>  <ANALOG>  (2915) 
Phe

>  <MOL_WT>  (2915) 
207.22899999999996

>  <LOGP>  (2915) 
0.8435999999999999

>  <TPSA>  (2915) 
80.39

>  <POPULARITY>  (2915) 
4.2

>  <PROTECTED>  (2915) 
TRUE

>  <SMILES>  (2915) 
N[C@@H](Cc1(cccc(c1)C(=O)C))C(=O)O

>  <INCHIKEY>  (2915) 
IBCKYXVMEMSMQM-JTQLQIEISA-N

$$$$
Phe_3Ac_4OMe
     RDKit          2D

 17 17  0  0  0  0  0  0  0  0999 V2000
   -2.8817    1.7117    0.0000 N   0  0  0  0  0  0  0  0  0  0  0  0
   -3.1394    0.2340    0.0000 C   0  0  0  0  0  0  0  0  0  0  0  0
   -1.9886   -0.7280    0.0000 C   0  0  0  0  0  0  0  0  0  0  0  0
   -0.5800   -0.2123    0.0000 C   0  0  0  0  0  0  0  0  0  0  0  0
   -0.3223    1.2654    0.0000 C   0  0  0  0  0  0  0  0  0  0  0  0
    1.0863    1.7810    0.0000 C   0  0  0  0  0  0  0  0  0  0  0  0
    2.2372    0.8190    0.0000 C   0  0  0  0  0  0  0  0  0  0  0  0
    3.6457    1.3347    0.0000 O   0  0  0  0  0  0  0  0  0  0  0  0
    3.9034    2.8123    0.0000 C   0  0  0  0  0  0  0  0  0  0  0  0
    1.9794   -0.6587    0.0000 C   0  0  0  0  0  0  0  0  0  0  0  0
    0.5709   -1.1744    0.0000 C   0  0  0  0  0  0  0  0  0  0  0  0
    3.1303   -1.6207    0.0000 C   0  0  0  0  0  0  0  0  0  0  0  0
    4.5389   -1.1051    0.0000 O   0  0  0  0  0  0  0  0  0  0  0  0
    2.8726   -3.0984    0.0000 C   0  0  0  0  0  0  0  0  0  0  0  0
   -4.5480   -0.2816    0.0000 C   0  0  0  0  0  0  0  0  0  0  0  0
   -4.8057   -1.7593    0.0000 O   0  0  0  0  0  0  0  0  0  0  0  0
   -5.6989    0.6804    0.0000 O   0  0  0  0  0  0  0  0  0  0  0  0
  2  1  1  1
  2  3  1  0
  3  4  1  0
  4  5  1  0
  5  6  2  0
  6  7  1  0
  7  8  1  0
  8  9  1  0
  7 10  2  0
 10 11  1  0
 10 12  1  0
 12 13  2  0
 12 14  1  0
  2 15  1  0
 15 16  2  0
 15 17  1  0
 11  4  2  0
M  END
>  <rName>  (2916) 
Phe_3Ac_4OMe

>  <PQ_SYMBOL>  (2916) 
Phe_3Ac_4OMe

>  <FULL_NAME>  (2916) 
(S)-3-(3-acetyl-4-methoxyphenyl)-2-aminopropanoic acid

>  <IUPAC_CONDENSED>  (2916) 
Phe(3-Ac,4-OMe)

>  <IUPAC>  (2916) 
(2S)-3-(3-(acetyl)-4-methoxyphenyl)-2-aminopropanoic acid

>  <TYPE>  (2916) 
Backbone

>  <CLASS>  (2916) 
alpha

>  <ANALOG>  (2916) 
Tyr

>  <MOL_WT>  (2916) 
237.25499999999997

>  <LOGP>  (2916) 
0.8521999999999998

>  <TPSA>  (2916) 
89.62

>  <POPULARITY>  (2916) 
3.0

>  <PROTECTED>  (2916) 
TRUE

>  <SMILES>  (2916) 
N[C@@H](Cc1(ccc(OC)c(c1)C(=O)C))C(=O)O

>  <INCHIKEY>  (2916) 
BBEURLKMSYNZIM-JTQLQIEISA-N

$$$$
Phe_3Br
     RDKit          2D

 13 13  0  0  0  0  0  0  0  0999 V2000
   -1.7680    1.6690    0.0000 N   0  0  0  0  0  0  0  0  0  0  0  0
   -1.9932    0.1860    0.0000 C   0  0  0  0  0  0  0  0  0  0  0  0
   -0.8215   -0.7506    0.0000 C   0  0  0  0  0  0  0  0  0  0  0  0
    0.5754   -0.2041    0.0000 C   0  0  0  0  0  0  0  0  0  0  0  0
    0.8006    1.2789    0.0000 C   0  0  0  0  0  0  0  0  0  0  0  0
    2.1976    1.8254    0.0000 C   0  0  0  0  0  0  0  0  0  0  0  0
    3.3693    0.8888    0.0000 C   0  0  0  0  0  0  0  0  0  0  0  0
    3.1441   -0.5942    0.0000 C   0  0  0  0  0  0  0  0  0  0  0  0
    4.3158   -1.5307    0.0000 Br  0  0  0  0  0  0  0  0  0  0  0  0
    1.7472   -1.1406    0.0000 C   0  0  0  0  0  0  0  0  0  0  0  0
   -3.3901   -0.3605    0.0000 C   0  0  0  0  0  0  0  0  0  0  0  0
   -3.6153   -1.8435    0.0000 O   0  0  0  0  0  0  0  0  0  0  0  0
   -4.5618    0.5760    0.0000 O   0  0  0  0  0  0  0  0  0  0  0  0
  2  1  1  1
  2  3  1  0
  3  4  1  0
  4  5  2  0
  5  6  1  0
  6  7  2  0
  7  8  1  0
  8  9  1  0
  8 10  2  0
  2 11  1  0
 11 12  2  0
 11 13  1  0
 10  4  1  0
M  END
>  <rName>  (2917) 
Phe_3Br

>  <PQ_SYMBOL>  (2917) 
Phe_3Br

>  <FULL_NAME>  (2917) 
3-bromo-L-phenylalanine

>  <IUPAC_CONDENSED>  (2917) 
Phe(3-Br)

>  <IUPAC>  (2917) 
(2S)-2-amino-3-(3-bromophenyl)propanoic acid

>  <TYPE>  (2917) 
Backbone

>  <CLASS>  (2917) 
alpha

>  <ANALOG>  (2917) 
Phe

>  <MOL_WT>  (2917) 
244.08799999999997

>  <LOGP>  (2917) 
1.4035000000000002

>  <TPSA>  (2917) 
63.32000000000001

>  <POPULARITY>  (2917) 
13.7

>  <PROTECTED>  (2917) 
TRUE

>  <SMILES>  (2917) 
N[C@@H](Cc1(cccc(Br)c1))C(=O)O

>  <INCHIKEY>  (2917) 
GDMOHOYNMWWBAU-QMMMGPOBSA-N

$$$$
Phe_3Br_4F
     RDKit          2D

 14 14  0  0  0  0  0  0  0  0999 V2000
   -2.0094    1.6916    0.0000 N   0  0  0  0  0  0  0  0  0  0  0  0
   -2.3243    0.2250    0.0000 C   0  0  0  0  0  0  0  0  0  0  0  0
   -1.2116   -0.7809    0.0000 C   0  0  0  0  0  0  0  0  0  0  0  0
    0.2159   -0.3203    0.0000 C   0  0  0  0  0  0  0  0  0  0  0  0
    0.5308    1.1463    0.0000 C   0  0  0  0  0  0  0  0  0  0  0  0
    1.9583    1.6069    0.0000 C   0  0  0  0  0  0  0  0  0  0  0  0
    3.0710    0.6009    0.0000 C   0  0  0  0  0  0  0  0  0  0  0  0
    4.4985    1.0615    0.0000 F   0  0  0  0  0  0  0  0  0  0  0  0
    2.7561   -0.8657    0.0000 C   0  0  0  0  0  0  0  0  0  0  0  0
    3.8688   -1.8716    0.0000 Br  0  0  0  0  0  0  0  0  0  0  0  0
    1.3286   -1.3263    0.0000 C   0  0  0  0  0  0  0  0  0  0  0  0
   -3.7518   -0.2356    0.0000 C   0  0  0  0  0  0  0  0  0  0  0  0
   -4.0666   -1.7022    0.0000 O   0  0  0  0  0  0  0  0  0  0  0  0
   -4.8644    0.7704    0.0000 O   0  0  0  0  0  0  0  0  0  0  0  0
  2  1  1  1
  2  3  1  0
  3  4  1  0
  4  5  1  0
  5  6  2  0
  6  7  1  0
  7  8  1  0
  7  9  2  0
  9 10  1  0
  9 11  1  0
  2 12  1  0
 12 13  2  0
 12 14  1  0
 11  4  2  0
M  END
>  <rName>  (2918) 
Phe_3Br_4F

>  <PQ_SYMBOL>  (2918) 
Phe_3Br_4F

>  <FULL_NAME>  (2918) 
(S)-2-amino-3-(3-bromo-4-fluorophenyl)propanoic acid

>  <IUPAC_CONDENSED>  (2918) 
Phe(3-Br,4-F)

>  <IUPAC>  (2918) 
(2S)-2-amino-3-(3-bromo-4-fluorophenyl)propanoic acid

>  <TYPE>  (2918) 
Backbone

>  <CLASS>  (2918) 
alpha

>  <ANALOG>  (2918) 
Phe

>  <MOL_WT>  (2918) 
262.078

>  <LOGP>  (2918) 
1.5426000000000002

>  <TPSA>  (2918) 
63.32000000000001

>  <POPULARITY>  (2918) 
5.6

>  <PROTECTED>  (2918) 
TRUE

>  <SMILES>  (2918) 
N[C@@H](Cc1(ccc(F)c(Br)c1))C(=O)O

>  <INCHIKEY>  (2918) 
FZVFOEFLGCXXCP-QMMMGPOBSA-N

$$$$
Phe_3Bz_4F_4Cl
     RDKit          2D

 22 23  0  0  0  0  0  0  0  0999 V2000
   -4.6735    0.6457    0.0000 N   0  0  0  0  0  0  0  0  0  0  0  0
   -4.0056   -0.6974    0.0000 C   0  0  0  0  0  0  0  0  0  0  0  0
   -2.5085   -0.7905    0.0000 C   0  0  0  0  0  0  0  0  0  0  0  0
   -1.6793    0.4594    0.0000 C   0  0  0  0  0  0  0  0  0  0  0  0
   -2.3472    1.8025    0.0000 C   0  0  0  0  0  0  0  0  0  0  0  0
   -1.5180    3.0525    0.0000 C   0  0  0  0  0  0  0  0  0  0  0  0
   -0.0208    2.9594    0.0000 C   0  0  0  0  0  0  0  0  0  0  0  0
    0.8084    4.2093    0.0000 Cl  0  0  0  0  0  0  0  0  0  0  0  0
    0.6471    1.6163    0.0000 C   0  0  0  0  0  0  0  0  0  0  0  0
   -0.1822    0.3663    0.0000 C   0  0  0  0  0  0  0  0  0  0  0  0
    2.1442    1.5231    0.0000 C   0  0  0  0  0  0  0  0  0  0  0  0
    2.9734    2.7731    0.0000 O   0  0  0  0  0  0  0  0  0  0  0  0
    2.8121    0.1800    0.0000 C   0  0  0  0  0  0  0  0  0  0  0  0
    1.9829   -1.0699    0.0000 C   0  0  0  0  0  0  0  0  0  0  0  0
    2.6508   -2.4130    0.0000 C   0  0  0  0  0  0  0  0  0  0  0  0
    4.1479   -2.5062    0.0000 C   0  0  0  0  0  0  0  0  0  0  0  0
    4.8158   -3.8493    0.0000 F   0  0  0  0  0  0  0  0  0  0  0  0
    4.9771   -1.2562    0.0000 C   0  0  0  0  0  0  0  0  0  0  0  0
    4.3092    0.0869    0.0000 C   0  0  0  0  0  0  0  0  0  0  0  0
   -4.8348   -1.9474    0.0000 C   0  0  0  0  0  0  0  0  0  0  0  0
   -4.1669   -3.2905    0.0000 O   0  0  0  0  0  0  0  0  0  0  0  0
   -6.3319   -1.8542    0.0000 O   0  0  0  0  0  0  0  0  0  0  0  0
  2  1  1  1
  2  3  1  0
  3  4  1  0
  4  5  1  0
  5  6  2  0
  6  7  1  0
  7  8  1  0
  7  9  2  0
  9 10  1  0
  9 11  1  0
 11 12  2  0
 11 13  1  0
 13 14  1  0
 14 15  2  0
 15 16  1  0
 16 17  1  0
 16 18  2  0
 18 19  1  0
  2 20  1  0
 20 21  2  0
 20 22  1  0
 10  4  2  0
 19 13  2  0
M  END
>  <rName>  (2919) 
Phe_3Bz_4F_4Cl

>  <PQ_SYMBOL>  (2919) 
Phe_3Bz_4F_4Cl

>  <FULL_NAME>  (2919) 
(S)-2-amino-3-(4-chloro-3-(4-fluorobenzoyl)phenyl)propanoic acid

>  <IUPAC_CONDENSED>  (2919) 
Phe(3-Bz(4-F),4-Cl)

>  <IUPAC>  (2919) 
(2S)-2-amino-3-(4-chloro-3-((4-fluorophenyl)carbonyl)phenyl)propanoic acid

>  <TYPE>  (2919) 
Backbone

>  <CLASS>  (2919) 
alpha

>  <ANALOG>  (2919) 
Phe

>  <MOL_WT>  (2919) 
321.735

>  <LOGP>  (2919) 
2.6645000000000003

>  <TPSA>  (2919) 
80.39

>  <POPULARITY>  (2919) 
2.2

>  <PROTECTED>  (2919) 
TRUE

>  <SMILES>  (2919) 
N[C@@H](Cc1(ccc(Cl)c(c1)C(=O)c2(ccc(F)cc2)))C(=O)O

>  <INCHIKEY>  (2919) 
VHJRPNYSPWHGHK-AWEZNQCLSA-N

$$$$
Phe_3CF3
     RDKit          2D

 16 16  0  0  0  0  0  0  0  0999 V2000
   -2.9171    1.6042    0.0000 N   0  0  0  0  0  0  0  0  0  0  0  0
   -2.9225    0.1042    0.0000 C   0  0  0  0  0  0  0  0  0  0  0  0
   -1.6261   -0.6504    0.0000 C   0  0  0  0  0  0  0  0  0  0  0  0
   -0.3244    0.0949    0.0000 C   0  0  0  0  0  0  0  0  0  0  0  0
   -0.3190    1.5949    0.0000 C   0  0  0  0  0  0  0  0  0  0  0  0
    0.9827    2.3402    0.0000 C   0  0  0  0  0  0  0  0  0  0  0  0
    2.2790    1.5856    0.0000 C   0  0  0  0  0  0  0  0  0  0  0  0
    2.2736    0.0856    0.0000 C   0  0  0  0  0  0  0  0  0  0  0  0
    0.9719   -0.6597    0.0000 C   0  0  0  0  0  0  0  0  0  0  0  0
    3.5700   -0.6691    0.0000 C   0  0  0  0  0  0  0  0  0  0  0  0
    4.8663   -1.4237    0.0000 F   0  0  0  0  0  0  0  0  0  0  0  0
    2.8153   -1.9654    0.0000 F   0  0  0  0  0  0  0  0  0  0  0  0
    4.3246    0.6273    0.0000 F   0  0  0  0  0  0  0  0  0  0  0  0
   -4.2242   -0.6411    0.0000 C   0  0  0  0  0  0  0  0  0  0  0  0
   -4.2296   -2.1411    0.0000 O   0  0  0  0  0  0  0  0  0  0  0  0
   -5.5205    0.1136    0.0000 O   0  0  0  0  0  0  0  0  0  0  0  0
  2  1  1  1
  2  3  1  0
  3  4  1  0
  4  5  1  0
  5  6  2  0
  6  7  1  0
  7  8  2  0
  8  9  1  0
  8 10  1  0
 10 11  1  0
 10 12  1  0
 10 13  1  0
  2 14  1  0
 14 15  2  0
 14 16  1  0
  9  4  2  0
M  END
>  <rName>  (2920) 
Phe_3CF3

>  <PQ_SYMBOL>  (2920) 
Phe_3CF3

>  <FULL_NAME>  (2920) 
3-Trifluoromethyl-L-Phenylalanine

>  <IUPAC_CONDENSED>  (2920) 
Phe(3-CF3)

>  <IUPAC>  (2920) 
(2S)-2-amino-3-(3-(trifluoromethyl)phenyl)propanoic acid

>  <TYPE>  (2920) 
Backbone

>  <CLASS>  (2920) 
alpha

>  <ANALOG>  (2920) 
Phe

>  <MOL_WT>  (2920) 
233.18899999999994

>  <LOGP>  (2920) 
1.6598000000000002

>  <TPSA>  (2920) 
63.32000000000001

>  <POPULARITY>  (2920) 
12.7

>  <PROTECTED>  (2920) 
TRUE

>  <SMILES>  (2920) 
N[C@@H](Cc1(cccc(c1)C(F)(F)F))C(=O)O

>  <INCHIKEY>  (2920) 
BURBNIPKSRJAIQ-QMMMGPOBSA-N

$$$$
Phe_3CF3_4CN
     RDKit          2D

 18 18  0  0  0  0  0  0  0  0999 V2000
   -3.1877    1.7356    0.0000 N   0  0  0  0  0  0  0  0  0  0  0  0
   -3.3892    0.2492    0.0000 C   0  0  0  0  0  0  0  0  0  0  0  0
   -2.2027   -0.6685    0.0000 C   0  0  0  0  0  0  0  0  0  0  0  0
   -0.8146   -0.0998    0.0000 C   0  0  0  0  0  0  0  0  0  0  0  0
   -0.6131    1.3866    0.0000 C   0  0  0  0  0  0  0  0  0  0  0  0
    0.7749    1.9553    0.0000 C   0  0  0  0  0  0  0  0  0  0  0  0
    1.9614    1.0376    0.0000 C   0  0  0  0  0  0  0  0  0  0  0  0
    3.3494    1.6063    0.0000 C   0  0  0  0  0  0  0  0  0  0  0  0
    4.7374    2.1750    0.0000 N   0  0  0  0  0  0  0  0  0  0  0  0
    1.7599   -0.4488    0.0000 C   0  0  0  0  0  0  0  0  0  0  0  0
    0.3719   -1.0175    0.0000 C   0  0  0  0  0  0  0  0  0  0  0  0
    2.9464   -1.3665    0.0000 C   0  0  0  0  0  0  0  0  0  0  0  0
    4.1329   -2.2842    0.0000 F   0  0  0  0  0  0  0  0  0  0  0  0
    2.0287   -2.5530    0.0000 F   0  0  0  0  0  0  0  0  0  0  0  0
    3.8641   -0.1800    0.0000 F   0  0  0  0  0  0  0  0  0  0  0  0
   -4.7772   -0.3195    0.0000 C   0  0  0  0  0  0  0  0  0  0  0  0
   -4.9787   -1.8059    0.0000 O   0  0  0  0  0  0  0  0  0  0  0  0
   -5.9637    0.5982    0.0000 O   0  0  0  0  0  0  0  0  0  0  0  0
  2  1  1  1
  2  3  1  0
  3  4  1  0
  4  5  1  0
  5  6  2  0
  6  7  1  0
  7  8  1  0
  8  9  3  0
  7 10  2  0
 10 11  1  0
 10 12  1  0
 12 13  1  0
 12 14  1  0
 12 15  1  0
  2 16  1  0
 16 17  2  0
 16 18  1  0
 11  4  2  0
M  END
>  <rName>  (2921) 
Phe_3CF3_4CN

>  <PQ_SYMBOL>  (2921) 
Phe_3CF3_4CN

>  <FULL_NAME>  (2921) 
(S)-2-amino-3-(4-cyano-3-(trifluoromethyl)phenyl)propanoic acid

>  <IUPAC_CONDENSED>  (2921) 
Phe(3-CF3,4-CN)

>  <IUPAC>  (2921) 
(2S)-2-amino-3-(4-(nitrilomethyl)-3-(trifluoromethyl)phenyl)propanoic acid

>  <TYPE>  (2921) 
Backbone

>  <CLASS>  (2921) 
alpha

>  <ANALOG>  (2921) 
Phe

>  <MOL_WT>  (2921) 
258.19899999999996

>  <LOGP>  (2921) 
1.5314800000000002

>  <TPSA>  (2921) 
87.11

>  <POPULARITY>  (2921) 
2.5

>  <PROTECTED>  (2921) 
TRUE

>  <SMILES>  (2921) 
N[C@@H](Cc1(ccc(C#N)c(c1)C(F)(F)F))C(=O)O

>  <INCHIKEY>  (2921) 
MCYVRDYXTYAIDE-VIFPVBQESA-N

$$$$
Phe_3CF3_4CO2H
     RDKit          2D

 19 19  0  0  0  0  0  0  0  0999 V2000
   -3.3281    1.7221    0.0000 N   0  0  0  0  0  0  0  0  0  0  0  0
   -3.5612    0.2403    0.0000 C   0  0  0  0  0  0  0  0  0  0  0  0
   -2.3944   -0.7024    0.0000 C   0  0  0  0  0  0  0  0  0  0  0  0
   -0.9946   -0.1633    0.0000 C   0  0  0  0  0  0  0  0  0  0  0  0
   -0.7616    1.3185    0.0000 C   0  0  0  0  0  0  0  0  0  0  0  0
    0.6382    1.8576    0.0000 C   0  0  0  0  0  0  0  0  0  0  0  0
    1.8049    0.9149    0.0000 C   0  0  0  0  0  0  0  0  0  0  0  0
    3.2047    1.4540    0.0000 C   0  0  0  0  0  0  0  0  0  0  0  0
    3.4377    2.9358    0.0000 O   0  0  0  0  0  0  0  0  0  0  0  0
    4.3715    0.5113    0.0000 O   0  0  0  0  0  0  0  0  0  0  0  0
    1.5719   -0.5669    0.0000 C   0  0  0  0  0  0  0  0  0  0  0  0
    0.1721   -1.1060    0.0000 C   0  0  0  0  0  0  0  0  0  0  0  0
    2.7387   -1.5096    0.0000 C   0  0  0  0  0  0  0  0  0  0  0  0
    3.9054   -2.4523    0.0000 F   0  0  0  0  0  0  0  0  0  0  0  0
    1.7960   -2.6763    0.0000 F   0  0  0  0  0  0  0  0  0  0  0  0
    3.6814   -0.3428    0.0000 F   0  0  0  0  0  0  0  0  0  0  0  0
   -4.9609   -0.2988    0.0000 C   0  0  0  0  0  0  0  0  0  0  0  0
   -5.1940   -1.7805    0.0000 O   0  0  0  0  0  0  0  0  0  0  0  0
   -6.1277    0.6439    0.0000 O   0  0  0  0  0  0  0  0  0  0  0  0
  2  1  1  1
  2  3  1  0
  3  4  1  0
  4  5  1  0
  5  6  2  0
  6  7  1  0
  7  8  1  0
  8  9  2  0
  8 10  1  0
  7 11  2  0
 11 12  1  0
 11 13  1  0
 13 14  1  0
 13 15  1  0
 13 16  1  0
  2 17  1  0
 17 18  2  0
 17 19  1  0
 12  4  2  0
M  END
>  <rName>  (2922) 
Phe_3CF3_4CO2H

>  <PQ_SYMBOL>  (2922) 
Phe_3CF3_4CO2H

>  <FULL_NAME>  (2922) 
(S)-4-(2-amino-2-carboxyethyl)-2-(trifluoromethyl)benzoic acid

>  <IUPAC_CONDENSED>  (2922) 
Phe(3-CF3,4-CO2H)

>  <IUPAC>  (2922) 
4-((2S)-2-amino-3-hydroxy-3-oxopropyl)-2-(trifluoromethyl)benzoic acid

>  <TYPE>  (2922) 
Backbone

>  <CLASS>  (2922) 
alpha

>  <ANALOG>  (2922) 
Phe

>  <MOL_WT>  (2922) 
277.198

>  <LOGP>  (2922) 
1.3580000000000003

>  <TPSA>  (2922) 
100.62000000000002

>  <POPULARITY>  (2922) 
2.2

>  <PROTECTED>  (2922) 
TRUE

>  <SMILES>  (2922) 
N[C@@H](Cc1(ccc(C(=O)O)c(c1)C(F)(F)F))C(=O)O

>  <INCHIKEY>  (2922) 
SCVJJUSINHSUGA-QMMMGPOBSA-N

$$$$
Phe_3CF3_4Cl
     RDKit          2D

 17 17  0  0  0  0  0  0  0  0999 V2000
   -3.0426    1.6364    0.0000 N   0  0  0  0  0  0  0  0  0  0  0  0
   -3.1302    0.1389    0.0000 C   0  0  0  0  0  0  0  0  0  0  0  0
   -1.8772   -0.6857    0.0000 C   0  0  0  0  0  0  0  0  0  0  0  0
   -0.5366   -0.0128    0.0000 C   0  0  0  0  0  0  0  0  0  0  0  0
   -0.4490    1.4846    0.0000 C   0  0  0  0  0  0  0  0  0  0  0  0
    0.8917    2.1575    0.0000 C   0  0  0  0  0  0  0  0  0  0  0  0
    2.1447    1.3329    0.0000 C   0  0  0  0  0  0  0  0  0  0  0  0
    3.4853    2.0058    0.0000 Cl  0  0  0  0  0  0  0  0  0  0  0  0
    2.0571   -0.1645    0.0000 C   0  0  0  0  0  0  0  0  0  0  0  0
    0.7165   -0.8374    0.0000 C   0  0  0  0  0  0  0  0  0  0  0  0
    3.3101   -0.9891    0.0000 C   0  0  0  0  0  0  0  0  0  0  0  0
    4.5631   -1.8137    0.0000 F   0  0  0  0  0  0  0  0  0  0  0  0
    2.4855   -2.2421    0.0000 F   0  0  0  0  0  0  0  0  0  0  0  0
    4.1347    0.2639    0.0000 F   0  0  0  0  0  0  0  0  0  0  0  0
   -4.4708   -0.5339    0.0000 C   0  0  0  0  0  0  0  0  0  0  0  0
   -4.5584   -2.0314    0.0000 O   0  0  0  0  0  0  0  0  0  0  0  0
   -5.7238    0.2906    0.0000 O   0  0  0  0  0  0  0  0  0  0  0  0
  2  1  1  1
  2  3  1  0
  3  4  1  0
  4  5  1  0
  5  6  2  0
  6  7  1  0
  7  8  1  0
  7  9  2  0
  9 10  1  0
  9 11  1  0
 11 12  1  0
 11 13  1  0
 11 14  1  0
  2 15  1  0
 15 16  2  0
 15 17  1  0
 10  4  2  0
M  END
>  <rName>  (2923) 
Phe_3CF3_4Cl

>  <PQ_SYMBOL>  (2923) 
Phe_3CF3_4Cl

>  <FULL_NAME>  (2923) 
(S)-2-amino-3-(4-chloro-3-(trifluoromethyl)phenyl)propanoic acid

>  <IUPAC_CONDENSED>  (2923) 
Phe(3-CF3,4-Cl)

>  <IUPAC>  (2923) 
(2S)-2-amino-3-(4-chloro-3-(trifluoromethyl)phenyl)propanoic acid

>  <TYPE>  (2923) 
Backbone

>  <CLASS>  (2923) 
alpha

>  <ANALOG>  (2923) 
Phe

>  <MOL_WT>  (2923) 
267.63399999999996

>  <LOGP>  (2923) 
2.3132

>  <TPSA>  (2923) 
63.32000000000001

>  <POPULARITY>  (2923) 
2.7

>  <PROTECTED>  (2923) 
TRUE

>  <SMILES>  (2923) 
N[C@@H](Cc1(ccc(Cl)c(c1)C(F)(F)F))C(=O)O

>  <INCHIKEY>  (2923) 
LHPSDJVDEMVFGM-QMMMGPOBSA-N

$$$$
Phe_3CF3_4F
     RDKit          2D

 17 17  0  0  0  0  0  0  0  0999 V2000
   -3.0426    1.6364    0.0000 N   0  0  0  0  0  0  0  0  0  0  0  0
   -3.1302    0.1389    0.0000 C   0  0  0  0  0  0  0  0  0  0  0  0
   -1.8772   -0.6857    0.0000 C   0  0  0  0  0  0  0  0  0  0  0  0
   -0.5366   -0.0128    0.0000 C   0  0  0  0  0  0  0  0  0  0  0  0
   -0.4490    1.4846    0.0000 C   0  0  0  0  0  0  0  0  0  0  0  0
    0.8917    2.1575    0.0000 C   0  0  0  0  0  0  0  0  0  0  0  0
    2.1447    1.3329    0.0000 C   0  0  0  0  0  0  0  0  0  0  0  0
    3.4853    2.0058    0.0000 F   0  0  0  0  0  0  0  0  0  0  0  0
    2.0571   -0.1645    0.0000 C   0  0  0  0  0  0  0  0  0  0  0  0
    0.7165   -0.8374    0.0000 C   0  0  0  0  0  0  0  0  0  0  0  0
    3.3101   -0.9891    0.0000 C   0  0  0  0  0  0  0  0  0  0  0  0
    4.5631   -1.8137    0.0000 F   0  0  0  0  0  0  0  0  0  0  0  0
    2.4855   -2.2421    0.0000 F   0  0  0  0  0  0  0  0  0  0  0  0
    4.1347    0.2639    0.0000 F   0  0  0  0  0  0  0  0  0  0  0  0
   -4.4708   -0.5339    0.0000 C   0  0  0  0  0  0  0  0  0  0  0  0
   -4.5584   -2.0314    0.0000 O   0  0  0  0  0  0  0  0  0  0  0  0
   -5.7238    0.2906    0.0000 O   0  0  0  0  0  0  0  0  0  0  0  0
  2  1  1  1
  2  3  1  0
  3  4  1  0
  4  5  1  0
  5  6  2  0
  6  7  1  0
  7  8  1  0
  7  9  2  0
  9 10  1  0
  9 11  1  0
 11 12  1  0
 11 13  1  0
 11 14  1  0
  2 15  1  0
 15 16  2  0
 15 17  1  0
 10  4  2  0
M  END
>  <rName>  (2924) 
Phe_3CF3_4F

>  <PQ_SYMBOL>  (2924) 
Phe_3CF3_4F

>  <FULL_NAME>  (2924) 
(S)-2-amino-3-(4-fluoro-3-(trifluoromethyl)phenyl)propanoic acid

>  <IUPAC_CONDENSED>  (2924) 
Phe(3-CF3,4-F)

>  <IUPAC>  (2924) 
(2S)-2-amino-3-(4-fluoro-3-(trifluoromethyl)phenyl)propanoic acid

>  <TYPE>  (2924) 
Backbone

>  <CLASS>  (2924) 
alpha

>  <ANALOG>  (2924) 
Phe

>  <MOL_WT>  (2924) 
251.17899999999995

>  <LOGP>  (2924) 
1.7989000000000002

>  <TPSA>  (2924) 
63.32000000000001

>  <POPULARITY>  (2924) 
2.8

>  <PROTECTED>  (2924) 
TRUE

>  <SMILES>  (2924) 
N[C@@H](Cc1(ccc(F)c(c1)C(F)(F)F))C(=O)O

>  <INCHIKEY>  (2924) 
JKURDBSSRLCLKP-QMMMGPOBSA-N

$$$$
Phe_3CH2CN
     RDKit          2D

 15 15  0  0  0  0  0  0  0  0999 V2000
   -2.7904    1.4844    0.0000 N   0  0  0  0  0  0  0  0  0  0  0  0
   -2.6153   -0.0053    0.0000 C   0  0  0  0  0  0  0  0  0  0  0  0
   -1.2376   -0.5986    0.0000 C   0  0  0  0  0  0  0  0  0  0  0  0
   -0.0350    0.2979    0.0000 C   0  0  0  0  0  0  0  0  0  0  0  0
   -0.2101    1.7877    0.0000 C   0  0  0  0  0  0  0  0  0  0  0  0
    0.9925    2.6842    0.0000 C   0  0  0  0  0  0  0  0  0  0  0  0
    2.3702    2.0910    0.0000 C   0  0  0  0  0  0  0  0  0  0  0  0
    2.5453    0.6012    0.0000 C   0  0  0  0  0  0  0  0  0  0  0  0
    1.3427   -0.2953    0.0000 C   0  0  0  0  0  0  0  0  0  0  0  0
    3.9230    0.0080    0.0000 C   0  0  0  0  0  0  0  0  0  0  0  0
    4.0981   -1.4818    0.0000 C   0  0  0  0  0  0  0  0  0  0  0  0
    4.2732   -2.9715    0.0000 N   0  0  0  0  0  0  0  0  0  0  0  0
   -3.8179   -0.9018    0.0000 C   0  0  0  0  0  0  0  0  0  0  0  0
   -3.6429   -2.3916    0.0000 O   0  0  0  0  0  0  0  0  0  0  0  0
   -5.1956   -0.3086    0.0000 O   0  0  0  0  0  0  0  0  0  0  0  0
  2  1  1  1
  2  3  1  0
  3  4  1  0
  4  5  2  0
  5  6  1  0
  6  7  2  0
  7  8  1  0
  8  9  2  0
  8 10  1  0
 10 11  1  0
 11 12  3  0
  2 13  1  0
 13 14  2  0
 13 15  1  0
  9  4  1  0
M  END
>  <rName>  (2925) 
Phe_3CH2CN

>  <PQ_SYMBOL>  (2925) 
Phe_3CH2CN

>  <FULL_NAME>  (2925) 
(S)-2-amino-3-(3-(cyanomethyl)phenyl)propanoic acid

>  <IUPAC_CONDENSED>  (2925) 
Phe(3-CH2CN)

>  <IUPAC>  (2925) 
(2S)-2-amino-3-(3-(2-nitriloethyl)phenyl)propanoic acid

>  <TYPE>  (2925) 
Backbone

>  <CLASS>  (2925) 
alpha

>  <ANALOG>  (2925) 
Phe

>  <MOL_WT>  (2925) 
204.22899999999996

>  <LOGP>  (2925) 
0.7070800000000002

>  <TPSA>  (2925) 
87.11

>  <POPULARITY>  (2925) 
2.8

>  <PROTECTED>  (2925) 
TRUE

>  <SMILES>  (2925) 
N[C@@H](Cc1(cccc(c1)CC#N))C(=O)O

>  <INCHIKEY>  (2925) 
PZGFLYDKSWHGGV-JTQLQIEISA-N

$$$$
Phe_3CHF2
     RDKit          2D

 15 15  0  0  0  0  0  0  0  0999 V2000
   -2.6461    1.6149    0.0000 N   0  0  0  0  0  0  0  0  0  0  0  0
   -2.6827    0.1154    0.0000 C   0  0  0  0  0  0  0  0  0  0  0  0
   -1.4023   -0.6660    0.0000 C   0  0  0  0  0  0  0  0  0  0  0  0
   -0.0854    0.0521    0.0000 C   0  0  0  0  0  0  0  0  0  0  0  0
   -0.0488    1.5516    0.0000 C   0  0  0  0  0  0  0  0  0  0  0  0
    1.2681    2.2698    0.0000 C   0  0  0  0  0  0  0  0  0  0  0  0
    2.5485    1.4884    0.0000 C   0  0  0  0  0  0  0  0  0  0  0  0
    2.5119   -0.0112    0.0000 C   0  0  0  0  0  0  0  0  0  0  0  0
    1.1950   -0.7293    0.0000 C   0  0  0  0  0  0  0  0  0  0  0  0
    3.7923   -0.7926    0.0000 C   0  0  0  0  0  0  0  0  0  0  0  0
    3.7558   -2.2922    0.0000 F   0  0  0  0  0  0  0  0  0  0  0  0
    5.1093   -0.0745    0.0000 F   0  0  0  0  0  0  0  0  0  0  0  0
   -3.9996   -0.6028    0.0000 C   0  0  0  0  0  0  0  0  0  0  0  0
   -4.0361   -2.1023    0.0000 O   0  0  0  0  0  0  0  0  0  0  0  0
   -5.2800    0.1787    0.0000 O   0  0  0  0  0  0  0  0  0  0  0  0
  2  1  1  1
  2  3  1  0
  3  4  1  0
  4  5  1  0
  5  6  2  0
  6  7  1  0
  7  8  2  0
  8  9  1  0
  8 10  1  0
 10 11  1  0
 10 12  1  0
  2 13  1  0
 13 14  2  0
 13 15  1  0
  9  4  2  0
M  END
>  <rName>  (2926) 
Phe_3CHF2

>  <PQ_SYMBOL>  (2926) 
Phe_3CHF2

>  <FULL_NAME>  (2926) 
(S)-2-amino-3-(3-(difluoromethyl)phenyl)propanoic acid

>  <IUPAC_CONDENSED>  (2926) 
Phe(3-CHF2)

>  <IUPAC>  (2926) 
(2S)-2-amino-3-(3-(difluoromethyl)phenyl)propanoic acid

>  <TYPE>  (2926) 
Backbone

>  <CLASS>  (2926) 
alpha

>  <ANALOG>  (2926) 
Phe

>  <MOL_WT>  (2926) 
215.19899999999996

>  <LOGP>  (2926) 
1.5786000000000002

>  <TPSA>  (2926) 
63.32000000000001

>  <POPULARITY>  (2926) 
5.6

>  <PROTECTED>  (2926) 
TRUE

>  <SMILES>  (2926) 
N[C@@H](Cc1(cccc(c1)C(F)F))C(=O)O

>  <INCHIKEY>  (2926) 
GDFSRZQVLSUWKV-QMMMGPOBSA-N

$$$$
Phe_3CN
     RDKit          2D

 14 14  0  0  0  0  0  0  0  0999 V2000
   -2.3578    1.5845    0.0000 N   0  0  0  0  0  0  0  0  0  0  0  0
   -2.4110    0.0855    0.0000 C   0  0  0  0  0  0  0  0  0  0  0  0
   -1.1393   -0.7101    0.0000 C   0  0  0  0  0  0  0  0  0  0  0  0
    0.1855   -0.0066    0.0000 C   0  0  0  0  0  0  0  0  0  0  0  0
    0.2386    1.4925    0.0000 C   0  0  0  0  0  0  0  0  0  0  0  0
    1.5634    2.1960    0.0000 C   0  0  0  0  0  0  0  0  0  0  0  0
    2.8351    1.4004    0.0000 C   0  0  0  0  0  0  0  0  0  0  0  0
    2.7819   -0.0986    0.0000 C   0  0  0  0  0  0  0  0  0  0  0  0
    4.0535   -0.8942    0.0000 C   0  0  0  0  0  0  0  0  0  0  0  0
    5.3252   -1.6898    0.0000 N   0  0  0  0  0  0  0  0  0  0  0  0
    1.4571   -0.8021    0.0000 C   0  0  0  0  0  0  0  0  0  0  0  0
   -3.7358   -0.6180    0.0000 C   0  0  0  0  0  0  0  0  0  0  0  0
   -3.7889   -2.1171    0.0000 O   0  0  0  0  0  0  0  0  0  0  0  0
   -5.0074    0.1776    0.0000 O   0  0  0  0  0  0  0  0  0  0  0  0
  2  1  1  1
  2  3  1  0
  3  4  1  0
  4  5  2  0
  5  6  1  0
  6  7  2  0
  7  8  1  0
  8  9  1  0
  9 10  3  0
  8 11  2  0
  2 12  1  0
 12 13  2  0
 12 14  1  0
 11  4  1  0
M  END
>  <rName>  (2927) 
Phe_3CN

>  <PQ_SYMBOL>  (2927) 
Phe_3CN

>  <FULL_NAME>  (2927) 
3-Cyano-L-Phenylalanine

>  <IUPAC_CONDENSED>  (2927) 
Phe(3-CN)

>  <IUPAC>  (2927) 
(2S)-2-amino-3-(3-(nitrilomethyl)phenyl)propanoic acid

>  <TYPE>  (2927) 
Backbone

>  <CLASS>  (2927) 
alpha

>  <ANALOG>  (2927) 
Phe

>  <MOL_WT>  (2927) 
190.20199999999997

>  <LOGP>  (2927) 
0.5126800000000002

>  <TPSA>  (2927) 
87.11

>  <POPULARITY>  (2927) 
14.9

>  <PROTECTED>  (2927) 
TRUE

>  <SMILES>  (2927) 
N[C@@H](Cc1(cccc(C#N)c1))C(=O)O

>  <INCHIKEY>  (2927) 
ZHUOMTMPTNZOJE-VIFPVBQESA-N

$$$$
Phe_3CN_4Cl
     RDKit          2D

 15 15  0  0  0  0  0  0  0  0999 V2000
   -2.5333    1.6163    0.0000 N   0  0  0  0  0  0  0  0  0  0  0  0
   -2.6860    0.1241    0.0000 C   0  0  0  0  0  0  0  0  0  0  0  0
   -1.4701   -0.7543    0.0000 C   0  0  0  0  0  0  0  0  0  0  0  0
   -0.1014   -0.1404    0.0000 C   0  0  0  0  0  0  0  0  0  0  0  0
    0.0513    1.3518    0.0000 C   0  0  0  0  0  0  0  0  0  0  0  0
    1.4199    1.9657    0.0000 C   0  0  0  0  0  0  0  0  0  0  0  0
    2.6358    1.0873    0.0000 C   0  0  0  0  0  0  0  0  0  0  0  0
    4.0045    1.7012    0.0000 Cl  0  0  0  0  0  0  0  0  0  0  0  0
    2.4832   -0.4049    0.0000 C   0  0  0  0  0  0  0  0  0  0  0  0
    3.6991   -1.2832    0.0000 C   0  0  0  0  0  0  0  0  0  0  0  0
    4.9151   -2.1615    0.0000 N   0  0  0  0  0  0  0  0  0  0  0  0
    1.1145   -1.0187    0.0000 C   0  0  0  0  0  0  0  0  0  0  0  0
   -4.0546   -0.4898    0.0000 C   0  0  0  0  0  0  0  0  0  0  0  0
   -4.2073   -1.9820    0.0000 O   0  0  0  0  0  0  0  0  0  0  0  0
   -5.2706    0.3885    0.0000 O   0  0  0  0  0  0  0  0  0  0  0  0
  2  1  1  1
  2  3  1  0
  3  4  1  0
  4  5  1  0
  5  6  2  0
  6  7  1  0
  7  8  1  0
  7  9  2  0
  9 10  1  0
 10 11  3  0
  9 12  1  0
  2 13  1  0
 13 14  2  0
 13 15  1  0
 12  4  2  0
M  END
>  <rName>  (2928) 
Phe_3CN_4Cl

>  <PQ_SYMBOL>  (2928) 
Phe_3CN_4Cl

>  <FULL_NAME>  (2928) 
(S)-2-amino-3-(4-chloro-3-cyanophenyl)propanoic acid

>  <IUPAC_CONDENSED>  (2928) 
Phe(3-CN,4-Cl)

>  <IUPAC>  (2928) 
(2S)-2-amino-3-(4-chloro-3-(nitrilomethyl)phenyl)propanoic acid

>  <TYPE>  (2928) 
Backbone

>  <CLASS>  (2928) 
alpha

>  <ANALOG>  (2928) 
Phe

>  <MOL_WT>  (2928) 
224.647

>  <LOGP>  (2928) 
1.1660800000000002

>  <TPSA>  (2928) 
87.11

>  <POPULARITY>  (2928) 
3.0

>  <PROTECTED>  (2928) 
TRUE

>  <SMILES>  (2928) 
N[C@@H](Cc1(ccc(Cl)c(C#N)c1))C(=O)O

>  <INCHIKEY>  (2928) 
XIFVMTACZDXVHK-VIFPVBQESA-N

$$$$
Phe_3CN_4F
     RDKit          2D

 15 15  0  0  0  0  0  0  0  0999 V2000
   -2.5333    1.6163    0.0000 N   0  0  0  0  0  0  0  0  0  0  0  0
   -2.6860    0.1241    0.0000 C   0  0  0  0  0  0  0  0  0  0  0  0
   -1.4701   -0.7543    0.0000 C   0  0  0  0  0  0  0  0  0  0  0  0
   -0.1014   -0.1404    0.0000 C   0  0  0  0  0  0  0  0  0  0  0  0
    0.0513    1.3518    0.0000 C   0  0  0  0  0  0  0  0  0  0  0  0
    1.4199    1.9657    0.0000 C   0  0  0  0  0  0  0  0  0  0  0  0
    2.6358    1.0873    0.0000 C   0  0  0  0  0  0  0  0  0  0  0  0
    4.0045    1.7012    0.0000 F   0  0  0  0  0  0  0  0  0  0  0  0
    2.4832   -0.4049    0.0000 C   0  0  0  0  0  0  0  0  0  0  0  0
    3.6991   -1.2832    0.0000 C   0  0  0  0  0  0  0  0  0  0  0  0
    4.9151   -2.1615    0.0000 N   0  0  0  0  0  0  0  0  0  0  0  0
    1.1145   -1.0187    0.0000 C   0  0  0  0  0  0  0  0  0  0  0  0
   -4.0546   -0.4898    0.0000 C   0  0  0  0  0  0  0  0  0  0  0  0
   -4.2073   -1.9820    0.0000 O   0  0  0  0  0  0  0  0  0  0  0  0
   -5.2706    0.3885    0.0000 O   0  0  0  0  0  0  0  0  0  0  0  0
  2  1  1  1
  2  3  1  0
  3  4  1  0
  4  5  1  0
  5  6  2  0
  6  7  1  0
  7  8  1  0
  7  9  2  0
  9 10  1  0
 10 11  3  0
  9 12  1  0
  2 13  1  0
 13 14  2  0
 13 15  1  0
 12  4  2  0
M  END
>  <rName>  (2929) 
Phe_3CN_4F

>  <PQ_SYMBOL>  (2929) 
Phe_3CN_4F

>  <FULL_NAME>  (2929) 
(S)-2-amino-3-(3-cyano-4-fluorophenyl)propanoic acid

>  <IUPAC_CONDENSED>  (2929) 
Phe(3-CN,4-F)

>  <IUPAC>  (2929) 
(2S)-2-amino-3-(4-fluoro-3-(nitrilomethyl)phenyl)propanoic acid

>  <TYPE>  (2929) 
Backbone

>  <CLASS>  (2929) 
alpha

>  <ANALOG>  (2929) 
Phe

>  <MOL_WT>  (2929) 
208.19199999999998

>  <LOGP>  (2929) 
0.65178

>  <TPSA>  (2929) 
87.11

>  <POPULARITY>  (2929) 
2.6

>  <PROTECTED>  (2929) 
TRUE

>  <SMILES>  (2929) 
N[C@@H](Cc1(ccc(F)c(C#N)c1))C(=O)O

>  <INCHIKEY>  (2929) 
YKTMPWMQKTXZHB-VIFPVBQESA-N

$$$$
Phe_3CN_4Me
     RDKit          2D

 15 15  0  0  0  0  0  0  0  0999 V2000
   -2.5333    1.6163    0.0000 N   0  0  0  0  0  0  0  0  0  0  0  0
   -2.6860    0.1241    0.0000 C   0  0  0  0  0  0  0  0  0  0  0  0
   -1.4701   -0.7543    0.0000 C   0  0  0  0  0  0  0  0  0  0  0  0
   -0.1014   -0.1404    0.0000 C   0  0  0  0  0  0  0  0  0  0  0  0
    0.0513    1.3518    0.0000 C   0  0  0  0  0  0  0  0  0  0  0  0
    1.4199    1.9657    0.0000 C   0  0  0  0  0  0  0  0  0  0  0  0
    2.6358    1.0873    0.0000 C   0  0  0  0  0  0  0  0  0  0  0  0
    4.0045    1.7012    0.0000 C   0  0  0  0  0  0  0  0  0  0  0  0
    2.4832   -0.4049    0.0000 C   0  0  0  0  0  0  0  0  0  0  0  0
    3.6991   -1.2832    0.0000 C   0  0  0  0  0  0  0  0  0  0  0  0
    4.9151   -2.1615    0.0000 N   0  0  0  0  0  0  0  0  0  0  0  0
    1.1145   -1.0187    0.0000 C   0  0  0  0  0  0  0  0  0  0  0  0
   -4.0546   -0.4898    0.0000 C   0  0  0  0  0  0  0  0  0  0  0  0
   -4.2073   -1.9820    0.0000 O   0  0  0  0  0  0  0  0  0  0  0  0
   -5.2706    0.3885    0.0000 O   0  0  0  0  0  0  0  0  0  0  0  0
  2  1  1  1
  2  3  1  0
  3  4  1  0
  4  5  1  0
  5  6  2  0
  6  7  1  0
  7  8  1  0
  7  9  2  0
  9 10  1  0
 10 11  3  0
  9 12  1  0
  2 13  1  0
 13 14  2  0
 13 15  1  0
 12  4  2  0
M  END
>  <rName>  (2930) 
Phe_3CN_4Me

>  <PQ_SYMBOL>  (2930) 
Phe_3CN_4Me

>  <FULL_NAME>  (2930) 
(S)-2-amino-3-(3-cyano-4-methylphenyl)propanoic acid

>  <IUPAC_CONDENSED>  (2930) 
Phe(3-CN,4-Me)

>  <IUPAC>  (2930) 
(2S)-2-amino-3-(4-methyl-3-(nitrilomethyl)phenyl)propanoic acid

>  <TYPE>  (2930) 
Backbone

>  <CLASS>  (2930) 
alpha

>  <ANALOG>  (2930) 
Phe

>  <MOL_WT>  (2930) 
204.22899999999998

>  <LOGP>  (2930) 
0.8211000000000002

>  <TPSA>  (2930) 
87.11

>  <POPULARITY>  (2930) 
2.8

>  <PROTECTED>  (2930) 
TRUE

>  <SMILES>  (2930) 
N[C@@H](Cc1(ccc(C)c(C#N)c1))C(=O)O

>  <INCHIKEY>  (2930) 
DQPZTKGEXYFBSS-JTQLQIEISA-N

$$$$
Phe_3CN_4NH2
     RDKit          2D

 15 15  0  0  0  0  0  0  0  0999 V2000
   -2.5333    1.6163    0.0000 N   0  0  0  0  0  0  0  0  0  0  0  0
   -2.6860    0.1241    0.0000 C   0  0  0  0  0  0  0  0  0  0  0  0
   -1.4701   -0.7543    0.0000 C   0  0  0  0  0  0  0  0  0  0  0  0
   -0.1014   -0.1404    0.0000 C   0  0  0  0  0  0  0  0  0  0  0  0
    0.0513    1.3518    0.0000 C   0  0  0  0  0  0  0  0  0  0  0  0
    1.4199    1.9657    0.0000 C   0  0  0  0  0  0  0  0  0  0  0  0
    2.6358    1.0873    0.0000 C   0  0  0  0  0  0  0  0  0  0  0  0
    4.0045    1.7012    0.0000 N   0  0  0  0  0  0  0  0  0  0  0  0
    2.4832   -0.4049    0.0000 C   0  0  0  0  0  0  0  0  0  0  0  0
    3.6991   -1.2832    0.0000 C   0  0  0  0  0  0  0  0  0  0  0  0
    4.9151   -2.1615    0.0000 N   0  0  0  0  0  0  0  0  0  0  0  0
    1.1145   -1.0187    0.0000 C   0  0  0  0  0  0  0  0  0  0  0  0
   -4.0546   -0.4898    0.0000 C   0  0  0  0  0  0  0  0  0  0  0  0
   -4.2073   -1.9820    0.0000 O   0  0  0  0  0  0  0  0  0  0  0  0
   -5.2706    0.3885    0.0000 O   0  0  0  0  0  0  0  0  0  0  0  0
  2  1  1  1
  2  3  1  0
  3  4  1  0
  4  5  1  0
  5  6  2  0
  6  7  1  0
  7  8  1  0
  7  9  2  0
  9 10  1  0
 10 11  3  0
  9 12  1  0
  2 13  1  0
 13 14  2  0
 13 15  1  0
 12  4  2  0
M  END
>  <rName>  (2931) 
Phe_3CN_4NH2

>  <PQ_SYMBOL>  (2931) 
Phe_3CN_4NH2

>  <FULL_NAME>  (2931) 
(S)-2-amino-3-(4-amino-3-cyanophenyl)propanoic acid

>  <IUPAC_CONDENSED>  (2931) 
Phe(3-CN,4-NH2)

>  <IUPAC>  (2931) 
(2S)-2-amino-3-(4-amino-3-(nitrilomethyl)phenyl)propanoic acid

>  <TYPE>  (2931) 
Backbone

>  <CLASS>  (2931) 
alpha

>  <ANALOG>  (2931) 
Phe

>  <MOL_WT>  (2931) 
205.21699999999998

>  <LOGP>  (2931) 
0.09487999999999985

>  <TPSA>  (2931) 
113.13000000000001

>  <POPULARITY>  (2931) 
2.5

>  <PROTECTED>  (2931) 
TRUE

>  <SMILES>  (2931) 
N[C@@H](Cc1(ccc(N)c(C#N)c1))C(=O)O

>  <INCHIKEY>  (2931) 
KKCNCDSGUYFGLY-VIFPVBQESA-N

$$$$
Phe_3CO2H
     RDKit          2D

 15 15  0  0  0  0  0  0  0  0999 V2000
   -2.6461    1.6149    0.0000 N   0  0  0  0  0  0  0  0  0  0  0  0
   -2.6827    0.1154    0.0000 C   0  0  0  0  0  0  0  0  0  0  0  0
   -1.4023   -0.6660    0.0000 C   0  0  0  0  0  0  0  0  0  0  0  0
   -0.0854    0.0521    0.0000 C   0  0  0  0  0  0  0  0  0  0  0  0
   -0.0488    1.5516    0.0000 C   0  0  0  0  0  0  0  0  0  0  0  0
    1.2681    2.2698    0.0000 C   0  0  0  0  0  0  0  0  0  0  0  0
    2.5485    1.4884    0.0000 C   0  0  0  0  0  0  0  0  0  0  0  0
    2.5119   -0.0112    0.0000 C   0  0  0  0  0  0  0  0  0  0  0  0
    1.1950   -0.7293    0.0000 C   0  0  0  0  0  0  0  0  0  0  0  0
    3.7923   -0.7926    0.0000 C   0  0  0  0  0  0  0  0  0  0  0  0
    5.1093   -0.0745    0.0000 O   0  0  0  0  0  0  0  0  0  0  0  0
    3.7558   -2.2922    0.0000 O   0  0  0  0  0  0  0  0  0  0  0  0
   -3.9996   -0.6028    0.0000 C   0  0  0  0  0  0  0  0  0  0  0  0
   -4.0361   -2.1023    0.0000 O   0  0  0  0  0  0  0  0  0  0  0  0
   -5.2800    0.1787    0.0000 O   0  0  0  0  0  0  0  0  0  0  0  0
  2  1  1  1
  2  3  1  0
  3  4  1  0
  4  5  1  0
  5  6  2  0
  6  7  1  0
  7  8  2  0
  8  9  1  0
  8 10  1  0
 10 11  2  0
 10 12  1  0
  2 13  1  0
 13 14  2  0
 13 15  1  0
  9  4  2  0
M  END
>  <rName>  (2932) 
Phe_3CO2H

>  <PQ_SYMBOL>  (2932) 
Phe_3CO2H

>  <FULL_NAME>  (2932) 
(S)-3-(2-amino-2-carboxyethyl)benzoic acid

>  <IUPAC_CONDENSED>  (2932) 
Phe(3-CO2H)

>  <IUPAC>  (2932) 
3-((2S)-2-amino-3-hydroxy-3-oxopropyl)benzoic acid

>  <TYPE>  (2932) 
Backbone

>  <CLASS>  (2932) 
alpha

>  <ANALOG>  (2932) 
Phe

>  <MOL_WT>  (2932) 
209.20099999999996

>  <LOGP>  (2932) 
0.33920000000000006

>  <TPSA>  (2932) 
100.62000000000002

>  <POPULARITY>  (2932) 
8.1

>  <PROTECTED>  (2932) 
TRUE

>  <SMILES>  (2932) 
N[C@@H](Cc1(cccc(c1)C(=O)O))C(=O)O

>  <INCHIKEY>  (2932) 
JANONUPBHGWOBP-QMMMGPOBSA-N

$$$$
Phe_3CO2H_4Cl
     RDKit          2D

 16 16  0  0  0  0  0  0  0  0999 V2000
   -2.7936    1.6481    0.0000 N   0  0  0  0  0  0  0  0  0  0  0  0
   -2.9203    0.1535    0.0000 C   0  0  0  0  0  0  0  0  0  0  0  0
   -1.6893   -0.7036    0.0000 C   0  0  0  0  0  0  0  0  0  0  0  0
   -0.3315   -0.0660    0.0000 C   0  0  0  0  0  0  0  0  0  0  0  0
   -0.2048    1.4287    0.0000 C   0  0  0  0  0  0  0  0  0  0  0  0
    1.1530    2.0662    0.0000 C   0  0  0  0  0  0  0  0  0  0  0  0
    2.3840    1.2092    0.0000 C   0  0  0  0  0  0  0  0  0  0  0  0
    3.7417    1.8468    0.0000 Cl  0  0  0  0  0  0  0  0  0  0  0  0
    2.2573   -0.2855    0.0000 C   0  0  0  0  0  0  0  0  0  0  0  0
    0.8995   -0.9230    0.0000 C   0  0  0  0  0  0  0  0  0  0  0  0
    3.4883   -1.1425    0.0000 C   0  0  0  0  0  0  0  0  0  0  0  0
    4.8461   -0.5049    0.0000 O   0  0  0  0  0  0  0  0  0  0  0  0
    3.3616   -2.6372    0.0000 O   0  0  0  0  0  0  0  0  0  0  0  0
   -4.2781   -0.4841    0.0000 C   0  0  0  0  0  0  0  0  0  0  0  0
   -4.4048   -1.9787    0.0000 O   0  0  0  0  0  0  0  0  0  0  0  0
   -5.5091    0.3730    0.0000 O   0  0  0  0  0  0  0  0  0  0  0  0
  2  1  1  1
  2  3  1  0
  3  4  1  0
  4  5  1  0
  5  6  2  0
  6  7  1  0
  7  8  1  0
  7  9  2  0
  9 10  1  0
  9 11  1  0
 11 12  2  0
 11 13  1  0
  2 14  1  0
 14 15  2  0
 14 16  1  0
 10  4  2  0
M  END
>  <rName>  (2933) 
Phe_3CO2H_4Cl

>  <PQ_SYMBOL>  (2933) 
Phe_3CO2H_4Cl

>  <FULL_NAME>  (2933) 
(S)-5-(2-amino-2-carboxyethyl)-2-chlorobenzoic acid

>  <IUPAC_CONDENSED>  (2933) 
Phe(3-CO2H,4-Cl)

>  <IUPAC>  (2933) 
5-((2S)-2-amino-3-hydroxy-3-oxopropyl)-2-chlorobenzene-1-carboxylic acid

>  <TYPE>  (2933) 
Backbone

>  <CLASS>  (2933) 
alpha

>  <ANALOG>  (2933) 
Phe

>  <MOL_WT>  (2933) 
243.646

>  <LOGP>  (2933) 
0.9926000000000001

>  <TPSA>  (2933) 
100.62000000000002

>  <POPULARITY>  (2933) 
3.2

>  <PROTECTED>  (2933) 
TRUE

>  <SMILES>  (2933) 
N[C@@H](Cc1(ccc(Cl)c(c1)C(=O)O))C(=O)O

>  <INCHIKEY>  (2933) 
CZQFEVBWZSZLCJ-QMMMGPOBSA-N

$$$$
Phe_3CO2H_4F
     RDKit          2D

 16 16  0  0  0  0  0  0  0  0999 V2000
   -2.7936    1.6481    0.0000 N   0  0  0  0  0  0  0  0  0  0  0  0
   -2.9203    0.1535    0.0000 C   0  0  0  0  0  0  0  0  0  0  0  0
   -1.6893   -0.7036    0.0000 C   0  0  0  0  0  0  0  0  0  0  0  0
   -0.3315   -0.0660    0.0000 C   0  0  0  0  0  0  0  0  0  0  0  0
   -0.2048    1.4287    0.0000 C   0  0  0  0  0  0  0  0  0  0  0  0
    1.1530    2.0662    0.0000 C   0  0  0  0  0  0  0  0  0  0  0  0
    2.3840    1.2092    0.0000 C   0  0  0  0  0  0  0  0  0  0  0  0
    3.7417    1.8468    0.0000 F   0  0  0  0  0  0  0  0  0  0  0  0
    2.2573   -0.2855    0.0000 C   0  0  0  0  0  0  0  0  0  0  0  0
    0.8995   -0.9230    0.0000 C   0  0  0  0  0  0  0  0  0  0  0  0
    3.4883   -1.1425    0.0000 C   0  0  0  0  0  0  0  0  0  0  0  0
    4.8461   -0.5049    0.0000 O   0  0  0  0  0  0  0  0  0  0  0  0
    3.3616   -2.6372    0.0000 O   0  0  0  0  0  0  0  0  0  0  0  0
   -4.2781   -0.4841    0.0000 C   0  0  0  0  0  0  0  0  0  0  0  0
   -4.4048   -1.9787    0.0000 O   0  0  0  0  0  0  0  0  0  0  0  0
   -5.5091    0.3730    0.0000 O   0  0  0  0  0  0  0  0  0  0  0  0
  2  1  1  1
  2  3  1  0
  3  4  1  0
  4  5  1  0
  5  6  2  0
  6  7  1  0
  7  8  1  0
  7  9  2  0
  9 10  1  0
  9 11  1  0
 11 12  2  0
 11 13  1  0
  2 14  1  0
 14 15  2  0
 14 16  1  0
 10  4  2  0
M  END
>  <rName>  (2934) 
Phe_3CO2H_4F

>  <PQ_SYMBOL>  (2934) 
Phe_3CO2H_4F

>  <FULL_NAME>  (2934) 
(S)-5-(2-amino-2-carboxyethyl)-2-fluorobenzoic acid

>  <IUPAC_CONDENSED>  (2934) 
Phe(3-CO2H,4-F)

>  <IUPAC>  (2934) 
5-((2S)-2-amino-3-hydroxy-3-oxopropyl)-2-fluorobenzene-1-carboxylic acid

>  <TYPE>  (2934) 
Backbone

>  <CLASS>  (2934) 
alpha

>  <ANALOG>  (2934) 
Phe

>  <MOL_WT>  (2934) 
227.19099999999997

>  <LOGP>  (2934) 
0.47829999999999984

>  <TPSA>  (2934) 
100.62000000000002

>  <POPULARITY>  (2934) 
3.5

>  <PROTECTED>  (2934) 
TRUE

>  <SMILES>  (2934) 
N[C@@H](Cc1(ccc(F)c(c1)C(=O)O))C(=O)O

>  <INCHIKEY>  (2934) 
TTYPJRVMUPGSMG-QMMMGPOBSA-N

$$$$
Phe_3CO2H_4Me
     RDKit          2D

 16 16  0  0  0  0  0  0  0  0999 V2000
   -2.7936    1.6481    0.0000 N   0  0  0  0  0  0  0  0  0  0  0  0
   -2.9203    0.1535    0.0000 C   0  0  0  0  0  0  0  0  0  0  0  0
   -1.6893   -0.7036    0.0000 C   0  0  0  0  0  0  0  0  0  0  0  0
   -0.3315   -0.0660    0.0000 C   0  0  0  0  0  0  0  0  0  0  0  0
   -0.2048    1.4287    0.0000 C   0  0  0  0  0  0  0  0  0  0  0  0
    1.1530    2.0662    0.0000 C   0  0  0  0  0  0  0  0  0  0  0  0
    2.3840    1.2092    0.0000 C   0  0  0  0  0  0  0  0  0  0  0  0
    3.7417    1.8468    0.0000 C   0  0  0  0  0  0  0  0  0  0  0  0
    2.2573   -0.2855    0.0000 C   0  0  0  0  0  0  0  0  0  0  0  0
    0.8995   -0.9230    0.0000 C   0  0  0  0  0  0  0  0  0  0  0  0
    3.4883   -1.1425    0.0000 C   0  0  0  0  0  0  0  0  0  0  0  0
    4.8461   -0.5049    0.0000 O   0  0  0  0  0  0  0  0  0  0  0  0
    3.3616   -2.6372    0.0000 O   0  0  0  0  0  0  0  0  0  0  0  0
   -4.2781   -0.4841    0.0000 C   0  0  0  0  0  0  0  0  0  0  0  0
   -4.4048   -1.9787    0.0000 O   0  0  0  0  0  0  0  0  0  0  0  0
   -5.5091    0.3730    0.0000 O   0  0  0  0  0  0  0  0  0  0  0  0
  2  1  1  1
  2  3  1  0
  3  4  1  0
  4  5  1  0
  5  6  2  0
  6  7  1  0
  7  8  1  0
  7  9  2  0
  9 10  1  0
  9 11  1  0
 11 12  2  0
 11 13  1  0
  2 14  1  0
 14 15  2  0
 14 16  1  0
 10  4  2  0
M  END
>  <rName>  (2935) 
Phe_3CO2H_4Me

>  <PQ_SYMBOL>  (2935) 
Phe_3CO2H_4Me

>  <FULL_NAME>  (2935) 
(S)-5-(2-amino-2-carboxyethyl)-2-methylbenzoic acid

>  <IUPAC_CONDENSED>  (2935) 
Phe(3-CO2H,4-Me)

>  <IUPAC>  (2935) 
5-((2S)-2-amino-3-hydroxy-3-oxopropyl)-2-methylbenzene-1-carboxylic acid

>  <TYPE>  (2935) 
Backbone

>  <CLASS>  (2935) 
alpha

>  <ANALOG>  (2935) 
Phe

>  <MOL_WT>  (2935) 
223.22799999999998

>  <LOGP>  (2935) 
0.64762

>  <TPSA>  (2935) 
100.62000000000002

>  <POPULARITY>  (2935) 
4.3

>  <PROTECTED>  (2935) 
TRUE

>  <SMILES>  (2935) 
N[C@@H](Cc1(ccc(C)c(c1)C(=O)O))C(=O)O

>  <INCHIKEY>  (2935) 
KBUTYUKZWBMHBM-VIFPVBQESA-N

$$$$
Phe_3CO2H_4NH2
     RDKit          2D

 16 16  0  0  0  0  0  0  0  0999 V2000
   -2.7936    1.6481    0.0000 N   0  0  0  0  0  0  0  0  0  0  0  0
   -2.9203    0.1535    0.0000 C   0  0  0  0  0  0  0  0  0  0  0  0
   -1.6893   -0.7036    0.0000 C   0  0  0  0  0  0  0  0  0  0  0  0
   -0.3315   -0.0660    0.0000 C   0  0  0  0  0  0  0  0  0  0  0  0
   -0.2048    1.4287    0.0000 C   0  0  0  0  0  0  0  0  0  0  0  0
    1.1530    2.0662    0.0000 C   0  0  0  0  0  0  0  0  0  0  0  0
    2.3840    1.2092    0.0000 C   0  0  0  0  0  0  0  0  0  0  0  0
    3.7417    1.8468    0.0000 N   0  0  0  0  0  0  0  0  0  0  0  0
    2.2573   -0.2855    0.0000 C   0  0  0  0  0  0  0  0  0  0  0  0
    0.8995   -0.9230    0.0000 C   0  0  0  0  0  0  0  0  0  0  0  0
    3.4883   -1.1425    0.0000 C   0  0  0  0  0  0  0  0  0  0  0  0
    4.8461   -0.5049    0.0000 O   0  0  0  0  0  0  0  0  0  0  0  0
    3.3616   -2.6372    0.0000 O   0  0  0  0  0  0  0  0  0  0  0  0
   -4.2781   -0.4841    0.0000 C   0  0  0  0  0  0  0  0  0  0  0  0
   -4.4048   -1.9787    0.0000 O   0  0  0  0  0  0  0  0  0  0  0  0
   -5.5091    0.3730    0.0000 O   0  0  0  0  0  0  0  0  0  0  0  0
  2  1  1  1
  2  3  1  0
  3  4  1  0
  4  5  1  0
  5  6  2  0
  6  7  1  0
  7  8  1  0
  7  9  2  0
  9 10  1  0
  9 11  1  0
 11 12  2  0
 11 13  1  0
  2 14  1  0
 14 15  2  0
 14 16  1  0
 10  4  2  0
M  END
>  <rName>  (2936) 
Phe_3CO2H_4NH2

>  <PQ_SYMBOL>  (2936) 
Phe_3CO2H_4NH2

>  <FULL_NAME>  (2936) 
(S)-2-amino-5-(2-amino-2-carboxyethyl)benzoic acid

>  <IUPAC_CONDENSED>  (2936) 
Phe(3-CO2H,4-NH2)

>  <IUPAC>  (2936) 
2-amino-5-((2S)-2-amino-3-hydroxy-3-oxopropyl)benzoic acid

>  <TYPE>  (2936) 
Backbone

>  <CLASS>  (2936) 
alpha

>  <ANALOG>  (2936) 
Phe

>  <MOL_WT>  (2936) 
224.21599999999998

>  <LOGP>  (2936) 
-0.07860000000000034

>  <TPSA>  (2936) 
126.64

>  <POPULARITY>  (2936) 
2.8

>  <PROTECTED>  (2936) 
TRUE

>  <SMILES>  (2936) 
N[C@@H](Cc1(ccc(N)c(c1)C(=O)O))C(=O)O

>  <INCHIKEY>  (2936) 
NZJJKIVZNAYSNE-QMMMGPOBSA-N

$$$$
Phe_3CO2H_4OMe
     RDKit          2D

 17 17  0  0  0  0  0  0  0  0999 V2000
   -2.8817    1.7117    0.0000 N   0  0  0  0  0  0  0  0  0  0  0  0
   -3.1394    0.2340    0.0000 C   0  0  0  0  0  0  0  0  0  0  0  0
   -1.9886   -0.7280    0.0000 C   0  0  0  0  0  0  0  0  0  0  0  0
   -0.5800   -0.2123    0.0000 C   0  0  0  0  0  0  0  0  0  0  0  0
   -0.3223    1.2654    0.0000 C   0  0  0  0  0  0  0  0  0  0  0  0
    1.0863    1.7810    0.0000 C   0  0  0  0  0  0  0  0  0  0  0  0
    2.2372    0.8190    0.0000 C   0  0  0  0  0  0  0  0  0  0  0  0
    3.6457    1.3347    0.0000 O   0  0  0  0  0  0  0  0  0  0  0  0
    3.9034    2.8123    0.0000 C   0  0  0  0  0  0  0  0  0  0  0  0
    1.9794   -0.6587    0.0000 C   0  0  0  0  0  0  0  0  0  0  0  0
    0.5709   -1.1744    0.0000 C   0  0  0  0  0  0  0  0  0  0  0  0
    3.1303   -1.6207    0.0000 C   0  0  0  0  0  0  0  0  0  0  0  0
    4.5389   -1.1051    0.0000 O   0  0  0  0  0  0  0  0  0  0  0  0
    2.8726   -3.0984    0.0000 O   0  0  0  0  0  0  0  0  0  0  0  0
   -4.5480   -0.2816    0.0000 C   0  0  0  0  0  0  0  0  0  0  0  0
   -4.8057   -1.7593    0.0000 O   0  0  0  0  0  0  0  0  0  0  0  0
   -5.6989    0.6804    0.0000 O   0  0  0  0  0  0  0  0  0  0  0  0
  2  1  1  1
  2  3  1  0
  3  4  1  0
  4  5  1  0
  5  6  2  0
  6  7  1  0
  7  8  1  0
  8  9  1  0
  7 10  2  0
 10 11  1  0
 10 12  1  0
 12 13  2  0
 12 14  1  0
  2 15  1  0
 15 16  2  0
 15 17  1  0
 11  4  2  0
M  END
>  <rName>  (2937) 
Phe_3CO2H_4OMe

>  <PQ_SYMBOL>  (2937) 
Phe_3CO2H_4OMe

>  <FULL_NAME>  (2937) 
(S)-5-(2-amino-2-carboxyethyl)-2-methoxybenzoic acid

>  <IUPAC_CONDENSED>  (2937) 
Phe(3-CO2H,4-OMe)

>  <IUPAC>  (2937) 
5-((2S)-2-amino-3-hydroxy-3-oxopropyl)-2-methoxybenzene-1-carboxylic acid

>  <TYPE>  (2937) 
Backbone

>  <CLASS>  (2937) 
alpha

>  <ANALOG>  (2937) 
Tyr

>  <MOL_WT>  (2937) 
239.22699999999998

>  <LOGP>  (2937) 
0.3478

>  <TPSA>  (2937) 
109.85000000000001

>  <POPULARITY>  (2937) 
5.4

>  <PROTECTED>  (2937) 
TRUE

>  <SMILES>  (2937) 
N[C@@H](Cc1(ccc(OC)c(c1)C(=O)O))C(=O)O

>  <INCHIKEY>  (2937) 
DXJCCIMDJQJHPX-QMMMGPOBSA-N

$$$$
Phe_3CONH2
     RDKit          2D

 15 15  0  0  0  0  0  0  0  0999 V2000
   -2.6461    1.6149    0.0000 N   0  0  0  0  0  0  0  0  0  0  0  0
   -2.6827    0.1154    0.0000 C   0  0  0  0  0  0  0  0  0  0  0  0
   -1.4023   -0.6660    0.0000 C   0  0  0  0  0  0  0  0  0  0  0  0
   -0.0854    0.0521    0.0000 C   0  0  0  0  0  0  0  0  0  0  0  0
   -0.0488    1.5516    0.0000 C   0  0  0  0  0  0  0  0  0  0  0  0
    1.2681    2.2698    0.0000 C   0  0  0  0  0  0  0  0  0  0  0  0
    2.5485    1.4884    0.0000 C   0  0  0  0  0  0  0  0  0  0  0  0
    2.5119   -0.0112    0.0000 C   0  0  0  0  0  0  0  0  0  0  0  0
    1.1950   -0.7293    0.0000 C   0  0  0  0  0  0  0  0  0  0  0  0
    3.7923   -0.7926    0.0000 C   0  0  0  0  0  0  0  0  0  0  0  0
    5.1093   -0.0745    0.0000 O   0  0  0  0  0  0  0  0  0  0  0  0
    3.7558   -2.2922    0.0000 N   0  0  0  0  0  0  0  0  0  0  0  0
   -3.9996   -0.6028    0.0000 C   0  0  0  0  0  0  0  0  0  0  0  0
   -4.0361   -2.1023    0.0000 O   0  0  0  0  0  0  0  0  0  0  0  0
   -5.2800    0.1787    0.0000 O   0  0  0  0  0  0  0  0  0  0  0  0
  2  1  1  1
  2  3  1  0
  3  4  1  0
  4  5  1  0
  5  6  2  0
  6  7  1  0
  7  8  2  0
  8  9  1  0
  8 10  1  0
 10 11  2  0
 10 12  1  0
  2 13  1  0
 13 14  2  0
 13 15  1  0
  9  4  2  0
M  END
>  <rName>  (2938) 
Phe_3CONH2

>  <PQ_SYMBOL>  (2938) 
Phe_3CONH2

>  <FULL_NAME>  (2938) 
L-3-Carbamoylphenylalanine

>  <IUPAC_CONDENSED>  (2938) 
Phe(3-CONH2)

>  <IUPAC>  (2938) 
(2S)-2-amino-3-(3-carbamoylphenyl)propanoic acid

>  <TYPE>  (2938) 
Backbone

>  <CLASS>  (2938) 
alpha

>  <ANALOG>  (2938) 
Phe

>  <MOL_WT>  (2938) 
208.21699999999996

>  <LOGP>  (2938) 
-0.2601000000000003

>  <TPSA>  (2938) 
106.41000000000001

>  <POPULARITY>  (2938) 
5.0

>  <PROTECTED>  (2938) 
TRUE

>  <SMILES>  (2938) 
N[C@@H](Cc1(cccc(c1)C(=O)N))C(=O)O

>  <INCHIKEY>  (2938) 
NUHHYFSZGZXEGU-QMMMGPOBSA-N

$$$$
Phe_3CONHMe
     RDKit          2D

 16 16  0  0  0  0  0  0  0  0999 V2000
   -3.1324    1.4901    0.0000 N   0  0  0  0  0  0  0  0  0  0  0  0
   -3.0132   -0.0051    0.0000 C   0  0  0  0  0  0  0  0  0  0  0  0
   -1.6586   -0.6495    0.0000 C   0  0  0  0  0  0  0  0  0  0  0  0
   -0.4233    0.2014    0.0000 C   0  0  0  0  0  0  0  0  0  0  0  0
   -0.5425    1.6966    0.0000 C   0  0  0  0  0  0  0  0  0  0  0  0
    0.6928    2.5475    0.0000 C   0  0  0  0  0  0  0  0  0  0  0  0
    2.0473    1.9031    0.0000 C   0  0  0  0  0  0  0  0  0  0  0  0
    2.1666    0.4079    0.0000 C   0  0  0  0  0  0  0  0  0  0  0  0
    0.9312   -0.4430    0.0000 C   0  0  0  0  0  0  0  0  0  0  0  0
    3.5211   -0.2365    0.0000 C   0  0  0  0  0  0  0  0  0  0  0  0
    4.7564    0.6144    0.0000 O   0  0  0  0  0  0  0  0  0  0  0  0
    3.6403   -1.7318    0.0000 N   0  0  0  0  0  0  0  0  0  0  0  0
    4.9949   -2.3761    0.0000 C   0  0  0  0  0  0  0  0  0  0  0  0
   -4.2485   -0.8560    0.0000 C   0  0  0  0  0  0  0  0  0  0  0  0
   -4.1292   -2.3513    0.0000 O   0  0  0  0  0  0  0  0  0  0  0  0
   -5.6030   -0.2116    0.0000 O   0  0  0  0  0  0  0  0  0  0  0  0
  2  1  1  1
  2  3  1  0
  3  4  1  0
  4  5  1  0
  5  6  2  0
  6  7  1  0
  7  8  2  0
  8  9  1  0
  8 10  1  0
 10 11  2  0
 10 12  1  0
 12 13  1  0
  2 14  1  0
 14 15  2  0
 14 16  1  0
  9  4  2  0
M  END
>  <rName>  (2939) 
Phe_3CONHMe

>  <PQ_SYMBOL>  (2939) 
Phe_3CONHMe

>  <FULL_NAME>  (2939) 
(S)-2-amino-3-(3-(methylcarbamoyl)phenyl)propanoic acid

>  <IUPAC_CONDENSED>  (2939) 
Phe(3-CONHMe)

>  <IUPAC>  (2939) 
(2S)-2-amino-3-(3-(methylcarbamoyl)phenyl)propanoic acid

>  <TYPE>  (2939) 
Backbone

>  <CLASS>  (2939) 
alpha

>  <ANALOG>  (2939) 
Phe

>  <MOL_WT>  (2939) 
222.24399999999997

>  <LOGP>  (2939) 
0.0005999999999998784

>  <TPSA>  (2939) 
92.42

>  <POPULARITY>  (2939) 
4.6

>  <PROTECTED>  (2939) 
TRUE

>  <SMILES>  (2939) 
N[C@@H](Cc1(cccc(c1)C(=O)NC))C(=O)O

>  <INCHIKEY>  (2939) 
MOUPFWHCJUMJAN-VIFPVBQESA-N

$$$$
Phe_3Cl
     RDKit          2D

 13 13  0  0  0  0  0  0  0  0999 V2000
   -1.7680    1.6690    0.0000 N   0  0  0  0  0  0  0  0  0  0  0  0
   -1.9932    0.1860    0.0000 C   0  0  0  0  0  0  0  0  0  0  0  0
   -0.8215   -0.7506    0.0000 C   0  0  0  0  0  0  0  0  0  0  0  0
    0.5754   -0.2041    0.0000 C   0  0  0  0  0  0  0  0  0  0  0  0
    0.8006    1.2789    0.0000 C   0  0  0  0  0  0  0  0  0  0  0  0
    2.1976    1.8254    0.0000 C   0  0  0  0  0  0  0  0  0  0  0  0
    3.3693    0.8888    0.0000 C   0  0  0  0  0  0  0  0  0  0  0  0
    3.1441   -0.5942    0.0000 C   0  0  0  0  0  0  0  0  0  0  0  0
    4.3158   -1.5307    0.0000 Cl  0  0  0  0  0  0  0  0  0  0  0  0
    1.7472   -1.1406    0.0000 C   0  0  0  0  0  0  0  0  0  0  0  0
   -3.3901   -0.3605    0.0000 C   0  0  0  0  0  0  0  0  0  0  0  0
   -3.6153   -1.8435    0.0000 O   0  0  0  0  0  0  0  0  0  0  0  0
   -4.5618    0.5760    0.0000 O   0  0  0  0  0  0  0  0  0  0  0  0
  2  1  1  1
  2  3  1  0
  3  4  1  0
  4  5  2  0
  5  6  1  0
  6  7  2  0
  7  8  1  0
  8  9  1  0
  8 10  2  0
  2 11  1  0
 11 12  2  0
 11 13  1  0
 10  4  1  0
M  END
>  <rName>  (2940) 
Phe_3Cl

>  <PQ_SYMBOL>  (2940) 
Phe_3Cl

>  <FULL_NAME>  (2940) 
3-Chloro-L-Phenylalanine

>  <IUPAC_CONDENSED>  (2940) 
Phe(3-Cl)

>  <IUPAC>  (2940) 
(2S)-2-amino-3-(3-chlorophenyl)propanoic acid

>  <TYPE>  (2940) 
Backbone

>  <CLASS>  (2940) 
alpha

>  <ANALOG>  (2940) 
Phe

>  <MOL_WT>  (2940) 
199.63699999999997

>  <LOGP>  (2940) 
1.2944000000000002

>  <TPSA>  (2940) 
63.32000000000001

>  <POPULARITY>  (2940) 
22.6

>  <PROTECTED>  (2940) 
TRUE

>  <SMILES>  (2940) 
N[C@@H](Cc1(cccc(Cl)c1))C(=O)O

>  <INCHIKEY>  (2940) 
JJDJLFDGCUYZMN-QMMMGPOBSA-N

$$$$
Phe_3Cl_4Br
     RDKit          2D

 14 14  0  0  0  0  0  0  0  0999 V2000
   -2.0094    1.6916    0.0000 N   0  0  0  0  0  0  0  0  0  0  0  0
   -2.3243    0.2250    0.0000 C   0  0  0  0  0  0  0  0  0  0  0  0
   -1.2116   -0.7809    0.0000 C   0  0  0  0  0  0  0  0  0  0  0  0
    0.2159   -0.3203    0.0000 C   0  0  0  0  0  0  0  0  0  0  0  0
    0.5308    1.1463    0.0000 C   0  0  0  0  0  0  0  0  0  0  0  0
    1.9583    1.6069    0.0000 C   0  0  0  0  0  0  0  0  0  0  0  0
    3.0710    0.6009    0.0000 C   0  0  0  0  0  0  0  0  0  0  0  0
    4.4985    1.0615    0.0000 Br  0  0  0  0  0  0  0  0  0  0  0  0
    2.7561   -0.8657    0.0000 C   0  0  0  0  0  0  0  0  0  0  0  0
    3.8688   -1.8716    0.0000 Cl  0  0  0  0  0  0  0  0  0  0  0  0
    1.3286   -1.3263    0.0000 C   0  0  0  0  0  0  0  0  0  0  0  0
   -3.7518   -0.2356    0.0000 C   0  0  0  0  0  0  0  0  0  0  0  0
   -4.0666   -1.7022    0.0000 O   0  0  0  0  0  0  0  0  0  0  0  0
   -4.8644    0.7704    0.0000 O   0  0  0  0  0  0  0  0  0  0  0  0
  2  1  1  1
  2  3  1  0
  3  4  1  0
  4  5  1  0
  5  6  2  0
  6  7  1  0
  7  8  1  0
  7  9  2  0
  9 10  1  0
  9 11  1  0
  2 12  1  0
 12 13  2  0
 12 14  1  0
 11  4  2  0
M  END
>  <rName>  (2941) 
Phe_3Cl_4Br

>  <PQ_SYMBOL>  (2941) 
Phe_3Cl_4Br

>  <FULL_NAME>  (2941) 
4-Bromo-3-chloro-L-phenylalanine

>  <IUPAC_CONDENSED>  (2941) 
Phe(3-Cl,4-Br)

>  <IUPAC>  (2941) 
(2S)-2-amino-3-(4-bromo-3-chlorophenyl)propanoic acid

>  <TYPE>  (2941) 
Backbone

>  <CLASS>  (2941) 
alpha

>  <ANALOG>  (2941) 
Phe

>  <MOL_WT>  (2941) 
278.53299999999996

>  <LOGP>  (2941) 
2.0568999999999997

>  <TPSA>  (2941) 
63.32000000000001

>  <POPULARITY>  (2941) 
2.2

>  <PROTECTED>  (2941) 
TRUE

>  <SMILES>  (2941) 
N[C@@H](Cc1(ccc(Br)c(Cl)c1))C(=O)O

>  <INCHIKEY>  (2941) 
UVYYZJNXPYEHML-QMMMGPOBSA-N

$$$$
Phe_3Cl_4CO2H
     RDKit          2D

 16 16  0  0  0  0  0  0  0  0999 V2000
   -2.5421    1.7204    0.0000 N   0  0  0  0  0  0  0  0  0  0  0  0
   -2.9632    0.2807    0.0000 C   0  0  0  0  0  0  0  0  0  0  0  0
   -1.9270   -0.8038    0.0000 C   0  0  0  0  0  0  0  0  0  0  0  0
   -0.4696   -0.4487    0.0000 C   0  0  0  0  0  0  0  0  0  0  0  0
   -0.0485    0.9910    0.0000 C   0  0  0  0  0  0  0  0  0  0  0  0
    1.4089    1.3461    0.0000 C   0  0  0  0  0  0  0  0  0  0  0  0
    2.4451    0.2616    0.0000 C   0  0  0  0  0  0  0  0  0  0  0  0
    3.9024    0.6167    0.0000 C   0  0  0  0  0  0  0  0  0  0  0  0
    4.3236    2.0564    0.0000 O   0  0  0  0  0  0  0  0  0  0  0  0
    4.9387   -0.4678    0.0000 O   0  0  0  0  0  0  0  0  0  0  0  0
    2.0240   -1.1781    0.0000 C   0  0  0  0  0  0  0  0  0  0  0  0
    3.0602   -2.2626    0.0000 Cl  0  0  0  0  0  0  0  0  0  0  0  0
    0.5666   -1.5332    0.0000 C   0  0  0  0  0  0  0  0  0  0  0  0
   -4.4206   -0.0744    0.0000 C   0  0  0  0  0  0  0  0  0  0  0  0
   -4.8417   -1.5141    0.0000 O   0  0  0  0  0  0  0  0  0  0  0  0
   -5.4568    1.0101    0.0000 O   0  0  0  0  0  0  0  0  0  0  0  0
  2  1  1  1
  2  3  1  0
  3  4  1  0
  4  5  1  0
  5  6  2  0
  6  7  1  0
  7  8  1  0
  8  9  2  0
  8 10  1  0
  7 11  2  0
 11 12  1  0
 11 13  1  0
  2 14  1  0
 14 15  2  0
 14 16  1  0
 13  4  2  0
M  END
>  <rName>  (2942) 
Phe_3Cl_4CO2H

>  <PQ_SYMBOL>  (2942) 
Phe_3Cl_4CO2H

>  <FULL_NAME>  (2942) 
(S)-4-(2-amino-2-carboxyethyl)-2-chlorobenzoic acid

>  <IUPAC_CONDENSED>  (2942) 
Phe(3-Cl,4-CO2H)

>  <IUPAC>  (2942) 
4-((2S)-2-amino-3-hydroxy-3-oxopropyl)-2-chlorobenzene-1-carboxylic acid

>  <TYPE>  (2942) 
Backbone

>  <CLASS>  (2942) 
alpha

>  <ANALOG>  (2942) 
Phe

>  <MOL_WT>  (2942) 
243.646

>  <LOGP>  (2942) 
0.9926000000000001

>  <TPSA>  (2942) 
100.62000000000002

>  <POPULARITY>  (2942) 
2.6

>  <PROTECTED>  (2942) 
TRUE

>  <SMILES>  (2942) 
N[C@@H](Cc1(ccc(C(=O)O)c(Cl)c1))C(=O)O

>  <INCHIKEY>  (2942) 
KRIXMTLJHPVGIF-QMMMGPOBSA-N

$$$$
Phe_3Cl_4F
     RDKit          2D

 14 14  0  0  0  0  0  0  0  0999 V2000
   -2.0094    1.6916    0.0000 N   0  0  0  0  0  0  0  0  0  0  0  0
   -2.3243    0.2250    0.0000 C   0  0  0  0  0  0  0  0  0  0  0  0
   -1.2116   -0.7809    0.0000 C   0  0  0  0  0  0  0  0  0  0  0  0
    0.2159   -0.3203    0.0000 C   0  0  0  0  0  0  0  0  0  0  0  0
    0.5308    1.1463    0.0000 C   0  0  0  0  0  0  0  0  0  0  0  0
    1.9583    1.6069    0.0000 C   0  0  0  0  0  0  0  0  0  0  0  0
    3.0710    0.6009    0.0000 C   0  0  0  0  0  0  0  0  0  0  0  0
    4.4985    1.0615    0.0000 F   0  0  0  0  0  0  0  0  0  0  0  0
    2.7561   -0.8657    0.0000 C   0  0  0  0  0  0  0  0  0  0  0  0
    3.8688   -1.8716    0.0000 Cl  0  0  0  0  0  0  0  0  0  0  0  0
    1.3286   -1.3263    0.0000 C   0  0  0  0  0  0  0  0  0  0  0  0
   -3.7518   -0.2356    0.0000 C   0  0  0  0  0  0  0  0  0  0  0  0
   -4.0666   -1.7022    0.0000 O   0  0  0  0  0  0  0  0  0  0  0  0
   -4.8644    0.7704    0.0000 O   0  0  0  0  0  0  0  0  0  0  0  0
  2  1  1  1
  2  3  1  0
  3  4  1  0
  4  5  1  0
  5  6  2  0
  6  7  1  0
  7  8  1  0
  7  9  2  0
  9 10  1  0
  9 11  1  0
  2 12  1  0
 12 13  2  0
 12 14  1  0
 11  4  2  0
M  END
>  <rName>  (2943) 
Phe_3Cl_4F

>  <PQ_SYMBOL>  (2943) 
Phe_3Cl_4F

>  <FULL_NAME>  (2943) 
3-Chloro-4-fluoro-L-phenylalanine

>  <IUPAC_CONDENSED>  (2943) 
Phe(3-Cl,4-F)

>  <IUPAC>  (2943) 
(2S)-2-amino-3-(3-chloro-4-fluorophenyl)propanoic acid

>  <TYPE>  (2943) 
Backbone

>  <CLASS>  (2943) 
alpha

>  <ANALOG>  (2943) 
Phe

>  <MOL_WT>  (2943) 
217.62699999999998

>  <LOGP>  (2943) 
1.4335000000000002

>  <TPSA>  (2943) 
63.32000000000001

>  <POPULARITY>  (2943) 
2.2

>  <PROTECTED>  (2943) 
TRUE

>  <SMILES>  (2943) 
N[C@@H](Cc1(ccc(F)c(Cl)c1))C(=O)O

>  <INCHIKEY>  (2943) 
ANSQVYFGAKUAFD-QMMMGPOBSA-N

$$$$
Phe_3Cl_4F_5CF3
     RDKit          2D

 18 18  0  0  0  0  0  0  0  0999 V2000
   -3.0593    1.5122    0.0000 N   0  0  0  0  0  0  0  0  0  0  0  0
   -3.1852    0.0175    0.0000 C   0  0  0  0  0  0  0  0  0  0  0  0
   -1.9537   -0.8389    0.0000 C   0  0  0  0  0  0  0  0  0  0  0  0
   -0.5963   -0.2006    0.0000 C   0  0  0  0  0  0  0  0  0  0  0  0
   -0.4704    1.2941    0.0000 C   0  0  0  0  0  0  0  0  0  0  0  0
    0.8871    1.9323    0.0000 C   0  0  0  0  0  0  0  0  0  0  0  0
    1.0130    3.4271    0.0000 Cl  0  0  0  0  0  0  0  0  0  0  0  0
    2.1185    1.0759    0.0000 C   0  0  0  0  0  0  0  0  0  0  0  0
    3.4760    1.7142    0.0000 F   0  0  0  0  0  0  0  0  0  0  0  0
    1.9926   -0.4188    0.0000 C   0  0  0  0  0  0  0  0  0  0  0  0
    0.6352   -1.0571    0.0000 C   0  0  0  0  0  0  0  0  0  0  0  0
    3.2241   -1.2752    0.0000 C   0  0  0  0  0  0  0  0  0  0  0  0
    4.4556   -2.1316    0.0000 F   0  0  0  0  0  0  0  0  0  0  0  0
    2.3677   -2.5067    0.0000 F   0  0  0  0  0  0  0  0  0  0  0  0
    4.0805   -0.0437    0.0000 F   0  0  0  0  0  0  0  0  0  0  0  0
   -4.5426   -0.6208    0.0000 C   0  0  0  0  0  0  0  0  0  0  0  0
   -4.6686   -2.1155    0.0000 O   0  0  0  0  0  0  0  0  0  0  0  0
   -5.7741    0.2356    0.0000 O   0  0  0  0  0  0  0  0  0  0  0  0
  2  1  1  1
  2  3  1  0
  3  4  1  0
  4  5  2  0
  5  6  1  0
  6  7  1  0
  6  8  2  0
  8  9  1  0
  8 10  1  0
 10 11  2  0
 10 12  1  0
 12 13  1  0
 12 14  1  0
 12 15  1  0
  2 16  1  0
 16 17  2  0
 16 18  1  0
 11  4  1  0
M  END
>  <rName>  (2944) 
Phe_3Cl_4F_5CF3

>  <PQ_SYMBOL>  (2944) 
Phe_3Cl_4F_5CF3

>  <FULL_NAME>  (2944) 
(S)-2-amino-3-(3-chloro-4-fluoro-5-(trifluoromethyl)phenyl)propanoic acid

>  <IUPAC_CONDENSED>  (2944) 
Phe(3-Cl,4-F,5-CF3)

>  <IUPAC>  (2944) 
(2S)-2-amino-3-(3-chloro-4-fluoro-5-(trifluoromethyl)phenyl)propanoic acid

>  <TYPE>  (2944) 
Backbone

>  <CLASS>  (2944) 
alpha

>  <ANALOG>  (2944) 
Phe

>  <MOL_WT>  (2944) 
285.62399999999997

>  <LOGP>  (2944) 
2.4523

>  <TPSA>  (2944) 
63.32000000000001

>  <POPULARITY>  (2944) 
2.4

>  <PROTECTED>  (2944) 
TRUE

>  <SMILES>  (2944) 
N[C@@H](Cc1(cc(Cl)c(F)c(c1)C(F)(F)F))C(=O)O

>  <INCHIKEY>  (2944) 
CANIYZBQTQSMEZ-ZETCQYMHSA-N

$$$$
Phe_3Cl_4Me
     RDKit          2D

 14 14  0  0  0  0  0  0  0  0999 V2000
   -2.0094    1.6916    0.0000 N   0  0  0  0  0  0  0  0  0  0  0  0
   -2.3243    0.2250    0.0000 C   0  0  0  0  0  0  0  0  0  0  0  0
   -1.2116   -0.7809    0.0000 C   0  0  0  0  0  0  0  0  0  0  0  0
    0.2159   -0.3203    0.0000 C   0  0  0  0  0  0  0  0  0  0  0  0
    0.5308    1.1463    0.0000 C   0  0  0  0  0  0  0  0  0  0  0  0
    1.9583    1.6069    0.0000 C   0  0  0  0  0  0  0  0  0  0  0  0
    3.0710    0.6009    0.0000 C   0  0  0  0  0  0  0  0  0  0  0  0
    4.4985    1.0615    0.0000 C   0  0  0  0  0  0  0  0  0  0  0  0
    2.7561   -0.8657    0.0000 C   0  0  0  0  0  0  0  0  0  0  0  0
    3.8688   -1.8716    0.0000 Cl  0  0  0  0  0  0  0  0  0  0  0  0
    1.3286   -1.3263    0.0000 C   0  0  0  0  0  0  0  0  0  0  0  0
   -3.7518   -0.2356    0.0000 C   0  0  0  0  0  0  0  0  0  0  0  0
   -4.0666   -1.7022    0.0000 O   0  0  0  0  0  0  0  0  0  0  0  0
   -4.8644    0.7704    0.0000 O   0  0  0  0  0  0  0  0  0  0  0  0
  2  1  1  1
  2  3  1  0
  3  4  1  0
  4  5  1  0
  5  6  2  0
  6  7  1  0
  7  8  1  0
  7  9  2  0
  9 10  1  0
  9 11  1  0
  2 12  1  0
 12 13  2  0
 12 14  1  0
 11  4  2  0
M  END
>  <rName>  (2945) 
Phe_3Cl_4Me

>  <PQ_SYMBOL>  (2945) 
Phe_3Cl_4Me

>  <FULL_NAME>  (2945) 
(S)-2-amino-3-(3-chloro-4-methylphenyl)propanoic acid

>  <IUPAC_CONDENSED>  (2945) 
Phe(3-Cl,4-Me)

>  <IUPAC>  (2945) 
(2S)-2-amino-3-(3-chloro-4-methylphenyl)propanoic acid

>  <TYPE>  (2945) 
Backbone

>  <CLASS>  (2945) 
alpha

>  <ANALOG>  (2945) 
Phe

>  <MOL_WT>  (2945) 
213.664

>  <LOGP>  (2945) 
1.6028200000000001

>  <TPSA>  (2945) 
63.32000000000001

>  <POPULARITY>  (2945) 
5.5

>  <PROTECTED>  (2945) 
TRUE

>  <SMILES>  (2945) 
N[C@@H](Cc1(ccc(C)c(Cl)c1))C(=O)O

>  <INCHIKEY>  (2945) 
AMMKDLMOXARMLH-VIFPVBQESA-N

$$$$
Phe_3Cl_4NH2
     RDKit          2D

 14 14  0  0  0  0  0  0  0  0999 V2000
   -2.0094    1.6916    0.0000 N   0  0  0  0  0  0  0  0  0  0  0  0
   -2.3243    0.2250    0.0000 C   0  0  0  0  0  0  0  0  0  0  0  0
   -1.2116   -0.7809    0.0000 C   0  0  0  0  0  0  0  0  0  0  0  0
    0.2159   -0.3203    0.0000 C   0  0  0  0  0  0  0  0  0  0  0  0
    0.5308    1.1463    0.0000 C   0  0  0  0  0  0  0  0  0  0  0  0
    1.9583    1.6069    0.0000 C   0  0  0  0  0  0  0  0  0  0  0  0
    3.0710    0.6009    0.0000 C   0  0  0  0  0  0  0  0  0  0  0  0
    4.4985    1.0615    0.0000 N   0  0  0  0  0  0  0  0  0  0  0  0
    2.7561   -0.8657    0.0000 C   0  0  0  0  0  0  0  0  0  0  0  0
    3.8688   -1.8716    0.0000 Cl  0  0  0  0  0  0  0  0  0  0  0  0
    1.3286   -1.3263    0.0000 C   0  0  0  0  0  0  0  0  0  0  0  0
   -3.7518   -0.2356    0.0000 C   0  0  0  0  0  0  0  0  0  0  0  0
   -4.0666   -1.7022    0.0000 O   0  0  0  0  0  0  0  0  0  0  0  0
   -4.8644    0.7704    0.0000 O   0  0  0  0  0  0  0  0  0  0  0  0
  2  1  1  1
  2  3  1  0
  3  4  1  0
  4  5  1  0
  5  6  2  0
  6  7  1  0
  7  8  1  0
  7  9  2  0
  9 10  1  0
  9 11  1  0
  2 12  1  0
 12 13  2  0
 12 14  1  0
 11  4  2  0
M  END
>  <rName>  (2946) 
Phe_3Cl_4NH2

>  <PQ_SYMBOL>  (2946) 
Phe_3Cl_4NH2

>  <FULL_NAME>  (2946) 
(S)-2-amino-3-(4-amino-3-chlorophenyl)propanoic acid

>  <IUPAC_CONDENSED>  (2946) 
Phe(3-Cl,4-NH2)

>  <IUPAC>  (2946) 
(2S)-2-amino-3-(4-amino-3-chlorophenyl)propanoic acid

>  <TYPE>  (2946) 
Backbone

>  <CLASS>  (2946) 
alpha

>  <ANALOG>  (2946) 
Phe

>  <MOL_WT>  (2946) 
214.652

>  <LOGP>  (2946) 
0.8766000000000003

>  <TPSA>  (2946) 
89.34

>  <POPULARITY>  (2946) 
4.2

>  <PROTECTED>  (2946) 
TRUE

>  <SMILES>  (2946) 
N[C@@H](Cc1(ccc(N)c(Cl)c1))C(=O)O

>  <INCHIKEY>  (2946) 
DUTUMPPEESUPFC-QMMMGPOBSA-N

$$$$
Phe_3Cl_4OMe
     RDKit          2D

 15 15  0  0  0  0  0  0  0  0999 V2000
   -2.3798    1.6931    0.0000 N   0  0  0  0  0  0  0  0  0  0  0  0
   -2.6978    0.2272    0.0000 C   0  0  0  0  0  0  0  0  0  0  0  0
   -1.5874   -0.7812    0.0000 C   0  0  0  0  0  0  0  0  0  0  0  0
   -0.1588   -0.3237    0.0000 C   0  0  0  0  0  0  0  0  0  0  0  0
    0.1592    1.1422    0.0000 C   0  0  0  0  0  0  0  0  0  0  0  0
    1.5877    1.5997    0.0000 C   0  0  0  0  0  0  0  0  0  0  0  0
    2.6982    0.5914    0.0000 C   0  0  0  0  0  0  0  0  0  0  0  0
    4.1267    1.0489    0.0000 O   0  0  0  0  0  0  0  0  0  0  0  0
    5.2372    0.0405    0.0000 C   0  0  0  0  0  0  0  0  0  0  0  0
    2.3802   -0.8745    0.0000 C   0  0  0  0  0  0  0  0  0  0  0  0
    3.4906   -1.8829    0.0000 Cl  0  0  0  0  0  0  0  0  0  0  0  0
    0.9516   -1.3321    0.0000 C   0  0  0  0  0  0  0  0  0  0  0  0
   -4.1264   -0.2303    0.0000 C   0  0  0  0  0  0  0  0  0  0  0  0
   -4.4444   -1.6962    0.0000 O   0  0  0  0  0  0  0  0  0  0  0  0
   -5.2369    0.7780    0.0000 O   0  0  0  0  0  0  0  0  0  0  0  0
  2  1  1  1
  2  3  1  0
  3  4  1  0
  4  5  1  0
  5  6  2  0
  6  7  1  0
  7  8  1  0
  8  9  1  0
  7 10  2  0
 10 11  1  0
 10 12  1  0
  2 13  1  0
 13 14  2  0
 13 15  1  0
 12  4  2  0
M  END
>  <rName>  (2947) 
Phe_3Cl_4OMe

>  <PQ_SYMBOL>  (2947) 
Phe_3Cl_4OMe

>  <FULL_NAME>  (2947) 
(S)-2-amino-3-(3-chloro-4-methoxyphenyl)propanoic acid

>  <IUPAC_CONDENSED>  (2947) 
Phe(3-Cl,4-OMe)

>  <IUPAC>  (2947) 
(2S)-2-amino-3-(3-chloro-4-methoxyphenyl)propanoic acid

>  <TYPE>  (2947) 
Backbone

>  <CLASS>  (2947) 
alpha

>  <ANALOG>  (2947) 
Tyr

>  <MOL_WT>  (2947) 
229.66299999999998

>  <LOGP>  (2947) 
1.303

>  <TPSA>  (2947) 
72.55

>  <POPULARITY>  (2947) 
7.6

>  <PROTECTED>  (2947) 
TRUE

>  <SMILES>  (2947) 
N[C@@H](Cc1(ccc(OC)c(Cl)c1))C(=O)O

>  <INCHIKEY>  (2947) 
FVFCTFGTAWTEIF-QMMMGPOBSA-N

$$$$
Phe_3Cl_5CF3
     RDKit          2D

 17 17  0  0  0  0  0  0  0  0999 V2000
   -2.9339    1.4642    0.0000 N   0  0  0  0  0  0  0  0  0  0  0  0
   -2.9829   -0.0350    0.0000 C   0  0  0  0  0  0  0  0  0  0  0  0
   -1.7090   -0.8270    0.0000 C   0  0  0  0  0  0  0  0  0  0  0  0
   -0.3862   -0.1198    0.0000 C   0  0  0  0  0  0  0  0  0  0  0  0
   -0.3372    1.3794    0.0000 C   0  0  0  0  0  0  0  0  0  0  0  0
    0.9856    2.0866    0.0000 C   0  0  0  0  0  0  0  0  0  0  0  0
    1.0346    3.5858    0.0000 Cl  0  0  0  0  0  0  0  0  0  0  0  0
    2.2595    1.2946    0.0000 C   0  0  0  0  0  0  0  0  0  0  0  0
    2.2105   -0.2046    0.0000 C   0  0  0  0  0  0  0  0  0  0  0  0
    0.8877   -0.9118    0.0000 C   0  0  0  0  0  0  0  0  0  0  0  0
    3.4844   -0.9966    0.0000 C   0  0  0  0  0  0  0  0  0  0  0  0
    4.7582   -1.7886    0.0000 F   0  0  0  0  0  0  0  0  0  0  0  0
    2.6924   -2.2705    0.0000 F   0  0  0  0  0  0  0  0  0  0  0  0
    4.2764    0.2772    0.0000 F   0  0  0  0  0  0  0  0  0  0  0  0
   -4.3057   -0.7422    0.0000 C   0  0  0  0  0  0  0  0  0  0  0  0
   -4.3547   -2.2414    0.0000 O   0  0  0  0  0  0  0  0  0  0  0  0
   -5.5796    0.0498    0.0000 O   0  0  0  0  0  0  0  0  0  0  0  0
  2  1  1  1
  2  3  1  0
  3  4  1  0
  4  5  1  0
  5  6  2  0
  6  7  1  0
  6  8  1  0
  8  9  2  0
  9 10  1  0
  9 11  1  0
 11 12  1  0
 11 13  1  0
 11 14  1  0
  2 15  1  0
 15 16  2  0
 15 17  1  0
 10  4  2  0
M  END
>  <rName>  (2948) 
Phe_3Cl_5CF3

>  <PQ_SYMBOL>  (2948) 
Phe_3Cl_5CF3

>  <FULL_NAME>  (2948) 
(2S)-2-Amino-3-[3-chloro-5-(trifluoromethyl)phenyl]propanoic acid

>  <IUPAC_CONDENSED>  (2948) 
Phe(3-Cl,5-CF3)

>  <IUPAC>  (2948) 
(2S)-2-amino-3-[3-chloro-5-(trifluoromethyl)phenyl]propanoic acid

>  <TYPE>  (2948) 
Backbone

>  <CLASS>  (2948) 
alpha

>  <ANALOG>  (2948) 
Phe

>  <MOL_WT>  (2948) 
267.63399999999996

>  <LOGP>  (2948) 
2.3132

>  <TPSA>  (2948) 
63.32000000000001

>  <POPULARITY>  (2948) 
2.2

>  <PROTECTED>  (2948) 
TRUE

>  <SMILES>  (2948) 
N[C@@H](Cc1(cc(Cl)cc(c1)C(F)(F)F))C(=O)O

>  <INCHIKEY>  (2948) 
OEDKFVILMRZCHJ-QMMMGPOBSA-N

$$$$
Phe_3Cl_5CN
     RDKit          2D

 15 15  0  0  0  0  0  0  0  0999 V2000
   -2.3873    1.4733    0.0000 N   0  0  0  0  0  0  0  0  0  0  0  0
   -2.5238   -0.0205    0.0000 C   0  0  0  0  0  0  0  0  0  0  0  0
   -1.2984   -0.8855    0.0000 C   0  0  0  0  0  0  0  0  0  0  0  0
    0.0635   -0.2568    0.0000 C   0  0  0  0  0  0  0  0  0  0  0  0
    0.2000    1.2369    0.0000 C   0  0  0  0  0  0  0  0  0  0  0  0
    1.5619    1.8656    0.0000 C   0  0  0  0  0  0  0  0  0  0  0  0
    1.6983    3.3594    0.0000 Cl  0  0  0  0  0  0  0  0  0  0  0  0
    2.7873    1.0006    0.0000 C   0  0  0  0  0  0  0  0  0  0  0  0
    2.6508   -0.4932    0.0000 C   0  0  0  0  0  0  0  0  0  0  0  0
    3.8762   -1.3583    0.0000 C   0  0  0  0  0  0  0  0  0  0  0  0
    5.1016   -2.2234    0.0000 N   0  0  0  0  0  0  0  0  0  0  0  0
    1.2889   -1.1219    0.0000 C   0  0  0  0  0  0  0  0  0  0  0  0
   -3.8857   -0.6492    0.0000 C   0  0  0  0  0  0  0  0  0  0  0  0
   -4.0222   -2.1429    0.0000 O   0  0  0  0  0  0  0  0  0  0  0  0
   -5.1111    0.2159    0.0000 O   0  0  0  0  0  0  0  0  0  0  0  0
  2  1  1  1
  2  3  1  0
  3  4  1  0
  4  5  2  0
  5  6  1  0
  6  7  1  0
  6  8  2  0
  8  9  1  0
  9 10  1  0
 10 11  3  0
  9 12  2  0
  2 13  1  0
 13 14  2  0
 13 15  1  0
 12  4  1  0
M  END
>  <rName>  (2949) 
Phe_3Cl_5CN

>  <PQ_SYMBOL>  (2949) 
Phe_3Cl_5CN

>  <FULL_NAME>  (2949) 
(S)-2-amino-3-(3-chloro-5-cyanophenyl)propanoic acid

>  <IUPAC_CONDENSED>  (2949) 
Phe(3-Cl,5-CN)

>  <IUPAC>  (2949) 
(2S)-2-amino-3-(3-chloro-5-(nitrilomethyl)phenyl)propanoic acid

>  <TYPE>  (2949) 
Backbone

>  <CLASS>  (2949) 
alpha

>  <ANALOG>  (2949) 
Phe

>  <MOL_WT>  (2949) 
224.647

>  <LOGP>  (2949) 
1.16608

>  <TPSA>  (2949) 
87.11

>  <POPULARITY>  (2949) 
2.2

>  <PROTECTED>  (2949) 
TRUE

>  <SMILES>  (2949) 
N[C@@H](Cc1(cc(Cl)cc(C#N)c1))C(=O)O

>  <INCHIKEY>  (2949) 
OLWLLUIKXILTAR-VIFPVBQESA-N

$$$$
Phe_3Cl_5CO2H
     RDKit          2D

 16 16  0  0  0  0  0  0  0  0999 V2000
   -2.6682    1.4912    0.0000 N   0  0  0  0  0  0  0  0  0  0  0  0
   -2.7668   -0.0056    0.0000 C   0  0  0  0  0  0  0  0  0  0  0  0
   -1.5199   -0.8394    0.0000 C   0  0  0  0  0  0  0  0  0  0  0  0
   -0.1744   -0.1764    0.0000 C   0  0  0  0  0  0  0  0  0  0  0  0
   -0.0757    1.3203    0.0000 C   0  0  0  0  0  0  0  0  0  0  0  0
    1.2698    1.9833    0.0000 C   0  0  0  0  0  0  0  0  0  0  0  0
    1.3685    3.4800    0.0000 Cl  0  0  0  0  0  0  0  0  0  0  0  0
    2.5167    1.1495    0.0000 C   0  0  0  0  0  0  0  0  0  0  0  0
    2.4181   -0.3473    0.0000 C   0  0  0  0  0  0  0  0  0  0  0  0
    1.0725   -1.0102    0.0000 C   0  0  0  0  0  0  0  0  0  0  0  0
    3.6650   -1.1811    0.0000 C   0  0  0  0  0  0  0  0  0  0  0  0
    5.0105   -0.5181    0.0000 O   0  0  0  0  0  0  0  0  0  0  0  0
    3.5664   -2.6778    0.0000 O   0  0  0  0  0  0  0  0  0  0  0  0
   -4.1124   -0.6685    0.0000 C   0  0  0  0  0  0  0  0  0  0  0  0
   -4.2110   -2.1653    0.0000 O   0  0  0  0  0  0  0  0  0  0  0  0
   -5.3593    0.1653    0.0000 O   0  0  0  0  0  0  0  0  0  0  0  0
  2  1  1  1
  2  3  1  0
  3  4  1  0
  4  5  1  0
  5  6  2  0
  6  7  1  0
  6  8  1  0
  8  9  2  0
  9 10  1  0
  9 11  1  0
 11 12  2  0
 11 13  1  0
  2 14  1  0
 14 15  2  0
 14 16  1  0
 10  4  2  0
M  END
>  <rName>  (2950) 
Phe_3Cl_5CO2H

>  <PQ_SYMBOL>  (2950) 
Phe_3Cl_5CO2H

>  <FULL_NAME>  (2950) 
(S)-3-(2-amino-2-carboxyethyl)-5-chlorobenzoic acid

>  <IUPAC_CONDENSED>  (2950) 
Phe(3-Cl,5-CO2H)

>  <IUPAC>  (2950) 
3-((2S)-2-amino-3-hydroxy-3-oxopropyl)-5-chlorobenzene-1-carboxylic acid

>  <TYPE>  (2950) 
Backbone

>  <CLASS>  (2950) 
alpha

>  <ANALOG>  (2950) 
Phe

>  <MOL_WT>  (2950) 
243.646

>  <LOGP>  (2950) 
0.9926000000000001

>  <TPSA>  (2950) 
100.62000000000002

>  <POPULARITY>  (2950) 
2.7

>  <PROTECTED>  (2950) 
TRUE

>  <SMILES>  (2950) 
N[C@@H](Cc1(cc(Cl)cc(c1)C(=O)O))C(=O)O

>  <INCHIKEY>  (2950) 
IAJWCTSYVHNICS-QMMMGPOBSA-N

$$$$
Phe_3Et
     RDKit          2D

 14 14  0  0  0  0  0  0  0  0999 V2000
   -2.2742    1.6194    0.0000 N   0  0  0  0  0  0  0  0  0  0  0  0
   -2.3172    0.1200    0.0000 C   0  0  0  0  0  0  0  0  0  0  0  0
   -1.0402   -0.6669    0.0000 C   0  0  0  0  0  0  0  0  0  0  0  0
    0.2798    0.0456    0.0000 C   0  0  0  0  0  0  0  0  0  0  0  0
    0.3228    1.5450    0.0000 C   0  0  0  0  0  0  0  0  0  0  0  0
    1.6428    2.2574    0.0000 C   0  0  0  0  0  0  0  0  0  0  0  0
    2.9198    1.4705    0.0000 C   0  0  0  0  0  0  0  0  0  0  0  0
    2.8768   -0.0289    0.0000 C   0  0  0  0  0  0  0  0  0  0  0  0
    1.5568   -0.7414    0.0000 C   0  0  0  0  0  0  0  0  0  0  0  0
    4.1538   -0.8158    0.0000 C   0  0  0  0  0  0  0  0  0  0  0  0
    4.1108   -2.3152    0.0000 C   0  0  0  0  0  0  0  0  0  0  0  0
   -3.6372   -0.5924    0.0000 C   0  0  0  0  0  0  0  0  0  0  0  0
   -3.6802   -2.0918    0.0000 O   0  0  0  0  0  0  0  0  0  0  0  0
   -4.9142    0.1945    0.0000 O   0  0  0  0  0  0  0  0  0  0  0  0
  2  1  1  1
  2  3  1  0
  3  4  1  0
  4  5  2  0
  5  6  1  0
  6  7  2  0
  7  8  1  0
  8  9  2  0
  8 10  1  0
 10 11  1  0
  2 12  1  0
 12 13  2  0
 12 14  1  0
  9  4  1  0
M  END
>  <rName>  (2951) 
Phe_3Et

>  <PQ_SYMBOL>  (2951) 
Phe_3Et

>  <FULL_NAME>  (2951) 
3-Ethyl-L-Phenylalanine

>  <IUPAC_CONDENSED>  (2951) 
Phe(3-Et)

>  <IUPAC>  (2951) 
(2S)-2-amino-3-(3-ethylphenyl)propanoic acid

>  <TYPE>  (2951) 
Backbone

>  <CLASS>  (2951) 
alpha

>  <ANALOG>  (2951) 
Phe

>  <MOL_WT>  (2951) 
193.24599999999995

>  <LOGP>  (2951) 
1.2034000000000002

>  <TPSA>  (2951) 
63.32000000000001

>  <POPULARITY>  (2951) 
8.6

>  <PROTECTED>  (2951) 
TRUE

>  <SMILES>  (2951) 
N[C@@H](Cc1(cccc(c1)CC))C(=O)O

>  <INCHIKEY>  (2951) 
VBHQPSVGLVGLLD-JTQLQIEISA-N

$$$$
Phe_3EtO2H
     RDKit          2D

 16 16  0  0  0  0  0  0  0  0999 V2000
   -3.1121    1.4434    0.0000 N   0  0  0  0  0  0  0  0  0  0  0  0
   -2.8725   -0.0373    0.0000 C   0  0  0  0  0  0  0  0  0  0  0  0
   -1.4704   -0.5702    0.0000 C   0  0  0  0  0  0  0  0  0  0  0  0
   -0.3078    0.3776    0.0000 C   0  0  0  0  0  0  0  0  0  0  0  0
   -0.5473    1.8583    0.0000 C   0  0  0  0  0  0  0  0  0  0  0  0
    0.6153    2.8061    0.0000 C   0  0  0  0  0  0  0  0  0  0  0  0
    2.0174    2.2732    0.0000 C   0  0  0  0  0  0  0  0  0  0  0  0
    2.2569    0.7924    0.0000 C   0  0  0  0  0  0  0  0  0  0  0  0
    1.0943   -0.1554    0.0000 C   0  0  0  0  0  0  0  0  0  0  0  0
    3.6591    0.2595    0.0000 C   0  0  0  0  0  0  0  0  0  0  0  0
    3.8986   -1.2212    0.0000 C   0  0  0  0  0  0  0  0  0  0  0  0
    2.7360   -2.1691    0.0000 O   0  0  0  0  0  0  0  0  0  0  0  0
    5.3007   -1.7542    0.0000 O   0  0  0  0  0  0  0  0  0  0  0  0
   -4.0352   -0.9851    0.0000 C   0  0  0  0  0  0  0  0  0  0  0  0
   -3.7956   -2.4659    0.0000 O   0  0  0  0  0  0  0  0  0  0  0  0
   -5.4373   -0.4522    0.0000 O   0  0  0  0  0  0  0  0  0  0  0  0
  2  1  1  1
  2  3  1  0
  3  4  1  0
  4  5  2  0
  5  6  1  0
  6  7  2  0
  7  8  1  0
  8  9  2  0
  8 10  1  0
 10 11  1  0
 11 12  2  0
 11 13  1  0
  2 14  1  0
 14 15  2  0
 14 16  1  0
  9  4  1  0
M  END
>  <rName>  (2952) 
Phe_3EtO2H

>  <PQ_SYMBOL>  (2952) 
Phe_3EtO2H

>  <FULL_NAME>  (2952) 
(S)-2-amino-3-(3-(carboxymethyl)phenyl)propanoic acid

>  <IUPAC_CONDENSED>  (2952) 
Phe(3-EtO2H)

>  <IUPAC>  (2952) 
(2S)-2-amino-3-(3-(2-hydroxy-2-oxoethyl)phenyl)propanoic acid

>  <TYPE>  (2952) 
Backbone

>  <CLASS>  (2952) 
alpha

>  <ANALOG>  (2952) 
Phe

>  <MOL_WT>  (2952) 
223.22799999999995

>  <LOGP>  (2952) 
0.26809999999999967

>  <TPSA>  (2952) 
100.62000000000002

>  <POPULARITY>  (2952) 
3.7

>  <PROTECTED>  (2952) 
TRUE

>  <SMILES>  (2952) 
N[C@@H](Cc1(cccc(c1)CC(=O)O))C(=O)O

>  <INCHIKEY>  (2952) 
VZHJWCSHMMYFJH-VIFPVBQESA-N

$$$$
Phe_3F
     RDKit          2D

 13 13  0  0  0  0  0  0  0  0999 V2000
   -1.7680    1.6690    0.0000 N   0  0  0  0  0  0  0  0  0  0  0  0
   -1.9932    0.1860    0.0000 C   0  0  0  0  0  0  0  0  0  0  0  0
   -0.8215   -0.7506    0.0000 C   0  0  0  0  0  0  0  0  0  0  0  0
    0.5754   -0.2041    0.0000 C   0  0  0  0  0  0  0  0  0  0  0  0
    0.8006    1.2789    0.0000 C   0  0  0  0  0  0  0  0  0  0  0  0
    2.1976    1.8254    0.0000 C   0  0  0  0  0  0  0  0  0  0  0  0
    3.3693    0.8888    0.0000 C   0  0  0  0  0  0  0  0  0  0  0  0
    3.1441   -0.5942    0.0000 C   0  0  0  0  0  0  0  0  0  0  0  0
    4.3158   -1.5307    0.0000 F   0  0  0  0  0  0  0  0  0  0  0  0
    1.7472   -1.1406    0.0000 C   0  0  0  0  0  0  0  0  0  0  0  0
   -3.3901   -0.3605    0.0000 C   0  0  0  0  0  0  0  0  0  0  0  0
   -3.6153   -1.8435    0.0000 O   0  0  0  0  0  0  0  0  0  0  0  0
   -4.5618    0.5760    0.0000 O   0  0  0  0  0  0  0  0  0  0  0  0
  2  1  1  1
  2  3  1  0
  3  4  1  0
  4  5  2  0
  5  6  1  0
  6  7  2  0
  7  8  1  0
  8  9  1  0
  8 10  2  0
  2 11  1  0
 11 12  2  0
 11 13  1  0
 10  4  1  0
M  END
>  <rName>  (2953) 
Phe_3F

>  <PQ_SYMBOL>  (2953) 
Phe_3F

>  <FULL_NAME>  (2953) 
3-fluoro-L-phenylalanine

>  <IUPAC_CONDENSED>  (2953) 
Phe(3-F)

>  <IUPAC>  (2953) 
(2S)-2-amino-3-(3-fluorophenyl)propanoic acid

>  <TYPE>  (2953) 
Backbone

>  <CLASS>  (2953) 
alpha

>  <ANALOG>  (2953) 
Phe

>  <MOL_WT>  (2953) 
183.182

>  <LOGP>  (2953) 
0.7801000000000002

>  <TPSA>  (2953) 
63.32000000000001

>  <POPULARITY>  (2953) 
20.5

>  <PROTECTED>  (2953) 
TRUE

>  <SMILES>  (2953) 
N[C@@H](Cc1(cccc(F)c1))C(=O)O

>  <INCHIKEY>  (2953) 
VWHRYODZTDMVSS-QMMMGPOBSA-N

$$$$
Phe_3F_4Br
     RDKit          2D

 14 14  0  0  0  0  0  0  0  0999 V2000
   -2.0094    1.6916    0.0000 N   0  0  0  0  0  0  0  0  0  0  0  0
   -2.3243    0.2250    0.0000 C   0  0  0  0  0  0  0  0  0  0  0  0
   -1.2116   -0.7809    0.0000 C   0  0  0  0  0  0  0  0  0  0  0  0
    0.2159   -0.3203    0.0000 C   0  0  0  0  0  0  0  0  0  0  0  0
    0.5308    1.1463    0.0000 C   0  0  0  0  0  0  0  0  0  0  0  0
    1.9583    1.6069    0.0000 C   0  0  0  0  0  0  0  0  0  0  0  0
    3.0710    0.6009    0.0000 C   0  0  0  0  0  0  0  0  0  0  0  0
    4.4985    1.0615    0.0000 Br  0  0  0  0  0  0  0  0  0  0  0  0
    2.7561   -0.8657    0.0000 C   0  0  0  0  0  0  0  0  0  0  0  0
    3.8688   -1.8716    0.0000 F   0  0  0  0  0  0  0  0  0  0  0  0
    1.3286   -1.3263    0.0000 C   0  0  0  0  0  0  0  0  0  0  0  0
   -3.7518   -0.2356    0.0000 C   0  0  0  0  0  0  0  0  0  0  0  0
   -4.0666   -1.7022    0.0000 O   0  0  0  0  0  0  0  0  0  0  0  0
   -4.8644    0.7704    0.0000 O   0  0  0  0  0  0  0  0  0  0  0  0
  2  1  1  1
  2  3  1  0
  3  4  1  0
  4  5  1  0
  5  6  2  0
  6  7  1  0
  7  8  1  0
  7  9  2  0
  9 10  1  0
  9 11  1  0
  2 12  1  0
 12 13  2  0
 12 14  1  0
 11  4  2  0
M  END
>  <rName>  (2954) 
Phe_3F_4Br

>  <PQ_SYMBOL>  (2954) 
Phe_3F_4Br

>  <FULL_NAME>  (2954) 
4-Bromo-3-fluoro-L-phenylalanine

>  <IUPAC_CONDENSED>  (2954) 
Phe(3-F,4-Br)

>  <IUPAC>  (2954) 
(2S)-2-amino-3-(4-bromo-3-fluorophenyl)propanoic acid

>  <TYPE>  (2954) 
Backbone

>  <CLASS>  (2954) 
alpha

>  <ANALOG>  (2954) 
Phe

>  <MOL_WT>  (2954) 
262.0779999999999

>  <LOGP>  (2954) 
1.5426000000000002

>  <TPSA>  (2954) 
63.32000000000001

>  <POPULARITY>  (2954) 
2.2

>  <PROTECTED>  (2954) 
TRUE

>  <SMILES>  (2954) 
N[C@@H](Cc1(ccc(Br)c(F)c1))C(=O)O

>  <INCHIKEY>  (2954) 
KNQZVZHVJCIMTL-QMMMGPOBSA-N

$$$$
Phe_3F_4CN
     RDKit          2D

 15 15  0  0  0  0  0  0  0  0999 V2000
   -2.3016    1.7358    0.0000 N   0  0  0  0  0  0  0  0  0  0  0  0
   -2.7065    0.2914    0.0000 C   0  0  0  0  0  0  0  0  0  0  0  0
   -1.6581   -0.7814    0.0000 C   0  0  0  0  0  0  0  0  0  0  0  0
   -0.2049   -0.4099    0.0000 C   0  0  0  0  0  0  0  0  0  0  0  0
    0.2001    1.0344    0.0000 C   0  0  0  0  0  0  0  0  0  0  0  0
    1.6533    1.4059    0.0000 C   0  0  0  0  0  0  0  0  0  0  0  0
    2.7017    0.3330    0.0000 C   0  0  0  0  0  0  0  0  0  0  0  0
    4.1550    0.7045    0.0000 C   0  0  0  0  0  0  0  0  0  0  0  0
    5.6082    1.0760    0.0000 N   0  0  0  0  0  0  0  0  0  0  0  0
    2.2968   -1.1113    0.0000 C   0  0  0  0  0  0  0  0  0  0  0  0
    3.3451   -2.1841    0.0000 F   0  0  0  0  0  0  0  0  0  0  0  0
    0.8435   -1.4827    0.0000 C   0  0  0  0  0  0  0  0  0  0  0  0
   -4.1598   -0.0800    0.0000 C   0  0  0  0  0  0  0  0  0  0  0  0
   -4.5647   -1.5243    0.0000 O   0  0  0  0  0  0  0  0  0  0  0  0
   -5.2081    0.9928    0.0000 O   0  0  0  0  0  0  0  0  0  0  0  0
  2  1  1  1
  2  3  1  0
  3  4  1  0
  4  5  1  0
  5  6  2  0
  6  7  1  0
  7  8  1  0
  8  9  3  0
  7 10  2  0
 10 11  1  0
 10 12  1  0
  2 13  1  0
 13 14  2  0
 13 15  1  0
 12  4  2  0
M  END
>  <rName>  (2955) 
Phe_3F_4CN

>  <PQ_SYMBOL>  (2955) 
Phe_3F_4CN

>  <FULL_NAME>  (2955) 
(S)-2-amino-3-(4-cyano-3-fluorophenyl)propanoic acid

>  <IUPAC_CONDENSED>  (2955) 
Phe(3-F,4-CN)

>  <IUPAC>  (2955) 
(2S)-2-amino-3-(3-fluoro-4-(nitrilomethyl)phenyl)propanoic acid

>  <TYPE>  (2955) 
Backbone

>  <CLASS>  (2955) 
alpha

>  <ANALOG>  (2955) 
Phe

>  <MOL_WT>  (2955) 
208.19199999999998

>  <LOGP>  (2955) 
0.6517800000000002

>  <TPSA>  (2955) 
87.11

>  <POPULARITY>  (2955) 
2.8

>  <PROTECTED>  (2955) 
TRUE

>  <SMILES>  (2955) 
N[C@@H](Cc1(ccc(C#N)c(F)c1))C(=O)O

>  <INCHIKEY>  (2955) 
FJKFNTQADLDHBJ-VIFPVBQESA-N

$$$$
Phe_3F_4CO2H
     RDKit          2D

 16 16  0  0  0  0  0  0  0  0999 V2000
   -2.5421    1.7204    0.0000 N   0  0  0  0  0  0  0  0  0  0  0  0
   -2.9632    0.2807    0.0000 C   0  0  0  0  0  0  0  0  0  0  0  0
   -1.9270   -0.8038    0.0000 C   0  0  0  0  0  0  0  0  0  0  0  0
   -0.4696   -0.4487    0.0000 C   0  0  0  0  0  0  0  0  0  0  0  0
   -0.0485    0.9910    0.0000 C   0  0  0  0  0  0  0  0  0  0  0  0
    1.4089    1.3461    0.0000 C   0  0  0  0  0  0  0  0  0  0  0  0
    2.4451    0.2616    0.0000 C   0  0  0  0  0  0  0  0  0  0  0  0
    3.9024    0.6167    0.0000 C   0  0  0  0  0  0  0  0  0  0  0  0
    4.3236    2.0564    0.0000 O   0  0  0  0  0  0  0  0  0  0  0  0
    4.9387   -0.4678    0.0000 O   0  0  0  0  0  0  0  0  0  0  0  0
    2.0240   -1.1781    0.0000 C   0  0  0  0  0  0  0  0  0  0  0  0
    3.0602   -2.2626    0.0000 F   0  0  0  0  0  0  0  0  0  0  0  0
    0.5666   -1.5332    0.0000 C   0  0  0  0  0  0  0  0  0  0  0  0
   -4.4206   -0.0744    0.0000 C   0  0  0  0  0  0  0  0  0  0  0  0
   -4.8417   -1.5141    0.0000 O   0  0  0  0  0  0  0  0  0  0  0  0
   -5.4568    1.0101    0.0000 O   0  0  0  0  0  0  0  0  0  0  0  0
  2  1  1  1
  2  3  1  0
  3  4  1  0
  4  5  1  0
  5  6  2  0
  6  7  1  0
  7  8  1  0
  8  9  2  0
  8 10  1  0
  7 11  2  0
 11 12  1  0
 11 13  1  0
  2 14  1  0
 14 15  2  0
 14 16  1  0
 13  4  2  0
M  END
>  <rName>  (2956) 
Phe_3F_4CO2H

>  <PQ_SYMBOL>  (2956) 
Phe_3F_4CO2H

>  <FULL_NAME>  (2956) 
(S)-4-(2-amino-2-carboxyethyl)-2-fluorobenzoic acid

>  <IUPAC_CONDENSED>  (2956) 
Phe(3-F,4-CO2H)

>  <IUPAC>  (2956) 
4-((2S)-2-amino-3-hydroxy-3-oxopropyl)-2-fluorobenzene-1-carboxylic acid

>  <TYPE>  (2956) 
Backbone

>  <CLASS>  (2956) 
alpha

>  <ANALOG>  (2956) 
Phe

>  <MOL_WT>  (2956) 
227.19099999999997

>  <LOGP>  (2956) 
0.47829999999999984

>  <TPSA>  (2956) 
100.62000000000002

>  <POPULARITY>  (2956) 
2.8

>  <PROTECTED>  (2956) 
TRUE

>  <SMILES>  (2956) 
N[C@@H](Cc1(ccc(C(=O)O)c(F)c1))C(=O)O

>  <INCHIKEY>  (2956) 
GLJLKFKHXNHONO-QMMMGPOBSA-N

$$$$
Phe_3F_4Cl
     RDKit          2D

 14 14  0  0  0  0  0  0  0  0999 V2000
   -2.0094    1.6916    0.0000 N   0  0  0  0  0  0  0  0  0  0  0  0
   -2.3243    0.2250    0.0000 C   0  0  0  0  0  0  0  0  0  0  0  0
   -1.2116   -0.7809    0.0000 C   0  0  0  0  0  0  0  0  0  0  0  0
    0.2159   -0.3203    0.0000 C   0  0  0  0  0  0  0  0  0  0  0  0
    0.5308    1.1463    0.0000 C   0  0  0  0  0  0  0  0  0  0  0  0
    1.9583    1.6069    0.0000 C   0  0  0  0  0  0  0  0  0  0  0  0
    3.0710    0.6009    0.0000 C   0  0  0  0  0  0  0  0  0  0  0  0
    4.4985    1.0615    0.0000 Cl  0  0  0  0  0  0  0  0  0  0  0  0
    2.7561   -0.8657    0.0000 C   0  0  0  0  0  0  0  0  0  0  0  0
    3.8688   -1.8716    0.0000 F   0  0  0  0  0  0  0  0  0  0  0  0
    1.3286   -1.3263    0.0000 C   0  0  0  0  0  0  0  0  0  0  0  0
   -3.7518   -0.2356    0.0000 C   0  0  0  0  0  0  0  0  0  0  0  0
   -4.0666   -1.7022    0.0000 O   0  0  0  0  0  0  0  0  0  0  0  0
   -4.8644    0.7704    0.0000 O   0  0  0  0  0  0  0  0  0  0  0  0
  2  1  1  1
  2  3  1  0
  3  4  1  0
  4  5  1  0
  5  6  2  0
  6  7  1  0
  7  8  1  0
  7  9  2  0
  9 10  1  0
  9 11  1  0
  2 12  1  0
 12 13  2  0
 12 14  1  0
 11  4  2  0
M  END
>  <rName>  (2957) 
Phe_3F_4Cl

>  <PQ_SYMBOL>  (2957) 
Phe_3F_4Cl

>  <FULL_NAME>  (2957) 
(2S)-2-amino-3-(4-chloro-3-fluorophenyl)propanoic acid

>  <IUPAC_CONDENSED>  (2957) 
Phe(3-F,4-Cl)

>  <IUPAC>  (2957) 
(2S)-2-amino-3-(4-chloro-3-fluorophenyl)propanoic acid

>  <TYPE>  (2957) 
Backbone

>  <CLASS>  (2957) 
alpha

>  <ANALOG>  (2957) 
Phe

>  <MOL_WT>  (2957) 
217.62699999999998

>  <LOGP>  (2957) 
1.4335000000000002

>  <TPSA>  (2957) 
63.32000000000001

>  <POPULARITY>  (2957) 
5.4

>  <PROTECTED>  (2957) 
TRUE

>  <SMILES>  (2957) 
N[C@@H](Cc1(ccc(Cl)c(F)c1))C(=O)O

>  <INCHIKEY>  (2957) 
GARTVDUTCAAMSC-QMMMGPOBSA-N

$$$$
Phe_3F_4Me
     RDKit          2D

 14 14  0  0  0  0  0  0  0  0999 V2000
   -2.0094    1.6916    0.0000 N   0  0  0  0  0  0  0  0  0  0  0  0
   -2.3243    0.2250    0.0000 C   0  0  0  0  0  0  0  0  0  0  0  0
   -1.2116   -0.7809    0.0000 C   0  0  0  0  0  0  0  0  0  0  0  0
    0.2159   -0.3203    0.0000 C   0  0  0  0  0  0  0  0  0  0  0  0
    0.5308    1.1463    0.0000 C   0  0  0  0  0  0  0  0  0  0  0  0
    1.9583    1.6069    0.0000 C   0  0  0  0  0  0  0  0  0  0  0  0
    3.0710    0.6009    0.0000 C   0  0  0  0  0  0  0  0  0  0  0  0
    4.4985    1.0615    0.0000 C   0  0  0  0  0  0  0  0  0  0  0  0
    2.7561   -0.8657    0.0000 C   0  0  0  0  0  0  0  0  0  0  0  0
    3.8688   -1.8716    0.0000 F   0  0  0  0  0  0  0  0  0  0  0  0
    1.3286   -1.3263    0.0000 C   0  0  0  0  0  0  0  0  0  0  0  0
   -3.7518   -0.2356    0.0000 C   0  0  0  0  0  0  0  0  0  0  0  0
   -4.0666   -1.7022    0.0000 O   0  0  0  0  0  0  0  0  0  0  0  0
   -4.8644    0.7704    0.0000 O   0  0  0  0  0  0  0  0  0  0  0  0
  2  1  1  1
  2  3  1  0
  3  4  1  0
  4  5  1  0
  5  6  2  0
  6  7  1  0
  7  8  1  0
  7  9  2  0
  9 10  1  0
  9 11  1  0
  2 12  1  0
 12 13  2  0
 12 14  1  0
 11  4  2  0
M  END
>  <rName>  (2958) 
Phe_3F_4Me

>  <PQ_SYMBOL>  (2958) 
Phe_3F_4Me

>  <FULL_NAME>  (2958) 
(S)-2-amino-3-(3-fluoro-4-methylphenyl)propanoic acid

>  <IUPAC_CONDENSED>  (2958) 
Phe(3-F,4-Me)

>  <IUPAC>  (2958) 
(2S)-2-amino-3-(3-fluoro-4-methylphenyl)propanoic acid

>  <TYPE>  (2958) 
Backbone

>  <CLASS>  (2958) 
alpha

>  <ANALOG>  (2958) 
Phe

>  <MOL_WT>  (2958) 
197.20899999999997

>  <LOGP>  (2958) 
1.0885200000000002

>  <TPSA>  (2958) 
63.32000000000001

>  <POPULARITY>  (2958) 
5.9

>  <PROTECTED>  (2958) 
TRUE

>  <SMILES>  (2958) 
N[C@@H](Cc1(ccc(C)c(F)c1))C(=O)O

>  <INCHIKEY>  (2958) 
MUTNDIMQYVVGMX-VIFPVBQESA-N

$$$$
Phe_3F_4MeOH
     RDKit          2D

 15 15  0  0  0  0  0  0  0  0999 V2000
   -2.3798    1.6931    0.0000 N   0  0  0  0  0  0  0  0  0  0  0  0
   -2.6978    0.2272    0.0000 C   0  0  0  0  0  0  0  0  0  0  0  0
   -1.5874   -0.7812    0.0000 C   0  0  0  0  0  0  0  0  0  0  0  0
   -0.1588   -0.3237    0.0000 C   0  0  0  0  0  0  0  0  0  0  0  0
    0.1592    1.1422    0.0000 C   0  0  0  0  0  0  0  0  0  0  0  0
    1.5877    1.5997    0.0000 C   0  0  0  0  0  0  0  0  0  0  0  0
    2.6982    0.5914    0.0000 C   0  0  0  0  0  0  0  0  0  0  0  0
    4.1267    1.0489    0.0000 C   0  0  0  0  0  0  0  0  0  0  0  0
    5.2372    0.0405    0.0000 O   0  0  0  0  0  0  0  0  0  0  0  0
    2.3802   -0.8745    0.0000 C   0  0  0  0  0  0  0  0  0  0  0  0
    3.4906   -1.8829    0.0000 F   0  0  0  0  0  0  0  0  0  0  0  0
    0.9516   -1.3321    0.0000 C   0  0  0  0  0  0  0  0  0  0  0  0
   -4.1264   -0.2303    0.0000 C   0  0  0  0  0  0  0  0  0  0  0  0
   -4.4444   -1.6962    0.0000 O   0  0  0  0  0  0  0  0  0  0  0  0
   -5.2369    0.7780    0.0000 O   0  0  0  0  0  0  0  0  0  0  0  0
  2  1  1  1
  2  3  1  0
  3  4  1  0
  4  5  1  0
  5  6  2  0
  6  7  1  0
  7  8  1  0
  8  9  1  0
  7 10  2  0
 10 11  1  0
 10 12  1  0
  2 13  1  0
 13 14  2  0
 13 15  1  0
 12  4  2  0
M  END
>  <rName>  (2959) 
Phe_3F_4MeOH

>  <PQ_SYMBOL>  (2959) 
Phe_3F_4MeOH

>  <FULL_NAME>  (2959) 
(S)-2-amino-3-(3-fluoro-4-(hydroxymethyl)phenyl)propanoic acid

>  <IUPAC_CONDENSED>  (2959) 
Phe(3-F,4-MeOH)

>  <IUPAC>  (2959) 
(2S)-2-amino-3-(3-fluoro-4-(hydroxymethyl)phenyl)propanoic acid

>  <TYPE>  (2959) 
Backbone

>  <CLASS>  (2959) 
alpha

>  <ANALOG>  (2959) 
Phe

>  <MOL_WT>  (2959) 
213.20799999999997

>  <LOGP>  (2959) 
0.27239999999999975

>  <TPSA>  (2959) 
83.55

>  <POPULARITY>  (2959) 
2.8

>  <PROTECTED>  (2959) 
TRUE

>  <SMILES>  (2959) 
N[C@@H](Cc1(ccc(CO)c(F)c1))C(=O)O

>  <INCHIKEY>  (2959) 
AWXWQDZKYLHZKQ-VIFPVBQESA-N

$$$$
Phe_3F_4NH2
     RDKit          2D

 14 14  0  0  0  0  0  0  0  0999 V2000
   -2.0094    1.6916    0.0000 N   0  0  0  0  0  0  0  0  0  0  0  0
   -2.3243    0.2250    0.0000 C   0  0  0  0  0  0  0  0  0  0  0  0
   -1.2116   -0.7809    0.0000 C   0  0  0  0  0  0  0  0  0  0  0  0
    0.2159   -0.3203    0.0000 C   0  0  0  0  0  0  0  0  0  0  0  0
    0.5308    1.1463    0.0000 C   0  0  0  0  0  0  0  0  0  0  0  0
    1.9583    1.6069    0.0000 C   0  0  0  0  0  0  0  0  0  0  0  0
    3.0710    0.6009    0.0000 C   0  0  0  0  0  0  0  0  0  0  0  0
    4.4985    1.0615    0.0000 N   0  0  0  0  0  0  0  0  0  0  0  0
    2.7561   -0.8657    0.0000 C   0  0  0  0  0  0  0  0  0  0  0  0
    3.8688   -1.8716    0.0000 F   0  0  0  0  0  0  0  0  0  0  0  0
    1.3286   -1.3263    0.0000 C   0  0  0  0  0  0  0  0  0  0  0  0
   -3.7518   -0.2356    0.0000 C   0  0  0  0  0  0  0  0  0  0  0  0
   -4.0666   -1.7022    0.0000 O   0  0  0  0  0  0  0  0  0  0  0  0
   -4.8644    0.7704    0.0000 O   0  0  0  0  0  0  0  0  0  0  0  0
  2  1  1  1
  2  3  1  0
  3  4  1  0
  4  5  1  0
  5  6  2  0
  6  7  1  0
  7  8  1  0
  7  9  2  0
  9 10  1  0
  9 11  1  0
  2 12  1  0
 12 13  2  0
 12 14  1  0
 11  4  2  0
M  END
>  <rName>  (2960) 
Phe_3F_4NH2

>  <PQ_SYMBOL>  (2960) 
Phe_3F_4NH2

>  <FULL_NAME>  (2960) 
(S)-2-amino-3-(4-amino-3-fluorophenyl)propanoic acid

>  <IUPAC_CONDENSED>  (2960) 
Phe(3-F,4-NH2)

>  <IUPAC>  (2960) 
(2S)-2-amino-3-(4-amino-3-fluorophenyl)propanoic acid

>  <TYPE>  (2960) 
Backbone

>  <CLASS>  (2960) 
alpha

>  <ANALOG>  (2960) 
Phe

>  <MOL_WT>  (2960) 
198.19699999999997

>  <LOGP>  (2960) 
0.3622999999999999

>  <TPSA>  (2960) 
89.34

>  <POPULARITY>  (2960) 
4.2

>  <PROTECTED>  (2960) 
TRUE

>  <SMILES>  (2960) 
N[C@@H](Cc1(ccc(N)c(F)c1))C(=O)O

>  <INCHIKEY>  (2960) 
UUDLEJZCHHMENY-QMMMGPOBSA-N

$$$$
Phe_3F_4OMe
     RDKit          2D

 15 15  0  0  0  0  0  0  0  0999 V2000
   -2.3798    1.6931    0.0000 N   0  0  0  0  0  0  0  0  0  0  0  0
   -2.6978    0.2272    0.0000 C   0  0  0  0  0  0  0  0  0  0  0  0
   -1.5874   -0.7812    0.0000 C   0  0  0  0  0  0  0  0  0  0  0  0
   -0.1588   -0.3237    0.0000 C   0  0  0  0  0  0  0  0  0  0  0  0
    0.1592    1.1422    0.0000 C   0  0  0  0  0  0  0  0  0  0  0  0
    1.5877    1.5997    0.0000 C   0  0  0  0  0  0  0  0  0  0  0  0
    2.6982    0.5914    0.0000 C   0  0  0  0  0  0  0  0  0  0  0  0
    4.1267    1.0489    0.0000 O   0  0  0  0  0  0  0  0  0  0  0  0
    5.2372    0.0405    0.0000 C   0  0  0  0  0  0  0  0  0  0  0  0
    2.3802   -0.8745    0.0000 C   0  0  0  0  0  0  0  0  0  0  0  0
    3.4906   -1.8829    0.0000 F   0  0  0  0  0  0  0  0  0  0  0  0
    0.9516   -1.3321    0.0000 C   0  0  0  0  0  0  0  0  0  0  0  0
   -4.1264   -0.2303    0.0000 C   0  0  0  0  0  0  0  0  0  0  0  0
   -4.4444   -1.6962    0.0000 O   0  0  0  0  0  0  0  0  0  0  0  0
   -5.2369    0.7780    0.0000 O   0  0  0  0  0  0  0  0  0  0  0  0
  2  1  1  1
  2  3  1  0
  3  4  1  0
  4  5  1  0
  5  6  2  0
  6  7  1  0
  7  8  1  0
  8  9  1  0
  7 10  2  0
 10 11  1  0
 10 12  1  0
  2 13  1  0
 13 14  2  0
 13 15  1  0
 12  4  2  0
M  END
>  <rName>  (2961) 
Phe_3F_4OMe

>  <PQ_SYMBOL>  (2961) 
Phe_3F_4OMe

>  <FULL_NAME>  (2961) 
(S)-2-amino-3-(3-fluoro-4-methoxyphenyl)propanoic acid

>  <IUPAC_CONDENSED>  (2961) 
Phe(3-F,4-OMe)

>  <IUPAC>  (2961) 
(2S)-2-amino-3-(3-fluoro-4-methoxyphenyl)propanoic acid

>  <TYPE>  (2961) 
Backbone

>  <CLASS>  (2961) 
alpha

>  <ANALOG>  (2961) 
Tyr

>  <MOL_WT>  (2961) 
213.20799999999997

>  <LOGP>  (2961) 
0.7887000000000002

>  <TPSA>  (2961) 
72.55

>  <POPULARITY>  (2961) 
5.5

>  <PROTECTED>  (2961) 
TRUE

>  <SMILES>  (2961) 
N[C@@H](Cc1(ccc(OC)c(F)c1))C(=O)O

>  <INCHIKEY>  (2961) 
ZESXBIYTDJAZSP-QMMMGPOBSA-N

$$$$
Phe_3F_5Br
     RDKit          2D

 14 14  0  0  0  0  0  0  0  0999 V2000
   -1.8014    1.6047    0.0000 N   0  0  0  0  0  0  0  0  0  0  0  0
   -2.1617    0.1486    0.0000 C   0  0  0  0  0  0  0  0  0  0  0  0
   -1.0809   -0.8915    0.0000 C   0  0  0  0  0  0  0  0  0  0  0  0
    0.3603   -0.4755    0.0000 C   0  0  0  0  0  0  0  0  0  0  0  0
    0.7206    0.9806    0.0000 C   0  0  0  0  0  0  0  0  0  0  0  0
    2.1617    1.3967    0.0000 C   0  0  0  0  0  0  0  0  0  0  0  0
    2.5220    2.8527    0.0000 F   0  0  0  0  0  0  0  0  0  0  0  0
    3.2426    0.3566    0.0000 C   0  0  0  0  0  0  0  0  0  0  0  0
    2.8823   -1.0995    0.0000 C   0  0  0  0  0  0  0  0  0  0  0  0
    3.9632   -2.1396    0.0000 Br  0  0  0  0  0  0  0  0  0  0  0  0
    1.4412   -1.5155    0.0000 C   0  0  0  0  0  0  0  0  0  0  0  0
   -3.6029   -0.2674    0.0000 C   0  0  0  0  0  0  0  0  0  0  0  0
   -3.9632   -1.7235    0.0000 O   0  0  0  0  0  0  0  0  0  0  0  0
   -4.6837    0.7726    0.0000 O   0  0  0  0  0  0  0  0  0  0  0  0
  2  1  1  1
  2  3  1  0
  3  4  1  0
  4  5  2  0
  5  6  1  0
  6  7  1  0
  6  8  2  0
  8  9  1  0
  9 10  1  0
  9 11  2  0
  2 12  1  0
 12 13  2  0
 12 14  1  0
 11  4  1  0
M  END
>  <rName>  (2962) 
Phe_3F_5Br

>  <PQ_SYMBOL>  (2962) 
Phe_3F_5Br

>  <FULL_NAME>  (2962) 
3-Bromo-5-fluoro-L-phenylalanine

>  <IUPAC_CONDENSED>  (2962) 
Phe(3-F,5-Br)

>  <IUPAC>  (2962) 
(2S)-2-amino-3-(3-bromo-5-fluorophenyl)propanoic acid

>  <TYPE>  (2962) 
Backbone

>  <CLASS>  (2962) 
alpha

>  <ANALOG>  (2962) 
Phe

>  <MOL_WT>  (2962) 
262.078

>  <LOGP>  (2962) 
1.5426000000000002

>  <TPSA>  (2962) 
63.32000000000001

>  <POPULARITY>  (2962) 
2.2

>  <PROTECTED>  (2962) 
TRUE

>  <SMILES>  (2962) 
N[C@@H](Cc1(cc(F)cc(Br)c1))C(=O)O

>  <INCHIKEY>  (2962) 
FUHSSCCQGTWFBQ-QMMMGPOBSA-N

$$$$
Phe_3F_5CO2H
     RDKit          2D

 16 16  0  0  0  0  0  0  0  0999 V2000
   -2.6682    1.4912    0.0000 N   0  0  0  0  0  0  0  0  0  0  0  0
   -2.7668   -0.0056    0.0000 C   0  0  0  0  0  0  0  0  0  0  0  0
   -1.5199   -0.8394    0.0000 C   0  0  0  0  0  0  0  0  0  0  0  0
   -0.1744   -0.1764    0.0000 C   0  0  0  0  0  0  0  0  0  0  0  0
   -0.0757    1.3203    0.0000 C   0  0  0  0  0  0  0  0  0  0  0  0
    1.2698    1.9833    0.0000 C   0  0  0  0  0  0  0  0  0  0  0  0
    1.3685    3.4800    0.0000 F   0  0  0  0  0  0  0  0  0  0  0  0
    2.5167    1.1495    0.0000 C   0  0  0  0  0  0  0  0  0  0  0  0
    2.4181   -0.3473    0.0000 C   0  0  0  0  0  0  0  0  0  0  0  0
    1.0725   -1.0102    0.0000 C   0  0  0  0  0  0  0  0  0  0  0  0
    3.6650   -1.1811    0.0000 C   0  0  0  0  0  0  0  0  0  0  0  0
    5.0105   -0.5181    0.0000 O   0  0  0  0  0  0  0  0  0  0  0  0
    3.5664   -2.6778    0.0000 O   0  0  0  0  0  0  0  0  0  0  0  0
   -4.1124   -0.6685    0.0000 C   0  0  0  0  0  0  0  0  0  0  0  0
   -4.2110   -2.1653    0.0000 O   0  0  0  0  0  0  0  0  0  0  0  0
   -5.3593    0.1653    0.0000 O   0  0  0  0  0  0  0  0  0  0  0  0
  2  1  1  1
  2  3  1  0
  3  4  1  0
  4  5  1  0
  5  6  2  0
  6  7  1  0
  6  8  1  0
  8  9  2  0
  9 10  1  0
  9 11  1  0
 11 12  2  0
 11 13  1  0
  2 14  1  0
 14 15  2  0
 14 16  1  0
 10  4  2  0
M  END
>  <rName>  (2963) 
Phe_3F_5CO2H

>  <PQ_SYMBOL>  (2963) 
Phe_3F_5CO2H

>  <FULL_NAME>  (2963) 
(S)-3-(2-amino-2-carboxyethyl)-5-fluorobenzoic acid

>  <IUPAC_CONDENSED>  (2963) 
Phe(3-F,5-CO2H)

>  <IUPAC>  (2963) 
3-((2S)-2-amino-3-hydroxy-3-oxopropyl)-5-fluorobenzene-1-carboxylic acid

>  <TYPE>  (2963) 
Backbone

>  <CLASS>  (2963) 
alpha

>  <ANALOG>  (2963) 
Phe

>  <MOL_WT>  (2963) 
227.19099999999997

>  <LOGP>  (2963) 
0.47829999999999984

>  <TPSA>  (2963) 
100.62000000000002

>  <POPULARITY>  (2963) 
2.7

>  <PROTECTED>  (2963) 
TRUE

>  <SMILES>  (2963) 
N[C@@H](Cc1(cc(F)cc(c1)C(=O)O))C(=O)O

>  <INCHIKEY>  (2963) 
RHWVTHNAUZJWKU-QMMMGPOBSA-N

$$$$
Phe_3F_5Cl
     RDKit          2D

 14 14  0  0  0  0  0  0  0  0999 V2000
   -1.8014    1.6047    0.0000 N   0  0  0  0  0  0  0  0  0  0  0  0
   -2.1617    0.1486    0.0000 C   0  0  0  0  0  0  0  0  0  0  0  0
   -1.0809   -0.8915    0.0000 C   0  0  0  0  0  0  0  0  0  0  0  0
    0.3603   -0.4755    0.0000 C   0  0  0  0  0  0  0  0  0  0  0  0
    0.7206    0.9806    0.0000 C   0  0  0  0  0  0  0  0  0  0  0  0
    2.1617    1.3967    0.0000 C   0  0  0  0  0  0  0  0  0  0  0  0
    2.5220    2.8527    0.0000 F   0  0  0  0  0  0  0  0  0  0  0  0
    3.2426    0.3566    0.0000 C   0  0  0  0  0  0  0  0  0  0  0  0
    2.8823   -1.0995    0.0000 C   0  0  0  0  0  0  0  0  0  0  0  0
    3.9632   -2.1396    0.0000 Cl  0  0  0  0  0  0  0  0  0  0  0  0
    1.4412   -1.5155    0.0000 C   0  0  0  0  0  0  0  0  0  0  0  0
   -3.6029   -0.2674    0.0000 C   0  0  0  0  0  0  0  0  0  0  0  0
   -3.9632   -1.7235    0.0000 O   0  0  0  0  0  0  0  0  0  0  0  0
   -4.6837    0.7726    0.0000 O   0  0  0  0  0  0  0  0  0  0  0  0
  2  1  1  1
  2  3  1  0
  3  4  1  0
  4  5  2  0
  5  6  1  0
  6  7  1  0
  6  8  2  0
  8  9  1  0
  9 10  1  0
  9 11  2  0
  2 12  1  0
 12 13  2  0
 12 14  1  0
 11  4  1  0
M  END
>  <rName>  (2964) 
Phe_3F_5Cl

>  <PQ_SYMBOL>  (2964) 
Phe_3F_5Cl

>  <FULL_NAME>  (2964) 
(2S)-2-amino-3-(3-chloro-5-fluorophenyl)propanoic acid

>  <IUPAC_CONDENSED>  (2964) 
Phe(3-F,5-Cl)

>  <IUPAC>  (2964) 
(2S)-2-amino-3-(3-chloro-5-fluorophenyl)propanoic acid

>  <TYPE>  (2964) 
Backbone

>  <CLASS>  (2964) 
alpha

>  <ANALOG>  (2964) 
Phe

>  <MOL_WT>  (2964) 
217.62699999999998

>  <LOGP>  (2964) 
1.4335000000000002

>  <TPSA>  (2964) 
63.32000000000001

>  <POPULARITY>  (2964) 
5.3

>  <PROTECTED>  (2964) 
TRUE

>  <SMILES>  (2964) 
N[C@@H](Cc1(cc(F)cc(Cl)c1))C(=O)O

>  <INCHIKEY>  (2964) 
DORXZOHSYXOQIU-QMMMGPOBSA-N

$$$$
Phe_3For
     RDKit          2D

 14 14  0  0  0  0  0  0  0  0999 V2000
   -2.2742    1.6194    0.0000 N   0  0  0  0  0  0  0  0  0  0  0  0
   -2.3172    0.1200    0.0000 C   0  0  0  0  0  0  0  0  0  0  0  0
   -1.0402   -0.6669    0.0000 C   0  0  0  0  0  0  0  0  0  0  0  0
    0.2798    0.0456    0.0000 C   0  0  0  0  0  0  0  0  0  0  0  0
    0.3228    1.5450    0.0000 C   0  0  0  0  0  0  0  0  0  0  0  0
    1.6428    2.2574    0.0000 C   0  0  0  0  0  0  0  0  0  0  0  0
    2.9198    1.4705    0.0000 C   0  0  0  0  0  0  0  0  0  0  0  0
    2.8768   -0.0289    0.0000 C   0  0  0  0  0  0  0  0  0  0  0  0
    4.1538   -0.8158    0.0000 C   0  0  0  0  0  0  0  0  0  0  0  0
    4.1108   -2.3152    0.0000 O   0  0  0  0  0  0  0  0  0  0  0  0
    1.5568   -0.7414    0.0000 C   0  0  0  0  0  0  0  0  0  0  0  0
   -3.6372   -0.5924    0.0000 C   0  0  0  0  0  0  0  0  0  0  0  0
   -3.6802   -2.0918    0.0000 O   0  0  0  0  0  0  0  0  0  0  0  0
   -4.9142    0.1945    0.0000 O   0  0  0  0  0  0  0  0  0  0  0  0
  2  1  1  1
  2  3  1  0
  3  4  1  0
  4  5  2  0
  5  6  1  0
  6  7  2  0
  7  8  1  0
  8  9  1  0
  9 10  2  0
  8 11  2  0
  2 12  1  0
 12 13  2  0
 12 14  1  0
 11  4  1  0
M  END
>  <rName>  (2965) 
Phe_3For

>  <PQ_SYMBOL>  (2965) 
Phe_3For

>  <FULL_NAME>  (2965) 
3-formyl-L-phenylalanine

>  <IUPAC_CONDENSED>  (2965) 
Phe(3-For)

>  <IUPAC>  (2965) 
(2S)-2-amino-3-(3-(formyl)phenyl)propanoic acid

>  <TYPE>  (2965) 
Backbone

>  <CLASS>  (2965) 
alpha

>  <ANALOG>  (2965) 
Phe

>  <MOL_WT>  (2965) 
193.20199999999997

>  <LOGP>  (2965) 
0.45349999999999996

>  <TPSA>  (2965) 
80.39

>  <POPULARITY>  (2965) 
6.5

>  <PROTECTED>  (2965) 
TRUE

>  <SMILES>  (2965) 
N[C@@H](Cc1(cccc(C=O)c1))C(=O)O

>  <INCHIKEY>  (2965) 
XJICKBXZKABJIO-VIFPVBQESA-N

$$$$
Phe_3For_4OMe
     RDKit          2D

 16 16  0  0  0  0  0  0  0  0999 V2000
   -2.5216    1.7578    0.0000 N   0  0  0  0  0  0  0  0  0  0  0  0
   -2.8455    0.2931    0.0000 C   0  0  0  0  0  0  0  0  0  0  0  0
   -1.7390   -0.7196    0.0000 C   0  0  0  0  0  0  0  0  0  0  0  0
   -0.3087   -0.2678    0.0000 C   0  0  0  0  0  0  0  0  0  0  0  0
    0.0152    1.1968    0.0000 C   0  0  0  0  0  0  0  0  0  0  0  0
    1.4455    1.6487    0.0000 C   0  0  0  0  0  0  0  0  0  0  0  0
    2.5520    0.6359    0.0000 C   0  0  0  0  0  0  0  0  0  0  0  0
    3.9823    1.0877    0.0000 O   0  0  0  0  0  0  0  0  0  0  0  0
    4.3062    2.5524    0.0000 C   0  0  0  0  0  0  0  0  0  0  0  0
    2.2281   -0.8287    0.0000 C   0  0  0  0  0  0  0  0  0  0  0  0
    3.3346   -1.8415    0.0000 C   0  0  0  0  0  0  0  0  0  0  0  0
    3.0107   -3.3061    0.0000 O   0  0  0  0  0  0  0  0  0  0  0  0
    0.7978   -1.2806    0.0000 C   0  0  0  0  0  0  0  0  0  0  0  0
   -4.2758   -0.1587    0.0000 C   0  0  0  0  0  0  0  0  0  0  0  0
   -4.5997   -1.6233    0.0000 O   0  0  0  0  0  0  0  0  0  0  0  0
   -5.3823    0.8541    0.0000 O   0  0  0  0  0  0  0  0  0  0  0  0
  2  1  1  1
  2  3  1  0
  3  4  1  0
  4  5  1  0
  5  6  2  0
  6  7  1  0
  7  8  1  0
  8  9  1  0
  7 10  2  0
 10 11  1  0
 11 12  2  0
 10 13  1  0
  2 14  1  0
 14 15  2  0
 14 16  1  0
 13  4  2  0
M  END
>  <rName>  (2966) 
Phe_3For_4OMe

>  <PQ_SYMBOL>  (2966) 
Phe_3For_4OMe

>  <FULL_NAME>  (2966) 
(S)-2-amino-3-(3-formyl-4-methoxyphenyl)propanoic acid

>  <IUPAC_CONDENSED>  (2966) 
Phe(3-For,4-OMe)

>  <IUPAC>  (2966) 
(2S)-2-amino-3-(3-(formyl)-4-methoxyphenyl)propanoic acid

>  <TYPE>  (2966) 
Backbone

>  <CLASS>  (2966) 
alpha

>  <ANALOG>  (2966) 
Tyr

>  <MOL_WT>  (2966) 
223.22799999999998

>  <LOGP>  (2966) 
0.4620999999999999

>  <TPSA>  (2966) 
89.62

>  <POPULARITY>  (2966) 
5.5

>  <PROTECTED>  (2966) 
TRUE

>  <SMILES>  (2966) 
N[C@@H](Cc1(ccc(OC)c(C=O)c1))C(=O)O

>  <INCHIKEY>  (2966) 
WEIAVLFHJDIOBA-VIFPVBQESA-N

$$$$
Phe_3I
     RDKit          2D

 13 13  0  0  0  0  0  0  0  0999 V2000
   -1.7680    1.6690    0.0000 N   0  0  0  0  0  0  0  0  0  0  0  0
   -1.9932    0.1860    0.0000 C   0  0  0  0  0  0  0  0  0  0  0  0
   -0.8215   -0.7506    0.0000 C   0  0  0  0  0  0  0  0  0  0  0  0
    0.5754   -0.2041    0.0000 C   0  0  0  0  0  0  0  0  0  0  0  0
    0.8006    1.2789    0.0000 C   0  0  0  0  0  0  0  0  0  0  0  0
    2.1976    1.8254    0.0000 C   0  0  0  0  0  0  0  0  0  0  0  0
    3.3693    0.8888    0.0000 C   0  0  0  0  0  0  0  0  0  0  0  0
    3.1441   -0.5942    0.0000 C   0  0  0  0  0  0  0  0  0  0  0  0
    4.3158   -1.5307    0.0000 I   0  0  0  0  0  0  0  0  0  0  0  0
    1.7472   -1.1406    0.0000 C   0  0  0  0  0  0  0  0  0  0  0  0
   -3.3901   -0.3605    0.0000 C   0  0  0  0  0  0  0  0  0  0  0  0
   -3.6153   -1.8435    0.0000 O   0  0  0  0  0  0  0  0  0  0  0  0
   -4.5618    0.5760    0.0000 O   0  0  0  0  0  0  0  0  0  0  0  0
  2  1  1  1
  2  3  1  0
  3  4  1  0
  4  5  2  0
  5  6  1  0
  6  7  2  0
  7  8  1  0
  8  9  1  0
  8 10  2  0
  2 11  1  0
 11 12  2  0
 11 13  1  0
 10  4  1  0
M  END
>  <rName>  (2967) 
Phe_3I

>  <PQ_SYMBOL>  (2967) 
Phe_3I

>  <FULL_NAME>  (2967) 
3-Iodo-L-Phenylalanine

>  <IUPAC_CONDENSED>  (2967) 
Phe(3-I)

>  <IUPAC>  (2967) 
(2S)-2-amino-3-(3-iodophenyl)propanoic acid

>  <TYPE>  (2967) 
Backbone

>  <CLASS>  (2967) 
alpha

>  <ANALOG>  (2967) 
Phe

>  <MOL_WT>  (2967) 
291.088

>  <LOGP>  (2967) 
1.2456000000000003

>  <TPSA>  (2967) 
63.32000000000001

>  <POPULARITY>  (2967) 
14.1

>  <PROTECTED>  (2967) 
TRUE

>  <SMILES>  (2967) 
N[C@@H](Cc1(cccc(I)c1))C(=O)O

>  <INCHIKEY>  (2967) 
BABTYIKKTLTNRX-QMMMGPOBSA-N

$$$$
Phe_3Me
     RDKit          2D

 13 13  0  0  0  0  0  0  0  0999 V2000
   -1.7680    1.6690    0.0000 N   0  0  0  0  0  0  0  0  0  0  0  0
   -1.9932    0.1860    0.0000 C   0  0  0  0  0  0  0  0  0  0  0  0
   -0.8215   -0.7506    0.0000 C   0  0  0  0  0  0  0  0  0  0  0  0
    0.5754   -0.2041    0.0000 C   0  0  0  0  0  0  0  0  0  0  0  0
    0.8006    1.2789    0.0000 C   0  0  0  0  0  0  0  0  0  0  0  0
    2.1976    1.8254    0.0000 C   0  0  0  0  0  0  0  0  0  0  0  0
    3.3693    0.8888    0.0000 C   0  0  0  0  0  0  0  0  0  0  0  0
    3.1441   -0.5942    0.0000 C   0  0  0  0  0  0  0  0  0  0  0  0
    4.3158   -1.5307    0.0000 C   0  0  0  0  0  0  0  0  0  0  0  0
    1.7472   -1.1406    0.0000 C   0  0  0  0  0  0  0  0  0  0  0  0
   -3.3901   -0.3605    0.0000 C   0  0  0  0  0  0  0  0  0  0  0  0
   -3.6153   -1.8435    0.0000 O   0  0  0  0  0  0  0  0  0  0  0  0
   -4.5618    0.5760    0.0000 O   0  0  0  0  0  0  0  0  0  0  0  0
  2  1  1  1
  2  3  1  0
  3  4  1  0
  4  5  2  0
  5  6  1  0
  6  7  2  0
  7  8  1  0
  8  9  1  0
  8 10  2  0
  2 11  1  0
 11 12  2  0
 11 13  1  0
 10  4  1  0
M  END
>  <rName>  (2968) 
Phe_3Me

>  <PQ_SYMBOL>  (2968) 
Phe_3Me

>  <FULL_NAME>  (2968) 
3-Methyl-L-Phenylalanine

>  <IUPAC_CONDENSED>  (2968) 
Phe(3-Me)

>  <IUPAC>  (2968) 
(2S)-2-amino-3-(3-methylphenyl)propanoic acid

>  <TYPE>  (2968) 
Backbone

>  <CLASS>  (2968) 
alpha

>  <ANALOG>  (2968) 
Phe

>  <MOL_WT>  (2968) 
179.21899999999997

>  <LOGP>  (2968) 
0.9494199999999999

>  <TPSA>  (2968) 
63.32000000000001

>  <POPULARITY>  (2968) 
14.7

>  <PROTECTED>  (2968) 
TRUE

>  <SMILES>  (2968) 
N[C@@H](Cc1(cccc(C)c1))C(=O)O

>  <INCHIKEY>  (2968) 
JZRBSTONIYRNRI-VIFPVBQESA-N

$$$$
Phe_3MeNH2
     RDKit          2D

 14 14  0  0  0  0  0  0  0  0999 V2000
   -2.2742    1.6194    0.0000 N   0  0  0  0  0  0  0  0  0  0  0  0
   -2.3172    0.1200    0.0000 C   0  0  0  0  0  0  0  0  0  0  0  0
   -1.0402   -0.6669    0.0000 C   0  0  0  0  0  0  0  0  0  0  0  0
    0.2798    0.0456    0.0000 C   0  0  0  0  0  0  0  0  0  0  0  0
    0.3228    1.5450    0.0000 C   0  0  0  0  0  0  0  0  0  0  0  0
    1.6428    2.2574    0.0000 C   0  0  0  0  0  0  0  0  0  0  0  0
    2.9198    1.4705    0.0000 C   0  0  0  0  0  0  0  0  0  0  0  0
    2.8768   -0.0289    0.0000 C   0  0  0  0  0  0  0  0  0  0  0  0
    1.5568   -0.7414    0.0000 C   0  0  0  0  0  0  0  0  0  0  0  0
    4.1538   -0.8158    0.0000 C   0  0  0  0  0  0  0  0  0  0  0  0
    4.1108   -2.3152    0.0000 N   0  0  0  0  0  0  0  0  0  0  0  0
   -3.6372   -0.5924    0.0000 C   0  0  0  0  0  0  0  0  0  0  0  0
   -3.6802   -2.0918    0.0000 O   0  0  0  0  0  0  0  0  0  0  0  0
   -4.9142    0.1945    0.0000 O   0  0  0  0  0  0  0  0  0  0  0  0
  2  1  1  1
  2  3  1  0
  3  4  1  0
  4  5  2  0
  5  6  1  0
  6  7  2  0
  7  8  1  0
  8  9  2  0
  8 10  1  0
 10 11  1  0
  2 12  1  0
 12 13  2  0
 12 14  1  0
  9  4  1  0
M  END
>  <rName>  (2969) 
Phe_3MeNH2

>  <PQ_SYMBOL>  (2969) 
Phe_3MeNH2

>  <FULL_NAME>  (2969) 
(S)-2-amino-3-(3-(aminomethyl)phenyl)propanoic acid

>  <IUPAC_CONDENSED>  (2969) 
Phe(3-MeNH2)

>  <IUPAC>  (2969) 
(2S)-2-amino-3-(3-(aminomethyl)phenyl)propanoic acid

>  <TYPE>  (2969) 
Backbone

>  <CLASS>  (2969) 
alpha

>  <ANALOG>  (2969) 
Phe

>  <MOL_WT>  (2969) 
194.23399999999995

>  <LOGP>  (2969) 
0.09970000000000018

>  <TPSA>  (2969) 
89.34

>  <POPULARITY>  (2969) 
10.3

>  <PROTECTED>  (2969) 
TRUE

>  <SMILES>  (2969) 
N[C@@H](Cc1(cccc(c1)CN))C(=O)O

>  <INCHIKEY>  (2969) 
YBVDQQQEPCEKPR-VIFPVBQESA-N

$$$$
Phe_3MeOH
     RDKit          2D

 14 14  0  0  0  0  0  0  0  0999 V2000
   -2.2742    1.6194    0.0000 N   0  0  0  0  0  0  0  0  0  0  0  0
   -2.3172    0.1200    0.0000 C   0  0  0  0  0  0  0  0  0  0  0  0
   -1.0402   -0.6669    0.0000 C   0  0  0  0  0  0  0  0  0  0  0  0
    0.2798    0.0456    0.0000 C   0  0  0  0  0  0  0  0  0  0  0  0
    0.3228    1.5450    0.0000 C   0  0  0  0  0  0  0  0  0  0  0  0
    1.6428    2.2574    0.0000 C   0  0  0  0  0  0  0  0  0  0  0  0
    2.9198    1.4705    0.0000 C   0  0  0  0  0  0  0  0  0  0  0  0
    2.8768   -0.0289    0.0000 C   0  0  0  0  0  0  0  0  0  0  0  0
    1.5568   -0.7414    0.0000 C   0  0  0  0  0  0  0  0  0  0  0  0
    4.1538   -0.8158    0.0000 C   0  0  0  0  0  0  0  0  0  0  0  0
    4.1108   -2.3152    0.0000 O   0  0  0  0  0  0  0  0  0  0  0  0
   -3.6372   -0.5924    0.0000 C   0  0  0  0  0  0  0  0  0  0  0  0
   -3.6802   -2.0918    0.0000 O   0  0  0  0  0  0  0  0  0  0  0  0
   -4.9142    0.1945    0.0000 O   0  0  0  0  0  0  0  0  0  0  0  0
  2  1  1  1
  2  3  1  0
  3  4  1  0
  4  5  2  0
  5  6  1  0
  6  7  2  0
  7  8  1  0
  8  9  2  0
  8 10  1  0
 10 11  1  0
  2 12  1  0
 12 13  2  0
 12 14  1  0
  9  4  1  0
M  END
>  <rName>  (2970) 
Phe_3MeOH

>  <PQ_SYMBOL>  (2970) 
Phe_3MeOH

>  <FULL_NAME>  (2970) 
(S)-2-amino-3-(3-(hydroxymethyl)phenyl)propanoic acid

>  <IUPAC_CONDENSED>  (2970) 
Phe(3-MeOH)

>  <IUPAC>  (2970) 
(2S)-2-amino-3-(3-(hydroxymethyl)phenyl)propanoic acid

>  <TYPE>  (2970) 
Backbone

>  <CLASS>  (2970) 
alpha

>  <ANALOG>  (2970) 
Phe

>  <MOL_WT>  (2970) 
195.21799999999996

>  <LOGP>  (2970) 
0.13329999999999997

>  <TPSA>  (2970) 
83.55

>  <POPULARITY>  (2970) 
6.3

>  <PROTECTED>  (2970) 
TRUE

>  <SMILES>  (2970) 
N[C@@H](Cc1(cccc(c1)CO))C(=O)O

>  <INCHIKEY>  (2970) 
OGLFMTLLZNGZPP-VIFPVBQESA-N

$$$$
Phe_3Me_4Br
     RDKit          2D

 14 14  0  0  0  0  0  0  0  0999 V2000
   -2.0094    1.6916    0.0000 N   0  0  0  0  0  0  0  0  0  0  0  0
   -2.3243    0.2250    0.0000 C   0  0  0  0  0  0  0  0  0  0  0  0
   -1.2116   -0.7809    0.0000 C   0  0  0  0  0  0  0  0  0  0  0  0
    0.2159   -0.3203    0.0000 C   0  0  0  0  0  0  0  0  0  0  0  0
    0.5308    1.1463    0.0000 C   0  0  0  0  0  0  0  0  0  0  0  0
    1.9583    1.6069    0.0000 C   0  0  0  0  0  0  0  0  0  0  0  0
    3.0710    0.6009    0.0000 C   0  0  0  0  0  0  0  0  0  0  0  0
    4.4985    1.0615    0.0000 Br  0  0  0  0  0  0  0  0  0  0  0  0
    2.7561   -0.8657    0.0000 C   0  0  0  0  0  0  0  0  0  0  0  0
    3.8688   -1.8716    0.0000 C   0  0  0  0  0  0  0  0  0  0  0  0
    1.3286   -1.3263    0.0000 C   0  0  0  0  0  0  0  0  0  0  0  0
   -3.7518   -0.2356    0.0000 C   0  0  0  0  0  0  0  0  0  0  0  0
   -4.0666   -1.7022    0.0000 O   0  0  0  0  0  0  0  0  0  0  0  0
   -4.8644    0.7704    0.0000 O   0  0  0  0  0  0  0  0  0  0  0  0
  2  1  1  1
  2  3  1  0
  3  4  1  0
  4  5  1  0
  5  6  2  0
  6  7  1  0
  7  8  1  0
  7  9  2  0
  9 10  1  0
  9 11  1  0
  2 12  1  0
 12 13  2  0
 12 14  1  0
 11  4  2  0
M  END
>  <rName>  (2971) 
Phe_3Me_4Br

>  <PQ_SYMBOL>  (2971) 
Phe_3Me_4Br

>  <FULL_NAME>  (2971) 
4-Bromo-3-methyl-L-phenylalanine

>  <IUPAC_CONDENSED>  (2971) 
Phe(3-Me,4-Br)

>  <IUPAC>  (2971) 
(2S)-2-amino-3-(4-bromo-3-methylphenyl)propanoic acid

>  <TYPE>  (2971) 
Backbone

>  <CLASS>  (2971) 
alpha

>  <ANALOG>  (2971) 
Phe

>  <MOL_WT>  (2971) 
258.11499999999995

>  <LOGP>  (2971) 
1.71192

>  <TPSA>  (2971) 
63.32000000000001

>  <POPULARITY>  (2971) 
2.2

>  <PROTECTED>  (2971) 
TRUE

>  <SMILES>  (2971) 
N[C@@H](Cc1(ccc(Br)c(C)c1))C(=O)O

>  <INCHIKEY>  (2971) 
HBRQTRZUFXTRBO-VIFPVBQESA-N

$$$$
Phe_3Me_4CF3
     RDKit          2D

 17 17  0  0  0  0  0  0  0  0999 V2000
   -2.7479    1.7226    0.0000 N   0  0  0  0  0  0  0  0  0  0  0  0
   -3.1890    0.2890    0.0000 C   0  0  0  0  0  0  0  0  0  0  0  0
   -2.1680   -0.8099    0.0000 C   0  0  0  0  0  0  0  0  0  0  0  0
   -0.7059   -0.4752    0.0000 C   0  0  0  0  0  0  0  0  0  0  0  0
   -0.2647    0.9585    0.0000 C   0  0  0  0  0  0  0  0  0  0  0  0
    1.1975    1.2932    0.0000 C   0  0  0  0  0  0  0  0  0  0  0  0
    2.2185    0.1943    0.0000 C   0  0  0  0  0  0  0  0  0  0  0  0
    1.7773   -1.2393    0.0000 C   0  0  0  0  0  0  0  0  0  0  0  0
    2.7983   -2.3382    0.0000 C   0  0  0  0  0  0  0  0  0  0  0  0
    0.3151   -1.5741    0.0000 C   0  0  0  0  0  0  0  0  0  0  0  0
    3.6806    0.5291    0.0000 C   0  0  0  0  0  0  0  0  0  0  0  0
    5.1428    0.8639    0.0000 F   0  0  0  0  0  0  0  0  0  0  0  0
    3.3459    1.9913    0.0000 F   0  0  0  0  0  0  0  0  0  0  0  0
    4.0154   -0.9331    0.0000 F   0  0  0  0  0  0  0  0  0  0  0  0
   -4.6512   -0.0458    0.0000 C   0  0  0  0  0  0  0  0  0  0  0  0
   -5.0924   -1.4794    0.0000 O   0  0  0  0  0  0  0  0  0  0  0  0
   -5.6722    1.0531    0.0000 O   0  0  0  0  0  0  0  0  0  0  0  0
  2  1  1  1
  2  3  1  0
  3  4  1  0
  4  5  1  0
  5  6  2  0
  6  7  1  0
  7  8  2  0
  8  9  1  0
  8 10  1  0
  7 11  1  0
 11 12  1  0
 11 13  1  0
 11 14  1  0
  2 15  1  0
 15 16  2  0
 15 17  1  0
 10  4  2  0
M  END
>  <rName>  (2972) 
Phe_3Me_4CF3

>  <PQ_SYMBOL>  (2972) 
Phe_3Me_4CF3

>  <FULL_NAME>  (2972) 
(S)-2-amino-3-(3-methyl-4-(trifluoromethyl)phenyl)propanoic acid

>  <IUPAC_CONDENSED>  (2972) 
Phe(3-Me,4-CF3)

>  <IUPAC>  (2972) 
(2S)-2-amino-3-(3-methyl-4-(trifluoromethyl)phenyl)propanoic acid

>  <TYPE>  (2972) 
Backbone

>  <CLASS>  (2972) 
alpha

>  <ANALOG>  (2972) 
Phe

>  <MOL_WT>  (2972) 
247.21599999999995

>  <LOGP>  (2972) 
1.96822

>  <TPSA>  (2972) 
63.32000000000001

>  <POPULARITY>  (2972) 
3.4

>  <PROTECTED>  (2972) 
TRUE

>  <SMILES>  (2972) 
N[C@@H](Cc1(ccc(c(C)c1)C(F)(F)F))C(=O)O

>  <INCHIKEY>  (2972) 
SJYXHXWZZLSPJK-VIFPVBQESA-N

$$$$
Phe_3Me_4CN
     RDKit          2D

 15 15  0  0  0  0  0  0  0  0999 V2000
   -2.3016    1.7358    0.0000 N   0  0  0  0  0  0  0  0  0  0  0  0
   -2.7065    0.2914    0.0000 C   0  0  0  0  0  0  0  0  0  0  0  0
   -1.6581   -0.7814    0.0000 C   0  0  0  0  0  0  0  0  0  0  0  0
   -0.2049   -0.4099    0.0000 C   0  0  0  0  0  0  0  0  0  0  0  0
    0.2001    1.0344    0.0000 C   0  0  0  0  0  0  0  0  0  0  0  0
    1.6533    1.4059    0.0000 C   0  0  0  0  0  0  0  0  0  0  0  0
    2.7017    0.3330    0.0000 C   0  0  0  0  0  0  0  0  0  0  0  0
    4.1550    0.7045    0.0000 C   0  0  0  0  0  0  0  0  0  0  0  0
    5.6082    1.0760    0.0000 N   0  0  0  0  0  0  0  0  0  0  0  0
    2.2968   -1.1113    0.0000 C   0  0  0  0  0  0  0  0  0  0  0  0
    3.3451   -2.1841    0.0000 C   0  0  0  0  0  0  0  0  0  0  0  0
    0.8435   -1.4827    0.0000 C   0  0  0  0  0  0  0  0  0  0  0  0
   -4.1598   -0.0800    0.0000 C   0  0  0  0  0  0  0  0  0  0  0  0
   -4.5647   -1.5243    0.0000 O   0  0  0  0  0  0  0  0  0  0  0  0
   -5.2081    0.9928    0.0000 O   0  0  0  0  0  0  0  0  0  0  0  0
  2  1  1  1
  2  3  1  0
  3  4  1  0
  4  5  1  0
  5  6  2  0
  6  7  1  0
  7  8  1  0
  8  9  3  0
  7 10  2  0
 10 11  1  0
 10 12  1  0
  2 13  1  0
 13 14  2  0
 13 15  1  0
 12  4  2  0
M  END
>  <rName>  (2973) 
Phe_3Me_4CN

>  <PQ_SYMBOL>  (2973) 
Phe_3Me_4CN

>  <FULL_NAME>  (2973) 
(S)-2-amino-3-(4-cyano-3-methylphenyl)propanoic acid

>  <IUPAC_CONDENSED>  (2973) 
Phe(3-Me,4-CN)

>  <IUPAC>  (2973) 
(2S)-2-amino-3-(3-methyl-4-(nitrilomethyl)phenyl)propanoic acid

>  <TYPE>  (2973) 
Backbone

>  <CLASS>  (2973) 
alpha

>  <ANALOG>  (2973) 
Phe

>  <MOL_WT>  (2973) 
204.22899999999998

>  <LOGP>  (2973) 
0.8211000000000002

>  <TPSA>  (2973) 
87.11

>  <POPULARITY>  (2973) 
2.7

>  <PROTECTED>  (2973) 
TRUE

>  <SMILES>  (2973) 
N[C@@H](Cc1(ccc(C#N)c(C)c1))C(=O)O

>  <INCHIKEY>  (2973) 
IGHSIWAAAFQOMM-JTQLQIEISA-N

$$$$
Phe_3Me_4CO2H
     RDKit          2D

 16 16  0  0  0  0  0  0  0  0999 V2000
   -2.5421    1.7204    0.0000 N   0  0  0  0  0  0  0  0  0  0  0  0
   -2.9632    0.2807    0.0000 C   0  0  0  0  0  0  0  0  0  0  0  0
   -1.9270   -0.8038    0.0000 C   0  0  0  0  0  0  0  0  0  0  0  0
   -0.4696   -0.4487    0.0000 C   0  0  0  0  0  0  0  0  0  0  0  0
   -0.0485    0.9910    0.0000 C   0  0  0  0  0  0  0  0  0  0  0  0
    1.4089    1.3461    0.0000 C   0  0  0  0  0  0  0  0  0  0  0  0
    2.4451    0.2616    0.0000 C   0  0  0  0  0  0  0  0  0  0  0  0
    3.9024    0.6167    0.0000 C   0  0  0  0  0  0  0  0  0  0  0  0
    4.9387   -0.4678    0.0000 O   0  0  0  0  0  0  0  0  0  0  0  0
    4.3236    2.0564    0.0000 O   0  0  0  0  0  0  0  0  0  0  0  0
    2.0240   -1.1781    0.0000 C   0  0  0  0  0  0  0  0  0  0  0  0
    3.0602   -2.2626    0.0000 C   0  0  0  0  0  0  0  0  0  0  0  0
    0.5666   -1.5332    0.0000 C   0  0  0  0  0  0  0  0  0  0  0  0
   -4.4206   -0.0744    0.0000 C   0  0  0  0  0  0  0  0  0  0  0  0
   -4.8417   -1.5141    0.0000 O   0  0  0  0  0  0  0  0  0  0  0  0
   -5.4568    1.0101    0.0000 O   0  0  0  0  0  0  0  0  0  0  0  0
  2  1  1  1
  2  3  1  0
  3  4  1  0
  4  5  1  0
  5  6  2  0
  6  7  1  0
  7  8  1  0
  8  9  2  0
  8 10  1  0
  7 11  2  0
 11 12  1  0
 11 13  1  0
  2 14  1  0
 14 15  2  0
 14 16  1  0
 13  4  2  0
M  END
>  <rName>  (2974) 
Phe_3Me_4CO2H

>  <PQ_SYMBOL>  (2974) 
Phe_3Me_4CO2H

>  <FULL_NAME>  (2974) 
(S)-4-(2-amino-2-carboxyethyl)-2-methylbenzoic acid

>  <IUPAC_CONDENSED>  (2974) 
Phe(3-Me,4-CO2H)

>  <IUPAC>  (2974) 
4-((2S)-2-amino-3-hydroxy-3-oxopropyl)-2-methylbenzene-1-carboxylic acid

>  <TYPE>  (2974) 
Backbone

>  <CLASS>  (2974) 
alpha

>  <ANALOG>  (2974) 
Phe

>  <MOL_WT>  (2974) 
223.22799999999998

>  <LOGP>  (2974) 
0.64762

>  <TPSA>  (2974) 
100.62000000000002

>  <POPULARITY>  (2974) 
3.3

>  <PROTECTED>  (2974) 
TRUE

>  <SMILES>  (2974) 
N[C@@H](Cc1(ccc(C(=O)O)c(C)c1))C(=O)O

>  <INCHIKEY>  (2974) 
YVCMIJOXXDSFSD-VIFPVBQESA-N

$$$$
Phe_3Me_4Cl
     RDKit          2D

 14 14  0  0  0  0  0  0  0  0999 V2000
   -2.0094    1.6916    0.0000 N   0  0  0  0  0  0  0  0  0  0  0  0
   -2.3243    0.2250    0.0000 C   0  0  0  0  0  0  0  0  0  0  0  0
   -1.2116   -0.7809    0.0000 C   0  0  0  0  0  0  0  0  0  0  0  0
    0.2159   -0.3203    0.0000 C   0  0  0  0  0  0  0  0  0  0  0  0
    0.5308    1.1463    0.0000 C   0  0  0  0  0  0  0  0  0  0  0  0
    1.9583    1.6069    0.0000 C   0  0  0  0  0  0  0  0  0  0  0  0
    3.0710    0.6009    0.0000 C   0  0  0  0  0  0  0  0  0  0  0  0
    4.4985    1.0615    0.0000 Cl  0  0  0  0  0  0  0  0  0  0  0  0
    2.7561   -0.8657    0.0000 C   0  0  0  0  0  0  0  0  0  0  0  0
    3.8688   -1.8716    0.0000 C   0  0  0  0  0  0  0  0  0  0  0  0
    1.3286   -1.3263    0.0000 C   0  0  0  0  0  0  0  0  0  0  0  0
   -3.7518   -0.2356    0.0000 C   0  0  0  0  0  0  0  0  0  0  0  0
   -4.0666   -1.7022    0.0000 O   0  0  0  0  0  0  0  0  0  0  0  0
   -4.8644    0.7704    0.0000 O   0  0  0  0  0  0  0  0  0  0  0  0
  2  1  1  1
  2  3  1  0
  3  4  1  0
  4  5  1  0
  5  6  2  0
  6  7  1  0
  7  8  1  0
  7  9  2  0
  9 10  1  0
  9 11  1  0
  2 12  1  0
 12 13  2  0
 12 14  1  0
 11  4  2  0
M  END
>  <rName>  (2975) 
Phe_3Me_4Cl

>  <PQ_SYMBOL>  (2975) 
Phe_3Me_4Cl

>  <FULL_NAME>  (2975) 
3-Methyl-4-Chloro-L-Phenylalanine

>  <IUPAC_CONDENSED>  (2975) 
Phe(3-Me,4-Cl)

>  <IUPAC>  (2975) 
(2S)-2-amino-3-(4-chloro-3-methylphenyl)propanoic acid

>  <TYPE>  (2975) 
Backbone

>  <CLASS>  (2975) 
alpha

>  <ANALOG>  (2975) 
Phe

>  <MOL_WT>  (2975) 
213.664

>  <LOGP>  (2975) 
1.6028200000000001

>  <TPSA>  (2975) 
63.32000000000001

>  <POPULARITY>  (2975) 
5.5

>  <PROTECTED>  (2975) 
TRUE

>  <SMILES>  (2975) 
N[C@@H](Cc1(ccc(Cl)c(C)c1))C(=O)O

>  <INCHIKEY>  (2975) 
ZOZGQWCBCFNPJE-VIFPVBQESA-N

$$$$
Phe_3Me_4F
     RDKit          2D

 14 14  0  0  0  0  0  0  0  0999 V2000
   -2.0094    1.6916    0.0000 N   0  0  0  0  0  0  0  0  0  0  0  0
   -2.3243    0.2250    0.0000 C   0  0  0  0  0  0  0  0  0  0  0  0
   -1.2116   -0.7809    0.0000 C   0  0  0  0  0  0  0  0  0  0  0  0
    0.2159   -0.3203    0.0000 C   0  0  0  0  0  0  0  0  0  0  0  0
    0.5308    1.1463    0.0000 C   0  0  0  0  0  0  0  0  0  0  0  0
    1.9583    1.6069    0.0000 C   0  0  0  0  0  0  0  0  0  0  0  0
    3.0710    0.6009    0.0000 C   0  0  0  0  0  0  0  0  0  0  0  0
    4.4985    1.0615    0.0000 F   0  0  0  0  0  0  0  0  0  0  0  0
    2.7561   -0.8657    0.0000 C   0  0  0  0  0  0  0  0  0  0  0  0
    3.8688   -1.8716    0.0000 C   0  0  0  0  0  0  0  0  0  0  0  0
    1.3286   -1.3263    0.0000 C   0  0  0  0  0  0  0  0  0  0  0  0
   -3.7518   -0.2356    0.0000 C   0  0  0  0  0  0  0  0  0  0  0  0
   -4.0666   -1.7022    0.0000 O   0  0  0  0  0  0  0  0  0  0  0  0
   -4.8644    0.7704    0.0000 O   0  0  0  0  0  0  0  0  0  0  0  0
  2  1  1  1
  2  3  1  0
  3  4  1  0
  4  5  1  0
  5  6  2  0
  6  7  1  0
  7  8  1  0
  7  9  2  0
  9 10  1  0
  9 11  1  0
  2 12  1  0
 12 13  2  0
 12 14  1  0
 11  4  2  0
M  END
>  <rName>  (2976) 
Phe_3Me_4F

>  <PQ_SYMBOL>  (2976) 
Phe_3Me_4F

>  <FULL_NAME>  (2976) 
(2S)-2-amino-3-(4-fluoro-3-methylphenyl)propanoic acid

>  <IUPAC_CONDENSED>  (2976) 
Phe(3-Me,4-F)

>  <IUPAC>  (2976) 
(2S)-2-amino-3-(4-fluoro-3-methylphenyl)propanoic acid

>  <TYPE>  (2976) 
Backbone

>  <CLASS>  (2976) 
alpha

>  <ANALOG>  (2976) 
Phe

>  <MOL_WT>  (2976) 
197.20899999999997

>  <LOGP>  (2976) 
1.08852

>  <TPSA>  (2976) 
63.32000000000001

>  <POPULARITY>  (2976) 
2.2

>  <PROTECTED>  (2976) 
TRUE

>  <SMILES>  (2976) 
N[C@@H](Cc1(ccc(F)c(C)c1))C(=O)O

>  <INCHIKEY>  (2976) 
HOWVSUISKZHSBP-VIFPVBQESA-N

$$$$
Phe_3Me_4NO2
     RDKit          2D

 16 16  0  0  0  0  0  0  0  0999 V2000
   -2.5421    1.7204    0.0000 N   0  0  0  0  0  0  0  0  0  0  0  0
   -2.9632    0.2807    0.0000 C   0  0  0  0  0  0  0  0  0  0  0  0
   -1.9270   -0.8038    0.0000 C   0  0  0  0  0  0  0  0  0  0  0  0
   -0.4696   -0.4487    0.0000 C   0  0  0  0  0  0  0  0  0  0  0  0
   -0.0485    0.9910    0.0000 C   0  0  0  0  0  0  0  0  0  0  0  0
    1.4089    1.3461    0.0000 C   0  0  0  0  0  0  0  0  0  0  0  0
    2.4451    0.2616    0.0000 C   0  0  0  0  0  0  0  0  0  0  0  0
    2.0240   -1.1781    0.0000 C   0  0  0  0  0  0  0  0  0  0  0  0
    3.0602   -2.2626    0.0000 C   0  0  0  0  0  0  0  0  0  0  0  0
    0.5666   -1.5332    0.0000 C   0  0  0  0  0  0  0  0  0  0  0  0
    3.9024    0.6167    0.0000 N   0  0  0  0  0  0  0  0  0  0  0  0
    4.9387   -0.4678    0.0000 O   0  0  0  0  0  0  0  0  0  0  0  0
    4.3236    2.0564    0.0000 O   0  0  0  0  0  0  0  0  0  0  0  0
   -4.4206   -0.0744    0.0000 C   0  0  0  0  0  0  0  0  0  0  0  0
   -4.8417   -1.5141    0.0000 O   0  0  0  0  0  0  0  0  0  0  0  0
   -5.4568    1.0101    0.0000 O   0  0  0  0  0  0  0  0  0  0  0  0
  2  1  1  1
  2  3  1  0
  3  4  1  0
  4  5  1  0
  5  6  2  0
  6  7  1  0
  7  8  2  0
  8  9  1  0
  8 10  1  0
  7 11  1  0
 11 12  2  0
 11 13  1  0
  2 14  1  0
 14 15  2  0
 14 16  1  0
 10  4  2  0
M  CHG  2  11   1  13  -1
M  END
>  <rName>  (2977) 
Phe_3Me_4NO2

>  <PQ_SYMBOL>  (2977) 
Phe_3Me_4NO2

>  <FULL_NAME>  (2977) 
(S)-2-amino-3-(3-methyl-4-nitrophenyl)propanoic acid

>  <IUPAC_CONDENSED>  (2977) 
Phe(3-Me,4-NO2)

>  <IUPAC>  (2977) 
(2S)-2-amino-3-(3-methyl-4-nitrophenyl)propanoic acid

>  <TYPE>  (2977) 
Backbone

>  <CLASS>  (2977) 
alpha

>  <ANALOG>  (2977) 
Phe

>  <MOL_WT>  (2977) 
224.21599999999998

>  <LOGP>  (2977) 
0.85762

>  <TPSA>  (2977) 
106.46

>  <POPULARITY>  (2977) 
2.8

>  <PROTECTED>  (2977) 
TRUE

>  <SMILES>  (2977) 
N[C@@H](Cc1(ccc(c(C)c1)[N+](=O)[O-]))C(=O)O

>  <INCHIKEY>  (2977) 
VXGAUVMFRFCFQE-QMMMGPOBSA-N

$$$$
Phe_3Me_4OMe
     RDKit          2D

 15 15  0  0  0  0  0  0  0  0999 V2000
   -2.1784    1.7334    0.0000 N   0  0  0  0  0  0  0  0  0  0  0  0
   -2.6284    0.3024    0.0000 C   0  0  0  0  0  0  0  0  0  0  0  0
   -1.6142   -0.8027    0.0000 C   0  0  0  0  0  0  0  0  0  0  0  0
   -0.1500   -0.4770    0.0000 C   0  0  0  0  0  0  0  0  0  0  0  0
    0.3000    0.9539    0.0000 C   0  0  0  0  0  0  0  0  0  0  0  0
    1.7642    1.2797    0.0000 C   0  0  0  0  0  0  0  0  0  0  0  0
    2.7784    0.1745    0.0000 C   0  0  0  0  0  0  0  0  0  0  0  0
    4.2426    0.5003    0.0000 O   0  0  0  0  0  0  0  0  0  0  0  0
    4.6926    1.9312    0.0000 C   0  0  0  0  0  0  0  0  0  0  0  0
    2.3284   -1.2564    0.0000 C   0  0  0  0  0  0  0  0  0  0  0  0
    3.3426   -2.3615    0.0000 C   0  0  0  0  0  0  0  0  0  0  0  0
    0.8642   -1.5821    0.0000 C   0  0  0  0  0  0  0  0  0  0  0  0
   -4.0926   -0.0233    0.0000 C   0  0  0  0  0  0  0  0  0  0  0  0
   -4.5426   -1.4542    0.0000 O   0  0  0  0  0  0  0  0  0  0  0  0
   -5.1068    1.0819    0.0000 O   0  0  0  0  0  0  0  0  0  0  0  0
  2  1  1  1
  2  3  1  0
  3  4  1  0
  4  5  1  0
  5  6  2  0
  6  7  1  0
  7  8  1  0
  8  9  1  0
  7 10  2  0
 10 11  1  0
 10 12  1  0
  2 13  1  0
 13 14  2  0
 13 15  1  0
 12  4  2  0
M  END
>  <rName>  (2978) 
Phe_3Me_4OMe

>  <PQ_SYMBOL>  (2978) 
Phe_3Me_4OMe

>  <FULL_NAME>  (2978) 
(S)-2-amino-3-(4-methoxy-3-methylphenyl)propanoic acid

>  <IUPAC_CONDENSED>  (2978) 
Phe(3-Me,4-OMe)

>  <IUPAC>  (2978) 
(2S)-2-amino-3-(4-methoxy-3-methylphenyl)propanoic acid

>  <TYPE>  (2978) 
Backbone

>  <CLASS>  (2978) 
alpha

>  <ANALOG>  (2978) 
Tyr

>  <MOL_WT>  (2978) 
209.24499999999998

>  <LOGP>  (2978) 
0.9580199999999999

>  <TPSA>  (2978) 
72.55

>  <POPULARITY>  (2978) 
8.0

>  <PROTECTED>  (2978) 
TRUE

>  <SMILES>  (2978) 
N[C@@H](Cc1(ccc(OC)c(C)c1))C(=O)O

>  <INCHIKEY>  (2978) 
DXGNDDYTXLSPCE-VIFPVBQESA-N

$$$$
Phe_3Me_4Ph
     RDKit          2D

 19 20  0  0  0  0  0  0  0  0999 V2000
   -3.4153    1.7943    0.0000 N   0  0  0  0  0  0  0  0  0  0  0  0
   -3.9446    0.3908    0.0000 C   0  0  0  0  0  0  0  0  0  0  0  0
   -2.9938   -0.7694    0.0000 C   0  0  0  0  0  0  0  0  0  0  0  0
   -1.5137   -0.5260    0.0000 C   0  0  0  0  0  0  0  0  0  0  0  0
   -0.9843    0.8775    0.0000 C   0  0  0  0  0  0  0  0  0  0  0  0
    0.4958    1.1208    0.0000 C   0  0  0  0  0  0  0  0  0  0  0  0
    1.4466   -0.0393    0.0000 C   0  0  0  0  0  0  0  0  0  0  0  0
    2.9267    0.2040    0.0000 C   0  0  0  0  0  0  0  0  0  0  0  0
    3.8775   -0.9561    0.0000 C   0  0  0  0  0  0  0  0  0  0  0  0
    5.3577   -0.7128    0.0000 C   0  0  0  0  0  0  0  0  0  0  0  0
    5.8870    0.6907    0.0000 C   0  0  0  0  0  0  0  0  0  0  0  0
    4.9362    1.8509    0.0000 C   0  0  0  0  0  0  0  0  0  0  0  0
    3.4560    1.6075    0.0000 C   0  0  0  0  0  0  0  0  0  0  0  0
    0.9173   -1.4428    0.0000 C   0  0  0  0  0  0  0  0  0  0  0  0
    1.8681   -2.6030    0.0000 C   0  0  0  0  0  0  0  0  0  0  0  0
   -0.5628   -1.6862    0.0000 C   0  0  0  0  0  0  0  0  0  0  0  0
   -5.4247    0.1474    0.0000 C   0  0  0  0  0  0  0  0  0  0  0  0
   -5.9540   -1.2561    0.0000 O   0  0  0  0  0  0  0  0  0  0  0  0
   -6.3755    1.3076    0.0000 O   0  0  0  0  0  0  0  0  0  0  0  0
  2  1  1  1
  2  3  1  0
  3  4  1  0
  4  5  1  0
  5  6  2  0
  6  7  1  0
  7  8  1  0
  8  9  2  0
  9 10  1  0
 10 11  2  0
 11 12  1  0
 12 13  2  0
  7 14  2  0
 14 15  1  0
 14 16  1  0
  2 17  1  0
 17 18  2  0
 17 19  1  0
 13  8  1  0
 16  4  2  0
M  END
>  <rName>  (2979) 
Phe_3Me_4Ph

>  <PQ_SYMBOL>  (2979) 
Phe_3Me_4Ph

>  <FULL_NAME>  (2979) 
Phe(3-Me,4-Ph)

>  <IUPAC_CONDENSED>  (2979) 
Phe(3-Me,4-Ph)

>  <IUPAC>  (2979) 
(2S)-2-amino-3-(3-methyl-4-phenylphenyl)propanoic acid

>  <TYPE>  (2979) 
Backbone

>  <CLASS>  (2979) 
alpha

>  <ANALOG>  (2979) 
Phe

>  <MOL_WT>  (2979) 
255.31699999999998

>  <LOGP>  (2979) 
2.6164200000000006

>  <TPSA>  (2979) 
63.32000000000001

>  <POPULARITY>  (2979) 
2.2

>  <PROTECTED>  (2979) 
TRUE

>  <SMILES>  (2979) 
N[C@@H](Cc2(ccc(c1(ccccc1))c(C)c2))C(=O)O

>  <INCHIKEY>  (2979) 
CCPYSNFSOSYTKD-HNNXBMFYSA-N

$$$$
Phe_3Me_5Cl
     RDKit          2D

 14 14  0  0  0  0  0  0  0  0999 V2000
   -1.8014    1.6047    0.0000 N   0  0  0  0  0  0  0  0  0  0  0  0
   -2.1617    0.1486    0.0000 C   0  0  0  0  0  0  0  0  0  0  0  0
   -1.0809   -0.8915    0.0000 C   0  0  0  0  0  0  0  0  0  0  0  0
    0.3603   -0.4755    0.0000 C   0  0  0  0  0  0  0  0  0  0  0  0
    0.7206    0.9806    0.0000 C   0  0  0  0  0  0  0  0  0  0  0  0
    2.1617    1.3967    0.0000 C   0  0  0  0  0  0  0  0  0  0  0  0
    2.5220    2.8527    0.0000 C   0  0  0  0  0  0  0  0  0  0  0  0
    3.2426    0.3566    0.0000 C   0  0  0  0  0  0  0  0  0  0  0  0
    2.8823   -1.0995    0.0000 C   0  0  0  0  0  0  0  0  0  0  0  0
    3.9632   -2.1396    0.0000 Cl  0  0  0  0  0  0  0  0  0  0  0  0
    1.4412   -1.5155    0.0000 C   0  0  0  0  0  0  0  0  0  0  0  0
   -3.6029   -0.2674    0.0000 C   0  0  0  0  0  0  0  0  0  0  0  0
   -3.9632   -1.7235    0.0000 O   0  0  0  0  0  0  0  0  0  0  0  0
   -4.6837    0.7726    0.0000 O   0  0  0  0  0  0  0  0  0  0  0  0
  2  1  1  1
  2  3  1  0
  3  4  1  0
  4  5  2  0
  5  6  1  0
  6  7  1  0
  6  8  2  0
  8  9  1  0
  9 10  1  0
  9 11  2  0
  2 12  1  0
 12 13  2  0
 12 14  1  0
 11  4  1  0
M  END
>  <rName>  (2980) 
Phe_3Me_5Cl

>  <PQ_SYMBOL>  (2980) 
Phe_3Me_5Cl

>  <FULL_NAME>  (2980) 
(S)-2-amino-3-(3-chloro-5-methylphenyl)propanoic acid

>  <IUPAC_CONDENSED>  (2980) 
Phe(3-Me,5-Cl)

>  <IUPAC>  (2980) 
(2S)-2-amino-3-(3-chloro-5-methylphenyl)propanoic acid

>  <TYPE>  (2980) 
Backbone

>  <CLASS>  (2980) 
alpha

>  <ANALOG>  (2980) 
Phe

>  <MOL_WT>  (2980) 
213.664

>  <LOGP>  (2980) 
1.6028200000000001

>  <TPSA>  (2980) 
63.32000000000001

>  <POPULARITY>  (2980) 
4.1

>  <PROTECTED>  (2980) 
TRUE

>  <SMILES>  (2980) 
N[C@@H](Cc1(cc(C)cc(Cl)c1))C(=O)O

>  <INCHIKEY>  (2980) 
FVEBDZVIMRPQPK-VIFPVBQESA-N

$$$$
Phe_3Me_5F
     RDKit          2D

 14 14  0  0  0  0  0  0  0  0999 V2000
   -1.8014    1.6047    0.0000 N   0  0  0  0  0  0  0  0  0  0  0  0
   -2.1617    0.1486    0.0000 C   0  0  0  0  0  0  0  0  0  0  0  0
   -1.0809   -0.8915    0.0000 C   0  0  0  0  0  0  0  0  0  0  0  0
    0.3603   -0.4755    0.0000 C   0  0  0  0  0  0  0  0  0  0  0  0
    0.7206    0.9806    0.0000 C   0  0  0  0  0  0  0  0  0  0  0  0
    2.1617    1.3967    0.0000 C   0  0  0  0  0  0  0  0  0  0  0  0
    2.5220    2.8527    0.0000 C   0  0  0  0  0  0  0  0  0  0  0  0
    3.2426    0.3566    0.0000 C   0  0  0  0  0  0  0  0  0  0  0  0
    2.8823   -1.0995    0.0000 C   0  0  0  0  0  0  0  0  0  0  0  0
    3.9632   -2.1396    0.0000 F   0  0  0  0  0  0  0  0  0  0  0  0
    1.4412   -1.5155    0.0000 C   0  0  0  0  0  0  0  0  0  0  0  0
   -3.6029   -0.2674    0.0000 C   0  0  0  0  0  0  0  0  0  0  0  0
   -3.9632   -1.7235    0.0000 O   0  0  0  0  0  0  0  0  0  0  0  0
   -4.6837    0.7726    0.0000 O   0  0  0  0  0  0  0  0  0  0  0  0
  2  1  1  1
  2  3  1  0
  3  4  1  0
  4  5  2  0
  5  6  1  0
  6  7  1  0
  6  8  2  0
  8  9  1  0
  9 10  1  0
  9 11  2  0
  2 12  1  0
 12 13  2  0
 12 14  1  0
 11  4  1  0
M  END
>  <rName>  (2981) 
Phe_3Me_5F

>  <PQ_SYMBOL>  (2981) 
Phe_3Me_5F

>  <FULL_NAME>  (2981) 
(S)-2-amino-3-(3-fluoro-5-methylphenyl)propanoic acid

>  <IUPAC_CONDENSED>  (2981) 
Phe(3-Me,5-F)

>  <IUPAC>  (2981) 
(2S)-2-amino-3-(3-fluoro-5-methylphenyl)propanoic acid

>  <TYPE>  (2981) 
Backbone

>  <CLASS>  (2981) 
alpha

>  <ANALOG>  (2981) 
Phe

>  <MOL_WT>  (2981) 
197.20899999999997

>  <LOGP>  (2981) 
1.0885200000000002

>  <TPSA>  (2981) 
63.32000000000001

>  <POPULARITY>  (2981) 
4.1

>  <PROTECTED>  (2981) 
TRUE

>  <SMILES>  (2981) 
N[C@@H](Cc1(cc(C)cc(F)c1))C(=O)O

>  <INCHIKEY>  (2981) 
OEGJALAYWIUJRR-VIFPVBQESA-N

$$$$
Phe_3NH2
     RDKit          2D

 13 13  0  0  0  0  0  0  0  0999 V2000
   -1.7680    1.6690    0.0000 N   0  0  0  0  0  0  0  0  0  0  0  0
   -1.9932    0.1860    0.0000 C   0  0  0  0  0  0  0  0  0  0  0  0
   -0.8215   -0.7506    0.0000 C   0  0  0  0  0  0  0  0  0  0  0  0
    0.5754   -0.2041    0.0000 C   0  0  0  0  0  0  0  0  0  0  0  0
    0.8006    1.2789    0.0000 C   0  0  0  0  0  0  0  0  0  0  0  0
    2.1976    1.8254    0.0000 C   0  0  0  0  0  0  0  0  0  0  0  0
    3.3693    0.8888    0.0000 C   0  0  0  0  0  0  0  0  0  0  0  0
    3.1441   -0.5942    0.0000 C   0  0  0  0  0  0  0  0  0  0  0  0
    4.3158   -1.5307    0.0000 N   0  0  0  0  0  0  0  0  0  0  0  0
    1.7472   -1.1406    0.0000 C   0  0  0  0  0  0  0  0  0  0  0  0
   -3.3901   -0.3605    0.0000 C   0  0  0  0  0  0  0  0  0  0  0  0
   -3.6153   -1.8435    0.0000 O   0  0  0  0  0  0  0  0  0  0  0  0
   -4.5618    0.5760    0.0000 O   0  0  0  0  0  0  0  0  0  0  0  0
  2  1  1  1
  2  3  1  0
  3  4  1  0
  4  5  2  0
  5  6  1  0
  6  7  2  0
  7  8  1  0
  8  9  1  0
  8 10  2  0
  2 11  1  0
 11 12  2  0
 11 13  1  0
 10  4  1  0
M  END
>  <rName>  (2982) 
Phe_3NH2

>  <PQ_SYMBOL>  (2982) 
Phe_3NH2

>  <FULL_NAME>  (2982) 
3-Amino-L-Phenylalanine

>  <IUPAC_CONDENSED>  (2982) 
Phe(3-NH2)

>  <IUPAC>  (2982) 
(2S)-2-amino-3-(3-aminophenyl)propanoic acid

>  <TYPE>  (2982) 
Backbone

>  <CLASS>  (2982) 
alpha

>  <ANALOG>  (2982) 
Phe

>  <MOL_WT>  (2982) 
180.207

>  <LOGP>  (2982) 
0.22320000000000012

>  <TPSA>  (2982) 
89.34

>  <POPULARITY>  (2982) 
11.2

>  <PROTECTED>  (2982) 
TRUE

>  <SMILES>  (2982) 
N[C@@H](Cc1(cccc(N)c1))C(=O)O

>  <INCHIKEY>  (2982) 
DDLYNVBJVVOUGB-QMMMGPOBSA-N

$$$$
Phe_3NH2_4CO2H
     RDKit          2D

 16 16  0  0  0  0  0  0  0  0999 V2000
   -2.5421    1.7204    0.0000 N   0  0  0  0  0  0  0  0  0  0  0  0
   -2.9632    0.2807    0.0000 C   0  0  0  0  0  0  0  0  0  0  0  0
   -1.9270   -0.8038    0.0000 C   0  0  0  0  0  0  0  0  0  0  0  0
   -0.4696   -0.4487    0.0000 C   0  0  0  0  0  0  0  0  0  0  0  0
   -0.0485    0.9910    0.0000 C   0  0  0  0  0  0  0  0  0  0  0  0
    1.4089    1.3461    0.0000 C   0  0  0  0  0  0  0  0  0  0  0  0
    2.4451    0.2616    0.0000 C   0  0  0  0  0  0  0  0  0  0  0  0
    3.9024    0.6167    0.0000 C   0  0  0  0  0  0  0  0  0  0  0  0
    4.3236    2.0564    0.0000 O   0  0  0  0  0  0  0  0  0  0  0  0
    4.9387   -0.4678    0.0000 O   0  0  0  0  0  0  0  0  0  0  0  0
    2.0240   -1.1781    0.0000 C   0  0  0  0  0  0  0  0  0  0  0  0
    3.0602   -2.2626    0.0000 N   0  0  0  0  0  0  0  0  0  0  0  0
    0.5666   -1.5332    0.0000 C   0  0  0  0  0  0  0  0  0  0  0  0
   -4.4206   -0.0744    0.0000 C   0  0  0  0  0  0  0  0  0  0  0  0
   -4.8417   -1.5141    0.0000 O   0  0  0  0  0  0  0  0  0  0  0  0
   -5.4568    1.0101    0.0000 O   0  0  0  0  0  0  0  0  0  0  0  0
  2  1  1  1
  2  3  1  0
  3  4  1  0
  4  5  1  0
  5  6  2  0
  6  7  1  0
  7  8  1  0
  8  9  2  0
  8 10  1  0
  7 11  2  0
 11 12  1  0
 11 13  1  0
  2 14  1  0
 14 15  2  0
 14 16  1  0
 13  4  2  0
M  END
>  <rName>  (2983) 
Phe_3NH2_4CO2H

>  <PQ_SYMBOL>  (2983) 
Phe_3NH2_4CO2H

>  <FULL_NAME>  (2983) 
(S)-2-amino-4-(2-amino-2-carboxyethyl)benzoic acid

>  <IUPAC_CONDENSED>  (2983) 
Phe(3-NH2,4-CO2H)

>  <IUPAC>  (2983) 
2-amino-4-((2S)-2-amino-3-hydroxy-3-oxopropyl)benzoic acid

>  <TYPE>  (2983) 
Backbone

>  <CLASS>  (2983) 
alpha

>  <ANALOG>  (2983) 
Phe

>  <MOL_WT>  (2983) 
224.21599999999998

>  <LOGP>  (2983) 
-0.07860000000000023

>  <TPSA>  (2983) 
126.64

>  <POPULARITY>  (2983) 
2.6

>  <PROTECTED>  (2983) 
TRUE

>  <SMILES>  (2983) 
N[C@@H](Cc1(ccc(C(=O)O)c(N)c1))C(=O)O

>  <INCHIKEY>  (2983) 
GPLZYEHAUFXZSL-QMMMGPOBSA-N

$$$$
Phe_3NH2_4Me
     RDKit          2D

 14 14  0  0  0  0  0  0  0  0999 V2000
   -2.0094    1.6916    0.0000 N   0  0  0  0  0  0  0  0  0  0  0  0
   -2.3243    0.2250    0.0000 C   0  0  0  0  0  0  0  0  0  0  0  0
   -1.2116   -0.7809    0.0000 C   0  0  0  0  0  0  0  0  0  0  0  0
    0.2159   -0.3203    0.0000 C   0  0  0  0  0  0  0  0  0  0  0  0
    0.5308    1.1463    0.0000 C   0  0  0  0  0  0  0  0  0  0  0  0
    1.9583    1.6069    0.0000 C   0  0  0  0  0  0  0  0  0  0  0  0
    3.0710    0.6009    0.0000 C   0  0  0  0  0  0  0  0  0  0  0  0
    4.4985    1.0615    0.0000 C   0  0  0  0  0  0  0  0  0  0  0  0
    2.7561   -0.8657    0.0000 C   0  0  0  0  0  0  0  0  0  0  0  0
    3.8688   -1.8716    0.0000 N   0  0  0  0  0  0  0  0  0  0  0  0
    1.3286   -1.3263    0.0000 C   0  0  0  0  0  0  0  0  0  0  0  0
   -3.7518   -0.2356    0.0000 C   0  0  0  0  0  0  0  0  0  0  0  0
   -4.0666   -1.7022    0.0000 O   0  0  0  0  0  0  0  0  0  0  0  0
   -4.8644    0.7704    0.0000 O   0  0  0  0  0  0  0  0  0  0  0  0
  2  1  1  1
  2  3  1  0
  3  4  1  0
  4  5  1  0
  5  6  2  0
  6  7  1  0
  7  8  1  0
  7  9  2  0
  9 10  1  0
  9 11  1  0
  2 12  1  0
 12 13  2  0
 12 14  1  0
 11  4  2  0
M  END
>  <rName>  (2984) 
Phe_3NH2_4Me

>  <PQ_SYMBOL>  (2984) 
Phe_3NH2_4Me

>  <FULL_NAME>  (2984) 
(S)-2-amino-3-(3-amino-4-methylphenyl)propanoic acid

>  <IUPAC_CONDENSED>  (2984) 
Phe(3-NH2,4-Me)

>  <IUPAC>  (2984) 
(2S)-2-amino-3-(3-amino-4-methylphenyl)propanoic acid

>  <TYPE>  (2984) 
Backbone

>  <CLASS>  (2984) 
alpha

>  <ANALOG>  (2984) 
Phe

>  <MOL_WT>  (2984) 
194.23399999999995

>  <LOGP>  (2984) 
0.53162

>  <TPSA>  (2984) 
89.34

>  <POPULARITY>  (2984) 
3.4

>  <PROTECTED>  (2984) 
TRUE

>  <SMILES>  (2984) 
N[C@@H](Cc1(ccc(C)c(N)c1))C(=O)O

>  <INCHIKEY>  (2984) 
UMNJZHVJQBSGQV-VIFPVBQESA-N

$$$$
Phe_3NO2
     RDKit          2D

 15 15  0  0  0  0  0  0  0  0999 V2000
   -2.6461    1.6149    0.0000 N   0  0  0  0  0  0  0  0  0  0  0  0
   -2.6827    0.1154    0.0000 C   0  0  0  0  0  0  0  0  0  0  0  0
   -1.4023   -0.6660    0.0000 C   0  0  0  0  0  0  0  0  0  0  0  0
   -0.0854    0.0521    0.0000 C   0  0  0  0  0  0  0  0  0  0  0  0
   -0.0488    1.5516    0.0000 C   0  0  0  0  0  0  0  0  0  0  0  0
    1.2681    2.2698    0.0000 C   0  0  0  0  0  0  0  0  0  0  0  0
    2.5485    1.4884    0.0000 C   0  0  0  0  0  0  0  0  0  0  0  0
    2.5119   -0.0112    0.0000 C   0  0  0  0  0  0  0  0  0  0  0  0
    1.1950   -0.7293    0.0000 C   0  0  0  0  0  0  0  0  0  0  0  0
    3.7923   -0.7926    0.0000 N   0  0  0  0  0  0  0  0  0  0  0  0
    5.1093   -0.0745    0.0000 O   0  0  0  0  0  0  0  0  0  0  0  0
    3.7558   -2.2922    0.0000 O   0  0  0  0  0  0  0  0  0  0  0  0
   -3.9996   -0.6028    0.0000 C   0  0  0  0  0  0  0  0  0  0  0  0
   -4.0361   -2.1023    0.0000 O   0  0  0  0  0  0  0  0  0  0  0  0
   -5.2800    0.1787    0.0000 O   0  0  0  0  0  0  0  0  0  0  0  0
  2  1  1  1
  2  3  1  0
  3  4  1  0
  4  5  1  0
  5  6  2  0
  6  7  1  0
  7  8  2  0
  8  9  1  0
  8 10  1  0
 10 11  2  0
 10 12  1  0
  2 13  1  0
 13 14  2  0
 13 15  1  0
  9  4  2  0
M  CHG  2  10   1  12  -1
M  END
>  <rName>  (2985) 
Phe_3NO2

>  <PQ_SYMBOL>  (2985) 
Phe_3NO2

>  <FULL_NAME>  (2985) 
3-Nitro-L-Phenylalanine

>  <IUPAC_CONDENSED>  (2985) 
Phe(3-NO2)

>  <IUPAC>  (2985) 
(2S)-2-amino-3-(3-nitrophenyl)propanoic acid

>  <TYPE>  (2985) 
Backbone

>  <CLASS>  (2985) 
alpha

>  <ANALOG>  (2985) 
Phe

>  <MOL_WT>  (2985) 
210.18899999999994

>  <LOGP>  (2985) 
0.5492000000000001

>  <TPSA>  (2985) 
106.46

>  <POPULARITY>  (2985) 
8.8

>  <PROTECTED>  (2985) 
TRUE

>  <SMILES>  (2985) 
N[C@@H](Cc1(cccc(c1)[N+](=O)[O-]))C(=O)O

>  <INCHIKEY>  (2985) 
YTHDRUZHNYKZGF-QMMMGPOBSA-N

$$$$
Phe_3NO2_4Br
     RDKit          2D

 16 16  0  0  0  0  0  0  0  0999 V2000
   -2.7936    1.6481    0.0000 N   0  0  0  0  0  0  0  0  0  0  0  0
   -2.9203    0.1535    0.0000 C   0  0  0  0  0  0  0  0  0  0  0  0
   -1.6893   -0.7036    0.0000 C   0  0  0  0  0  0  0  0  0  0  0  0
   -0.3315   -0.0660    0.0000 C   0  0  0  0  0  0  0  0  0  0  0  0
   -0.2048    1.4287    0.0000 C   0  0  0  0  0  0  0  0  0  0  0  0
    1.1530    2.0662    0.0000 C   0  0  0  0  0  0  0  0  0  0  0  0
    2.3840    1.2092    0.0000 C   0  0  0  0  0  0  0  0  0  0  0  0
    3.7417    1.8468    0.0000 Br  0  0  0  0  0  0  0  0  0  0  0  0
    2.2573   -0.2855    0.0000 C   0  0  0  0  0  0  0  0  0  0  0  0
    0.8995   -0.9230    0.0000 C   0  0  0  0  0  0  0  0  0  0  0  0
    3.4883   -1.1425    0.0000 N   0  0  0  0  0  0  0  0  0  0  0  0
    4.8461   -0.5049    0.0000 O   0  0  0  0  0  0  0  0  0  0  0  0
    3.3616   -2.6372    0.0000 O   0  0  0  0  0  0  0  0  0  0  0  0
   -4.2781   -0.4841    0.0000 C   0  0  0  0  0  0  0  0  0  0  0  0
   -4.4048   -1.9787    0.0000 O   0  0  0  0  0  0  0  0  0  0  0  0
   -5.5091    0.3730    0.0000 O   0  0  0  0  0  0  0  0  0  0  0  0
  2  1  1  1
  2  3  1  0
  3  4  1  0
  4  5  1  0
  5  6  2  0
  6  7  1  0
  7  8  1  0
  7  9  2  0
  9 10  1  0
  9 11  1  0
 11 12  2  0
 11 13  1  0
  2 14  1  0
 14 15  2  0
 14 16  1  0
 10  4  2  0
M  CHG  2  11   1  13  -1
M  END
>  <rName>  (2986) 
Phe_3NO2_4Br

>  <PQ_SYMBOL>  (2986) 
Phe_3NO2_4Br

>  <FULL_NAME>  (2986) 
4-bromo-3-nitro-L-phenylalanine

>  <IUPAC_CONDENSED>  (2986) 
Phe(3-NO2,4-Br)

>  <IUPAC>  (2986) 
(2S)-2-amino-3-(4-bromo-3-nitrophenyl)propanoic acid

>  <TYPE>  (2986) 
Backbone

>  <CLASS>  (2986) 
alpha

>  <ANALOG>  (2986) 
Phe

>  <MOL_WT>  (2986) 
289.085

>  <LOGP>  (2986) 
1.3117

>  <TPSA>  (2986) 
106.46

>  <POPULARITY>  (2986) 
2.6

>  <PROTECTED>  (2986) 
TRUE

>  <SMILES>  (2986) 
N[C@@H](Cc1(ccc(Br)c(c1)[N+](=O)[O-]))C(=O)O

>  <INCHIKEY>  (2986) 
AEWBSDKLKMCHMT-ZETCQYMHSA-N

$$$$
Phe_3NO2_4CO2H
     RDKit          2D

 18 18  0  0  0  0  0  0  0  0999 V2000
   -3.1302    1.7241    0.0000 N   0  0  0  0  0  0  0  0  0  0  0  0
   -3.4035    0.2492    0.0000 C   0  0  0  0  0  0  0  0  0  0  0  0
   -2.2628   -0.7249    0.0000 C   0  0  0  0  0  0  0  0  0  0  0  0
   -0.8489   -0.2241    0.0000 C   0  0  0  0  0  0  0  0  0  0  0  0
   -0.5756    1.2508    0.0000 C   0  0  0  0  0  0  0  0  0  0  0  0
    0.8383    1.7516    0.0000 C   0  0  0  0  0  0  0  0  0  0  0  0
    1.9790    0.7775    0.0000 C   0  0  0  0  0  0  0  0  0  0  0  0
    3.3929    1.2783    0.0000 C   0  0  0  0  0  0  0  0  0  0  0  0
    3.6661    2.7532    0.0000 O   0  0  0  0  0  0  0  0  0  0  0  0
    4.5336    0.3042    0.0000 O   0  0  0  0  0  0  0  0  0  0  0  0
    1.7057   -0.6974    0.0000 C   0  0  0  0  0  0  0  0  0  0  0  0
    0.2918   -1.1982    0.0000 C   0  0  0  0  0  0  0  0  0  0  0  0
    2.8464   -1.6715    0.0000 N   0  0  0  0  0  0  0  0  0  0  0  0
    4.2603   -1.1707    0.0000 O   0  0  0  0  0  0  0  0  0  0  0  0
    2.5732   -3.1464    0.0000 O   0  0  0  0  0  0  0  0  0  0  0  0
   -4.8174   -0.2517    0.0000 C   0  0  0  0  0  0  0  0  0  0  0  0
   -5.0907   -1.7266    0.0000 O   0  0  0  0  0  0  0  0  0  0  0  0
   -5.9581    0.7224    0.0000 O   0  0  0  0  0  0  0  0  0  0  0  0
  2  1  1  1
  2  3  1  0
  3  4  1  0
  4  5  1  0
  5  6  2  0
  6  7  1  0
  7  8  1  0
  8  9  2  0
  8 10  1  0
  7 11  2  0
 11 12  1  0
 11 13  1  0
 13 14  2  0
 13 15  1  0
  2 16  1  0
 16 17  2  0
 16 18  1  0
 12  4  2  0
M  CHG  2  13   1  15  -1
M  END
>  <rName>  (2987) 
Phe_3NO2_4CO2H

>  <PQ_SYMBOL>  (2987) 
Phe_3NO2_4CO2H

>  <FULL_NAME>  (2987) 
(S)-4-(2-amino-2-carboxyethyl)-2-nitrobenzoic acid

>  <IUPAC_CONDENSED>  (2987) 
Phe(3-NO2,4-CO2H)

>  <IUPAC>  (2987) 
4-((2S)-2-amino-3-hydroxy-3-oxopropyl)-2-nitrobenzene-1-carboxylic acid

>  <TYPE>  (2987) 
Backbone

>  <CLASS>  (2987) 
alpha

>  <ANALOG>  (2987) 
Phe

>  <MOL_WT>  (2987) 
254.19799999999998

>  <LOGP>  (2987) 
0.24739999999999973

>  <TPSA>  (2987) 
143.76

>  <POPULARITY>  (2987) 
2.4

>  <PROTECTED>  (2987) 
TRUE

>  <SMILES>  (2987) 
N[C@@H](Cc1(ccc(C(=O)O)c(c1)[N+](=O)[O-]))C(=O)O

>  <INCHIKEY>  (2987) 
RNUQYMVEKSTBCO-ZETCQYMHSA-N

$$$$
Phe_3NO2_4OMe
     RDKit          2D

 17 17  0  0  0  0  0  0  0  0999 V2000
   -2.8817    1.7117    0.0000 N   0  0  0  0  0  0  0  0  0  0  0  0
   -3.1394    0.2340    0.0000 C   0  0  0  0  0  0  0  0  0  0  0  0
   -1.9886   -0.7280    0.0000 C   0  0  0  0  0  0  0  0  0  0  0  0
   -0.5800   -0.2123    0.0000 C   0  0  0  0  0  0  0  0  0  0  0  0
   -0.3223    1.2654    0.0000 C   0  0  0  0  0  0  0  0  0  0  0  0
    1.0863    1.7810    0.0000 C   0  0  0  0  0  0  0  0  0  0  0  0
    2.2372    0.8190    0.0000 C   0  0  0  0  0  0  0  0  0  0  0  0
    3.6457    1.3347    0.0000 O   0  0  0  0  0  0  0  0  0  0  0  0
    3.9034    2.8123    0.0000 C   0  0  0  0  0  0  0  0  0  0  0  0
    1.9794   -0.6587    0.0000 C   0  0  0  0  0  0  0  0  0  0  0  0
    0.5709   -1.1744    0.0000 C   0  0  0  0  0  0  0  0  0  0  0  0
    3.1303   -1.6207    0.0000 N   0  0  0  0  0  0  0  0  0  0  0  0
    4.5389   -1.1051    0.0000 O   0  0  0  0  0  0  0  0  0  0  0  0
    2.8726   -3.0984    0.0000 O   0  0  0  0  0  0  0  0  0  0  0  0
   -4.5480   -0.2816    0.0000 C   0  0  0  0  0  0  0  0  0  0  0  0
   -4.8057   -1.7593    0.0000 O   0  0  0  0  0  0  0  0  0  0  0  0
   -5.6989    0.6804    0.0000 O   0  0  0  0  0  0  0  0  0  0  0  0
  2  1  1  1
  2  3  1  0
  3  4  1  0
  4  5  1  0
  5  6  2  0
  6  7  1  0
  7  8  1  0
  8  9  1  0
  7 10  2  0
 10 11  1  0
 10 12  1  0
 12 13  2  0
 12 14  1  0
  2 15  1  0
 15 16  2  0
 15 17  1  0
 11  4  2  0
M  CHG  2  12   1  14  -1
M  END
>  <rName>  (2988) 
Phe_3NO2_4OMe

>  <PQ_SYMBOL>  (2988) 
Phe_3NO2_4OMe

>  <FULL_NAME>  (2988) 
(S)-2-amino-3-(4-methoxy-3-nitrophenyl)propanoic acid

>  <IUPAC_CONDENSED>  (2988) 
Phe(3-NO2,4-OMe)

>  <IUPAC>  (2988) 
(2S)-2-amino-3-(4-methoxy-3-nitrophenyl)propanoic acid

>  <TYPE>  (2988) 
Backbone

>  <CLASS>  (2988) 
alpha

>  <ANALOG>  (2988) 
Tyr

>  <MOL_WT>  (2988) 
240.21499999999997

>  <LOGP>  (2988) 
0.5578000000000001

>  <TPSA>  (2988) 
115.69000000000001

>  <POPULARITY>  (2988) 
4.2

>  <PROTECTED>  (2988) 
TRUE

>  <SMILES>  (2988) 
N[C@@H](Cc1(ccc(OC)c(c1)[N+](=O)[O-]))C(=O)O

>  <INCHIKEY>  (2988) 
MZNPRACFHIBIGU-ZETCQYMHSA-N

$$$$
Phe_3OBn_4Cbz
     RDKit          2D

 30 32  0  0  0  0  0  0  0  0999 V2000
   -6.3239    1.4589    0.0000 N   0  0  0  0  0  0  0  0  0  0  0  0
   -6.2425   -0.0389    0.0000 C   0  0  0  0  0  0  0  0  0  0  0  0
   -4.9046   -0.7173    0.0000 C   0  0  0  0  0  0  0  0  0  0  0  0
   -3.6482    0.1021    0.0000 C   0  0  0  0  0  0  0  0  0  0  0  0
   -3.7296    1.5999    0.0000 C   0  0  0  0  0  0  0  0  0  0  0  0
   -2.4732    2.4193    0.0000 C   0  0  0  0  0  0  0  0  0  0  0  0
   -1.1354    1.7409    0.0000 C   0  0  0  0  0  0  0  0  0  0  0  0
    0.1210    2.5603    0.0000 C   0  0  0  0  0  0  0  0  0  0  0  0
    0.0396    4.0581    0.0000 O   0  0  0  0  0  0  0  0  0  0  0  0
    1.4589    1.8820    0.0000 O   0  0  0  0  0  0  0  0  0  0  0  0
    2.7153    2.7014    0.0000 C   0  0  0  0  0  0  0  0  0  0  0  0
    4.0531    2.0230    0.0000 C   0  0  0  0  0  0  0  0  0  0  0  0
    4.1345    0.5252    0.0000 C   0  0  0  0  0  0  0  0  0  0  0  0
    5.4723   -0.1532    0.0000 C   0  0  0  0  0  0  0  0  0  0  0  0
    6.7288    0.6662    0.0000 C   0  0  0  0  0  0  0  0  0  0  0  0
    6.6473    2.1640    0.0000 C   0  0  0  0  0  0  0  0  0  0  0  0
    5.3095    2.8424    0.0000 C   0  0  0  0  0  0  0  0  0  0  0  0
   -1.0540    0.2432    0.0000 C   0  0  0  0  0  0  0  0  0  0  0  0
    0.2838   -0.4352    0.0000 O   0  0  0  0  0  0  0  0  0  0  0  0
    0.3653   -1.9330    0.0000 C   0  0  0  0  0  0  0  0  0  0  0  0
    1.7031   -2.6114    0.0000 C   0  0  0  0  0  0  0  0  0  0  0  0
    1.7845   -4.1092    0.0000 C   0  0  0  0  0  0  0  0  0  0  0  0
    3.1223   -4.7876    0.0000 C   0  0  0  0  0  0  0  0  0  0  0  0
    4.3788   -3.9682    0.0000 C   0  0  0  0  0  0  0  0  0  0  0  0
    4.2973   -2.4704    0.0000 C   0  0  0  0  0  0  0  0  0  0  0  0
    2.9595   -1.7920    0.0000 C   0  0  0  0  0  0  0  0  0  0  0  0
   -2.3104   -0.5762    0.0000 C   0  0  0  0  0  0  0  0  0  0  0  0
   -7.4989   -0.8583    0.0000 C   0  0  0  0  0  0  0  0  0  0  0  0
   -7.4175   -2.3561    0.0000 O   0  0  0  0  0  0  0  0  0  0  0  0
   -8.8367   -0.1799    0.0000 O   0  0  0  0  0  0  0  0  0  0  0  0
  2  1  1  1
  2  3  1  0
  3  4  1  0
  4  5  1  0
  5  6  2  0
  6  7  1  0
  7  8  1  0
  8  9  2  0
  8 10  1  0
 10 11  1  0
 11 12  1  0
 12 13  2  0
 13 14  1  0
 14 15  2  0
 15 16  1  0
 16 17  2  0
  7 18  2  0
 18 19  1  0
 19 20  1  0
 20 21  1  0
 21 22  2  0
 22 23  1  0
 23 24  2  0
 24 25  1  0
 25 26  2  0
 18 27  1  0
  2 28  1  0
 28 29  2  0
 28 30  1  0
 17 12  1  0
 26 21  1  0
 27  4  2  0
M  END
>  <rName>  (2989) 
Phe_3OBn_4Cbz

>  <PQ_SYMBOL>  (2989) 
Phe_3OBn_4Cbz

>  <FULL_NAME>  (2989) 
(S)-2-amino-3-(3-(benzyloxy)-4-((benzyloxy)carbonyl)phenyl)propanoic acid

>  <IUPAC_CONDENSED>  (2989) 
Phe(3-OBn,4-Cbz)

>  <IUPAC>  (2989) 
(2S)-2-amino-3-(3-benzyloxy-4-(benzyloxyformyl)phenyl)propanoic acid

>  <TYPE>  (2989) 
Backbone

>  <CLASS>  (2989) 
alpha

>  <ANALOG>  (2989) 
Tyr

>  <MOL_WT>  (2989) 
405.45000000000016

>  <LOGP>  (2989) 
3.5770000000000026

>  <TPSA>  (2989) 
98.85000000000001

>  <POPULARITY>  (2989) 
2.2

>  <PROTECTED>  (2989) 
TRUE

>  <SMILES>  (2989) 
N[C@@H](Cc3(ccc(C(=O)OCc1(ccccc1))c(OCc2(ccccc2))c3))C(=O)O

>  <INCHIKEY>  (2989) 
YZEQLHWHGJPHTM-NRFANRHFSA-N

$$$$
Phe_3OCF3
     RDKit          2D

 17 17  0  0  0  0  0  0  0  0999 V2000
   -3.3907    1.4014    0.0000 N   0  0  0  0  0  0  0  0  0  0  0  0
   -3.1013   -0.0704    0.0000 C   0  0  0  0  0  0  0  0  0  0  0  0
   -1.6819   -0.5556    0.0000 C   0  0  0  0  0  0  0  0  0  0  0  0
   -0.5520    0.4310    0.0000 C   0  0  0  0  0  0  0  0  0  0  0  0
   -0.8415    1.9028    0.0000 C   0  0  0  0  0  0  0  0  0  0  0  0
    0.2884    2.8894    0.0000 C   0  0  0  0  0  0  0  0  0  0  0  0
    1.7077    2.4042    0.0000 C   0  0  0  0  0  0  0  0  0  0  0  0
    1.9972    0.9324    0.0000 C   0  0  0  0  0  0  0  0  0  0  0  0
    3.4166    0.4472    0.0000 O   0  0  0  0  0  0  0  0  0  0  0  0
    3.7060   -1.0246    0.0000 C   0  0  0  0  0  0  0  0  0  0  0  0
    3.9955   -2.4964    0.0000 F   0  0  0  0  0  0  0  0  0  0  0  0
    5.1778   -0.7352    0.0000 F   0  0  0  0  0  0  0  0  0  0  0  0
    2.2342   -1.3141    0.0000 F   0  0  0  0  0  0  0  0  0  0  0  0
    0.8673   -0.0542    0.0000 C   0  0  0  0  0  0  0  0  0  0  0  0
   -4.2312   -1.0570    0.0000 C   0  0  0  0  0  0  0  0  0  0  0  0
   -3.9417   -2.5288    0.0000 O   0  0  0  0  0  0  0  0  0  0  0  0
   -5.6505   -0.5718    0.0000 O   0  0  0  0  0  0  0  0  0  0  0  0
  2  1  1  1
  2  3  1  0
  3  4  1  0
  4  5  1  0
  5  6  2  0
  6  7  1  0
  7  8  2  0
  8  9  1  0
  9 10  1  0
 10 11  1  0
 10 12  1  0
 10 13  1  0
  8 14  1  0
  2 15  1  0
 15 16  2  0
 15 17  1  0
 14  4  2  0
M  END
>  <rName>  (2990) 
Phe_3OCF3

>  <PQ_SYMBOL>  (2990) 
Phe_3OCF3

>  <FULL_NAME>  (2990) 
(S)-2-amino-3-(3-(trifluoromethoxy)phenyl)propanoic acid

>  <IUPAC_CONDENSED>  (2990) 
Phe(3-OCF3)

>  <IUPAC>  (2990) 
(2S)-2-amino-3-(3-((trifluoromethyl)oxy)phenyl)propanoic acid

>  <TYPE>  (2990) 
Backbone

>  <CLASS>  (2990) 
alpha

>  <ANALOG>  (2990) 
Tyr

>  <MOL_WT>  (2990) 
249.18799999999993

>  <LOGP>  (2990) 
1.5396

>  <TPSA>  (2990) 
72.55

>  <POPULARITY>  (2990) 
5.3

>  <PROTECTED>  (2990) 
TRUE

>  <SMILES>  (2990) 
N[C@@H](Cc1(cccc(OC(F)(F)F)c1))C(=O)O

>  <INCHIKEY>  (2990) 
NIONQVYUGGCUHI-QMMMGPOBSA-N

$$$$
Phe_3OCHF2
     RDKit          2D

 16 16  0  0  0  0  0  0  0  0999 V2000
   -3.1121    1.4434    0.0000 N   0  0  0  0  0  0  0  0  0  0  0  0
   -2.8725   -0.0373    0.0000 C   0  0  0  0  0  0  0  0  0  0  0  0
   -1.4704   -0.5702    0.0000 C   0  0  0  0  0  0  0  0  0  0  0  0
   -0.3078    0.3776    0.0000 C   0  0  0  0  0  0  0  0  0  0  0  0
   -0.5473    1.8583    0.0000 C   0  0  0  0  0  0  0  0  0  0  0  0
    0.6153    2.8061    0.0000 C   0  0  0  0  0  0  0  0  0  0  0  0
    2.0174    2.2732    0.0000 C   0  0  0  0  0  0  0  0  0  0  0  0
    2.2569    0.7924    0.0000 C   0  0  0  0  0  0  0  0  0  0  0  0
    3.6591    0.2595    0.0000 O   0  0  0  0  0  0  0  0  0  0  0  0
    3.8986   -1.2212    0.0000 C   0  0  0  0  0  0  0  0  0  0  0  0
    5.3007   -1.7542    0.0000 F   0  0  0  0  0  0  0  0  0  0  0  0
    2.7360   -2.1691    0.0000 F   0  0  0  0  0  0  0  0  0  0  0  0
    1.0943   -0.1554    0.0000 C   0  0  0  0  0  0  0  0  0  0  0  0
   -4.0352   -0.9851    0.0000 C   0  0  0  0  0  0  0  0  0  0  0  0
   -3.7956   -2.4659    0.0000 O   0  0  0  0  0  0  0  0  0  0  0  0
   -5.4373   -0.4522    0.0000 O   0  0  0  0  0  0  0  0  0  0  0  0
  2  1  1  1
  2  3  1  0
  3  4  1  0
  4  5  1  0
  5  6  2  0
  6  7  1  0
  7  8  2  0
  8  9  1  0
  9 10  1  0
 10 11  1  0
 10 12  1  0
  8 13  1  0
  2 14  1  0
 14 15  2  0
 14 16  1  0
 13  4  2  0
M  END
>  <rName>  (2991) 
Phe_3OCHF2

>  <PQ_SYMBOL>  (2991) 
Phe_3OCHF2

>  <FULL_NAME>  (2991) 
(S)-2-amino-3-(3-(difluoromethoxy)phenyl)propanoic acid

>  <IUPAC_CONDENSED>  (2991) 
Phe(3-OCHF2)

>  <IUPAC>  (2991) 
(2S)-2-amino-3-(3-((difluoromethyl)oxy)phenyl)propanoic acid

>  <TYPE>  (2991) 
Backbone

>  <CLASS>  (2991) 
alpha

>  <ANALOG>  (2991) 
Tyr

>  <MOL_WT>  (2991) 
231.19799999999995

>  <LOGP>  (2991) 
1.2424000000000002

>  <TPSA>  (2991) 
72.55

>  <POPULARITY>  (2991) 
3.1

>  <PROTECTED>  (2991) 
TRUE

>  <SMILES>  (2991) 
N[C@@H](Cc1(cccc(OC(F)F)c1))C(=O)O

>  <INCHIKEY>  (2991) 
RJUZLLCGIHPZLB-QMMMGPOBSA-N

$$$$
Phe_3OCHF2_4F
     RDKit          2D

 17 17  0  0  0  0  0  0  0  0999 V2000
   -3.1880    1.5144    0.0000 N   0  0  0  0  0  0  0  0  0  0  0  0
   -3.0679    0.0192    0.0000 C   0  0  0  0  0  0  0  0  0  0  0  0
   -1.7130   -0.6244    0.0000 C   0  0  0  0  0  0  0  0  0  0  0  0
   -0.4782    0.2272    0.0000 C   0  0  0  0  0  0  0  0  0  0  0  0
   -0.5983    1.7223    0.0000 C   0  0  0  0  0  0  0  0  0  0  0  0
    0.6366    2.5739    0.0000 C   0  0  0  0  0  0  0  0  0  0  0  0
    1.9915    1.9303    0.0000 C   0  0  0  0  0  0  0  0  0  0  0  0
    3.2263    2.7819    0.0000 F   0  0  0  0  0  0  0  0  0  0  0  0
    2.1115    0.4351    0.0000 C   0  0  0  0  0  0  0  0  0  0  0  0
    3.4664   -0.2085    0.0000 O   0  0  0  0  0  0  0  0  0  0  0  0
    3.5865   -1.7037    0.0000 C   0  0  0  0  0  0  0  0  0  0  0  0
    4.9414   -2.3473    0.0000 F   0  0  0  0  0  0  0  0  0  0  0  0
    2.3517   -2.5552    0.0000 F   0  0  0  0  0  0  0  0  0  0  0  0
    0.8767   -0.4165    0.0000 C   0  0  0  0  0  0  0  0  0  0  0  0
   -4.3028   -0.8324    0.0000 C   0  0  0  0  0  0  0  0  0  0  0  0
   -4.1827   -2.3276    0.0000 O   0  0  0  0  0  0  0  0  0  0  0  0
   -5.6577   -0.1888    0.0000 O   0  0  0  0  0  0  0  0  0  0  0  0
  2  1  1  1
  2  3  1  0
  3  4  1  0
  4  5  1  0
  5  6  2  0
  6  7  1  0
  7  8  1  0
  7  9  2  0
  9 10  1  0
 10 11  1  0
 11 12  1  0
 11 13  1  0
  9 14  1  0
  2 15  1  0
 15 16  2  0
 15 17  1  0
 14  4  2  0
M  END
>  <rName>  (2992) 
Phe_3OCHF2_4F

>  <PQ_SYMBOL>  (2992) 
Phe_3OCHF2_4F

>  <FULL_NAME>  (2992) 
(S)-2-amino-3-(3-(difluoromethoxy)-4-fluorophenyl)propanoic acid

>  <IUPAC_CONDENSED>  (2992) 
Phe(3-OCHF2,4-F)

>  <IUPAC>  (2992) 
(2S)-2-amino-3-(3-((difluoromethyl)oxy)-4-fluorophenyl)propanoic acid

>  <TYPE>  (2992) 
Backbone

>  <CLASS>  (2992) 
alpha

>  <ANALOG>  (2992) 
Tyr

>  <MOL_WT>  (2992) 
249.18799999999996

>  <LOGP>  (2992) 
1.3815000000000002

>  <TPSA>  (2992) 
72.55

>  <POPULARITY>  (2992) 
2.6

>  <PROTECTED>  (2992) 
TRUE

>  <SMILES>  (2992) 
N[C@@H](Cc1(ccc(F)c(OC(F)F)c1))C(=O)O

>  <INCHIKEY>  (2992) 
RDPVMHDQTGWICK-ZETCQYMHSA-N

$$$$
Phe_3OEt
     RDKit          2D

 15 15  0  0  0  0  0  0  0  0999 V2000
   -2.8551    1.4556    0.0000 N   0  0  0  0  0  0  0  0  0  0  0  0
   -2.6961   -0.0360    0.0000 C   0  0  0  0  0  0  0  0  0  0  0  0
   -1.3248   -0.6441    0.0000 C   0  0  0  0  0  0  0  0  0  0  0  0
   -0.1126    0.2394    0.0000 C   0  0  0  0  0  0  0  0  0  0  0  0
   -0.2716    1.7310    0.0000 C   0  0  0  0  0  0  0  0  0  0  0  0
    0.9406    2.6144    0.0000 C   0  0  0  0  0  0  0  0  0  0  0  0
    2.3118    2.0064    0.0000 C   0  0  0  0  0  0  0  0  0  0  0  0
    2.4708    0.5148    0.0000 C   0  0  0  0  0  0  0  0  0  0  0  0
    3.8420   -0.0933    0.0000 O   0  0  0  0  0  0  0  0  0  0  0  0
    4.0010   -1.5848    0.0000 C   0  0  0  0  0  0  0  0  0  0  0  0
    5.3723   -2.1929    0.0000 C   0  0  0  0  0  0  0  0  0  0  0  0
    1.2586   -0.3687    0.0000 C   0  0  0  0  0  0  0  0  0  0  0  0
   -3.9083   -0.9195    0.0000 C   0  0  0  0  0  0  0  0  0  0  0  0
   -3.7493   -2.4110    0.0000 O   0  0  0  0  0  0  0  0  0  0  0  0
   -5.2795   -0.3114    0.0000 O   0  0  0  0  0  0  0  0  0  0  0  0
  2  1  1  1
  2  3  1  0
  3  4  1  0
  4  5  1  0
  5  6  2  0
  6  7  1  0
  7  8  2  0
  8  9  1  0
  9 10  1  0
 10 11  1  0
  8 12  1  0
  2 13  1  0
 13 14  2  0
 13 15  1  0
 12  4  2  0
M  END
>  <rName>  (2993) 
Phe_3OEt

>  <PQ_SYMBOL>  (2993) 
Phe_3OEt

>  <FULL_NAME>  (2993) 
(S)-2-amino-3-(3-ethoxyphenyl)propanoic acid

>  <IUPAC_CONDENSED>  (2993) 
Phe(3-OEt)

>  <IUPAC>  (2993) 
(2S)-2-amino-3-(3-ethoxyphenyl)propanoic acid

>  <TYPE>  (2993) 
Backbone

>  <CLASS>  (2993) 
alpha

>  <ANALOG>  (2993) 
Tyr

>  <MOL_WT>  (2993) 
209.24499999999995

>  <LOGP>  (2993) 
1.0396999999999998

>  <TPSA>  (2993) 
72.55

>  <POPULARITY>  (2993) 
8.4

>  <PROTECTED>  (2993) 
TRUE

>  <SMILES>  (2993) 
N[C@@H](Cc1(cccc(OCC)c1))C(=O)O

>  <INCHIKEY>  (2993) 
SEYVYCRBBASCRX-JTQLQIEISA-N

$$$$
Phe_3OEt_4OMe
     RDKit          2D

 17 17  0  0  0  0  0  0  0  0999 V2000
   -3.1671    1.5873    0.0000 N   0  0  0  0  0  0  0  0  0  0  0  0
   -3.2082    0.0879    0.0000 C   0  0  0  0  0  0  0  0  0  0  0  0
   -1.9302   -0.6974    0.0000 C   0  0  0  0  0  0  0  0  0  0  0  0
   -0.6111    0.0167    0.0000 C   0  0  0  0  0  0  0  0  0  0  0  0
   -0.5700    1.5162    0.0000 C   0  0  0  0  0  0  0  0  0  0  0  0
    0.7491    2.2303    0.0000 C   0  0  0  0  0  0  0  0  0  0  0  0
    2.0271    1.4450    0.0000 C   0  0  0  0  0  0  0  0  0  0  0  0
    3.3462    2.1592    0.0000 O   0  0  0  0  0  0  0  0  0  0  0  0
    4.6242    1.3739    0.0000 C   0  0  0  0  0  0  0  0  0  0  0  0
    1.9860   -0.0544    0.0000 C   0  0  0  0  0  0  0  0  0  0  0  0
    3.2640   -0.8397    0.0000 O   0  0  0  0  0  0  0  0  0  0  0  0
    3.2230   -2.3391    0.0000 C   0  0  0  0  0  0  0  0  0  0  0  0
    4.5010   -3.1244    0.0000 C   0  0  0  0  0  0  0  0  0  0  0  0
    0.6669   -0.7686    0.0000 C   0  0  0  0  0  0  0  0  0  0  0  0
   -4.5273   -0.6263    0.0000 C   0  0  0  0  0  0  0  0  0  0  0  0
   -4.5684   -2.1257    0.0000 O   0  0  0  0  0  0  0  0  0  0  0  0
   -5.8053    0.1590    0.0000 O   0  0  0  0  0  0  0  0  0  0  0  0
  2  1  1  1
  2  3  1  0
  3  4  1  0
  4  5  1  0
  5  6  2  0
  6  7  1  0
  7  8  1  0
  8  9  1  0
  7 10  2  0
 10 11  1  0
 11 12  1  0
 12 13  1  0
 10 14  1  0
  2 15  1  0
 15 16  2  0
 15 17  1  0
 14  4  2  0
M  END
>  <rName>  (2994) 
Phe_3OEt_4OMe

>  <PQ_SYMBOL>  (2994) 
Phe_3OEt_4OMe

>  <FULL_NAME>  (2994) 
3-ethoxy-O-methyl-L-tyrosine

>  <IUPAC_CONDENSED>  (2994) 
Phe(3-OEt,4-OMe)

>  <IUPAC>  (2994) 
(2S)-2-amino-3-(3-ethoxy-4-methoxyphenyl)propanoic acid

>  <TYPE>  (2994) 
Backbone

>  <CLASS>  (2994) 
alpha

>  <ANALOG>  (2994) 
Tyr

>  <MOL_WT>  (2994) 
239.27099999999996

>  <LOGP>  (2994) 
1.0482999999999998

>  <TPSA>  (2994) 
81.78

>  <POPULARITY>  (2994) 
6.1

>  <PROTECTED>  (2994) 
TRUE

>  <SMILES>  (2994) 
N[C@@H](Cc1(ccc(OC)c(OCC)c1))C(=O)O

>  <INCHIKEY>  (2994) 
NSWWDHBWOGBEJV-VIFPVBQESA-N

$$$$
Phe_3OH
     RDKit          2D

 13 13  0  0  0  0  0  0  0  0999 V2000
   -1.7680    1.6690    0.0000 N   0  0  0  0  0  0  0  0  0  0  0  0
   -1.9932    0.1860    0.0000 C   0  0  0  0  0  0  0  0  0  0  0  0
   -0.8215   -0.7506    0.0000 C   0  0  0  0  0  0  0  0  0  0  0  0
    0.5754   -0.2041    0.0000 C   0  0  0  0  0  0  0  0  0  0  0  0
    0.8006    1.2789    0.0000 C   0  0  0  0  0  0  0  0  0  0  0  0
    2.1976    1.8254    0.0000 C   0  0  0  0  0  0  0  0  0  0  0  0
    3.3693    0.8888    0.0000 C   0  0  0  0  0  0  0  0  0  0  0  0
    3.1441   -0.5942    0.0000 C   0  0  0  0  0  0  0  0  0  0  0  0
    4.3158   -1.5307    0.0000 O   0  0  0  0  0  0  0  0  0  0  0  0
    1.7472   -1.1406    0.0000 C   0  0  0  0  0  0  0  0  0  0  0  0
   -3.3901   -0.3605    0.0000 C   0  0  0  0  0  0  0  0  0  0  0  0
   -3.6153   -1.8435    0.0000 O   0  0  0  0  0  0  0  0  0  0  0  0
   -4.5618    0.5760    0.0000 O   0  0  0  0  0  0  0  0  0  0  0  0
  2  1  1  1
  2  3  1  0
  3  4  1  0
  4  5  2  0
  5  6  1  0
  6  7  2  0
  7  8  1  0
  8  9  1  0
  8 10  2  0
  2 11  1  0
 11 12  2  0
 11 13  1  0
 10  4  1  0
M  END
>  <rName>  (2995) 
Phe_3OH

>  <PQ_SYMBOL>  (2995) 
Phe_3OH

>  <FULL_NAME>  (2995) 
3-Hydroxy-L-Phenylalanine

>  <IUPAC_CONDENSED>  (2995) 
Phe(3-OH)

>  <IUPAC>  (2995) 
(2S)-2-amino-3-(3-hydroxyphenyl)propanoic acid

>  <TYPE>  (2995) 
Backbone

>  <CLASS>  (2995) 
alpha

>  <ANALOG>  (2995) 
Tyr

>  <MOL_WT>  (2995) 
181.19099999999997

>  <LOGP>  (2995) 
0.3466

>  <TPSA>  (2995) 
83.55

>  <POPULARITY>  (2995) 
28.9

>  <PROTECTED>  (2995) 
TRUE

>  <SMILES>  (2995) 
N[C@@H](Cc1(cccc(O)c1))C(=O)O

>  <INCHIKEY>  (2995) 
JZKXXXDKRQWDET-QMMMGPOBSA-N

$$$$
Phe_3OMe
     RDKit          2D

 14 14  0  0  0  0  0  0  0  0999 V2000
   -2.2742    1.6194    0.0000 N   0  0  0  0  0  0  0  0  0  0  0  0
   -2.3172    0.1200    0.0000 C   0  0  0  0  0  0  0  0  0  0  0  0
   -1.0402   -0.6669    0.0000 C   0  0  0  0  0  0  0  0  0  0  0  0
    0.2798    0.0456    0.0000 C   0  0  0  0  0  0  0  0  0  0  0  0
    0.3228    1.5450    0.0000 C   0  0  0  0  0  0  0  0  0  0  0  0
    1.6428    2.2574    0.0000 C   0  0  0  0  0  0  0  0  0  0  0  0
    2.9198    1.4705    0.0000 C   0  0  0  0  0  0  0  0  0  0  0  0
    2.8768   -0.0289    0.0000 C   0  0  0  0  0  0  0  0  0  0  0  0
    4.1538   -0.8158    0.0000 O   0  0  0  0  0  0  0  0  0  0  0  0
    4.1108   -2.3152    0.0000 C   0  0  0  0  0  0  0  0  0  0  0  0
    1.5568   -0.7414    0.0000 C   0  0  0  0  0  0  0  0  0  0  0  0
   -3.6372   -0.5924    0.0000 C   0  0  0  0  0  0  0  0  0  0  0  0
   -3.6802   -2.0918    0.0000 O   0  0  0  0  0  0  0  0  0  0  0  0
   -4.9142    0.1945    0.0000 O   0  0  0  0  0  0  0  0  0  0  0  0
  2  1  1  1
  2  3  1  0
  3  4  1  0
  4  5  1  0
  5  6  2  0
  6  7  1  0
  7  8  2  0
  8  9  1  0
  9 10  1  0
  8 11  1  0
  2 12  1  0
 12 13  2  0
 12 14  1  0
 11  4  2  0
M  END
>  <rName>  (2996) 
Phe_3OMe

>  <PQ_SYMBOL>  (2996) 
Phe_3OMe

>  <FULL_NAME>  (2996) 
3-Methoxy-L-Phenylalanine

>  <IUPAC_CONDENSED>  (2996) 
Phe(3-OMe)

>  <IUPAC>  (2996) 
(2S)-2-amino-3-(3-methoxyphenyl)propanoic acid

>  <TYPE>  (2996) 
Backbone

>  <CLASS>  (2996) 
alpha

>  <ANALOG>  (2996) 
Tyr

>  <MOL_WT>  (2996) 
195.21799999999996

>  <LOGP>  (2996) 
0.6496

>  <TPSA>  (2996) 
72.55

>  <POPULARITY>  (2996) 
15.1

>  <PROTECTED>  (2996) 
TRUE

>  <SMILES>  (2996) 
N[C@@H](Cc1(cccc(OC)c1))C(=O)O

>  <INCHIKEY>  (2996) 
XTXGLOBWOMUGQB-VIFPVBQESA-N

$$$$
Phe_3OMe_4Br
     RDKit          2D

 15 15  0  0  0  0  0  0  0  0999 V2000
   -2.4309    1.6735    0.0000 N   0  0  0  0  0  0  0  0  0  0  0  0
   -2.5936    0.1823    0.0000 C   0  0  0  0  0  0  0  0  0  0  0  0
   -1.3836   -0.7041    0.0000 C   0  0  0  0  0  0  0  0  0  0  0  0
   -0.0108   -0.0994    0.0000 C   0  0  0  0  0  0  0  0  0  0  0  0
    0.1518    1.3917    0.0000 C   0  0  0  0  0  0  0  0  0  0  0  0
    1.5245    1.9964    0.0000 C   0  0  0  0  0  0  0  0  0  0  0  0
    2.7346    1.1100    0.0000 C   0  0  0  0  0  0  0  0  0  0  0  0
    4.1073    1.7147    0.0000 Br  0  0  0  0  0  0  0  0  0  0  0  0
    2.5719   -0.3812    0.0000 C   0  0  0  0  0  0  0  0  0  0  0  0
    3.7820   -1.2676    0.0000 O   0  0  0  0  0  0  0  0  0  0  0  0
    3.6193   -2.7588    0.0000 C   0  0  0  0  0  0  0  0  0  0  0  0
    1.1992   -0.9859    0.0000 C   0  0  0  0  0  0  0  0  0  0  0  0
   -3.9663   -0.4224    0.0000 C   0  0  0  0  0  0  0  0  0  0  0  0
   -4.1290   -1.9135    0.0000 O   0  0  0  0  0  0  0  0  0  0  0  0
   -5.1764    0.4641    0.0000 O   0  0  0  0  0  0  0  0  0  0  0  0
  2  1  1  1
  2  3  1  0
  3  4  1  0
  4  5  1  0
  5  6  2  0
  6  7  1  0
  7  8  1  0
  7  9  2  0
  9 10  1  0
 10 11  1  0
  9 12  1  0
  2 13  1  0
 13 14  2  0
 13 15  1  0
 12  4  2  0
M  END
>  <rName>  (2997) 
Phe_3OMe_4Br

>  <PQ_SYMBOL>  (2997) 
Phe_3OMe_4Br

>  <FULL_NAME>  (2997) 
4-Bromo-3-methoxy-L-phenylalanine

>  <IUPAC_CONDENSED>  (2997) 
Phe(3-OMe,4-Br)

>  <IUPAC>  (2997) 
(2S)-2-amino-3-(4-bromo-3-methoxyphenyl)propanoic acid

>  <TYPE>  (2997) 
Backbone

>  <CLASS>  (2997) 
alpha

>  <ANALOG>  (2997) 
Tyr

>  <MOL_WT>  (2997) 
274.114

>  <LOGP>  (2997) 
1.4121000000000001

>  <TPSA>  (2997) 
72.55

>  <POPULARITY>  (2997) 
2.2

>  <PROTECTED>  (2997) 
TRUE

>  <SMILES>  (2997) 
N[C@@H](Cc1(ccc(Br)c(OC)c1))C(=O)O

>  <INCHIKEY>  (2997) 
WEKMPZFTGPEKKL-QMMMGPOBSA-N

$$$$
Phe_3OMe_4Cl
     RDKit          2D

 15 15  0  0  0  0  0  0  0  0999 V2000
   -2.4309    1.6735    0.0000 N   0  0  0  0  0  0  0  0  0  0  0  0
   -2.5936    0.1823    0.0000 C   0  0  0  0  0  0  0  0  0  0  0  0
   -1.3836   -0.7041    0.0000 C   0  0  0  0  0  0  0  0  0  0  0  0
   -0.0108   -0.0994    0.0000 C   0  0  0  0  0  0  0  0  0  0  0  0
    0.1518    1.3917    0.0000 C   0  0  0  0  0  0  0  0  0  0  0  0
    1.5245    1.9964    0.0000 C   0  0  0  0  0  0  0  0  0  0  0  0
    2.7346    1.1100    0.0000 C   0  0  0  0  0  0  0  0  0  0  0  0
    4.1073    1.7147    0.0000 Cl  0  0  0  0  0  0  0  0  0  0  0  0
    2.5719   -0.3812    0.0000 C   0  0  0  0  0  0  0  0  0  0  0  0
    3.7820   -1.2676    0.0000 O   0  0  0  0  0  0  0  0  0  0  0  0
    3.6193   -2.7588    0.0000 C   0  0  0  0  0  0  0  0  0  0  0  0
    1.1992   -0.9859    0.0000 C   0  0  0  0  0  0  0  0  0  0  0  0
   -3.9663   -0.4224    0.0000 C   0  0  0  0  0  0  0  0  0  0  0  0
   -4.1290   -1.9135    0.0000 O   0  0  0  0  0  0  0  0  0  0  0  0
   -5.1764    0.4641    0.0000 O   0  0  0  0  0  0  0  0  0  0  0  0
  2  1  1  1
  2  3  1  0
  3  4  1  0
  4  5  1  0
  5  6  2  0
  6  7  1  0
  7  8  1  0
  7  9  2  0
  9 10  1  0
 10 11  1  0
  9 12  1  0
  2 13  1  0
 13 14  2  0
 13 15  1  0
 12  4  2  0
M  END
>  <rName>  (2998) 
Phe_3OMe_4Cl

>  <PQ_SYMBOL>  (2998) 
Phe_3OMe_4Cl

>  <FULL_NAME>  (2998) 
(S)-2-amino-3-(4-chloro-3-methoxyphenyl)propanoic acid

>  <IUPAC_CONDENSED>  (2998) 
Phe(3-OMe,4-Cl)

>  <IUPAC>  (2998) 
(2S)-2-amino-3-(4-chloro-3-methoxyphenyl)propanoic acid

>  <TYPE>  (2998) 
Backbone

>  <CLASS>  (2998) 
alpha

>  <ANALOG>  (2998) 
Tyr

>  <MOL_WT>  (2998) 
229.66299999999998

>  <LOGP>  (2998) 
1.303

>  <TPSA>  (2998) 
72.55

>  <POPULARITY>  (2998) 
4.4

>  <PROTECTED>  (2998) 
TRUE

>  <SMILES>  (2998) 
N[C@@H](Cc1(ccc(Cl)c(OC)c1))C(=O)O

>  <INCHIKEY>  (2998) 
DVSYRLUHXAYEMH-QMMMGPOBSA-N

$$$$
Phe_3OMe_4F
     RDKit          2D

 15 15  0  0  0  0  0  0  0  0999 V2000
   -2.4309    1.6735    0.0000 N   0  0  0  0  0  0  0  0  0  0  0  0
   -2.5936    0.1823    0.0000 C   0  0  0  0  0  0  0  0  0  0  0  0
   -1.3836   -0.7041    0.0000 C   0  0  0  0  0  0  0  0  0  0  0  0
   -0.0108   -0.0994    0.0000 C   0  0  0  0  0  0  0  0  0  0  0  0
    0.1518    1.3917    0.0000 C   0  0  0  0  0  0  0  0  0  0  0  0
    1.5245    1.9964    0.0000 C   0  0  0  0  0  0  0  0  0  0  0  0
    2.7346    1.1100    0.0000 C   0  0  0  0  0  0  0  0  0  0  0  0
    4.1073    1.7147    0.0000 F   0  0  0  0  0  0  0  0  0  0  0  0
    2.5719   -0.3812    0.0000 C   0  0  0  0  0  0  0  0  0  0  0  0
    3.7820   -1.2676    0.0000 O   0  0  0  0  0  0  0  0  0  0  0  0
    3.6193   -2.7588    0.0000 C   0  0  0  0  0  0  0  0  0  0  0  0
    1.1992   -0.9859    0.0000 C   0  0  0  0  0  0  0  0  0  0  0  0
   -3.9663   -0.4224    0.0000 C   0  0  0  0  0  0  0  0  0  0  0  0
   -4.1290   -1.9135    0.0000 O   0  0  0  0  0  0  0  0  0  0  0  0
   -5.1764    0.4641    0.0000 O   0  0  0  0  0  0  0  0  0  0  0  0
  2  1  1  1
  2  3  1  0
  3  4  1  0
  4  5  1  0
  5  6  2  0
  6  7  1  0
  7  8  1  0
  7  9  2  0
  9 10  1  0
 10 11  1  0
  9 12  1  0
  2 13  1  0
 13 14  2  0
 13 15  1  0
 12  4  2  0
M  END
>  <rName>  (2999) 
Phe_3OMe_4F

>  <PQ_SYMBOL>  (2999) 
Phe_3OMe_4F

>  <FULL_NAME>  (2999) 
(S)-2-amino-3-(4-fluoro-3-methoxyphenyl)propanoic acid

>  <IUPAC_CONDENSED>  (2999) 
Phe(3-OMe,4-F)

>  <IUPAC>  (2999) 
(2S)-2-amino-3-(4-fluoro-3-methoxyphenyl)propanoic acid

>  <TYPE>  (2999) 
Backbone

>  <CLASS>  (2999) 
alpha

>  <ANALOG>  (2999) 
Tyr

>  <MOL_WT>  (2999) 
213.20799999999997

>  <LOGP>  (2999) 
0.7887000000000002

>  <TPSA>  (2999) 
72.55

>  <POPULARITY>  (2999) 
3.0

>  <PROTECTED>  (2999) 
TRUE

>  <SMILES>  (2999) 
N[C@@H](Cc1(ccc(F)c(OC)c1))C(=O)O

>  <INCHIKEY>  (2999) 
CHRWRFACJVKRNT-QMMMGPOBSA-N

$$$$
Phe_3OMe_4Me
     RDKit          2D

 15 15  0  0  0  0  0  0  0  0999 V2000
   -2.4309    1.6735    0.0000 N   0  0  0  0  0  0  0  0  0  0  0  0
   -2.5936    0.1823    0.0000 C   0  0  0  0  0  0  0  0  0  0  0  0
   -1.3836   -0.7041    0.0000 C   0  0  0  0  0  0  0  0  0  0  0  0
   -0.0108   -0.0994    0.0000 C   0  0  0  0  0  0  0  0  0  0  0  0
    0.1518    1.3917    0.0000 C   0  0  0  0  0  0  0  0  0  0  0  0
    1.5245    1.9964    0.0000 C   0  0  0  0  0  0  0  0  0  0  0  0
    2.7346    1.1100    0.0000 C   0  0  0  0  0  0  0  0  0  0  0  0
    4.1073    1.7147    0.0000 C   0  0  0  0  0  0  0  0  0  0  0  0
    2.5719   -0.3812    0.0000 C   0  0  0  0  0  0  0  0  0  0  0  0
    3.7820   -1.2676    0.0000 O   0  0  0  0  0  0  0  0  0  0  0  0
    3.6193   -2.7588    0.0000 C   0  0  0  0  0  0  0  0  0  0  0  0
    1.1992   -0.9859    0.0000 C   0  0  0  0  0  0  0  0  0  0  0  0
   -3.9663   -0.4224    0.0000 C   0  0  0  0  0  0  0  0  0  0  0  0
   -4.1290   -1.9135    0.0000 O   0  0  0  0  0  0  0  0  0  0  0  0
   -5.1764    0.4641    0.0000 O   0  0  0  0  0  0  0  0  0  0  0  0
  2  1  1  1
  2  3  1  0
  3  4  1  0
  4  5  1  0
  5  6  2  0
  6  7  1  0
  7  8  1  0
  7  9  2  0
  9 10  1  0
 10 11  1  0
  9 12  1  0
  2 13  1  0
 13 14  2  0
 13 15  1  0
 12  4  2  0
M  END
>  <rName>  (3000) 
Phe_3OMe_4Me

>  <PQ_SYMBOL>  (3000) 
Phe_3OMe_4Me

>  <FULL_NAME>  (3000) 
(S)-2-amino-3-(3-methoxy-4-methylphenyl)propanoic acid

>  <IUPAC_CONDENSED>  (3000) 
Phe(3-OMe,4-Me)

>  <IUPAC>  (3000) 
(2S)-2-amino-3-(3-methoxy-4-methylphenyl)propanoic acid

>  <TYPE>  (3000) 
Backbone

>  <CLASS>  (3000) 
alpha

>  <ANALOG>  (3000) 
Tyr

>  <MOL_WT>  (3000) 
209.24499999999998

>  <LOGP>  (3000) 
0.9580199999999999

>  <TPSA>  (3000) 
72.55

>  <POPULARITY>  (3000) 
4.6

>  <PROTECTED>  (3000) 
TRUE

>  <SMILES>  (3000) 
N[C@@H](Cc1(ccc(C)c(OC)c1))C(=O)O

>  <INCHIKEY>  (3000) 
KVCLBSURIAFEJS-VIFPVBQESA-N

$$$$
Phe_3OMe_4NH2
     RDKit          2D

 15 15  0  0  0  0  0  0  0  0999 V2000
   -2.4309    1.6735    0.0000 N   0  0  0  0  0  0  0  0  0  0  0  0
   -2.5936    0.1823    0.0000 C   0  0  0  0  0  0  0  0  0  0  0  0
   -1.3836   -0.7041    0.0000 C   0  0  0  0  0  0  0  0  0  0  0  0
   -0.0108   -0.0994    0.0000 C   0  0  0  0  0  0  0  0  0  0  0  0
    0.1518    1.3917    0.0000 C   0  0  0  0  0  0  0  0  0  0  0  0
    1.5245    1.9964    0.0000 C   0  0  0  0  0  0  0  0  0  0  0  0
    2.7346    1.1100    0.0000 C   0  0  0  0  0  0  0  0  0  0  0  0
    4.1073    1.7147    0.0000 N   0  0  0  0  0  0  0  0  0  0  0  0
    2.5719   -0.3812    0.0000 C   0  0  0  0  0  0  0  0  0  0  0  0
    3.7820   -1.2676    0.0000 O   0  0  0  0  0  0  0  0  0  0  0  0
    3.6193   -2.7588    0.0000 C   0  0  0  0  0  0  0  0  0  0  0  0
    1.1992   -0.9859    0.0000 C   0  0  0  0  0  0  0  0  0  0  0  0
   -3.9663   -0.4224    0.0000 C   0  0  0  0  0  0  0  0  0  0  0  0
   -4.1290   -1.9135    0.0000 O   0  0  0  0  0  0  0  0  0  0  0  0
   -5.1764    0.4641    0.0000 O   0  0  0  0  0  0  0  0  0  0  0  0
  2  1  1  1
  2  3  1  0
  3  4  1  0
  4  5  1  0
  5  6  2  0
  6  7  1  0
  7  8  1  0
  7  9  2  0
  9 10  1  0
 10 11  1  0
  9 12  1  0
  2 13  1  0
 13 14  2  0
 13 15  1  0
 12  4  2  0
M  END
>  <rName>  (3001) 
Phe_3OMe_4NH2

>  <PQ_SYMBOL>  (3001) 
Phe_3OMe_4NH2

>  <FULL_NAME>  (3001) 
(S)-2-amino-3-(4-amino-3-methoxyphenyl)propanoic acid

>  <IUPAC_CONDENSED>  (3001) 
Phe(3-OMe,4-NH2)

>  <IUPAC>  (3001) 
(2S)-2-amino-3-(4-amino-3-methoxyphenyl)propanoic acid

>  <TYPE>  (3001) 
Backbone

>  <CLASS>  (3001) 
alpha

>  <ANALOG>  (3001) 
Tyr

>  <MOL_WT>  (3001) 
210.23299999999998

>  <LOGP>  (3001) 
0.23179999999999995

>  <TPSA>  (3001) 
98.57000000000001

>  <POPULARITY>  (3001) 
4.4

>  <PROTECTED>  (3001) 
TRUE

>  <SMILES>  (3001) 
N[C@@H](Cc1(ccc(N)c(OC)c1))C(=O)O

>  <INCHIKEY>  (3001) 
KLAAHRYLQZIIGB-QMMMGPOBSA-N

$$$$
Phe_3OPh
     RDKit          2D

 19 20  0  0  0  0  0  0  0  0999 V2000
   -4.1899    0.9582    0.0000 N   0  0  0  0  0  0  0  0  0  0  0  0
   -3.5696   -0.4075    0.0000 C   0  0  0  0  0  0  0  0  0  0  0  0
   -2.0766   -0.5531    0.0000 C   0  0  0  0  0  0  0  0  0  0  0  0
   -1.2041    0.6670    0.0000 C   0  0  0  0  0  0  0  0  0  0  0  0
   -1.8245    2.0327    0.0000 C   0  0  0  0  0  0  0  0  0  0  0  0
   -0.9519    3.2528    0.0000 C   0  0  0  0  0  0  0  0  0  0  0  0
    0.5410    3.1072    0.0000 C   0  0  0  0  0  0  0  0  0  0  0  0
    1.1614    1.7415    0.0000 C   0  0  0  0  0  0  0  0  0  0  0  0
    2.6543    1.5959    0.0000 O   0  0  0  0  0  0  0  0  0  0  0  0
    3.2746    0.2302    0.0000 C   0  0  0  0  0  0  0  0  0  0  0  0
    2.4021   -0.9899    0.0000 C   0  0  0  0  0  0  0  0  0  0  0  0
    3.0225   -2.3556    0.0000 C   0  0  0  0  0  0  0  0  0  0  0  0
    4.5154   -2.5012    0.0000 C   0  0  0  0  0  0  0  0  0  0  0  0
    5.3879   -1.2811    0.0000 C   0  0  0  0  0  0  0  0  0  0  0  0
    4.7676    0.0846    0.0000 C   0  0  0  0  0  0  0  0  0  0  0  0
    0.2888    0.5214    0.0000 C   0  0  0  0  0  0  0  0  0  0  0  0
   -4.4421   -1.6276    0.0000 C   0  0  0  0  0  0  0  0  0  0  0  0
   -3.8217   -2.9933    0.0000 O   0  0  0  0  0  0  0  0  0  0  0  0
   -5.9350   -1.4821    0.0000 O   0  0  0  0  0  0  0  0  0  0  0  0
  2  1  1  1
  2  3  1  0
  3  4  1  0
  4  5  1  0
  5  6  2  0
  6  7  1  0
  7  8  2  0
  8  9  1  0
  9 10  1  0
 10 11  2  0
 11 12  1  0
 12 13  2  0
 13 14  1  0
 14 15  2  0
  8 16  1  0
  2 17  1  0
 17 18  2  0
 17 19  1  0
 15 10  1  0
 16  4  2  0
M  END
>  <rName>  (3002) 
Phe_3OPh

>  <PQ_SYMBOL>  (3002) 
Phe_3OPh

>  <FULL_NAME>  (3002) 
(S)-2-amino-3-(3-phenoxyphenyl)propanoic acid

>  <IUPAC_CONDENSED>  (3002) 
Phe(3-OPh)

>  <IUPAC>  (3002) 
(2S)-2-amino-3-(3-phenoxyphenyl)propanoic acid

>  <TYPE>  (3002) 
Backbone

>  <CLASS>  (3002) 
alpha

>  <ANALOG>  (3002) 
Tyr

>  <MOL_WT>  (3002) 
257.289

>  <LOGP>  (3002) 
2.4333

>  <TPSA>  (3002) 
72.55

>  <POPULARITY>  (3002) 
8.6

>  <PROTECTED>  (3002) 
TRUE

>  <SMILES>  (3002) 
N[C@@H](Cc2(cccc(Oc1(ccccc1))c2))C(=O)O

>  <INCHIKEY>  (3002) 
CVEJYSBWVPCQMR-AWEZNQCLSA-N

$$$$
Phe_3Oallyl
     RDKit          2D

 16 16  0  0  0  0  0  0  0  0999 V2000
   -3.4045    1.2232    0.0000 N   0  0  0  0  0  0  0  0  0  0  0  0
   -3.0391   -0.2316    0.0000 C   0  0  0  0  0  0  0  0  0  0  0  0
   -1.5965   -0.6426    0.0000 C   0  0  0  0  0  0  0  0  0  0  0  0
   -0.5193    0.4012    0.0000 C   0  0  0  0  0  0  0  0  0  0  0  0
   -0.8847    1.8560    0.0000 C   0  0  0  0  0  0  0  0  0  0  0  0
    0.1926    2.8999    0.0000 C   0  0  0  0  0  0  0  0  0  0  0  0
    1.6352    2.4889    0.0000 C   0  0  0  0  0  0  0  0  0  0  0  0
    2.0005    1.0340    0.0000 C   0  0  0  0  0  0  0  0  0  0  0  0
    3.4431    0.6230    0.0000 O   0  0  0  0  0  0  0  0  0  0  0  0
    3.8085   -0.8318    0.0000 C   0  0  0  0  0  0  0  0  0  0  0  0
    5.2511   -1.2428    0.0000 C   0  0  0  0  0  0  0  0  0  0  0  0
    5.6164   -2.6976    0.0000 C   0  0  0  0  0  0  0  0  0  0  0  0
    0.9233   -0.0098    0.0000 C   0  0  0  0  0  0  0  0  0  0  0  0
   -4.1164   -1.2754    0.0000 C   0  0  0  0  0  0  0  0  0  0  0  0
   -3.7510   -2.7303    0.0000 O   0  0  0  0  0  0  0  0  0  0  0  0
   -5.5590   -0.8644    0.0000 O   0  0  0  0  0  0  0  0  0  0  0  0
  2  1  1  1
  2  3  1  0
  3  4  1  0
  4  5  1  0
  5  6  2  0
  6  7  1  0
  7  8  2  0
  8  9  1  0
  9 10  1  0
 10 11  1  0
 11 12  2  0
  8 13  1  0
  2 14  1  0
 14 15  2  0
 14 16  1  0
 13  4  2  0
M  END
>  <rName>  (3003) 
Phe_3Oallyl

>  <PQ_SYMBOL>  (3003) 
Phe_3Oallyl

>  <FULL_NAME>  (3003) 
(S)-3-(3-(allyloxy)phenyl)-2-aminopropanoic acid

>  <IUPAC_CONDENSED>  (3003) 
Phe(3-Oallyl)

>  <IUPAC>  (3003) 
(2S)-2-amino-3-(3-((prop-2-en-1-yl)oxy)phenyl)propanoic acid

>  <TYPE>  (3003) 
Backbone

>  <CLASS>  (3003) 
alpha

>  <ANALOG>  (3003) 
Tyr

>  <MOL_WT>  (3003) 
221.25599999999994

>  <LOGP>  (3003) 
1.2058000000000002

>  <TPSA>  (3003) 
72.55

>  <POPULARITY>  (3003) 
4.9

>  <PROTECTED>  (3003) 
TRUE

>  <SMILES>  (3003) 
N[C@@H](Cc1(cccc(OCC=C)c1))C(=O)O

>  <INCHIKEY>  (3003) 
WYLZWXCYLFVNHQ-NSHDSACASA-N

$$$$
Phe_3Oprop2ynyl
     RDKit          2D

 16 16  0  0  0  0  0  0  0  0999 V2000
   -3.4410    1.2466    0.0000 N   0  0  0  0  0  0  0  0  0  0  0  0
   -3.1131   -0.2171    0.0000 C   0  0  0  0  0  0  0  0  0  0  0  0
   -1.6815   -0.6649    0.0000 C   0  0  0  0  0  0  0  0  0  0  0  0
   -0.5778    0.3509    0.0000 C   0  0  0  0  0  0  0  0  0  0  0  0
   -0.9058    1.8146    0.0000 C   0  0  0  0  0  0  0  0  0  0  0  0
    0.1979    2.8305    0.0000 C   0  0  0  0  0  0  0  0  0  0  0  0
    1.6295    2.3826    0.0000 C   0  0  0  0  0  0  0  0  0  0  0  0
    1.9574    0.9189    0.0000 C   0  0  0  0  0  0  0  0  0  0  0  0
    3.3890    0.4710    0.0000 O   0  0  0  0  0  0  0  0  0  0  0  0
    3.7169   -0.9927    0.0000 C   0  0  0  0  0  0  0  0  0  0  0  0
    5.1485   -1.4405    0.0000 C   0  0  0  0  0  0  0  0  0  0  0  0
    6.5801   -1.8884    0.0000 C   0  0  0  0  0  0  0  0  0  0  0  0
    0.8537   -0.0970    0.0000 C   0  0  0  0  0  0  0  0  0  0  0  0
   -4.2167   -1.2329    0.0000 C   0  0  0  0  0  0  0  0  0  0  0  0
   -3.8888   -2.6966    0.0000 O   0  0  0  0  0  0  0  0  0  0  0  0
   -5.6483   -0.7851    0.0000 O   0  0  0  0  0  0  0  0  0  0  0  0
  2  1  1  1
  2  3  1  0
  3  4  1  0
  4  5  1  0
  5  6  2  0
  6  7  1  0
  7  8  2  0
  8  9  1  0
  9 10  1  0
 10 11  1  0
 11 12  3  0
  8 13  1  0
  2 14  1  0
 14 15  2  0
 14 16  1  0
 13  4  2  0
M  END
>  <rName>  (3004) 
Phe_3Oprop2ynyl

>  <PQ_SYMBOL>  (3004) 
Phe_3Oprop2ynyl

>  <FULL_NAME>  (3004) 
(S)-2-amino-3-(3-(prop-2-yn-1-yloxy)phenyl)propanoic acid

>  <IUPAC_CONDENSED>  (3004) 
Phe(3-Oprop-2-ynyl)

>  <IUPAC>  (3004) 
(2S)-2-amino-3-(3-((prop-2-yn-1-yl)oxy)phenyl)propanoic acid

>  <TYPE>  (3004) 
Backbone

>  <CLASS>  (3004) 
alpha

>  <ANALOG>  (3004) 
Tyr

>  <MOL_WT>  (3004) 
219.23999999999995

>  <LOGP>  (3004) 
0.653

>  <TPSA>  (3004) 
72.55

>  <POPULARITY>  (3004) 
4.0

>  <PROTECTED>  (3004) 
TRUE

>  <SMILES>  (3004) 
N[C@@H](Cc1(cccc(OCC#C)c1))C(=O)O

>  <INCHIKEY>  (3004) 
BENMLSOQBDOBJH-NSHDSACASA-N

$$$$
Phe_3Ph
     RDKit          2D

 18 19  0  0  0  0  0  0  0  0999 V2000
   -3.8804    1.4159    0.0000 N   0  0  0  0  0  0  0  0  0  0  0  0
   -3.6989   -0.0731    0.0000 C   0  0  0  0  0  0  0  0  0  0  0  0
   -2.3187   -0.6604    0.0000 C   0  0  0  0  0  0  0  0  0  0  0  0
   -1.1199    0.2413    0.0000 C   0  0  0  0  0  0  0  0  0  0  0  0
   -1.3014    1.7303    0.0000 C   0  0  0  0  0  0  0  0  0  0  0  0
   -0.1027    2.6319    0.0000 C   0  0  0  0  0  0  0  0  0  0  0  0
    1.2776    2.0446    0.0000 C   0  0  0  0  0  0  0  0  0  0  0  0
    1.4590    0.5556    0.0000 C   0  0  0  0  0  0  0  0  0  0  0  0
    0.2603   -0.3461    0.0000 C   0  0  0  0  0  0  0  0  0  0  0  0
    2.8393   -0.0317    0.0000 C   0  0  0  0  0  0  0  0  0  0  0  0
    3.0208   -1.5207    0.0000 C   0  0  0  0  0  0  0  0  0  0  0  0
    4.4010   -2.1080    0.0000 C   0  0  0  0  0  0  0  0  0  0  0  0
    5.5997   -1.2064    0.0000 C   0  0  0  0  0  0  0  0  0  0  0  0
    5.4183    0.2826    0.0000 C   0  0  0  0  0  0  0  0  0  0  0  0
    4.0380    0.8699    0.0000 C   0  0  0  0  0  0  0  0  0  0  0  0
   -4.8977   -0.9747    0.0000 C   0  0  0  0  0  0  0  0  0  0  0  0
   -4.7162   -2.4637    0.0000 O   0  0  0  0  0  0  0  0  0  0  0  0
   -6.2779   -0.3874    0.0000 O   0  0  0  0  0  0  0  0  0  0  0  0
  2  1  1  1
  2  3  1  0
  3  4  1  0
  4  5  1  0
  5  6  2  0
  6  7  1  0
  7  8  2  0
  8  9  1  0
  8 10  1  0
 10 11  2  0
 11 12  1  0
 12 13  2  0
 13 14  1  0
 14 15  2  0
  2 16  1  0
 16 17  2  0
 16 18  1  0
  9  4  2  0
 15 10  1  0
M  END
>  <rName>  (3005) 
Phe_3Ph

>  <PQ_SYMBOL>  (3005) 
Phe_3Ph

>  <FULL_NAME>  (3005) 
(S)-2-Amino-3-biphenyl-3-yl-propionic acid

>  <IUPAC_CONDENSED>  (3005) 
Phe(3-Ph)

>  <IUPAC>  (3005) 
(2S)-2-amino-3-(3-phenylphenyl)propanoic acid

>  <TYPE>  (3005) 
Backbone

>  <CLASS>  (3005) 
alpha

>  <ANALOG>  (3005) 
Phe

>  <MOL_WT>  (3005) 
241.29

>  <LOGP>  (3005) 
2.308

>  <TPSA>  (3005) 
63.32000000000001

>  <POPULARITY>  (3005) 
15.0

>  <PROTECTED>  (3005) 
TRUE

>  <SMILES>  (3005) 
N[C@@H](Cc1(cccc(c1)c2(ccccc2)))C(=O)O

>  <INCHIKEY>  (3005) 
XXPHIHDDXCFWMS-AWEZNQCLSA-N

$$$$
Phe_3SO2Me
     RDKit          2D

 16 16  0  0  0  0  0  0  0  0999 V2000
   -2.9171    1.6042    0.0000 N   0  0  0  0  0  0  0  0  0  0  0  0
   -2.9225    0.1042    0.0000 C   0  0  0  0  0  0  0  0  0  0  0  0
   -1.6261   -0.6504    0.0000 C   0  0  0  0  0  0  0  0  0  0  0  0
   -0.3244    0.0949    0.0000 C   0  0  0  0  0  0  0  0  0  0  0  0
   -0.3190    1.5949    0.0000 C   0  0  0  0  0  0  0  0  0  0  0  0
    0.9827    2.3402    0.0000 C   0  0  0  0  0  0  0  0  0  0  0  0
    2.2790    1.5856    0.0000 C   0  0  0  0  0  0  0  0  0  0  0  0
    2.2736    0.0856    0.0000 C   0  0  0  0  0  0  0  0  0  0  0  0
    0.9719   -0.6597    0.0000 C   0  0  0  0  0  0  0  0  0  0  0  0
    3.5700   -0.6691    0.0000 S   0  0  0  0  0  0  0  0  0  0  0  0
    4.3246    0.6273    0.0000 O   0  0  0  0  0  0  0  0  0  0  0  0
    2.8153   -1.9654    0.0000 O   0  0  0  0  0  0  0  0  0  0  0  0
    4.8663   -1.4237    0.0000 C   0  0  0  0  0  0  0  0  0  0  0  0
   -4.2242   -0.6411    0.0000 C   0  0  0  0  0  0  0  0  0  0  0  0
   -4.2296   -2.1411    0.0000 O   0  0  0  0  0  0  0  0  0  0  0  0
   -5.5205    0.1136    0.0000 O   0  0  0  0  0  0  0  0  0  0  0  0
  2  1  1  1
  2  3  1  0
  3  4  1  0
  4  5  1  0
  5  6  2  0
  6  7  1  0
  7  8  2  0
  8  9  1  0
  8 10  1  0
 10 11  2  0
 10 12  2  0
 10 13  1  0
  2 14  1  0
 14 15  2  0
 14 16  1  0
  9  4  2  0
M  END
>  <rName>  (3006) 
Phe_3SO2Me

>  <PQ_SYMBOL>  (3006) 
Phe_3SO2Me

>  <FULL_NAME>  (3006) 
(2S)-2-amino-3-(3-methylsulfonylphenyl)propanoic acid

>  <IUPAC_CONDENSED>  (3006) 
Phe(3-SO2Me)

>  <IUPAC>  (3006) 
(2S)-2-amino-3-(3-(methylsulfonyl)phenyl)propanoic acid

>  <TYPE>  (3006) 
Backbone

>  <CLASS>  (3006) 
alpha

>  <ANALOG>  (3006) 
Phe

>  <MOL_WT>  (3006) 
243.28399999999993

>  <LOGP>  (3006) 
0.04450000000000015

>  <TPSA>  (3006) 
97.46000000000001

>  <POPULARITY>  (3006) 
6.9

>  <PROTECTED>  (3006) 
TRUE

>  <SMILES>  (3006) 
N[C@@H](Cc1(cccc(c1)S(=O)(=O)C))C(=O)O

>  <INCHIKEY>  (3006) 
QKZNLZTVEVNSPE-VIFPVBQESA-N

$$$$
Phe_3_bdiOH
     RDKit          2D

 14 14  0  0  0  0  0  0  0  0999 V2000
   -1.6438    1.8731    0.0000 N   0  0  0  0  0  0  0  0  0  0  0  0
   -1.9085    0.3966    0.0000 C   0  0  0  0  0  0  0  0  0  0  0  0
   -0.7622   -0.5709    0.0000 C   0  0  0  0  0  0  0  0  0  0  0  0
   -1.0270   -2.0473    0.0000 O   0  0  0  0  0  0  0  0  0  0  0  0
    0.6488   -0.0619    0.0000 C   0  0  0  0  0  0  0  0  0  0  0  0
    0.9135    1.4146    0.0000 C   0  0  0  0  0  0  0  0  0  0  0  0
    2.3245    1.9235    0.0000 C   0  0  0  0  0  0  0  0  0  0  0  0
    3.4708    0.9560    0.0000 C   0  0  0  0  0  0  0  0  0  0  0  0
    3.2061   -0.5204    0.0000 C   0  0  0  0  0  0  0  0  0  0  0  0
    4.3524   -1.4879    0.0000 O   0  0  0  0  0  0  0  0  0  0  0  0
    1.7951   -1.0294    0.0000 C   0  0  0  0  0  0  0  0  0  0  0  0
   -3.3195   -0.1124    0.0000 C   0  0  0  0  0  0  0  0  0  0  0  0
   -3.5842   -1.5888    0.0000 O   0  0  0  0  0  0  0  0  0  0  0  0
   -4.4658    0.8551    0.0000 O   0  0  0  0  0  0  0  0  0  0  0  0
  2  1  1  1
  2  3  1  0
  3  4  1  0
  3  5  1  0
  5  6  2  0
  6  7  1  0
  7  8  2  0
  8  9  1  0
  9 10  1  0
  9 11  2  0
  2 12  1  0
 12 13  2  0
 12 14  1  0
 11  5  1  0
M  END
>  <rName>  (3007) 
Phe_3_bdiOH

>  <PQ_SYMBOL>  (3007) 
Phe_3_bdiOH

>  <FULL_NAME>  (3007) 
β,3-dihydroxy-L-phenylalanine

>  <IUPAC_CONDENSED>  (3007) 
Phe(3,b-diOH)

>  <IUPAC>  (3007) 
(2S)-2-amino-3-hydroxy-3-(3-hydroxyphenyl)propanoic acid

>  <TYPE>  (3007) 
Backbone

>  <CLASS>  (3007) 
alpha

>  <ANALOG>  (3007) 
Tyr

>  <MOL_WT>  (3007) 
197.19

>  <LOGP>  (3007) 
-0.16250000000000014

>  <TPSA>  (3007) 
103.78000000000002

>  <POPULARITY>  (3007) 
2.6

>  <PROTECTED>  (3007) 
TRUE

>  <SMILES>  (3007) 
N[C@@H](C(O)c1(cccc(O)c1))C(=O)O

>  <INCHIKEY>  (3007) 
NJTIUXBTABQAPF-JAMMHHFISA-N

$$$$
Phe_3cPr
     RDKit          2D

 15 16  0  0  0  0  0  0  0  0999 V2000
   -2.7682    1.5512    0.0000 N   0  0  0  0  0  0  0  0  0  0  0  0
   -2.7490    0.0513    0.0000 C   0  0  0  0  0  0  0  0  0  0  0  0
   -1.4404   -0.6819    0.0000 C   0  0  0  0  0  0  0  0  0  0  0  0
   -0.1511    0.0847    0.0000 C   0  0  0  0  0  0  0  0  0  0  0  0
   -0.1703    1.5845    0.0000 C   0  0  0  0  0  0  0  0  0  0  0  0
    1.1190    2.3511    0.0000 C   0  0  0  0  0  0  0  0  0  0  0  0
    2.4275    1.6179    0.0000 C   0  0  0  0  0  0  0  0  0  0  0  0
    2.4468    0.1180    0.0000 C   0  0  0  0  0  0  0  0  0  0  0  0
    1.1575   -0.6486    0.0000 C   0  0  0  0  0  0  0  0  0  0  0  0
    3.7553   -0.6153    0.0000 C   0  0  0  0  0  0  0  0  0  0  0  0
    5.2552   -0.5960    0.0000 C   0  0  0  0  0  0  0  0  0  0  0  0
    4.5219   -1.9046    0.0000 C   0  0  0  0  0  0  0  0  0  0  0  0
   -4.0383   -0.7153    0.0000 C   0  0  0  0  0  0  0  0  0  0  0  0
   -4.0190   -2.2151    0.0000 O   0  0  0  0  0  0  0  0  0  0  0  0
   -5.3468    0.0180    0.0000 O   0  0  0  0  0  0  0  0  0  0  0  0
  2  1  1  1
  2  3  1  0
  3  4  1  0
  4  5  1  0
  5  6  2  0
  6  7  1  0
  7  8  2  0
  8  9  1  0
  8 10  1  0
 10 11  1  0
 11 12  1  0
  2 13  1  0
 13 14  2  0
 13 15  1  0
  9  4  2  0
 12 10  1  0
M  END
>  <rName>  (3008) 
Phe_3cPr

>  <PQ_SYMBOL>  (3008) 
Phe_3cPr

>  <FULL_NAME>  (3008) 
(S)-2-amino-3-(3-cyclopropylphenyl)propanoic acid

>  <IUPAC_CONDENSED>  (3008) 
Phe(3-cPr)

>  <IUPAC>  (3008) 
(2S)-2-amino-3-(3-cyclopropylphenyl)propanoic acid

>  <TYPE>  (3008) 
Backbone

>  <CLASS>  (3008) 
alpha

>  <ANALOG>  (3008) 
Phe

>  <MOL_WT>  (3008) 
205.25699999999995

>  <LOGP>  (3008) 
1.5184000000000002

>  <TPSA>  (3008) 
63.32000000000001

>  <POPULARITY>  (3008) 
4.3

>  <PROTECTED>  (3008) 
TRUE

>  <SMILES>  (3008) 
N[C@@H](Cc1(cccc(c1)C2(CC2)))C(=O)O

>  <INCHIKEY>  (3008) 
YZLGSWFYMJNKHQ-NSHDSACASA-N

$$$$
Phe_3dioxolan2yl_4F
     RDKit          2D

 18 19  0  0  0  0  0  0  0  0999 V2000
   -3.6315    1.4568    0.0000 N   0  0  0  0  0  0  0  0  0  0  0  0
   -3.5569   -0.0413    0.0000 C   0  0  0  0  0  0  0  0  0  0  0  0
   -2.2222   -0.7258    0.0000 C   0  0  0  0  0  0  0  0  0  0  0  0
   -0.9620    0.0878    0.0000 C   0  0  0  0  0  0  0  0  0  0  0  0
   -1.0366    1.5860    0.0000 C   0  0  0  0  0  0  0  0  0  0  0  0
    0.2236    2.3996    0.0000 C   0  0  0  0  0  0  0  0  0  0  0  0
    1.5583    1.7151    0.0000 C   0  0  0  0  0  0  0  0  0  0  0  0
    2.8184    2.5288    0.0000 F   0  0  0  0  0  0  0  0  0  0  0  0
    1.6328    0.2170    0.0000 C   0  0  0  0  0  0  0  0  0  0  0  0
    0.3727   -0.5967    0.0000 C   0  0  0  0  0  0  0  0  0  0  0  0
    2.9676   -0.4675    0.0000 C   0  0  0  0  0  0  0  0  0  0  0  0
    4.3058    0.2100    0.0000 O   0  0  0  0  0  0  0  0  0  0  0  0
    5.3637   -0.8535    0.0000 C   0  0  0  0  0  0  0  0  0  0  0  0
    4.6792   -2.1882    0.0000 C   0  0  0  0  0  0  0  0  0  0  0  0
    3.1983   -1.9497    0.0000 O   0  0  0  0  0  0  0  0  0  0  0  0
   -4.8170   -0.8550    0.0000 C   0  0  0  0  0  0  0  0  0  0  0  0
   -4.7425   -2.3531    0.0000 O   0  0  0  0  0  0  0  0  0  0  0  0
   -6.1518   -0.1705    0.0000 O   0  0  0  0  0  0  0  0  0  0  0  0
  2  1  1  1
  2  3  1  0
  3  4  1  0
  4  5  1  0
  5  6  2  0
  6  7  1  0
  7  8  1  0
  7  9  2  0
  9 10  1  0
  9 11  1  0
 11 12  1  0
 12 13  1  0
 13 14  1  0
 14 15  1  0
  2 16  1  0
 16 17  2  0
 16 18  1  0
 10  4  2  0
 15 11  1  0
M  END
>  <rName>  (3009) 
Phe_3dioxolan2yl_4F

>  <PQ_SYMBOL>  (3009) 
Phe_3dioxolan2yl_4F

>  <FULL_NAME>  (3009) 
(S)-3-(3-(1,3-dioxolan-2-yl)-4-fluorophenyl)-2-aminopropanoic acid

>  <IUPAC_CONDENSED>  (3009) 
Phe(3-dioxolan-2-yl,4-F)

>  <IUPAC>  (3009) 
(2S)-2-amino-3-(3-(1,3-dioxolan-2-yl)-4-fluorophenyl)propanoic acid

>  <TYPE>  (3009) 
Backbone

>  <CLASS>  (3009) 
alpha

>  <ANALOG>  (3009) 
Phe

>  <MOL_WT>  (3009) 
255.24499999999995

>  <LOGP>  (3009) 
0.8255000000000001

>  <TPSA>  (3009) 
81.78

>  <POPULARITY>  (3009) 
2.2

>  <PROTECTED>  (3009) 
TRUE

>  <SMILES>  (3009) 
N[C@@H](Cc1(ccc(F)c(c1)C2(OCCO2)))C(=O)O

>  <INCHIKEY>  (3009) 
DGZXCMKXBRQXKR-JTQLQIEISA-N

$$$$
Phe_3ethynyl
     RDKit          2D

 14 14  0  0  0  0  0  0  0  0999 V2000
   -2.3578    1.5845    0.0000 N   0  0  0  0  0  0  0  0  0  0  0  0
   -2.4110    0.0855    0.0000 C   0  0  0  0  0  0  0  0  0  0  0  0
   -1.1393   -0.7101    0.0000 C   0  0  0  0  0  0  0  0  0  0  0  0
    0.1855   -0.0066    0.0000 C   0  0  0  0  0  0  0  0  0  0  0  0
    0.2386    1.4925    0.0000 C   0  0  0  0  0  0  0  0  0  0  0  0
    1.5634    2.1960    0.0000 C   0  0  0  0  0  0  0  0  0  0  0  0
    2.8351    1.4004    0.0000 C   0  0  0  0  0  0  0  0  0  0  0  0
    2.7819   -0.0986    0.0000 C   0  0  0  0  0  0  0  0  0  0  0  0
    4.0535   -0.8942    0.0000 C   0  0  0  0  0  0  0  0  0  0  0  0
    5.3252   -1.6898    0.0000 C   0  0  0  0  0  0  0  0  0  0  0  0
    1.4571   -0.8021    0.0000 C   0  0  0  0  0  0  0  0  0  0  0  0
   -3.7358   -0.6180    0.0000 C   0  0  0  0  0  0  0  0  0  0  0  0
   -3.7889   -2.1171    0.0000 O   0  0  0  0  0  0  0  0  0  0  0  0
   -5.0074    0.1776    0.0000 O   0  0  0  0  0  0  0  0  0  0  0  0
  2  1  1  1
  2  3  1  0
  3  4  1  0
  4  5  2  0
  5  6  1  0
  6  7  2  0
  7  8  1  0
  8  9  1  0
  9 10  3  0
  8 11  2  0
  2 12  1  0
 12 13  2  0
 12 14  1  0
 11  4  1  0
M  END
>  <rName>  (3010) 
Phe_3ethynyl

>  <PQ_SYMBOL>  (3010) 
Phe_3ethynyl

>  <FULL_NAME>  (3010) 
(S)-2-amino-3-(3-ethynylphenyl)propanoic acid

>  <IUPAC_CONDENSED>  (3010) 
Phe(3-ethynyl)

>  <IUPAC>  (3010) 
(2S)-2-amino-3-(3-(ethynyl)phenyl)propanoic acid

>  <TYPE>  (3010) 
Backbone

>  <CLASS>  (3010) 
alpha

>  <ANALOG>  (3010) 
Phe

>  <MOL_WT>  (3010) 
189.21399999999997

>  <LOGP>  (3010) 
0.6223000000000001

>  <TPSA>  (3010) 
63.32000000000001

>  <POPULARITY>  (3010) 
4.8

>  <PROTECTED>  (3010) 
TRUE

>  <SMILES>  (3010) 
N[C@@H](Cc1(cccc(C#C)c1))C(=O)O

>  <INCHIKEY>  (3010) 
XHBJLKMBAFTWJD-JTQLQIEISA-N

$$$$
Phe_3pyrid3yl
     RDKit          2D

 18 19  0  0  0  0  0  0  0  0999 V2000
   -3.8804    1.4159    0.0000 N   0  0  0  0  0  0  0  0  0  0  0  0
   -3.6989   -0.0731    0.0000 C   0  0  0  0  0  0  0  0  0  0  0  0
   -2.3187   -0.6604    0.0000 C   0  0  0  0  0  0  0  0  0  0  0  0
   -1.1199    0.2413    0.0000 C   0  0  0  0  0  0  0  0  0  0  0  0
   -1.3014    1.7303    0.0000 C   0  0  0  0  0  0  0  0  0  0  0  0
   -0.1027    2.6319    0.0000 C   0  0  0  0  0  0  0  0  0  0  0  0
    1.2776    2.0446    0.0000 C   0  0  0  0  0  0  0  0  0  0  0  0
    1.4590    0.5556    0.0000 C   0  0  0  0  0  0  0  0  0  0  0  0
    0.2603   -0.3461    0.0000 C   0  0  0  0  0  0  0  0  0  0  0  0
    2.8393   -0.0317    0.0000 C   0  0  0  0  0  0  0  0  0  0  0  0
    3.0208   -1.5207    0.0000 C   0  0  0  0  0  0  0  0  0  0  0  0
    4.4010   -2.1080    0.0000 C   0  0  0  0  0  0  0  0  0  0  0  0
    5.5997   -1.2064    0.0000 C   0  0  0  0  0  0  0  0  0  0  0  0
    5.4183    0.2826    0.0000 N   0  0  0  0  0  0  0  0  0  0  0  0
    4.0380    0.8699    0.0000 C   0  0  0  0  0  0  0  0  0  0  0  0
   -4.8977   -0.9747    0.0000 C   0  0  0  0  0  0  0  0  0  0  0  0
   -4.7162   -2.4637    0.0000 O   0  0  0  0  0  0  0  0  0  0  0  0
   -6.2779   -0.3874    0.0000 O   0  0  0  0  0  0  0  0  0  0  0  0
  2  1  1  1
  2  3  1  0
  3  4  1  0
  4  5  1  0
  5  6  2  0
  6  7  1  0
  7  8  2  0
  8  9  1  0
  8 10  1  0
 10 11  2  0
 11 12  1  0
 12 13  2  0
 13 14  1  0
 14 15  2  0
  2 16  1  0
 16 17  2  0
 16 18  1  0
  9  4  2  0
 15 10  1  0
M  END
>  <rName>  (3011) 
Phe_3pyrid3yl

>  <PQ_SYMBOL>  (3011) 
Phe_3pyrid3yl

>  <FULL_NAME>  (3011) 
3-(3-Pyridinyl)-L-phenylalanine

>  <IUPAC_CONDENSED>  (3011) 
Phe(3-pyrid-3-yl)

>  <IUPAC>  (3011) 
(2S)-2-amino-3-(3-pyridin-3-ylphenyl)propanoic acid

>  <TYPE>  (3011) 
Backbone

>  <CLASS>  (3011) 
alpha

>  <ANALOG>  (3011) 
Phe

>  <MOL_WT>  (3011) 
242.278

>  <LOGP>  (3011) 
1.703

>  <TPSA>  (3011) 
76.21

>  <POPULARITY>  (3011) 
3.5

>  <PROTECTED>  (3011) 
TRUE

>  <SMILES>  (3011) 
N[C@@H](Cc1(cccc(c1)c2(cccnc2)))C(=O)O

>  <INCHIKEY>  (3011) 
GBCMZCWYDSFWKS-ZDUSSCGKSA-N

$$$$
Phe_3pyrid4yl
     RDKit          2D

 18 19  0  0  0  0  0  0  0  0999 V2000
   -3.8804    1.4159    0.0000 N   0  0  0  0  0  0  0  0  0  0  0  0
   -3.6989   -0.0731    0.0000 C   0  0  0  0  0  0  0  0  0  0  0  0
   -2.3187   -0.6604    0.0000 C   0  0  0  0  0  0  0  0  0  0  0  0
   -1.1199    0.2413    0.0000 C   0  0  0  0  0  0  0  0  0  0  0  0
   -1.3014    1.7303    0.0000 C   0  0  0  0  0  0  0  0  0  0  0  0
   -0.1027    2.6319    0.0000 C   0  0  0  0  0  0  0  0  0  0  0  0
    1.2776    2.0446    0.0000 C   0  0  0  0  0  0  0  0  0  0  0  0
    1.4590    0.5556    0.0000 C   0  0  0  0  0  0  0  0  0  0  0  0
    0.2603   -0.3461    0.0000 C   0  0  0  0  0  0  0  0  0  0  0  0
    2.8393   -0.0317    0.0000 C   0  0  0  0  0  0  0  0  0  0  0  0
    3.0208   -1.5207    0.0000 C   0  0  0  0  0  0  0  0  0  0  0  0
    4.4010   -2.1080    0.0000 C   0  0  0  0  0  0  0  0  0  0  0  0
    5.5997   -1.2064    0.0000 N   0  0  0  0  0  0  0  0  0  0  0  0
    5.4183    0.2826    0.0000 C   0  0  0  0  0  0  0  0  0  0  0  0
    4.0380    0.8699    0.0000 C   0  0  0  0  0  0  0  0  0  0  0  0
   -4.8977   -0.9747    0.0000 C   0  0  0  0  0  0  0  0  0  0  0  0
   -4.7162   -2.4637    0.0000 O   0  0  0  0  0  0  0  0  0  0  0  0
   -6.2779   -0.3874    0.0000 O   0  0  0  0  0  0  0  0  0  0  0  0
  2  1  1  1
  2  3  1  0
  3  4  1  0
  4  5  1  0
  5  6  2  0
  6  7  1  0
  7  8  2  0
  8  9  1  0
  8 10  1  0
 10 11  1  0
 11 12  2  0
 12 13  1  0
 13 14  2  0
 14 15  1  0
  2 16  1  0
 16 17  2  0
 16 18  1  0
  9  4  2  0
 15 10  2  0
M  END
>  <rName>  (3012) 
Phe_3pyrid4yl

>  <PQ_SYMBOL>  (3012) 
Phe_3pyrid4yl

>  <FULL_NAME>  (3012) 
(2S)-2-amino-3-(3-pyridin-4-ylphenyl)propanoic acid

>  <IUPAC_CONDENSED>  (3012) 
Phe(3-pyrid-4-yl)

>  <IUPAC>  (3012) 
(2S)-2-amino-3-(3-pyridin-4-ylphenyl)propanoic acid

>  <TYPE>  (3012) 
Backbone

>  <CLASS>  (3012) 
alpha

>  <ANALOG>  (3012) 
Phe

>  <MOL_WT>  (3012) 
242.278

>  <LOGP>  (3012) 
1.703

>  <TPSA>  (3012) 
76.21

>  <POPULARITY>  (3012) 
2.2

>  <PROTECTED>  (3012) 
TRUE

>  <SMILES>  (3012) 
N[C@@H](Cc1(cccc(c1)c2(ccncc2)))C(=O)O

>  <INCHIKEY>  (3012) 
HTTMXJDTUVOKIS-ZDUSSCGKSA-N

$$$$
Phe_3tBu
     RDKit          2D

 16 16  0  0  0  0  0  0  0  0999 V2000
   -2.9171    1.6042    0.0000 N   0  0  0  0  0  0  0  0  0  0  0  0
   -2.9225    0.1042    0.0000 C   0  0  0  0  0  0  0  0  0  0  0  0
   -1.6261   -0.6504    0.0000 C   0  0  0  0  0  0  0  0  0  0  0  0
   -0.3244    0.0949    0.0000 C   0  0  0  0  0  0  0  0  0  0  0  0
   -0.3190    1.5949    0.0000 C   0  0  0  0  0  0  0  0  0  0  0  0
    0.9827    2.3402    0.0000 C   0  0  0  0  0  0  0  0  0  0  0  0
    2.2790    1.5856    0.0000 C   0  0  0  0  0  0  0  0  0  0  0  0
    2.2736    0.0856    0.0000 C   0  0  0  0  0  0  0  0  0  0  0  0
    0.9719   -0.6597    0.0000 C   0  0  0  0  0  0  0  0  0  0  0  0
    3.5700   -0.6691    0.0000 C   0  0  0  0  0  0  0  0  0  0  0  0
    2.8153   -1.9654    0.0000 C   0  0  0  0  0  0  0  0  0  0  0  0
    4.3246    0.6273    0.0000 C   0  0  0  0  0  0  0  0  0  0  0  0
    4.8663   -1.4237    0.0000 C   0  0  0  0  0  0  0  0  0  0  0  0
   -4.2242   -0.6411    0.0000 C   0  0  0  0  0  0  0  0  0  0  0  0
   -4.2296   -2.1411    0.0000 O   0  0  0  0  0  0  0  0  0  0  0  0
   -5.5205    0.1136    0.0000 O   0  0  0  0  0  0  0  0  0  0  0  0
  2  1  1  1
  2  3  1  0
  3  4  1  0
  4  5  1  0
  5  6  2  0
  6  7  1  0
  7  8  2  0
  8  9  1  0
  8 10  1  0
 10 11  1  0
 10 12  1  0
 10 13  1  0
  2 14  1  0
 14 15  2  0
 14 16  1  0
  9  4  2  0
M  END
>  <rName>  (3013) 
Phe_3tBu

>  <PQ_SYMBOL>  (3013) 
Phe_3tBu

>  <FULL_NAME>  (3013) 
(S)-2-amino-3-(3-(tert-butyl)phenyl)propanoic acid

>  <IUPAC_CONDENSED>  (3013) 
Phe(3-tBu)

>  <IUPAC>  (3013) 
(2S)-2-amino-3-(3-(tert-butyl)phenyl)propanoic acid

>  <TYPE>  (3013) 
Backbone

>  <CLASS>  (3013) 
alpha

>  <ANALOG>  (3013) 
Phe

>  <MOL_WT>  (3013) 
221.29999999999995

>  <LOGP>  (3013) 
1.9385000000000001

>  <TPSA>  (3013) 
63.32000000000001

>  <POPULARITY>  (3013) 
5.6

>  <PROTECTED>  (3013) 
TRUE

>  <SMILES>  (3013) 
N[C@@H](Cc1(cccc(c1)C(C)(C)C))C(=O)O

>  <INCHIKEY>  (3013) 
XYGRGGCXUZSDFB-NSHDSACASA-N

$$$$
Phe_3vinyl
     RDKit          2D

 14 14  0  0  0  0  0  0  0  0999 V2000
   -2.2742    1.6194    0.0000 N   0  0  0  0  0  0  0  0  0  0  0  0
   -2.3172    0.1200    0.0000 C   0  0  0  0  0  0  0  0  0  0  0  0
   -1.0402   -0.6669    0.0000 C   0  0  0  0  0  0  0  0  0  0  0  0
    0.2798    0.0456    0.0000 C   0  0  0  0  0  0  0  0  0  0  0  0
    0.3228    1.5450    0.0000 C   0  0  0  0  0  0  0  0  0  0  0  0
    1.6428    2.2574    0.0000 C   0  0  0  0  0  0  0  0  0  0  0  0
    2.9198    1.4705    0.0000 C   0  0  0  0  0  0  0  0  0  0  0  0
    2.8768   -0.0289    0.0000 C   0  0  0  0  0  0  0  0  0  0  0  0
    4.1538   -0.8158    0.0000 C   0  0  0  0  0  0  0  0  0  0  0  0
    4.1108   -2.3152    0.0000 C   0  0  0  0  0  0  0  0  0  0  0  0
    1.5568   -0.7414    0.0000 C   0  0  0  0  0  0  0  0  0  0  0  0
   -3.6372   -0.5924    0.0000 C   0  0  0  0  0  0  0  0  0  0  0  0
   -3.6802   -2.0918    0.0000 O   0  0  0  0  0  0  0  0  0  0  0  0
   -4.9142    0.1945    0.0000 O   0  0  0  0  0  0  0  0  0  0  0  0
  2  1  1  1
  2  3  1  0
  3  4  1  0
  4  5  2  0
  5  6  1  0
  6  7  2  0
  7  8  1  0
  8  9  1  0
  9 10  2  0
  8 11  2  0
  2 12  1  0
 12 13  2  0
 12 14  1  0
 11  4  1  0
M  END
>  <rName>  (3014) 
Phe_3vinyl

>  <PQ_SYMBOL>  (3014) 
Phe_3vinyl

>  <FULL_NAME>  (3014) 
N-Fmoc-3-ethenyl-L-Phenylalanine

>  <IUPAC_CONDENSED>  (3014) 
Phe(3-vinyl)

>  <IUPAC>  (3014) 
(2S)-2-amino-3-(3-ethenylphenyl)propanoic acid

>  <TYPE>  (3014) 
Backbone

>  <CLASS>  (3014) 
alpha

>  <ANALOG>  (3014) 
Phe

>  <MOL_WT>  (3014) 
191.22999999999996

>  <LOGP>  (3014) 
1.284

>  <TPSA>  (3014) 
63.32000000000001

>  <POPULARITY>  (3014) 
2.2

>  <PROTECTED>  (3014) 
TRUE

>  <SMILES>  (3014) 
N[C@@H](Cc1(cccc(C=C)c1))C(=O)O

>  <INCHIKEY>  (3014) 
LOQNGWKGCIQOMO-JTQLQIEISA-N

$$$$
Phe_42_5diMepyrrol1yl
     RDKit          2D

 19 20  0  0  0  0  0  0  0  0999 V2000
   -3.3688    1.6810    0.0000 N   0  0  0  0  0  0  0  0  0  0  0  0
   -3.9061    0.2806    0.0000 C   0  0  0  0  0  0  0  0  0  0  0  0
   -2.9620   -0.8850    0.0000 C   0  0  0  0  0  0  0  0  0  0  0  0
   -1.4805   -0.6501    0.0000 C   0  0  0  0  0  0  0  0  0  0  0  0
   -0.9432    0.7504    0.0000 C   0  0  0  0  0  0  0  0  0  0  0  0
    0.5383    0.9853    0.0000 C   0  0  0  0  0  0  0  0  0  0  0  0
    1.4825   -0.1803    0.0000 C   0  0  0  0  0  0  0  0  0  0  0  0
    0.9452   -1.5807    0.0000 C   0  0  0  0  0  0  0  0  0  0  0  0
   -0.5363   -1.8156    0.0000 C   0  0  0  0  0  0  0  0  0  0  0  0
    2.9640    0.0546    0.0000 N   0  0  0  0  0  0  0  0  0  0  0  0
    3.6448    1.3912    0.0000 C   0  0  0  0  0  0  0  0  0  0  0  0
    2.9636    2.7276    0.0000 C   0  0  0  0  0  0  0  0  0  0  0  0
    5.1263    1.1568    0.0000 C   0  0  0  0  0  0  0  0  0  0  0  0
    5.3612   -0.3247    0.0000 C   0  0  0  0  0  0  0  0  0  0  0  0
    4.0248   -1.0059    0.0000 C   0  0  0  0  0  0  0  0  0  0  0  0
    3.7904   -2.4874    0.0000 C   0  0  0  0  0  0  0  0  0  0  0  0
   -5.3876    0.0457    0.0000 C   0  0  0  0  0  0  0  0  0  0  0  0
   -5.9250   -1.3548    0.0000 O   0  0  0  0  0  0  0  0  0  0  0  0
   -6.3318    1.2112    0.0000 O   0  0  0  0  0  0  0  0  0  0  0  0
  2  1  1  1
  2  3  1  0
  3  4  1  0
  4  5  1  0
  5  6  2  0
  6  7  1  0
  7  8  2  0
  8  9  1  0
  7 10  1  0
 10 11  1  0
 11 12  1  0
 11 13  2  0
 13 14  1  0
 14 15  2  0
 15 16  1  0
  2 17  1  0
 17 18  2  0
 17 19  1  0
  9  4  2  0
 15 10  1  0
M  END
>  <rName>  (3015) 
Phe_42_5diMepyrrol1yl

>  <PQ_SYMBOL>  (3015) 
Phe_42_5diMepyrrol1yl

>  <FULL_NAME>  (3015) 
(S)-2-amino-3-(4-(2,5-dimethyl-1H-pyrrol-1-yl)phenyl)propanoic acid

>  <IUPAC_CONDENSED>  (3015) 
Phe(4-2,5-diMe-pyrrol-1-yl)

>  <IUPAC>  (3015) 
(2S)-2-amino-3-(4-(2,5-dimethyl-1H-pyrrol-1-yl)phenyl)propanoic acid

>  <TYPE>  (3015) 
Backbone

>  <CLASS>  (3015) 
alpha

>  <ANALOG>  (3015) 
Phe

>  <MOL_WT>  (3015) 
258.3209999999999

>  <LOGP>  (3015) 
2.04854

>  <TPSA>  (3015) 
68.25

>  <POPULARITY>  (3015) 
2.6

>  <PROTECTED>  (3015) 
TRUE

>  <SMILES>  (3015) 
N[C@@H](Cc1(ccc(cc1)n2(c(C)ccc2C)))C(=O)O

>  <INCHIKEY>  (3015) 
YJXFEIFSKOMFCJ-AWEZNQCLSA-N

$$$$
Phe_42carboxyethyl
     RDKit          2D

 17 17  0  0  0  0  0  0  0  0999 V2000
   -3.3399    1.6723    0.0000 N   0  0  0  0  0  0  0  0  0  0  0  0
   -3.7459    0.2283    0.0000 C   0  0  0  0  0  0  0  0  0  0  0  0
   -2.6984   -0.8453    0.0000 C   0  0  0  0  0  0  0  0  0  0  0  0
   -1.2448   -0.4749    0.0000 C   0  0  0  0  0  0  0  0  0  0  0  0
   -0.8388    0.9691    0.0000 C   0  0  0  0  0  0  0  0  0  0  0  0
    0.6147    1.3395    0.0000 C   0  0  0  0  0  0  0  0  0  0  0  0
    1.6623    0.2659    0.0000 C   0  0  0  0  0  0  0  0  0  0  0  0
    1.2563   -1.1781    0.0000 C   0  0  0  0  0  0  0  0  0  0  0  0
   -0.1972   -1.5485    0.0000 C   0  0  0  0  0  0  0  0  0  0  0  0
    3.1158    0.6363    0.0000 C   0  0  0  0  0  0  0  0  0  0  0  0
    4.1634   -0.4373    0.0000 C   0  0  0  0  0  0  0  0  0  0  0  0
    5.6169   -0.0669    0.0000 C   0  0  0  0  0  0  0  0  0  0  0  0
    6.0229    1.3771    0.0000 O   0  0  0  0  0  0  0  0  0  0  0  0
    6.6645   -1.1405    0.0000 O   0  0  0  0  0  0  0  0  0  0  0  0
   -5.1995   -0.1421    0.0000 C   0  0  0  0  0  0  0  0  0  0  0  0
   -5.6054   -1.5861    0.0000 O   0  0  0  0  0  0  0  0  0  0  0  0
   -6.2470    0.9315    0.0000 O   0  0  0  0  0  0  0  0  0  0  0  0
  2  1  1  1
  2  3  1  0
  3  4  1  0
  4  5  1  0
  5  6  2  0
  6  7  1  0
  7  8  2  0
  8  9  1  0
  7 10  1  0
 10 11  1  0
 11 12  1  0
 12 13  2  0
 12 14  1  0
  2 15  1  0
 15 16  2  0
 15 17  1  0
  9  4  2  0
M  END
>  <rName>  (3016) 
Phe_42carboxyethyl

>  <PQ_SYMBOL>  (3016) 
Phe_42carboxyethyl

>  <FULL_NAME>  (3016) 
(S)-2-amino-3-(4-(2-carboxyethyl)phenyl)propanoic acid

>  <IUPAC_CONDENSED>  (3016) 
Phe(4-2-carboxyethyl)

>  <IUPAC>  (3016) 
(2S)-2-amino-3-(4-(3-hydroxy-3-oxopropyl)phenyl)propanoic acid

>  <TYPE>  (3016) 
Backbone

>  <CLASS>  (3016) 
alpha

>  <ANALOG>  (3016) 
Phe

>  <MOL_WT>  (3016) 
237.25499999999994

>  <LOGP>  (3016) 
0.6582

>  <TPSA>  (3016) 
100.62000000000002

>  <POPULARITY>  (3016) 
3.9

>  <PROTECTED>  (3016) 
TRUE

>  <SMILES>  (3016) 
N[C@@H](Cc1(ccc(cc1)CCC(=O)O))C(=O)O

>  <INCHIKEY>  (3016) 
VOYPPTPIZRETCC-JTQLQIEISA-N

$$$$
Phe_43carboxypropyl
     RDKit          2D

 18 18  0  0  0  0  0  0  0  0999 V2000
   -3.9599    1.5919    0.0000 N   0  0  0  0  0  0  0  0  0  0  0  0
   -4.2369    0.1177    0.0000 C   0  0  0  0  0  0  0  0  0  0  0  0
   -3.0987   -0.8593    0.0000 C   0  0  0  0  0  0  0  0  0  0  0  0
   -1.6835   -0.3620    0.0000 C   0  0  0  0  0  0  0  0  0  0  0  0
   -1.4065    1.1122    0.0000 C   0  0  0  0  0  0  0  0  0  0  0  0
    0.0087    1.6094    0.0000 C   0  0  0  0  0  0  0  0  0  0  0  0
    1.1469    0.6324    0.0000 C   0  0  0  0  0  0  0  0  0  0  0  0
    0.8699   -0.8418    0.0000 C   0  0  0  0  0  0  0  0  0  0  0  0
   -0.5453   -1.3390    0.0000 C   0  0  0  0  0  0  0  0  0  0  0  0
    2.5621    1.1297    0.0000 C   0  0  0  0  0  0  0  0  0  0  0  0
    3.7003    0.1527    0.0000 C   0  0  0  0  0  0  0  0  0  0  0  0
    5.1155    0.6499    0.0000 C   0  0  0  0  0  0  0  0  0  0  0  0
    6.2537   -0.3270    0.0000 C   0  0  0  0  0  0  0  0  0  0  0  0
    5.9767   -1.8012    0.0000 O   0  0  0  0  0  0  0  0  0  0  0  0
    7.6689    0.1702    0.0000 O   0  0  0  0  0  0  0  0  0  0  0  0
   -5.6521   -0.3795    0.0000 C   0  0  0  0  0  0  0  0  0  0  0  0
   -5.9291   -1.8537    0.0000 O   0  0  0  0  0  0  0  0  0  0  0  0
   -6.7903    0.5974    0.0000 O   0  0  0  0  0  0  0  0  0  0  0  0
  2  1  1  1
  2  3  1  0
  3  4  1  0
  4  5  1  0
  5  6  2  0
  6  7  1  0
  7  8  2  0
  8  9  1  0
  7 10  1  0
 10 11  1  0
 11 12  1  0
 12 13  1  0
 13 14  2  0
 13 15  1  0
  2 16  1  0
 16 17  2  0
 16 18  1  0
  9  4  2  0
M  END
>  <rName>  (3017) 
Phe_43carboxypropyl

>  <PQ_SYMBOL>  (3017) 
Phe_43carboxypropyl

>  <FULL_NAME>  (3017) 
(S)-4-(4-(2-amino-2-carboxyethyl)phenyl)butanoic acid

>  <IUPAC_CONDENSED>  (3017) 
Phe(4-3-carboxypropyl)

>  <IUPAC>  (3017) 
4-(4-((2S)-2-amino-3-hydroxy-3-oxopropyl)phenyl)butanoic acid

>  <TYPE>  (3017) 
Backbone

>  <CLASS>  (3017) 
alpha

>  <ANALOG>  (3017) 
Phe

>  <MOL_WT>  (3017) 
251.28199999999993

>  <LOGP>  (3017) 
1.0483

>  <TPSA>  (3017) 
100.62000000000002

>  <POPULARITY>  (3017) 
3.0

>  <PROTECTED>  (3017) 
TRUE

>  <SMILES>  (3017) 
N[C@@H](Cc1(ccc(cc1)CCCC(=O)O))C(=O)O

>  <INCHIKEY>  (3017) 
ALLMRQJXVYBYNT-NSHDSACASA-N

$$$$
Phe_43oxobutyl
     RDKit          2D

 17 17  0  0  0  0  0  0  0  0999 V2000
   -3.3399    1.6723    0.0000 N   0  0  0  0  0  0  0  0  0  0  0  0
   -3.7459    0.2283    0.0000 C   0  0  0  0  0  0  0  0  0  0  0  0
   -2.6984   -0.8453    0.0000 C   0  0  0  0  0  0  0  0  0  0  0  0
   -1.2448   -0.4749    0.0000 C   0  0  0  0  0  0  0  0  0  0  0  0
   -0.8388    0.9691    0.0000 C   0  0  0  0  0  0  0  0  0  0  0  0
    0.6147    1.3395    0.0000 C   0  0  0  0  0  0  0  0  0  0  0  0
    1.6623    0.2659    0.0000 C   0  0  0  0  0  0  0  0  0  0  0  0
    1.2563   -1.1781    0.0000 C   0  0  0  0  0  0  0  0  0  0  0  0
   -0.1972   -1.5485    0.0000 C   0  0  0  0  0  0  0  0  0  0  0  0
    3.1158    0.6363    0.0000 C   0  0  0  0  0  0  0  0  0  0  0  0
    4.1634   -0.4373    0.0000 C   0  0  0  0  0  0  0  0  0  0  0  0
    5.6169   -0.0669    0.0000 C   0  0  0  0  0  0  0  0  0  0  0  0
    6.0229    1.3771    0.0000 O   0  0  0  0  0  0  0  0  0  0  0  0
    6.6645   -1.1405    0.0000 C   0  0  0  0  0  0  0  0  0  0  0  0
   -5.1995   -0.1421    0.0000 C   0  0  0  0  0  0  0  0  0  0  0  0
   -5.6054   -1.5861    0.0000 O   0  0  0  0  0  0  0  0  0  0  0  0
   -6.2470    0.9315    0.0000 O   0  0  0  0  0  0  0  0  0  0  0  0
  2  1  1  1
  2  3  1  0
  3  4  1  0
  4  5  1  0
  5  6  2  0
  6  7  1  0
  7  8  2  0
  8  9  1  0
  7 10  1  0
 10 11  1  0
 11 12  1  0
 12 13  2  0
 12 14  1  0
  2 15  1  0
 15 16  2  0
 15 17  1  0
  9  4  2  0
M  END
>  <rName>  (3018) 
Phe_43oxobutyl

>  <PQ_SYMBOL>  (3018) 
Phe_43oxobutyl

>  <FULL_NAME>  (3018) 
(S)-2-amino-3-(4-(3-oxobutyl)phenyl)propanoic acid

>  <IUPAC_CONDENSED>  (3018) 
Phe(4-3-oxobutyl)

>  <IUPAC>  (3018) 
(2S)-2-amino-3-(4-(3-oxobutyl)phenyl)propanoic acid

>  <TYPE>  (3018) 
Backbone

>  <CLASS>  (3018) 
alpha

>  <ANALOG>  (3018) 
Phe

>  <MOL_WT>  (3018) 
235.28299999999993

>  <LOGP>  (3018) 
1.1626000000000003

>  <TPSA>  (3018) 
80.39

>  <POPULARITY>  (3018) 
3.1

>  <PROTECTED>  (3018) 
TRUE

>  <SMILES>  (3018) 
N[C@@H](Cc1(ccc(cc1)CCC(=O)C))C(=O)O

>  <INCHIKEY>  (3018) 
PLEYXYKUDVUIPW-LBPRGKRZSA-N

$$$$
Phe_4Ac
     RDKit          2D

 15 15  0  0  0  0  0  0  0  0999 V2000
   -2.2547    1.6872    0.0000 N   0  0  0  0  0  0  0  0  0  0  0  0
   -2.7489    0.2709    0.0000 C   0  0  0  0  0  0  0  0  0  0  0  0
   -1.7696   -0.8652    0.0000 C   0  0  0  0  0  0  0  0  0  0  0  0
   -0.2959   -0.5852    0.0000 C   0  0  0  0  0  0  0  0  0  0  0  0
    0.1983    0.8311    0.0000 C   0  0  0  0  0  0  0  0  0  0  0  0
    1.6719    1.1111    0.0000 C   0  0  0  0  0  0  0  0  0  0  0  0
    2.6513   -0.0250    0.0000 C   0  0  0  0  0  0  0  0  0  0  0  0
    2.1570   -1.4413    0.0000 C   0  0  0  0  0  0  0  0  0  0  0  0
    0.6834   -1.7213    0.0000 C   0  0  0  0  0  0  0  0  0  0  0  0
    4.1249    0.2550    0.0000 C   0  0  0  0  0  0  0  0  0  0  0  0
    4.6192    1.6713    0.0000 O   0  0  0  0  0  0  0  0  0  0  0  0
    5.1043   -0.8811    0.0000 C   0  0  0  0  0  0  0  0  0  0  0  0
   -4.2225   -0.0091    0.0000 C   0  0  0  0  0  0  0  0  0  0  0  0
   -4.7168   -1.4254    0.0000 O   0  0  0  0  0  0  0  0  0  0  0  0
   -5.2019    1.1270    0.0000 O   0  0  0  0  0  0  0  0  0  0  0  0
  2  1  1  1
  2  3  1  0
  3  4  1  0
  4  5  1  0
  5  6  2  0
  6  7  1  0
  7  8  2  0
  8  9  1  0
  7 10  1  0
 10 11  2  0
 10 12  1  0
  2 13  1  0
 13 14  2  0
 13 15  1  0
  9  4  2  0
M  END
>  <rName>  (3019) 
Phe_4Ac

>  <PQ_SYMBOL>  (3019) 
Phe_4Ac

>  <FULL_NAME>  (3019) 
4-ACETYL-L-PHENYLALANINE

>  <IUPAC_CONDENSED>  (3019) 
Phe(4-Ac)

>  <IUPAC>  (3019) 
(2S)-3-(4-(acetyl)phenyl)-2-aminopropanoic acid

>  <TYPE>  (3019) 
Backbone

>  <CLASS>  (3019) 
alpha

>  <ANALOG>  (3019) 
Phe

>  <MOL_WT>  (3019) 
207.22899999999996

>  <LOGP>  (3019) 
0.8435999999999999

>  <TPSA>  (3019) 
80.39

>  <POPULARITY>  (3019) 
16.8

>  <PROTECTED>  (3019) 
TRUE

>  <SMILES>  (3019) 
N[C@@H](Cc1(ccc(cc1)C(=O)C))C(=O)O

>  <INCHIKEY>  (3019) 
ZXSBHXZKWRIEIA-JTQLQIEISA-N

$$$$
Phe_4BO2
     RDKit          2D

 15 15  0  0  0  0  0  0  0  0999 V2000
   -2.2547    1.6872    0.0000 N   0  0  0  0  0  0  0  0  0  0  0  0
   -2.7489    0.2709    0.0000 C   0  0  0  0  0  0  0  0  0  0  0  0
   -1.7696   -0.8652    0.0000 C   0  0  0  0  0  0  0  0  0  0  0  0
   -0.2959   -0.5852    0.0000 C   0  0  0  0  0  0  0  0  0  0  0  0
    0.1983    0.8311    0.0000 C   0  0  0  0  0  0  0  0  0  0  0  0
    1.6719    1.1111    0.0000 C   0  0  0  0  0  0  0  0  0  0  0  0
    2.6513   -0.0250    0.0000 C   0  0  0  0  0  0  0  0  0  0  0  0
    2.1570   -1.4413    0.0000 C   0  0  0  0  0  0  0  0  0  0  0  0
    0.6834   -1.7213    0.0000 C   0  0  0  0  0  0  0  0  0  0  0  0
    4.1249    0.2550    0.0000 B   0  0  0  0  0  0  0  0  0  0  0  0
    5.1043   -0.8811    0.0000 O   0  0  0  0  0  0  0  0  0  0  0  0
    4.6192    1.6713    0.0000 O   0  0  0  0  0  0  0  0  0  0  0  0
   -4.2225   -0.0091    0.0000 C   0  0  0  0  0  0  0  0  0  0  0  0
   -4.7168   -1.4254    0.0000 O   0  0  0  0  0  0  0  0  0  0  0  0
   -5.2019    1.1270    0.0000 O   0  0  0  0  0  0  0  0  0  0  0  0
  2  1  1  1
  2  3  1  0
  3  4  1  0
  4  5  1  0
  5  6  2  0
  6  7  1  0
  7  8  2  0
  8  9  1  0
  7 10  1  0
 10 11  1  0
 10 12  1  0
  2 13  1  0
 13 14  2  0
 13 15  1  0
  9  4  2  0
M  END
>  <rName>  (3020) 
Phe_4BO2

>  <PQ_SYMBOL>  (3020) 
Phe_4BO2

>  <FULL_NAME>  (3020) 
4-Borono-L-Phenylalanine

>  <IUPAC_CONDENSED>  (3020) 
Phe(4-BO2)

>  <IUPAC>  (3020) 
(2S)-2-amino-3-(4-(dihydroxyboryl)phenyl)propanoic acid

>  <TYPE>  (3020) 
Backbone

>  <CLASS>  (3020) 
alpha

>  <ANALOG>  (3020) 
Phe

>  <MOL_WT>  (3020) 
209.00999999999996

>  <LOGP>  (3020) 
-1.6792

>  <TPSA>  (3020) 
103.78000000000002

>  <POPULARITY>  (3020) 
17.7

>  <PROTECTED>  (3020) 
TRUE

>  <SMILES>  (3020) 
N[C@@H](Cc1(ccc(cc1)B(O)O))C(=O)O

>  <INCHIKEY>  (3020) 
NFIVJOSXJDORSP-QMMMGPOBSA-N

$$$$
Phe_4Br
     RDKit          2D

 13 13  0  0  0  0  0  0  0  0999 V2000
   -1.5766    1.6851    0.0000 N   0  0  0  0  0  0  0  0  0  0  0  0
   -2.0128    0.2500    0.0000 C   0  0  0  0  0  0  0  0  0  0  0  0
   -0.9880   -0.8454    0.0000 C   0  0  0  0  0  0  0  0  0  0  0  0
    0.4730   -0.5055    0.0000 C   0  0  0  0  0  0  0  0  0  0  0  0
    0.9092    0.9296    0.0000 C   0  0  0  0  0  0  0  0  0  0  0  0
    2.3702    1.2695    0.0000 C   0  0  0  0  0  0  0  0  0  0  0  0
    3.3950    0.1741    0.0000 C   0  0  0  0  0  0  0  0  0  0  0  0
    4.8560    0.5140    0.0000 Br  0  0  0  0  0  0  0  0  0  0  0  0
    2.9588   -1.2611    0.0000 C   0  0  0  0  0  0  0  0  0  0  0  0
    1.4978   -1.6009    0.0000 C   0  0  0  0  0  0  0  0  0  0  0  0
   -3.4738   -0.0899    0.0000 C   0  0  0  0  0  0  0  0  0  0  0  0
   -3.9100   -1.5250    0.0000 O   0  0  0  0  0  0  0  0  0  0  0  0
   -4.4986    1.0055    0.0000 O   0  0  0  0  0  0  0  0  0  0  0  0
  2  1  1  1
  2  3  1  0
  3  4  1  0
  4  5  1  0
  5  6  2  0
  6  7  1  0
  7  8  1  0
  7  9  2  0
  9 10  1  0
  2 11  1  0
 11 12  2  0
 11 13  1  0
 10  4  2  0
M  END
>  <rName>  (3021) 
Phe_4Br

>  <PQ_SYMBOL>  (3021) 
Phe_4Br

>  <FULL_NAME>  (3021) 
4-Bromo-L-Phenylalanine

>  <IUPAC_CONDENSED>  (3021) 
Phe(4-Br)

>  <IUPAC>  (3021) 
(2S)-2-amino-3-(4-bromophenyl)propanoic acid

>  <TYPE>  (3021) 
Backbone

>  <CLASS>  (3021) 
alpha

>  <ANALOG>  (3021) 
Phe

>  <MOL_WT>  (3021) 
244.08799999999997

>  <LOGP>  (3021) 
1.4035000000000002

>  <TPSA>  (3021) 
63.32000000000001

>  <POPULARITY>  (3021) 
32.5

>  <PROTECTED>  (3021) 
TRUE

>  <SMILES>  (3021) 
N[C@@H](Cc1(ccc(Br)cc1))C(=O)O

>  <INCHIKEY>  (3021) 
PEMUHKUIQHFMTH-QMMMGPOBSA-N

$$$$
Phe_4Bu
     RDKit          2D

 16 16  0  0  0  0  0  0  0  0999 V2000
   -3.0307    1.6397    0.0000 N   0  0  0  0  0  0  0  0  0  0  0  0
   -3.3793    0.1807    0.0000 C   0  0  0  0  0  0  0  0  0  0  0  0
   -2.2900   -0.8506    0.0000 C   0  0  0  0  0  0  0  0  0  0  0  0
   -0.8523   -0.4229    0.0000 C   0  0  0  0  0  0  0  0  0  0  0  0
   -0.5038    1.0360    0.0000 C   0  0  0  0  0  0  0  0  0  0  0  0
    0.9340    1.4637    0.0000 C   0  0  0  0  0  0  0  0  0  0  0  0
    2.0232    0.4324    0.0000 C   0  0  0  0  0  0  0  0  0  0  0  0
    1.6747   -1.0266    0.0000 C   0  0  0  0  0  0  0  0  0  0  0  0
    0.2369   -1.4542    0.0000 C   0  0  0  0  0  0  0  0  0  0  0  0
    3.4609    0.8600    0.0000 C   0  0  0  0  0  0  0  0  0  0  0  0
    4.5502   -0.1713    0.0000 C   0  0  0  0  0  0  0  0  0  0  0  0
    5.9879    0.2564    0.0000 C   0  0  0  0  0  0  0  0  0  0  0  0
    7.0771   -0.7749    0.0000 C   0  0  0  0  0  0  0  0  0  0  0  0
   -4.8170   -0.2469    0.0000 C   0  0  0  0  0  0  0  0  0  0  0  0
   -5.1655   -1.7059    0.0000 O   0  0  0  0  0  0  0  0  0  0  0  0
   -5.9062    0.7844    0.0000 O   0  0  0  0  0  0  0  0  0  0  0  0
  2  1  1  1
  2  3  1  0
  3  4  1  0
  4  5  1  0
  5  6  2  0
  6  7  1  0
  7  8  2  0
  8  9  1  0
  7 10  1  0
 10 11  1  0
 11 12  1  0
 12 13  1  0
  2 14  1  0
 14 15  2  0
 14 16  1  0
  9  4  2  0
M  END
>  <rName>  (3022) 
Phe_4Bu

>  <PQ_SYMBOL>  (3022) 
Phe_4Bu

>  <FULL_NAME>  (3022) 
(S)-2-amino-3-(4-butylphenyl)propanoic acid

>  <IUPAC_CONDENSED>  (3022) 
Phe(4-Bu)

>  <IUPAC>  (3022) 
(2S)-2-amino-3-(4-butylphenyl)propanoic acid

>  <TYPE>  (3022) 
Backbone

>  <CLASS>  (3022) 
alpha

>  <ANALOG>  (3022) 
Phe

>  <MOL_WT>  (3022) 
221.29999999999993

>  <LOGP>  (3022) 
1.9836000000000003

>  <TPSA>  (3022) 
63.32000000000001

>  <POPULARITY>  (3022) 
5.5

>  <PROTECTED>  (3022) 
TRUE

>  <SMILES>  (3022) 
N[C@@H](Cc1(ccc(cc1)CCCC))C(=O)O

>  <INCHIKEY>  (3022) 
SJDNDSCDCUTXRU-LBPRGKRZSA-N

$$$$
Phe_4CF2POOEt2
     RDKit          2D

 23 23  0  0  0  0  0  0  0  0999 V2000
   -4.1123    1.7868    0.0000 N   0  0  0  0  0  0  0  0  0  0  0  0
   -4.4081    0.3163    0.0000 C   0  0  0  0  0  0  0  0  0  0  0  0
   -3.2824   -0.6751    0.0000 C   0  0  0  0  0  0  0  0  0  0  0  0
   -1.8610   -0.1960    0.0000 C   0  0  0  0  0  0  0  0  0  0  0  0
   -1.5652    1.2746    0.0000 C   0  0  0  0  0  0  0  0  0  0  0  0
   -0.1438    1.7538    0.0000 C   0  0  0  0  0  0  0  0  0  0  0  0
    0.9818    0.7624    0.0000 C   0  0  0  0  0  0  0  0  0  0  0  0
    0.6861   -0.7082    0.0000 C   0  0  0  0  0  0  0  0  0  0  0  0
   -0.7353   -1.1874    0.0000 C   0  0  0  0  0  0  0  0  0  0  0  0
    2.4032    1.2415    0.0000 C   0  0  0  0  0  0  0  0  0  0  0  0
    3.8247    1.7207    0.0000 F   0  0  0  0  0  0  0  0  0  0  0  0
    1.9241    2.6629    0.0000 F   0  0  0  0  0  0  0  0  0  0  0  0
    2.8824   -0.1799    0.0000 P   0  0  0  0  0  0  0  0  0  0  0  0
    3.3616   -1.6013    0.0000 O   0  0  0  0  0  0  0  0  0  0  0  0
    1.4610   -0.6591    0.0000 O   0  0  0  0  0  0  0  0  0  0  0  0
    1.1652   -2.1296    0.0000 C   0  0  0  0  0  0  0  0  0  0  0  0
   -0.2562   -2.6088    0.0000 C   0  0  0  0  0  0  0  0  0  0  0  0
    4.3038    0.2993    0.0000 O   0  0  0  0  0  0  0  0  0  0  0  0
    5.4295   -0.6922    0.0000 C   0  0  0  0  0  0  0  0  0  0  0  0
    6.8509   -0.2130    0.0000 C   0  0  0  0  0  0  0  0  0  0  0  0
   -5.8295   -0.1629    0.0000 C   0  0  0  0  0  0  0  0  0  0  0  0
   -6.1252   -1.6334    0.0000 O   0  0  0  0  0  0  0  0  0  0  0  0
   -6.9551    0.8285    0.0000 O   0  0  0  0  0  0  0  0  0  0  0  0
  2  1  1  1
  2  3  1  0
  3  4  1  0
  4  5  1  0
  5  6  2  0
  6  7  1  0
  7  8  2  0
  8  9  1  0
  7 10  1  0
 10 11  1  0
 10 12  1  0
 10 13  1  0
 13 14  2  0
 13 15  1  0
 15 16  1  0
 16 17  1  0
 13 18  1  0
 18 19  1  0
 19 20  1  0
  2 21  1  0
 21 22  2  0
 21 23  1  0
  9  4  2  0
M  END
>  <rName>  (3023) 
Phe_4CF2POOEt2

>  <PQ_SYMBOL>  (3023) 
Phe_4CF2POOEt2

>  <FULL_NAME>  (3023) 
(S)-2-amino-3-(4-((diethoxyphosphoryl)difluoromethyl)phenyl)propanoic acid

>  <IUPAC_CONDENSED>  (3023) 
Phe(4-CF2PO(OEt)2)

>  <IUPAC>  (3023) 
(2S)-2-amino-3-(4-((diethoxyphosphoryl)difluoromethyl)phenyl)propanoic acid

>  <TYPE>  (3023) 
Backbone

>  <CLASS>  (3023) 
alpha

>  <ANALOG>  (3023) 
Phe

>  <MOL_WT>  (3023) 
351.28600000000006

>  <LOGP>  (3023) 
2.9564000000000012

>  <TPSA>  (3023) 
98.85000000000001

>  <POPULARITY>  (3023) 
3.6

>  <PROTECTED>  (3023) 
TRUE

>  <SMILES>  (3023) 
N[C@@H](Cc1(ccc(cc1)C(F)(F)P(=O)(OCC)OCC))C(=O)O

>  <INCHIKEY>  (3023) 
SNSFIWGJZZYFDH-LBPRGKRZSA-N

$$$$
Phe_4CF3
     RDKit          2D

 16 16  0  0  0  0  0  0  0  0999 V2000
   -2.5021    1.6866    0.0000 N   0  0  0  0  0  0  0  0  0  0  0  0
   -3.0051    0.2735    0.0000 C   0  0  0  0  0  0  0  0  0  0  0  0
   -2.0328   -0.8687    0.0000 C   0  0  0  0  0  0  0  0  0  0  0  0
   -0.5574   -0.5977    0.0000 C   0  0  0  0  0  0  0  0  0  0  0  0
   -0.0545    0.8155    0.0000 C   0  0  0  0  0  0  0  0  0  0  0  0
    1.4208    1.0865    0.0000 C   0  0  0  0  0  0  0  0  0  0  0  0
    2.3932   -0.0557    0.0000 C   0  0  0  0  0  0  0  0  0  0  0  0
    1.8902   -1.4688    0.0000 C   0  0  0  0  0  0  0  0  0  0  0  0
    0.4149   -1.7398    0.0000 C   0  0  0  0  0  0  0  0  0  0  0  0
    3.8685    0.2153    0.0000 C   0  0  0  0  0  0  0  0  0  0  0  0
    5.3438    0.4863    0.0000 F   0  0  0  0  0  0  0  0  0  0  0  0
    4.1395   -1.2600    0.0000 F   0  0  0  0  0  0  0  0  0  0  0  0
    3.5975    1.6906    0.0000 F   0  0  0  0  0  0  0  0  0  0  0  0
   -4.4804    0.0025    0.0000 C   0  0  0  0  0  0  0  0  0  0  0  0
   -4.9834   -1.4107    0.0000 O   0  0  0  0  0  0  0  0  0  0  0  0
   -5.4528    1.1446    0.0000 O   0  0  0  0  0  0  0  0  0  0  0  0
  2  1  1  1
  2  3  1  0
  3  4  1  0
  4  5  1  0
  5  6  2  0
  6  7  1  0
  7  8  2  0
  8  9  1  0
  7 10  1  0
 10 11  1  0
 10 12  1  0
 10 13  1  0
  2 14  1  0
 14 15  2  0
 14 16  1  0
  9  4  2  0
M  END
>  <rName>  (3024) 
Phe_4CF3

>  <PQ_SYMBOL>  (3024) 
Phe_4CF3

>  <FULL_NAME>  (3024) 
4-Trifluoromethyl-L-Phenylalanine

>  <IUPAC_CONDENSED>  (3024) 
Phe(4-CF3)

>  <IUPAC>  (3024) 
(2S)-2-amino-3-(4-(trifluoromethyl)phenyl)propanoic acid

>  <TYPE>  (3024) 
Backbone

>  <CLASS>  (3024) 
alpha

>  <ANALOG>  (3024) 
Phe

>  <MOL_WT>  (3024) 
233.18899999999994

>  <LOGP>  (3024) 
1.6598000000000002

>  <TPSA>  (3024) 
63.32000000000001

>  <POPULARITY>  (3024) 
19.1

>  <PROTECTED>  (3024) 
TRUE

>  <SMILES>  (3024) 
N[C@@H](Cc1(ccc(cc1)C(F)(F)F))C(=O)O

>  <INCHIKEY>  (3024) 
CRFFPDBJLGAGQL-QMMMGPOBSA-N

$$$$
Phe_4CF3diazirinyl
     RDKit          2D

 19 20  0  0  0  0  0  0  0  0999 V2000
   -2.9868    1.6652    0.0000 N   0  0  0  0  0  0  0  0  0  0  0  0
   -3.6281    0.3091    0.0000 C   0  0  0  0  0  0  0  0  0  0  0  0
   -2.7744   -0.9242    0.0000 C   0  0  0  0  0  0  0  0  0  0  0  0
   -1.2794   -0.8015    0.0000 C   0  0  0  0  0  0  0  0  0  0  0  0
   -0.6381    0.5545    0.0000 C   0  0  0  0  0  0  0  0  0  0  0  0
    0.8568    0.6772    0.0000 C   0  0  0  0  0  0  0  0  0  0  0  0
    1.7106   -0.5562    0.0000 C   0  0  0  0  0  0  0  0  0  0  0  0
    1.0693   -1.9122    0.0000 C   0  0  0  0  0  0  0  0  0  0  0  0
   -0.4257   -2.0349    0.0000 C   0  0  0  0  0  0  0  0  0  0  0  0
    3.2055   -0.4335    0.0000 C   0  0  0  0  0  0  0  0  0  0  0  0
    4.6523   -0.8295    0.0000 N   0  0  0  0  0  0  0  0  0  0  0  0
    3.5859   -1.8845    0.0000 N   0  0  0  0  0  0  0  0  0  0  0  0
    3.3443    1.0601    0.0000 C   0  0  0  0  0  0  0  0  0  0  0  0
    3.4831    2.5536    0.0000 F   0  0  0  0  0  0  0  0  0  0  0  0
    4.8379    0.9213    0.0000 F   0  0  0  0  0  0  0  0  0  0  0  0
    1.8508    1.1988    0.0000 F   0  0  0  0  0  0  0  0  0  0  0  0
   -5.1231    0.1865    0.0000 C   0  0  0  0  0  0  0  0  0  0  0  0
   -5.7643   -1.1695    0.0000 O   0  0  0  0  0  0  0  0  0  0  0  0
   -5.9768    1.4198    0.0000 O   0  0  0  0  0  0  0  0  0  0  0  0
  2  1  1  1
  2  3  1  0
  3  4  1  0
  4  5  1  0
  5  6  2  0
  6  7  1  0
  7  8  2  0
  8  9  1  0
  7 10  1  0
 10 11  1  0
 11 12  2  0
 10 13  1  0
 13 14  1  0
 13 15  1  0
 13 16  1  0
  2 17  1  0
 17 18  2  0
 17 19  1  0
  9  4  2  0
 12 10  1  0
M  END
>  <rName>  (3025) 
Phe_4CF3diazirinyl

>  <PQ_SYMBOL>  (3025) 
Phe_4CF3diazirinyl

>  <FULL_NAME>  (3025) 
(2S)-2-amino-3-[4-[3-(trifluoromethyl)diazirin-3-yl]phenyl]propanoic acid

>  <IUPAC_CONDENSED>  (3025) 
Phe(4-CF3-diazirinyl)

>  <IUPAC>  (3025) 
(2S)-2-amino-3-(4-(3-(trifluoromethyl)-1,2-diazacycloprop-1-en-3-yl)phenyl)propanoic acid

>  <TYPE>  (3025) 
Backbone

>  <CLASS>  (3025) 
alpha

>  <ANALOG>  (3025) 
Phe

>  <MOL_WT>  (3025) 
273.21399999999994

>  <LOGP>  (3025) 
1.8219000000000003

>  <TPSA>  (3025) 
88.04

>  <POPULARITY>  (3025) 
14.2

>  <PROTECTED>  (3025) 
TRUE

>  <SMILES>  (3025) 
N[C@@H](Cc1(ccc(cc1)C2(N=N2)C(F)(F)F))C(=O)O

>  <INCHIKEY>  (3025) 
HRGXDARRSCSGOG-QMMMGPOBSA-N

$$$$
Phe_4CH2CN
     RDKit          2D

 15 15  0  0  0  0  0  0  0  0999 V2000
   -2.5677    1.6361    0.0000 N   0  0  0  0  0  0  0  0  0  0  0  0
   -2.8881    0.1707    0.0000 C   0  0  0  0  0  0  0  0  0  0  0  0
   -1.7791   -0.8394    0.0000 C   0  0  0  0  0  0  0  0  0  0  0  0
   -0.3499   -0.3841    0.0000 C   0  0  0  0  0  0  0  0  0  0  0  0
   -0.0296    1.0813    0.0000 C   0  0  0  0  0  0  0  0  0  0  0  0
    1.3996    1.5366    0.0000 C   0  0  0  0  0  0  0  0  0  0  0  0
    2.5086    0.5265    0.0000 C   0  0  0  0  0  0  0  0  0  0  0  0
    2.1882   -0.9389    0.0000 C   0  0  0  0  0  0  0  0  0  0  0  0
    0.7590   -1.3942    0.0000 C   0  0  0  0  0  0  0  0  0  0  0  0
    3.9378    0.9818    0.0000 C   0  0  0  0  0  0  0  0  0  0  0  0
    5.0467   -0.0283    0.0000 C   0  0  0  0  0  0  0  0  0  0  0  0
    6.1556   -1.0384    0.0000 N   0  0  0  0  0  0  0  0  0  0  0  0
   -4.3173   -0.2847    0.0000 C   0  0  0  0  0  0  0  0  0  0  0  0
   -4.6376   -1.7501    0.0000 O   0  0  0  0  0  0  0  0  0  0  0  0
   -5.4262    0.7254    0.0000 O   0  0  0  0  0  0  0  0  0  0  0  0
  2  1  1  1
  2  3  1  0
  3  4  1  0
  4  5  1  0
  5  6  2  0
  6  7  1  0
  7  8  2  0
  8  9  1  0
  7 10  1  0
 10 11  1  0
 11 12  3  0
  2 13  1  0
 13 14  2  0
 13 15  1  0
  9  4  2  0
M  END
>  <rName>  (3026) 
Phe_4CH2CN

>  <PQ_SYMBOL>  (3026) 
Phe_4CH2CN

>  <FULL_NAME>  (3026) 
(S)-2-amino-3-(4-(cyanomethyl)phenyl)propanoic acid

>  <IUPAC_CONDENSED>  (3026) 
Phe(4-CH2CN)

>  <IUPAC>  (3026) 
(2S)-2-amino-3-(4-(2-nitriloethyl)phenyl)propanoic acid

>  <TYPE>  (3026) 
Backbone

>  <CLASS>  (3026) 
alpha

>  <ANALOG>  (3026) 
Phe

>  <MOL_WT>  (3026) 
204.22899999999996

>  <LOGP>  (3026) 
0.7070800000000002

>  <TPSA>  (3026) 
87.11

>  <POPULARITY>  (3026) 
2.7

>  <PROTECTED>  (3026) 
TRUE

>  <SMILES>  (3026) 
N[C@@H](Cc1(ccc(cc1)CC#N))C(=O)O

>  <INCHIKEY>  (3026) 
ZETRWSHGJHOCAH-JTQLQIEISA-N

$$$$
Phe_4CH2CO2H
     RDKit          2D

 17 17  0  0  0  0  0  0  0  0999 V2000
   -3.3399    1.6723    0.0000 N   0  0  0  0  0  0  0  0  0  0  0  0
   -3.7459    0.2283    0.0000 C   0  0  0  0  0  0  0  0  0  0  0  0
   -2.6984   -0.8453    0.0000 C   0  0  0  0  0  0  0  0  0  0  0  0
   -1.2448   -0.4749    0.0000 C   0  0  0  0  0  0  0  0  0  0  0  0
   -0.8388    0.9691    0.0000 C   0  0  0  0  0  0  0  0  0  0  0  0
    0.6147    1.3395    0.0000 C   0  0  0  0  0  0  0  0  0  0  0  0
    1.6623    0.2659    0.0000 C   0  0  0  0  0  0  0  0  0  0  0  0
    3.1158    0.6363    0.0000 O   0  0  0  0  0  0  0  0  0  0  0  0
    4.1634   -0.4373    0.0000 C   0  0  0  0  0  0  0  0  0  0  0  0
    5.6169   -0.0669    0.0000 C   0  0  0  0  0  0  0  0  0  0  0  0
    6.0229    1.3771    0.0000 O   0  0  0  0  0  0  0  0  0  0  0  0
    6.6645   -1.1405    0.0000 O   0  0  0  0  0  0  0  0  0  0  0  0
    1.2563   -1.1781    0.0000 C   0  0  0  0  0  0  0  0  0  0  0  0
   -0.1972   -1.5485    0.0000 C   0  0  0  0  0  0  0  0  0  0  0  0
   -5.1995   -0.1421    0.0000 C   0  0  0  0  0  0  0  0  0  0  0  0
   -5.6054   -1.5861    0.0000 O   0  0  0  0  0  0  0  0  0  0  0  0
   -6.2470    0.9315    0.0000 O   0  0  0  0  0  0  0  0  0  0  0  0
  2  1  1  1
  2  3  1  0
  3  4  1  0
  4  5  1  0
  5  6  2  0
  6  7  1  0
  7  8  1  0
  8  9  1  0
  9 10  1  0
 10 11  2  0
 10 12  1  0
  7 13  2  0
 13 14  1  0
  2 15  1  0
 15 16  2  0
 15 17  1  0
 14  4  2  0
M  END
>  <rName>  (3027) 
Phe_4CH2CO2H

>  <PQ_SYMBOL>  (3027) 
Phe_4CH2CO2H

>  <FULL_NAME>  (3027) 
(2S)-2-amino-3-[4-(carboxymethoxy)phenyl]propanoic acid

>  <IUPAC_CONDENSED>  (3027) 
Tyr(EtO2H)

>  <IUPAC>  (3027) 
(2S)-2-amino-3-(4-(2-hydroxy-2-oxoethoxy)phenyl)propanoic acid

>  <TYPE>  (3027) 
Backbone

>  <CLASS>  (3027) 
alpha

>  <ANALOG>  (3027) 
Tyr

>  <MOL_WT>  (3027) 
239.22699999999998

>  <LOGP>  (3027) 
0.10439999999999972

>  <TPSA>  (3027) 
109.85000000000001

>  <POPULARITY>  (3027) 
11.5

>  <PROTECTED>  (3027) 
TRUE

>  <SMILES>  (3027) 
N[C@@H](Cc1(ccc(OCC(=O)O)cc1))C(=O)O

>  <INCHIKEY>  (3027) 
ARXFMTURSPNMGH-VIFPVBQESA-N

$$$$
Phe_4CH2N3
     RDKit          2D

 16 16  0  0  0  0  0  0  0  0999 V2000
   -2.9780    1.6873    0.0000 N   0  0  0  0  0  0  0  0  0  0  0  0
   -3.3933    0.2460    0.0000 C   0  0  0  0  0  0  0  0  0  0  0  0
   -2.3527   -0.8344    0.0000 C   0  0  0  0  0  0  0  0  0  0  0  0
   -0.8968   -0.4733    0.0000 C   0  0  0  0  0  0  0  0  0  0  0  0
   -0.4815    0.9680    0.0000 C   0  0  0  0  0  0  0  0  0  0  0  0
    0.9744    1.3291    0.0000 C   0  0  0  0  0  0  0  0  0  0  0  0
    2.0150    0.2487    0.0000 C   0  0  0  0  0  0  0  0  0  0  0  0
    1.5997   -1.1926    0.0000 C   0  0  0  0  0  0  0  0  0  0  0  0
    0.1438   -1.5537    0.0000 C   0  0  0  0  0  0  0  0  0  0  0  0
    3.4709    0.6098    0.0000 C   0  0  0  0  0  0  0  0  0  0  0  0
    4.5115   -0.4706    0.0000 N   0  0  0  0  0  0  0  0  0  0  0  0
    5.9674   -0.1095    0.0000 N   0  0  0  0  0  0  0  0  0  0  0  0
    7.4233    0.2515    0.0000 N   0  0  0  0  0  0  0  0  0  0  0  0
   -4.8492   -0.1151    0.0000 C   0  0  0  0  0  0  0  0  0  0  0  0
   -5.2645   -1.5564    0.0000 O   0  0  0  0  0  0  0  0  0  0  0  0
   -5.8899    0.9653    0.0000 O   0  0  0  0  0  0  0  0  0  0  0  0
  2  1  1  1
  2  3  1  0
  3  4  1  0
  4  5  1  0
  5  6  2  0
  6  7  1  0
  7  8  2  0
  8  9  1  0
  7 10  1  0
 10 11  1  0
 11 12  2  0
 12 13  2  0
  2 14  1  0
 14 15  2  0
 14 16  1  0
  9  4  2  0
M  CHG  2  12   1  13  -1
M  END
>  <rName>  (3028) 
Phe_4CH2N3

>  <PQ_SYMBOL>  (3028) 
Phe_4CH2N3

>  <FULL_NAME>  (3028) 
p-azidomethyl-L-phenylalanine

>  <IUPAC_CONDENSED>  (3028) 
Phe(4-CH2N3)

>  <IUPAC>  (3028) 
(2S)-2-amino-3-[4-(azidomethyl)phenyl]propanoic acid

>  <TYPE>  (3028) 
Backbone

>  <CLASS>  (3028) 
alpha

>  <ANALOG>  (3028) 
Phe

>  <MOL_WT>  (3028) 
220.23199999999997

>  <LOGP>  (3028) 
1.4513000000000003

>  <TPSA>  (3028) 
112.08

>  <POPULARITY>  (3028) 
3.5

>  <PROTECTED>  (3028) 
TRUE

>  <SMILES>  (3028) 
N[C@@H](Cc1(ccc(cc1)CN=[N+]=[N-]))C(=O)O

>  <INCHIKEY>  (3028) 
GAJBPZXIKZXTCG-VIFPVBQESA-N

$$$$
Phe_4CH2OPiv
     RDKit          2D

 20 20  0  0  0  0  0  0  0  0999 V2000
   -4.5082    1.6012    0.0000 N   0  0  0  0  0  0  0  0  0  0  0  0
   -4.8174    0.1334    0.0000 C   0  0  0  0  0  0  0  0  0  0  0  0
   -3.7009   -0.8682    0.0000 C   0  0  0  0  0  0  0  0  0  0  0  0
   -2.2752   -0.4021    0.0000 C   0  0  0  0  0  0  0  0  0  0  0  0
   -1.9660    1.0656    0.0000 C   0  0  0  0  0  0  0  0  0  0  0  0
   -0.5402    1.5318    0.0000 C   0  0  0  0  0  0  0  0  0  0  0  0
    0.5763    0.5301    0.0000 C   0  0  0  0  0  0  0  0  0  0  0  0
    0.2671   -0.9377    0.0000 C   0  0  0  0  0  0  0  0  0  0  0  0
   -1.1586   -1.4038    0.0000 C   0  0  0  0  0  0  0  0  0  0  0  0
    2.0021    0.9962    0.0000 C   0  0  0  0  0  0  0  0  0  0  0  0
    3.1186   -0.0055    0.0000 O   0  0  0  0  0  0  0  0  0  0  0  0
    4.5443    0.4606    0.0000 C   0  0  0  0  0  0  0  0  0  0  0  0
    4.8535    1.9284    0.0000 O   0  0  0  0  0  0  0  0  0  0  0  0
    5.6609   -0.5410    0.0000 C   0  0  0  0  0  0  0  0  0  0  0  0
    6.6625    0.5755    0.0000 C   0  0  0  0  0  0  0  0  0  0  0  0
    4.6592   -1.6576    0.0000 C   0  0  0  0  0  0  0  0  0  0  0  0
    6.7774   -1.5427    0.0000 C   0  0  0  0  0  0  0  0  0  0  0  0
   -6.2432   -0.3327    0.0000 C   0  0  0  0  0  0  0  0  0  0  0  0
   -6.5524   -1.8005    0.0000 O   0  0  0  0  0  0  0  0  0  0  0  0
   -7.3597    0.6690    0.0000 O   0  0  0  0  0  0  0  0  0  0  0  0
  2  1  1  1
  2  3  1  0
  3  4  1  0
  4  5  1  0
  5  6  2  0
  6  7  1  0
  7  8  2  0
  8  9  1  0
  7 10  1  0
 10 11  1  0
 11 12  1  0
 12 13  2  0
 12 14  1  0
 14 15  1  0
 14 16  1  0
 14 17  1  0
  2 18  1  0
 18 19  2  0
 18 20  1  0
  9  4  2  0
M  END
>  <rName>  (3029) 
Phe_4CH2OPiv

>  <PQ_SYMBOL>  (3029) 
Phe_4CH2OPiv

>  <FULL_NAME>  (3029) 
(S)-2-amino-3-(4-((pivaloyloxy)methyl)phenyl)propanoic acid

>  <IUPAC_CONDENSED>  (3029) 
Phe(4-CH2OPiv)

>  <IUPAC>  (3029) 
(2S)-2-amino-3-(4-((tert-butylcarbonyloxy)methyl)phenyl)propanoic acid

>  <TYPE>  (3029) 
Backbone

>  <CLASS>  (3029) 
alpha

>  <ANALOG>  (3029) 
Phe

>  <MOL_WT>  (3029) 
279.33599999999996

>  <LOGP>  (3029) 
1.7303000000000002

>  <TPSA>  (3029) 
89.62

>  <POPULARITY>  (3029) 
3.6

>  <PROTECTED>  (3029) 
TRUE

>  <SMILES>  (3029) 
N[C@@H](Cc1(ccc(cc1)COC(=O)C(C)(C)C))C(=O)O

>  <INCHIKEY>  (3029) 
PXBDSBSSXOLMHK-LBPRGKRZSA-N

$$$$
Phe_4CH2PO3H2
     RDKit          2D

 17 17  0  0  0  0  0  0  0  0999 V2000
   -3.1457    1.6694    0.0000 N   0  0  0  0  0  0  0  0  0  0  0  0
   -3.4800    0.2071    0.0000 C   0  0  0  0  0  0  0  0  0  0  0  0
   -2.3807   -0.8135    0.0000 C   0  0  0  0  0  0  0  0  0  0  0  0
   -0.9472   -0.3718    0.0000 C   0  0  0  0  0  0  0  0  0  0  0  0
   -0.6130    1.0905    0.0000 C   0  0  0  0  0  0  0  0  0  0  0  0
    0.8205    1.5322    0.0000 C   0  0  0  0  0  0  0  0  0  0  0  0
    1.9198    0.5116    0.0000 C   0  0  0  0  0  0  0  0  0  0  0  0
    1.5855   -0.9507    0.0000 C   0  0  0  0  0  0  0  0  0  0  0  0
    0.1520   -1.3924    0.0000 C   0  0  0  0  0  0  0  0  0  0  0  0
    3.3533    0.9532    0.0000 C   0  0  0  0  0  0  0  0  0  0  0  0
    4.4525   -0.0674    0.0000 P   0  0  0  0  0  0  0  0  0  0  0  0
    5.5518   -1.0880    0.0000 O   0  0  0  0  0  0  0  0  0  0  0  0
    5.4731    1.0319    0.0000 O   0  0  0  0  0  0  0  0  0  0  0  0
    3.4319   -1.1666    0.0000 O   0  0  0  0  0  0  0  0  0  0  0  0
   -4.9135   -0.2346    0.0000 C   0  0  0  0  0  0  0  0  0  0  0  0
   -5.2477   -1.6969    0.0000 O   0  0  0  0  0  0  0  0  0  0  0  0
   -6.0127    0.7860    0.0000 O   0  0  0  0  0  0  0  0  0  0  0  0
  2  1  1  1
  2  3  1  0
  3  4  1  0
  4  5  1  0
  5  6  2  0
  6  7  1  0
  7  8  2  0
  8  9  1  0
  7 10  1  0
 10 11  1  0
 11 12  2  0
 11 13  1  0
 11 14  1  0
  2 15  1  0
 15 16  2  0
 15 17  1  0
  9  4  2  0
M  END
>  <rName>  (3030) 
Phe_4CH2PO3H2

>  <PQ_SYMBOL>  (3030) 
Phe_4CH2PO3H2

>  <FULL_NAME>  (3030) 
4-Phosphonomethyl-L-Phenylalanine

>  <IUPAC_CONDENSED>  (3030) 
Phe(4-CH2PO3H2)

>  <IUPAC>  (3030) 
(2S)-2-amino-3-(4-(dihydroxyphosphorylmethyl)phenyl)propanoic acid

>  <TYPE>  (3030) 
Backbone

>  <CLASS>  (3030) 
alpha

>  <ANALOG>  (3030) 
Phe

>  <MOL_WT>  (3030) 
259.1979999999999

>  <LOGP>  (3030) 
0.31870000000000004

>  <TPSA>  (3030) 
120.85000000000001

>  <POPULARITY>  (3030) 
23.6

>  <PROTECTED>  (3030) 
TRUE

>  <SMILES>  (3030) 
N[C@@H](Cc1(ccc(cc1)CP(=O)(O)O))C(=O)O

>  <INCHIKEY>  (3030) 
SAQLLHDEEMZENJ-VIFPVBQESA-N

$$$$
Phe_4CH2POOEt2
     RDKit          2D

 21 21  0  0  0  0  0  0  0  0999 V2000
   -4.1600    1.8845    0.0000 N   0  0  0  0  0  0  0  0  0  0  0  0
   -4.5061    0.4250    0.0000 C   0  0  0  0  0  0  0  0  0  0  0  0
   -3.4152   -0.6045    0.0000 C   0  0  0  0  0  0  0  0  0  0  0  0
   -1.9781   -0.1745    0.0000 C   0  0  0  0  0  0  0  0  0  0  0  0
   -1.6320    1.2850    0.0000 C   0  0  0  0  0  0  0  0  0  0  0  0
   -0.1950    1.7150    0.0000 C   0  0  0  0  0  0  0  0  0  0  0  0
    0.8960    0.6855    0.0000 C   0  0  0  0  0  0  0  0  0  0  0  0
    0.5498   -0.7740    0.0000 C   0  0  0  0  0  0  0  0  0  0  0  0
   -0.8872   -1.2040    0.0000 C   0  0  0  0  0  0  0  0  0  0  0  0
    2.3330    1.1155    0.0000 C   0  0  0  0  0  0  0  0  0  0  0  0
    3.4239    0.0859    0.0000 P   0  0  0  0  0  0  0  0  0  0  0  0
    4.5148   -0.9436    0.0000 O   0  0  0  0  0  0  0  0  0  0  0  0
    4.4534    1.1769    0.0000 O   0  0  0  0  0  0  0  0  0  0  0  0
    5.9130    0.8307    0.0000 C   0  0  0  0  0  0  0  0  0  0  0  0
    6.9425    1.9216    0.0000 C   0  0  0  0  0  0  0  0  0  0  0  0
    2.3944   -1.0050    0.0000 O   0  0  0  0  0  0  0  0  0  0  0  0
    2.8244   -2.4420    0.0000 C   0  0  0  0  0  0  0  0  0  0  0  0
    1.7949   -3.5329    0.0000 C   0  0  0  0  0  0  0  0  0  0  0  0
   -5.9431   -0.0050    0.0000 C   0  0  0  0  0  0  0  0  0  0  0  0
   -6.2893   -1.4645    0.0000 O   0  0  0  0  0  0  0  0  0  0  0  0
   -7.0341    1.0245    0.0000 O   0  0  0  0  0  0  0  0  0  0  0  0
  2  1  1  1
  2  3  1  0
  3  4  1  0
  4  5  1  0
  5  6  2  0
  6  7  1  0
  7  8  2  0
  8  9  1  0
  7 10  1  0
 10 11  1  0
 11 12  2  0
 11 13  1  0
 13 14  1  0
 14 15  1  0
 11 16  1  0
 16 17  1  0
 17 18  1  0
  2 19  1  0
 19 20  2  0
 19 21  1  0
  9  4  2  0
M  END
>  <rName>  (3031) 
Phe_4CH2POOEt2

>  <PQ_SYMBOL>  (3031) 
Phe_4CH2POOEt2

>  <FULL_NAME>  (3031) 
4-Diethylphosphonomethyl-L-Phenylalanine

>  <IUPAC_CONDENSED>  (3031) 
Phe(4-CH2PO(OEt)2)

>  <IUPAC>  (3031) 
(2S)-2-amino-3-(4-((diethoxyphosphoryl)methyl)phenyl)propanoic acid

>  <TYPE>  (3031) 
Backbone

>  <CLASS>  (3031) 
alpha

>  <ANALOG>  (3031) 
Phe

>  <MOL_WT>  (3031) 
315.306

>  <LOGP>  (3031) 
2.4071

>  <TPSA>  (3031) 
98.85000000000001

>  <POPULARITY>  (3031) 
8.1

>  <PROTECTED>  (3031) 
TRUE

>  <SMILES>  (3031) 
N[C@@H](Cc1(ccc(cc1)CP(=O)(OCC)OCC))C(=O)O

>  <INCHIKEY>  (3031) 
POFDMXZNNZZJLR-ZDUSSCGKSA-N

$$$$
Phe_4CH2SH
     RDKit          2D

 14 14  0  0  0  0  0  0  0  0999 V2000
   -2.0397    1.6757    0.0000 N   0  0  0  0  0  0  0  0  0  0  0  0
   -2.4395    0.2299    0.0000 C   0  0  0  0  0  0  0  0  0  0  0  0
   -1.3873   -0.8392    0.0000 C   0  0  0  0  0  0  0  0  0  0  0  0
    0.0646   -0.4625    0.0000 C   0  0  0  0  0  0  0  0  0  0  0  0
    0.4644    0.9832    0.0000 C   0  0  0  0  0  0  0  0  0  0  0  0
    1.9164    1.3598    0.0000 C   0  0  0  0  0  0  0  0  0  0  0  0
    2.9685    0.2907    0.0000 C   0  0  0  0  0  0  0  0  0  0  0  0
    2.5687   -1.1550    0.0000 C   0  0  0  0  0  0  0  0  0  0  0  0
    1.1168   -1.5316    0.0000 C   0  0  0  0  0  0  0  0  0  0  0  0
    4.4205    0.6674    0.0000 C   0  0  0  0  0  0  0  0  0  0  0  0
    5.4726   -0.4017    0.0000 S   0  0  0  0  0  0  0  0  0  0  0  0
   -3.8914   -0.1467    0.0000 C   0  0  0  0  0  0  0  0  0  0  0  0
   -4.2912   -1.5924    0.0000 O   0  0  0  0  0  0  0  0  0  0  0  0
   -4.9436    0.9224    0.0000 O   0  0  0  0  0  0  0  0  0  0  0  0
  2  1  1  1
  2  3  1  0
  3  4  1  0
  4  5  1  0
  5  6  2  0
  6  7  1  0
  7  8  2  0
  8  9  1  0
  7 10  1  0
 10 11  1  0
  2 12  1  0
 12 13  2  0
 12 14  1  0
  9  4  2  0
M  END
>  <rName>  (3032) 
Phe_4CH2SH

>  <PQ_SYMBOL>  (3032) 
Phe_4CH2SH

>  <FULL_NAME>  (3032) 
(2S)-2-amino-3-[4-(sulfanylmethyl)phenyl]propanoic acid

>  <IUPAC_CONDENSED>  (3032) 
Phe(4-CH2SH)

>  <IUPAC>  (3032) 
(2S)-2-amino-3-[4-(sulfanylmethyl)phenyl]propanoic acid

>  <TYPE>  (3032) 
Backbone

>  <CLASS>  (3032) 
alpha

>  <ANALOG>  (3032) 
Phe

>  <MOL_WT>  (3032) 
211.28599999999997

>  <LOGP>  (3032) 
1.0708000000000002

>  <TPSA>  (3032) 
63.32000000000001

>  <POPULARITY>  (3032) 
2.2

>  <PROTECTED>  (3032) 
TRUE

>  <SMILES>  (3032) 
N[C@@H](Cc1(ccc(cc1)CS))C(=O)O

>  <INCHIKEY>  (3032) 
USWNXUMPXUQIGA-VIFPVBQESA-N

$$$$
Phe_4CH2SO2NH2
     RDKit          2D

 17 17  0  0  0  0  0  0  0  0999 V2000
   -3.1457    1.6694    0.0000 N   0  0  0  0  0  0  0  0  0  0  0  0
   -3.4800    0.2071    0.0000 C   0  0  0  0  0  0  0  0  0  0  0  0
   -2.3807   -0.8135    0.0000 C   0  0  0  0  0  0  0  0  0  0  0  0
   -0.9472   -0.3718    0.0000 C   0  0  0  0  0  0  0  0  0  0  0  0
   -0.6130    1.0905    0.0000 C   0  0  0  0  0  0  0  0  0  0  0  0
    0.8205    1.5322    0.0000 C   0  0  0  0  0  0  0  0  0  0  0  0
    1.9198    0.5116    0.0000 C   0  0  0  0  0  0  0  0  0  0  0  0
    1.5855   -0.9507    0.0000 C   0  0  0  0  0  0  0  0  0  0  0  0
    0.1520   -1.3924    0.0000 C   0  0  0  0  0  0  0  0  0  0  0  0
    3.3533    0.9532    0.0000 C   0  0  0  0  0  0  0  0  0  0  0  0
    4.4525   -0.0674    0.0000 S   0  0  0  0  0  0  0  0  0  0  0  0
    5.4731    1.0319    0.0000 O   0  0  0  0  0  0  0  0  0  0  0  0
    3.4319   -1.1666    0.0000 O   0  0  0  0  0  0  0  0  0  0  0  0
    5.5518   -1.0880    0.0000 N   0  0  0  0  0  0  0  0  0  0  0  0
   -4.9135   -0.2346    0.0000 C   0  0  0  0  0  0  0  0  0  0  0  0
   -5.2477   -1.6969    0.0000 O   0  0  0  0  0  0  0  0  0  0  0  0
   -6.0127    0.7860    0.0000 O   0  0  0  0  0  0  0  0  0  0  0  0
  2  1  1  1
  2  3  1  0
  3  4  1  0
  4  5  1  0
  5  6  2  0
  6  7  1  0
  7  8  2  0
  8  9  1  0
  7 10  1  0
 10 11  1  0
 11 12  2  0
 11 13  2  0
 11 14  1  0
  2 15  1  0
 15 16  2  0
 15 17  1  0
  9  4  2  0
M  END
>  <rName>  (3033) 
Phe_4CH2SO2NH2

>  <PQ_SYMBOL>  (3033) 
Phe_4CH2SO2NH2

>  <FULL_NAME>  (3033) 
(2S)-2-amino-3-[4-(sulfamoylmethyl)phenyl]propanoic acid

>  <IUPAC_CONDENSED>  (3033) 
Phe(4-CH2SO2NH2)

>  <IUPAC>  (3033) 
(2S)-2-amino-3-(4-((sulfamoyl)methyl)phenyl)propanoic acid

>  <TYPE>  (3033) 
Backbone

>  <CLASS>  (3033) 
alpha

>  <ANALOG>  (3033) 
Phe

>  <MOL_WT>  (3033) 
258.2989999999999

>  <LOGP>  (3033) 
-0.5704999999999996

>  <TPSA>  (3033) 
123.48

>  <POPULARITY>  (3033) 
6.8

>  <PROTECTED>  (3033) 
TRUE

>  <SMILES>  (3033) 
N[C@@H](Cc1(ccc(cc1)CS(=O)(=O)N))C(=O)O

>  <INCHIKEY>  (3033) 
CBCKRMVMFZJOMI-VIFPVBQESA-N

$$$$
Phe_4CH2guanidino
     RDKit          2D

 17 17  0  0  0  0  0  0  0  0999 V2000
   -3.3399    1.6723    0.0000 N   0  0  0  0  0  0  0  0  0  0  0  0
   -3.7459    0.2283    0.0000 C   0  0  0  0  0  0  0  0  0  0  0  0
   -2.6984   -0.8453    0.0000 C   0  0  0  0  0  0  0  0  0  0  0  0
   -1.2448   -0.4749    0.0000 C   0  0  0  0  0  0  0  0  0  0  0  0
   -0.8388    0.9691    0.0000 C   0  0  0  0  0  0  0  0  0  0  0  0
    0.6147    1.3395    0.0000 C   0  0  0  0  0  0  0  0  0  0  0  0
    1.6623    0.2659    0.0000 C   0  0  0  0  0  0  0  0  0  0  0  0
    1.2563   -1.1781    0.0000 C   0  0  0  0  0  0  0  0  0  0  0  0
   -0.1972   -1.5485    0.0000 C   0  0  0  0  0  0  0  0  0  0  0  0
    3.1158    0.6363    0.0000 C   0  0  0  0  0  0  0  0  0  0  0  0
    4.1634   -0.4373    0.0000 N   0  0  0  0  0  0  0  0  0  0  0  0
    5.6169   -0.0669    0.0000 C   0  0  0  0  0  0  0  0  0  0  0  0
    6.0229    1.3771    0.0000 N   0  0  0  0  0  0  0  0  0  0  0  0
    6.6645   -1.1405    0.0000 N   0  0  0  0  0  0  0  0  0  0  0  0
   -5.1995   -0.1421    0.0000 C   0  0  0  0  0  0  0  0  0  0  0  0
   -5.6054   -1.5861    0.0000 O   0  0  0  0  0  0  0  0  0  0  0  0
   -6.2470    0.9315    0.0000 O   0  0  0  0  0  0  0  0  0  0  0  0
  2  1  1  1
  2  3  1  0
  3  4  1  0
  4  5  1  0
  5  6  2  0
  6  7  1  0
  7  8  2  0
  8  9  1  0
  7 10  1  0
 10 11  1  0
 11 12  1  0
 12 13  2  0
 12 14  1  0
  2 15  1  0
 15 16  2  0
 15 17  1  0
  9  4  2  0
M  END
>  <rName>  (3034) 
Phe_4CH2guanidino

>  <PQ_SYMBOL>  (3034) 
Phe_4CH2guanidino

>  <FULL_NAME>  (3034) 
4-Guanidino-methylphenylalanine

>  <IUPAC_CONDENSED>  (3034) 
Phe(4-CH2-guanidino)

>  <IUPAC>  (3034) 
(2S)-2-amino-3-[4-[(diaminomethylideneamino)methyl]phenyl]propanoic acid

>  <TYPE>  (3034) 
Backbone

>  <CLASS>  (3034) 
alpha

>  <ANALOG>  (3034) 
Phe

>  <MOL_WT>  (3034) 
236.27499999999998

>  <LOGP>  (3034) 
-0.3759299999999995

>  <TPSA>  (3034) 
125.22000000000001

>  <POPULARITY>  (3034) 
2.2

>  <PROTECTED>  (3034) 
TRUE

>  <SMILES>  (3034) 
N[C@@H](Cc1(ccc(cc1)CNC(=N)N))C(=O)O

>  <INCHIKEY>  (3034) 
OSPFMSZZQUXLEB-VIFPVBQESA-N

$$$$
Phe_4CHNH2Me
     RDKit          2D

 15 15  0  0  0  0  0  0  0  0999 V2000
   -2.2547    1.6872    0.0000 N   0  0  0  0  0  0  0  0  0  0  0  0
   -2.7489    0.2709    0.0000 C   0  0  0  0  0  0  0  0  0  0  0  0
   -1.7696   -0.8652    0.0000 C   0  0  0  0  0  0  0  0  0  0  0  0
   -0.2959   -0.5852    0.0000 C   0  0  0  0  0  0  0  0  0  0  0  0
    0.1983    0.8311    0.0000 C   0  0  0  0  0  0  0  0  0  0  0  0
    1.6719    1.1111    0.0000 C   0  0  0  0  0  0  0  0  0  0  0  0
    2.6513   -0.0250    0.0000 C   0  0  0  0  0  0  0  0  0  0  0  0
    2.1570   -1.4413    0.0000 C   0  0  0  0  0  0  0  0  0  0  0  0
    0.6834   -1.7213    0.0000 C   0  0  0  0  0  0  0  0  0  0  0  0
    4.1249    0.2550    0.0000 C   0  0  0  0  0  0  0  0  0  0  0  0
    5.1043   -0.8811    0.0000 C   0  0  0  0  0  0  0  0  0  0  0  0
    4.6192    1.6713    0.0000 N   0  0  0  0  0  0  0  0  0  0  0  0
   -4.2225   -0.0091    0.0000 C   0  0  0  0  0  0  0  0  0  0  0  0
   -4.7168   -1.4254    0.0000 O   0  0  0  0  0  0  0  0  0  0  0  0
   -5.2019    1.1270    0.0000 O   0  0  0  0  0  0  0  0  0  0  0  0
  2  1  1  1
  2  3  1  0
  3  4  1  0
  4  5  1  0
  5  6  2  0
  6  7  1  0
  7  8  2  0
  8  9  1  0
  7 10  1  0
 10 11  1  0
 10 12  1  0
  2 13  1  0
 13 14  2  0
 13 15  1  0
  9  4  2  0
M  END
>  <rName>  (3035) 
Phe_4CHNH2Me

>  <PQ_SYMBOL>  (3035) 
Phe_4CHNH2Me

>  <FULL_NAME>  (3035) 
(2S)-2-amino-3-(4-(1-aminoethyl)phenyl)propanoic acid

>  <IUPAC_CONDENSED>  (3035) 
Phe(4-CH(NH2)Me)

>  <IUPAC>  (3035) 
(2S)-2-amino-3-(4-(1-aminoethyl)phenyl)propanoic acid

>  <TYPE>  (3035) 
Backbone

>  <CLASS>  (3035) 
alpha

>  <ANALOG>  (3035) 
Phe

>  <MOL_WT>  (3035) 
208.26099999999997

>  <LOGP>  (3035) 
0.6607000000000001

>  <TPSA>  (3035) 
89.34

>  <POPULARITY>  (3035) 
4.5

>  <PROTECTED>  (3035) 
TRUE

>  <SMILES>  (3035) 
N[C@@H](Cc1(ccc(cc1)C(C)N))C(=O)O

>  <INCHIKEY>  (3035) 
JSFGQFUTQFQLTM-MHPPCMCBSA-N

$$$$
Phe_4CN
     RDKit          2D

 14 14  0  0  0  0  0  0  0  0999 V2000
   -1.9640    1.7008    0.0000 N   0  0  0  0  0  0  0  0  0  0  0  0
   -2.4550    0.2835    0.0000 C   0  0  0  0  0  0  0  0  0  0  0  0
   -1.4730   -0.8504    0.0000 C   0  0  0  0  0  0  0  0  0  0  0  0
   -0.0000   -0.5669    0.0000 C   0  0  0  0  0  0  0  0  0  0  0  0
    0.4910    0.8504    0.0000 C   0  0  0  0  0  0  0  0  0  0  0  0
    1.9640    1.1339    0.0000 C   0  0  0  0  0  0  0  0  0  0  0  0
    2.9459    0.0000    0.0000 C   0  0  0  0  0  0  0  0  0  0  0  0
    4.4189    0.2835    0.0000 C   0  0  0  0  0  0  0  0  0  0  0  0
    5.8919    0.5669    0.0000 N   0  0  0  0  0  0  0  0  0  0  0  0
    2.4550   -1.4174    0.0000 C   0  0  0  0  0  0  0  0  0  0  0  0
    0.9820   -1.7008    0.0000 C   0  0  0  0  0  0  0  0  0  0  0  0
   -3.9279   -0.0000    0.0000 C   0  0  0  0  0  0  0  0  0  0  0  0
   -4.4189   -1.4174    0.0000 O   0  0  0  0  0  0  0  0  0  0  0  0
   -4.9099    1.1339    0.0000 O   0  0  0  0  0  0  0  0  0  0  0  0
  2  1  1  1
  2  3  1  0
  3  4  1  0
  4  5  1  0
  5  6  2  0
  6  7  1  0
  7  8  1  0
  8  9  3  0
  7 10  2  0
 10 11  1  0
  2 12  1  0
 12 13  2  0
 12 14  1  0
 11  4  2  0
M  END
>  <rName>  (3036) 
Phe_4CN

>  <PQ_SYMBOL>  (3036) 
Phe_4CN

>  <FULL_NAME>  (3036) 
4-Cyano-L-Phenylalanine

>  <IUPAC_CONDENSED>  (3036) 
Phe(4-CN)

>  <IUPAC>  (3036) 
(2S)-2-amino-3-(4-(nitrilomethyl)phenyl)propanoic acid

>  <TYPE>  (3036) 
Backbone

>  <CLASS>  (3036) 
alpha

>  <ANALOG>  (3036) 
Phe

>  <MOL_WT>  (3036) 
190.202

>  <LOGP>  (3036) 
0.5126800000000002

>  <TPSA>  (3036) 
87.11

>  <POPULARITY>  (3036) 
26.3

>  <PROTECTED>  (3036) 
TRUE

>  <SMILES>  (3036) 
N[C@@H](Cc1(ccc(C#N)cc1))C(=O)O

>  <INCHIKEY>  (3036) 
KWIPUXXIFQQMKN-VIFPVBQESA-N

$$$$
Phe_4CO2H
     RDKit          2D

 15 15  0  0  0  0  0  0  0  0999 V2000
   -2.2547    1.6872    0.0000 N   0  0  0  0  0  0  0  0  0  0  0  0
   -2.7489    0.2709    0.0000 C   0  0  0  0  0  0  0  0  0  0  0  0
   -1.7696   -0.8652    0.0000 C   0  0  0  0  0  0  0  0  0  0  0  0
   -0.2959   -0.5852    0.0000 C   0  0  0  0  0  0  0  0  0  0  0  0
    0.1983    0.8311    0.0000 C   0  0  0  0  0  0  0  0  0  0  0  0
    1.6719    1.1111    0.0000 C   0  0  0  0  0  0  0  0  0  0  0  0
    2.6513   -0.0250    0.0000 C   0  0  0  0  0  0  0  0  0  0  0  0
    2.1570   -1.4413    0.0000 C   0  0  0  0  0  0  0  0  0  0  0  0
    0.6834   -1.7213    0.0000 C   0  0  0  0  0  0  0  0  0  0  0  0
    4.1249    0.2550    0.0000 C   0  0  0  0  0  0  0  0  0  0  0  0
    4.6192    1.6713    0.0000 O   0  0  0  0  0  0  0  0  0  0  0  0
    5.1043   -0.8811    0.0000 O   0  0  0  0  0  0  0  0  0  0  0  0
   -4.2225   -0.0091    0.0000 C   0  0  0  0  0  0  0  0  0  0  0  0
   -4.7168   -1.4254    0.0000 O   0  0  0  0  0  0  0  0  0  0  0  0
   -5.2019    1.1270    0.0000 O   0  0  0  0  0  0  0  0  0  0  0  0
  2  1  1  1
  2  3  1  0
  3  4  1  0
  4  5  1  0
  5  6  2  0
  6  7  1  0
  7  8  2  0
  8  9  1  0
  7 10  1  0
 10 11  2  0
 10 12  1  0
  2 13  1  0
 13 14  2  0
 13 15  1  0
  9  4  2  0
M  END
>  <rName>  (3037) 
Phe_4CO2H

>  <PQ_SYMBOL>  (3037) 
Phe_4CO2H

>  <FULL_NAME>  (3037) 
4-Carboxy-L-Phenylalanine

>  <IUPAC_CONDENSED>  (3037) 
Phe(4-CO2H)

>  <IUPAC>  (3037) 
4-((2S)-2-amino-3-hydroxy-3-oxopropyl)benzoic acid

>  <TYPE>  (3037) 
Backbone

>  <CLASS>  (3037) 
alpha

>  <ANALOG>  (3037) 
Phe

>  <MOL_WT>  (3037) 
209.20099999999996

>  <LOGP>  (3037) 
0.33920000000000006

>  <TPSA>  (3037) 
100.62000000000002

>  <POPULARITY>  (3037) 
13.8

>  <PROTECTED>  (3037) 
TRUE

>  <SMILES>  (3037) 
N[C@@H](Cc1(ccc(cc1)C(=O)O))C(=O)O

>  <INCHIKEY>  (3037) 
YXDGRBPZVQPESQ-QMMMGPOBSA-N

$$$$
Phe_4CONH2
     RDKit          2D

 15 15  0  0  0  0  0  0  0  0999 V2000
   -2.2547    1.6872    0.0000 N   0  0  0  0  0  0  0  0  0  0  0  0
   -2.7489    0.2709    0.0000 C   0  0  0  0  0  0  0  0  0  0  0  0
   -1.7696   -0.8652    0.0000 C   0  0  0  0  0  0  0  0  0  0  0  0
   -0.2959   -0.5852    0.0000 C   0  0  0  0  0  0  0  0  0  0  0  0
    0.1983    0.8311    0.0000 C   0  0  0  0  0  0  0  0  0  0  0  0
    1.6719    1.1111    0.0000 C   0  0  0  0  0  0  0  0  0  0  0  0
    2.6513   -0.0250    0.0000 C   0  0  0  0  0  0  0  0  0  0  0  0
    2.1570   -1.4413    0.0000 C   0  0  0  0  0  0  0  0  0  0  0  0
    0.6834   -1.7213    0.0000 C   0  0  0  0  0  0  0  0  0  0  0  0
    4.1249    0.2550    0.0000 C   0  0  0  0  0  0  0  0  0  0  0  0
    4.6192    1.6713    0.0000 O   0  0  0  0  0  0  0  0  0  0  0  0
    5.1043   -0.8811    0.0000 N   0  0  0  0  0  0  0  0  0  0  0  0
   -4.2225   -0.0091    0.0000 C   0  0  0  0  0  0  0  0  0  0  0  0
   -4.7168   -1.4254    0.0000 O   0  0  0  0  0  0  0  0  0  0  0  0
   -5.2019    1.1270    0.0000 O   0  0  0  0  0  0  0  0  0  0  0  0
  2  1  1  1
  2  3  1  0
  3  4  1  0
  4  5  1  0
  5  6  2  0
  6  7  1  0
  7  8  2  0
  8  9  1  0
  7 10  1  0
 10 11  2  0
 10 12  1  0
  2 13  1  0
 13 14  2  0
 13 15  1  0
  9  4  2  0
M  END
>  <rName>  (3038) 
Phe_4CONH2

>  <PQ_SYMBOL>  (3038) 
Phe_4CONH2

>  <FULL_NAME>  (3038) 
4-Carbamoyl-L-phenylalanine, 4-Cxa

>  <IUPAC_CONDENSED>  (3038) 
Phe(4-CONH2)

>  <IUPAC>  (3038) 
(2S)-2-amino-3-(4-carbamoylphenyl)propanoic acid

>  <TYPE>  (3038) 
Backbone

>  <CLASS>  (3038) 
alpha

>  <ANALOG>  (3038) 
Phe

>  <MOL_WT>  (3038) 
208.21699999999996

>  <LOGP>  (3038) 
-0.2601000000000003

>  <TPSA>  (3038) 
106.41000000000001

>  <POPULARITY>  (3038) 
15.7

>  <PROTECTED>  (3038) 
TRUE

>  <SMILES>  (3038) 
N[C@@H](Cc1(ccc(cc1)C(=O)N))C(=O)O

>  <INCHIKEY>  (3038) 
OZVAXCWACWDNIQ-QMMMGPOBSA-N

$$$$
Phe_4CONHMe
     RDKit          2D

 16 16  0  0  0  0  0  0  0  0999 V2000
   -2.6998    1.6709    0.0000 N   0  0  0  0  0  0  0  0  0  0  0  0
   -3.1656    0.2451    0.0000 C   0  0  0  0  0  0  0  0  0  0  0  0
   -2.1637   -0.8712    0.0000 C   0  0  0  0  0  0  0  0  0  0  0  0
   -0.6959   -0.5617    0.0000 C   0  0  0  0  0  0  0  0  0  0  0  0
   -0.2302    0.8642    0.0000 C   0  0  0  0  0  0  0  0  0  0  0  0
    1.2375    1.1738    0.0000 C   0  0  0  0  0  0  0  0  0  0  0  0
    2.2395    0.0575    0.0000 C   0  0  0  0  0  0  0  0  0  0  0  0
    1.7737   -1.3684    0.0000 C   0  0  0  0  0  0  0  0  0  0  0  0
    0.3060   -1.6780    0.0000 C   0  0  0  0  0  0  0  0  0  0  0  0
    3.7072    0.3670    0.0000 C   0  0  0  0  0  0  0  0  0  0  0  0
    4.1729    1.7929    0.0000 O   0  0  0  0  0  0  0  0  0  0  0  0
    4.7091   -0.7493    0.0000 N   0  0  0  0  0  0  0  0  0  0  0  0
    6.1768   -0.4397    0.0000 C   0  0  0  0  0  0  0  0  0  0  0  0
   -4.6333   -0.0645    0.0000 C   0  0  0  0  0  0  0  0  0  0  0  0
   -5.0991   -1.4904    0.0000 O   0  0  0  0  0  0  0  0  0  0  0  0
   -5.6353    1.0518    0.0000 O   0  0  0  0  0  0  0  0  0  0  0  0
  2  1  1  1
  2  3  1  0
  3  4  1  0
  4  5  1  0
  5  6  2  0
  6  7  1  0
  7  8  2  0
  8  9  1  0
  7 10  1  0
 10 11  2  0
 10 12  1  0
 12 13  1  0
  2 14  1  0
 14 15  2  0
 14 16  1  0
  9  4  2  0
M  END
>  <rName>  (3039) 
Phe_4CONHMe

>  <PQ_SYMBOL>  (3039) 
Phe_4CONHMe

>  <FULL_NAME>  (3039) 
Phe(4-CONHMe)

>  <IUPAC_CONDENSED>  (3039) 
Phe(4-CONHMe)

>  <IUPAC>  (3039) 
(2S)-2-amino-3-(4-(methylcarbamoyl)phenyl)propanoic acid

>  <TYPE>  (3039) 
Backbone

>  <CLASS>  (3039) 
alpha

>  <ANALOG>  (3039) 
Phe

>  <MOL_WT>  (3039) 
222.24399999999997

>  <LOGP>  (3039) 
0.0005999999999998784

>  <TPSA>  (3039) 
92.42

>  <POPULARITY>  (3039) 
2.2

>  <PROTECTED>  (3039) 
TRUE

>  <SMILES>  (3039) 
N[C@@H](Cc1(ccc(cc1)C(=O)NC))C(=O)O

>  <INCHIKEY>  (3039) 
HQGVOYXBXDAPCG-VIFPVBQESA-N

$$$$
Phe_4CONHNH2
     RDKit          2D

 16 16  0  0  0  0  0  0  0  0999 V2000
   -2.6998    1.6709    0.0000 N   0  0  0  0  0  0  0  0  0  0  0  0
   -3.1656    0.2451    0.0000 C   0  0  0  0  0  0  0  0  0  0  0  0
   -2.1637   -0.8712    0.0000 C   0  0  0  0  0  0  0  0  0  0  0  0
   -0.6959   -0.5617    0.0000 C   0  0  0  0  0  0  0  0  0  0  0  0
   -0.2302    0.8642    0.0000 C   0  0  0  0  0  0  0  0  0  0  0  0
    1.2375    1.1738    0.0000 C   0  0  0  0  0  0  0  0  0  0  0  0
    2.2395    0.0575    0.0000 C   0  0  0  0  0  0  0  0  0  0  0  0
    1.7737   -1.3684    0.0000 C   0  0  0  0  0  0  0  0  0  0  0  0
    0.3060   -1.6780    0.0000 C   0  0  0  0  0  0  0  0  0  0  0  0
    3.7072    0.3670    0.0000 C   0  0  0  0  0  0  0  0  0  0  0  0
    4.1729    1.7929    0.0000 O   0  0  0  0  0  0  0  0  0  0  0  0
    4.7091   -0.7493    0.0000 N   0  0  0  0  0  0  0  0  0  0  0  0
    6.1768   -0.4397    0.0000 N   0  0  0  0  0  0  0  0  0  0  0  0
   -4.6333   -0.0645    0.0000 C   0  0  0  0  0  0  0  0  0  0  0  0
   -5.0991   -1.4904    0.0000 O   0  0  0  0  0  0  0  0  0  0  0  0
   -5.6353    1.0518    0.0000 O   0  0  0  0  0  0  0  0  0  0  0  0
  2  1  1  1
  2  3  1  0
  3  4  1  0
  4  5  1  0
  5  6  2  0
  6  7  1  0
  7  8  2  0
  8  9  1  0
  7 10  1  0
 10 11  2  0
 10 12  1  0
 12 13  1  0
  2 14  1  0
 14 15  2  0
 14 16  1  0
  9  4  2  0
M  END
>  <rName>  (3040) 
Phe_4CONHNH2

>  <PQ_SYMBOL>  (3040) 
Phe_4CONHNH2

>  <FULL_NAME>  (3040) 
(S)-2-amino-3-(4-(hydrazinecarbonyl)phenyl)propanoic acid

>  <IUPAC_CONDENSED>  (3040) 
Phe(4-CONHNH2)

>  <IUPAC>  (3040) 
(2S)-2-amino-3-(4-((hydrazinyl)carbonyl)phenyl)propanoic acid

>  <TYPE>  (3040) 
Backbone

>  <CLASS>  (3040) 
alpha

>  <ANALOG>  (3040) 
Phe

>  <MOL_WT>  (3040) 
223.23199999999997

>  <LOGP>  (3040) 
-0.7554999999999994

>  <TPSA>  (3040) 
118.44000000000001

>  <POPULARITY>  (3040) 
2.9

>  <PROTECTED>  (3040) 
TRUE

>  <SMILES>  (3040) 
N[C@@H](Cc1(ccc(cc1)C(=O)NN))C(=O)O

>  <INCHIKEY>  (3040) 
LDXSYIDRRDLLDF-QMMMGPOBSA-N

$$$$
Phe_4CONMe2
     RDKit          2D

 17 17  0  0  0  0  0  0  0  0999 V2000
   -3.0256    1.6677    0.0000 N   0  0  0  0  0  0  0  0  0  0  0  0
   -3.4283    0.2227    0.0000 C   0  0  0  0  0  0  0  0  0  0  0  0
   -2.3783   -0.8485    0.0000 C   0  0  0  0  0  0  0  0  0  0  0  0
   -0.9256   -0.4748    0.0000 C   0  0  0  0  0  0  0  0  0  0  0  0
   -0.5229    0.9701    0.0000 C   0  0  0  0  0  0  0  0  0  0  0  0
    0.9298    1.3438    0.0000 C   0  0  0  0  0  0  0  0  0  0  0  0
    1.9798    0.2726    0.0000 C   0  0  0  0  0  0  0  0  0  0  0  0
    1.5771   -1.1724    0.0000 C   0  0  0  0  0  0  0  0  0  0  0  0
    0.1244   -1.5460    0.0000 C   0  0  0  0  0  0  0  0  0  0  0  0
    3.4325    0.6463    0.0000 C   0  0  0  0  0  0  0  0  0  0  0  0
    3.8352    2.0912    0.0000 O   0  0  0  0  0  0  0  0  0  0  0  0
    4.4825   -0.4250    0.0000 N   0  0  0  0  0  0  0  0  0  0  0  0
    5.9352   -0.0513    0.0000 C   0  0  0  0  0  0  0  0  0  0  0  0
    4.0798   -1.8699    0.0000 C   0  0  0  0  0  0  0  0  0  0  0  0
   -4.8810   -0.1509    0.0000 C   0  0  0  0  0  0  0  0  0  0  0  0
   -5.2837   -1.5959    0.0000 O   0  0  0  0  0  0  0  0  0  0  0  0
   -5.9310    0.9203    0.0000 O   0  0  0  0  0  0  0  0  0  0  0  0
  2  1  1  1
  2  3  1  0
  3  4  1  0
  4  5  1  0
  5  6  2  0
  6  7  1  0
  7  8  2  0
  8  9  1  0
  7 10  1  0
 10 11  2  0
 10 12  1  0
 12 13  1  0
 12 14  1  0
  2 15  1  0
 15 16  2  0
 15 17  1  0
  9  4  2  0
M  END
>  <rName>  (3041) 
Phe_4CONMe2

>  <PQ_SYMBOL>  (3041) 
Phe_4CONMe2

>  <FULL_NAME>  (3041) 
(2S)-2-amino-3-[4-(dimethylcarbamoyl)phenyl]propanoic acid

>  <IUPAC_CONDENSED>  (3041) 
Phe(4-CONMe2)

>  <IUPAC>  (3041) 
(2S)-2-amino-3-[4-(dimethylcarbamoyl)phenyl]propanoic acid

>  <TYPE>  (3041) 
Backbone

>  <CLASS>  (3041) 
alpha

>  <ANALOG>  (3041) 
Phe

>  <MOL_WT>  (3041) 
236.27099999999996

>  <LOGP>  (3041) 
0.34280000000000016

>  <TPSA>  (3041) 
83.63000000000001

>  <POPULARITY>  (3041) 
2.2

>  <PROTECTED>  (3041) 
TRUE

>  <SMILES>  (3041) 
N[C@@H](Cc1(ccc(cc1)C(=O)N(C)C))C(=O)O

>  <INCHIKEY>  (3041) 
LUFNVSZSQAZNGQ-JTQLQIEISA-N

$$$$
Phe_4Cl
     RDKit          2D

 13 13  0  0  0  0  0  0  0  0999 V2000
   -1.5766    1.6851    0.0000 N   0  0  0  0  0  0  0  0  0  0  0  0
   -2.0128    0.2500    0.0000 C   0  0  0  0  0  0  0  0  0  0  0  0
   -0.9880   -0.8454    0.0000 C   0  0  0  0  0  0  0  0  0  0  0  0
    0.4730   -0.5055    0.0000 C   0  0  0  0  0  0  0  0  0  0  0  0
    0.9092    0.9296    0.0000 C   0  0  0  0  0  0  0  0  0  0  0  0
    2.3702    1.2695    0.0000 C   0  0  0  0  0  0  0  0  0  0  0  0
    3.3950    0.1741    0.0000 C   0  0  0  0  0  0  0  0  0  0  0  0
    4.8560    0.5140    0.0000 Cl  0  0  0  0  0  0  0  0  0  0  0  0
    2.9588   -1.2611    0.0000 C   0  0  0  0  0  0  0  0  0  0  0  0
    1.4978   -1.6009    0.0000 C   0  0  0  0  0  0  0  0  0  0  0  0
   -3.4738   -0.0899    0.0000 C   0  0  0  0  0  0  0  0  0  0  0  0
   -3.9100   -1.5250    0.0000 O   0  0  0  0  0  0  0  0  0  0  0  0
   -4.4986    1.0055    0.0000 O   0  0  0  0  0  0  0  0  0  0  0  0
  2  1  1  1
  2  3  1  0
  3  4  1  0
  4  5  1  0
  5  6  2  0
  6  7  1  0
  7  8  1  0
  7  9  2  0
  9 10  1  0
  2 11  1  0
 11 12  2  0
 11 13  1  0
 10  4  2  0
M  END
>  <rName>  (3042) 
Phe_4Cl

>  <PQ_SYMBOL>  (3042) 
Phe_4Cl

>  <FULL_NAME>  (3042) 
4-Chloro-L-Phenylalanine

>  <IUPAC_CONDENSED>  (3042) 
Phe(4-Cl)

>  <IUPAC>  (3042) 
(2S)-2-amino-3-(4-chlorophenyl)propanoic acid

>  <TYPE>  (3042) 
Backbone

>  <CLASS>  (3042) 
alpha

>  <ANALOG>  (3042) 
Phe

>  <MOL_WT>  (3042) 
199.637

>  <LOGP>  (3042) 
1.2944000000000002

>  <TPSA>  (3042) 
63.32000000000001

>  <POPULARITY>  (3042) 
31.9

>  <PROTECTED>  (3042) 
TRUE

>  <SMILES>  (3042) 
N[C@@H](Cc1(ccc(Cl)cc1))C(=O)O

>  <INCHIKEY>  (3042) 
NIGWMJHCCYYCSF-QMMMGPOBSA-N

$$$$
Phe_4Et
     RDKit          2D

 14 14  0  0  0  0  0  0  0  0999 V2000
   -2.0397    1.6757    0.0000 N   0  0  0  0  0  0  0  0  0  0  0  0
   -2.4395    0.2299    0.0000 C   0  0  0  0  0  0  0  0  0  0  0  0
   -1.3873   -0.8392    0.0000 C   0  0  0  0  0  0  0  0  0  0  0  0
    0.0646   -0.4625    0.0000 C   0  0  0  0  0  0  0  0  0  0  0  0
    0.4644    0.9832    0.0000 C   0  0  0  0  0  0  0  0  0  0  0  0
    1.9164    1.3598    0.0000 C   0  0  0  0  0  0  0  0  0  0  0  0
    2.9685    0.2907    0.0000 C   0  0  0  0  0  0  0  0  0  0  0  0
    2.5687   -1.1550    0.0000 C   0  0  0  0  0  0  0  0  0  0  0  0
    1.1168   -1.5316    0.0000 C   0  0  0  0  0  0  0  0  0  0  0  0
    4.4205    0.6674    0.0000 C   0  0  0  0  0  0  0  0  0  0  0  0
    5.4726   -0.4017    0.0000 C   0  0  0  0  0  0  0  0  0  0  0  0
   -3.8914   -0.1467    0.0000 C   0  0  0  0  0  0  0  0  0  0  0  0
   -4.2912   -1.5924    0.0000 O   0  0  0  0  0  0  0  0  0  0  0  0
   -4.9436    0.9224    0.0000 O   0  0  0  0  0  0  0  0  0  0  0  0
  2  1  1  1
  2  3  1  0
  3  4  1  0
  4  5  1  0
  5  6  2  0
  6  7  1  0
  7  8  2  0
  8  9  1  0
  7 10  1  0
 10 11  1  0
  2 12  1  0
 12 13  2  0
 12 14  1  0
  9  4  2  0
M  END
>  <rName>  (3043) 
Phe_4Et

>  <PQ_SYMBOL>  (3043) 
Phe_4Et

>  <FULL_NAME>  (3043) 
(S)-2-amino-3-(4-ethylphenyl)propanoic acid

>  <IUPAC_CONDENSED>  (3043) 
Phe(4-Et)

>  <IUPAC>  (3043) 
(2S)-2-amino-3-(4-ethylphenyl)propanoic acid

>  <TYPE>  (3043) 
Backbone

>  <CLASS>  (3043) 
alpha

>  <ANALOG>  (3043) 
Phe

>  <MOL_WT>  (3043) 
193.24599999999995

>  <LOGP>  (3043) 
1.2034000000000002

>  <TPSA>  (3043) 
63.32000000000001

>  <POPULARITY>  (3043) 
9.1

>  <PROTECTED>  (3043) 
TRUE

>  <SMILES>  (3043) 
N[C@@H](Cc1(ccc(cc1)CC))C(=O)O

>  <INCHIKEY>  (3043) 
AWKDBHFQJATNBQ-JTQLQIEISA-N

$$$$
Phe_4EtO2H
     RDKit          2D

 16 16  0  0  0  0  0  0  0  0999 V2000
   -2.8646    1.6700    0.0000 N   0  0  0  0  0  0  0  0  0  0  0  0
   -3.2013    0.2083    0.0000 C   0  0  0  0  0  0  0  0  0  0  0  0
   -2.1038   -0.8141    0.0000 C   0  0  0  0  0  0  0  0  0  0  0  0
   -0.6696   -0.3749    0.0000 C   0  0  0  0  0  0  0  0  0  0  0  0
   -0.3329    1.0868    0.0000 C   0  0  0  0  0  0  0  0  0  0  0  0
    1.1014    1.5261    0.0000 C   0  0  0  0  0  0  0  0  0  0  0  0
    2.1989    0.5036    0.0000 C   0  0  0  0  0  0  0  0  0  0  0  0
    1.8622   -0.9581    0.0000 C   0  0  0  0  0  0  0  0  0  0  0  0
    0.4280   -1.3974    0.0000 C   0  0  0  0  0  0  0  0  0  0  0  0
    3.6332    0.9429    0.0000 C   0  0  0  0  0  0  0  0  0  0  0  0
    4.7307   -0.0796    0.0000 C   0  0  0  0  0  0  0  0  0  0  0  0
    4.3940   -1.5413    0.0000 O   0  0  0  0  0  0  0  0  0  0  0  0
    6.1649    0.3597    0.0000 O   0  0  0  0  0  0  0  0  0  0  0  0
   -4.6356   -0.2309    0.0000 C   0  0  0  0  0  0  0  0  0  0  0  0
   -4.9723   -1.6927    0.0000 O   0  0  0  0  0  0  0  0  0  0  0  0
   -5.7331    0.7915    0.0000 O   0  0  0  0  0  0  0  0  0  0  0  0
  2  1  1  1
  2  3  1  0
  3  4  1  0
  4  5  1  0
  5  6  2  0
  6  7  1  0
  7  8  2  0
  8  9  1  0
  7 10  1  0
 10 11  1  0
 11 12  2  0
 11 13  1  0
  2 14  1  0
 14 15  2  0
 14 16  1  0
  9  4  2  0
M  END
>  <rName>  (3044) 
Phe_4EtO2H

>  <PQ_SYMBOL>  (3044) 
Phe_4EtO2H

>  <FULL_NAME>  (3044) 
(2S)-2-amino-3-[4-(carboxymethyl)phenyl]propanoic acid

>  <IUPAC_CONDENSED>  (3044) 
Phe(4-EtO2H)

>  <IUPAC>  (3044) 
(2S)-2-amino-3-(4-(2-hydroxy-2-oxoethyl)phenyl)propanoic acid

>  <TYPE>  (3044) 
Backbone

>  <CLASS>  (3044) 
alpha

>  <ANALOG>  (3044) 
Phe

>  <MOL_WT>  (3044) 
223.22799999999995

>  <LOGP>  (3044) 
0.26809999999999967

>  <TPSA>  (3044) 
100.62000000000002

>  <POPULARITY>  (3044) 
19.4

>  <PROTECTED>  (3044) 
TRUE

>  <SMILES>  (3044) 
N[C@@H](Cc1(ccc(cc1)CC(=O)O))C(=O)O

>  <INCHIKEY>  (3044) 
LJHYWUVYIKCPGU-VIFPVBQESA-N

$$$$
Phe_4F
     RDKit          2D

 13 13  0  0  0  0  0  0  0  0999 V2000
   -1.5766    1.6851    0.0000 N   0  0  0  0  0  0  0  0  0  0  0  0
   -2.0128    0.2500    0.0000 C   0  0  0  0  0  0  0  0  0  0  0  0
   -0.9880   -0.8454    0.0000 C   0  0  0  0  0  0  0  0  0  0  0  0
    0.4730   -0.5055    0.0000 C   0  0  0  0  0  0  0  0  0  0  0  0
    0.9092    0.9296    0.0000 C   0  0  0  0  0  0  0  0  0  0  0  0
    2.3702    1.2695    0.0000 C   0  0  0  0  0  0  0  0  0  0  0  0
    3.3950    0.1741    0.0000 C   0  0  0  0  0  0  0  0  0  0  0  0
    4.8560    0.5140    0.0000 F   0  0  0  0  0  0  0  0  0  0  0  0
    2.9588   -1.2611    0.0000 C   0  0  0  0  0  0  0  0  0  0  0  0
    1.4978   -1.6009    0.0000 C   0  0  0  0  0  0  0  0  0  0  0  0
   -3.4738   -0.0899    0.0000 C   0  0  0  0  0  0  0  0  0  0  0  0
   -3.9100   -1.5250    0.0000 O   0  0  0  0  0  0  0  0  0  0  0  0
   -4.4986    1.0055    0.0000 O   0  0  0  0  0  0  0  0  0  0  0  0
  2  1  1  1
  2  3  1  0
  3  4  1  0
  4  5  1  0
  5  6  2  0
  6  7  1  0
  7  8  1  0
  7  9  2  0
  9 10  1  0
  2 11  1  0
 11 12  2  0
 11 13  1  0
 10  4  2  0
M  END
>  <rName>  (3045) 
Phe_4F

>  <PQ_SYMBOL>  (3045) 
Phe_4F

>  <FULL_NAME>  (3045) 
4-Fluoro-L-Phenylalanine

>  <IUPAC_CONDENSED>  (3045) 
Phe(4-F)

>  <IUPAC>  (3045) 
(2S)-2-amino-3-(4-fluorophenyl)propanoic acid

>  <TYPE>  (3045) 
Backbone

>  <CLASS>  (3045) 
alpha

>  <ANALOG>  (3045) 
Phe

>  <MOL_WT>  (3045) 
183.182

>  <LOGP>  (3045) 
0.7801

>  <TPSA>  (3045) 
63.32000000000001

>  <POPULARITY>  (3045) 
38.1

>  <PROTECTED>  (3045) 
TRUE

>  <SMILES>  (3045) 
N[C@@H](Cc1(ccc(F)cc1))C(=O)O

>  <INCHIKEY>  (3045) 
XWHHYOYVRVGJJY-QMMMGPOBSA-N

$$$$
Phe_4For
     RDKit          2D

 14 14  0  0  0  0  0  0  0  0999 V2000
   -2.0397    1.6757    0.0000 N   0  0  0  0  0  0  0  0  0  0  0  0
   -2.4395    0.2299    0.0000 C   0  0  0  0  0  0  0  0  0  0  0  0
   -1.3873   -0.8392    0.0000 C   0  0  0  0  0  0  0  0  0  0  0  0
    0.0646   -0.4625    0.0000 C   0  0  0  0  0  0  0  0  0  0  0  0
    0.4644    0.9832    0.0000 C   0  0  0  0  0  0  0  0  0  0  0  0
    1.9164    1.3598    0.0000 C   0  0  0  0  0  0  0  0  0  0  0  0
    2.9685    0.2907    0.0000 C   0  0  0  0  0  0  0  0  0  0  0  0
    4.4205    0.6674    0.0000 C   0  0  0  0  0  0  0  0  0  0  0  0
    5.4726   -0.4017    0.0000 O   0  0  0  0  0  0  0  0  0  0  0  0
    2.5687   -1.1550    0.0000 C   0  0  0  0  0  0  0  0  0  0  0  0
    1.1168   -1.5316    0.0000 C   0  0  0  0  0  0  0  0  0  0  0  0
   -3.8914   -0.1467    0.0000 C   0  0  0  0  0  0  0  0  0  0  0  0
   -4.2912   -1.5924    0.0000 O   0  0  0  0  0  0  0  0  0  0  0  0
   -4.9436    0.9224    0.0000 O   0  0  0  0  0  0  0  0  0  0  0  0
  2  1  1  1
  2  3  1  0
  3  4  1  0
  4  5  1  0
  5  6  2  0
  6  7  1  0
  7  8  1  0
  8  9  2  0
  7 10  2  0
 10 11  1  0
  2 12  1  0
 12 13  2  0
 12 14  1  0
 11  4  2  0
M  END
>  <rName>  (3046) 
Phe_4For

>  <PQ_SYMBOL>  (3046) 
Phe_4For

>  <FULL_NAME>  (3046) 
4-formyl-L-phenylalanine

>  <IUPAC_CONDENSED>  (3046) 
Phe(4-For)

>  <IUPAC>  (3046) 
(2S)-2-amino-3-(4-(formyl)phenyl)propanoic acid

>  <TYPE>  (3046) 
Backbone

>  <CLASS>  (3046) 
alpha

>  <ANALOG>  (3046) 
Phe

>  <MOL_WT>  (3046) 
193.20199999999997

>  <LOGP>  (3046) 
0.45349999999999996

>  <TPSA>  (3046) 
80.39

>  <POPULARITY>  (3046) 
9.1

>  <PROTECTED>  (3046) 
TRUE

>  <SMILES>  (3046) 
N[C@@H](Cc1(ccc(C=O)cc1))C(=O)O

>  <INCHIKEY>  (3046) 
KXISAPBCOZRTDN-VIFPVBQESA-N

$$$$
Phe_4H2NBu
     RDKit          2D

 18 19  0  0  0  0  0  0  0  0999 V2000
   -3.6329    1.7094    0.0000 N   0  0  0  0  0  0  0  0  0  0  0  0
   -4.0179    0.2597    0.0000 C   0  0  0  0  0  0  0  0  0  0  0  0
   -2.9550   -0.7987    0.0000 C   0  0  0  0  0  0  0  0  0  0  0  0
   -1.5069   -0.4073    0.0000 C   0  0  0  0  0  0  0  0  0  0  0  0
   -1.1219    1.0424    0.0000 C   0  0  0  0  0  0  0  0  0  0  0  0
    0.3262    1.4338    0.0000 C   0  0  0  0  0  0  0  0  0  0  0  0
    1.3891    0.3755    0.0000 C   0  0  0  0  0  0  0  0  0  0  0  0
    1.0041   -1.0743    0.0000 C   0  0  0  0  0  0  0  0  0  0  0  0
   -0.4440   -1.4656    0.0000 C   0  0  0  0  0  0  0  0  0  0  0  0
    2.8372    0.7669    0.0000 N   0  0  0  0  0  0  0  0  0  0  0  0
    3.9002   -0.2915    0.0000 C   0  0  0  0  0  0  0  0  0  0  0  0
    3.5151   -1.7412    0.0000 O   0  0  0  0  0  0  0  0  0  0  0  0
    5.3482    0.0999    0.0000 C   0  0  0  0  0  0  0  0  0  0  0  0
    6.4065    1.1629    0.0000 C   0  0  0  0  0  0  0  0  0  0  0  0
    6.7979   -0.2852    0.0000 C   0  0  0  0  0  0  0  0  0  0  0  0
   -5.4660   -0.1317    0.0000 C   0  0  0  0  0  0  0  0  0  0  0  0
   -5.8510   -1.5815    0.0000 O   0  0  0  0  0  0  0  0  0  0  0  0
   -6.5289    0.9266    0.0000 O   0  0  0  0  0  0  0  0  0  0  0  0
  2  1  1  1
  2  3  1  0
  3  4  1  0
  4  5  1  0
  5  6  2  0
  6  7  1  0
  7  8  2  0
  8  9  1  0
  7 10  1  0
 10 11  1  0
 11 12  2  0
 11 13  1  0
 13 14  1  0
 14 15  1  0
  2 16  1  0
 16 17  2  0
 16 18  1  0
  9  4  2  0
 15 13  1  0
M  END
>  <rName>  (3047) 
Phe_4H2NBu

>  <PQ_SYMBOL>  (3047) 
Phe_4H2NBu

>  <FULL_NAME>  (3047) 
(S)-2-amino-3-(4-(cyclopropanecarboxamido)phenyl)propanoic acid

>  <IUPAC_CONDENSED>  (3047) 
Phe(4-H2NBu)

>  <IUPAC>  (3047) 
(2S)-2-amino-3-(4-cyclopropylcarbonylaminophenyl)propanoic acid

>  <TYPE>  (3047) 
Backbone

>  <CLASS>  (3047) 
alpha

>  <ANALOG>  (3047) 
Phe

>  <MOL_WT>  (3047) 
248.28199999999993

>  <LOGP>  (3047) 
0.9894999999999996

>  <TPSA>  (3047) 
92.42

>  <POPULARITY>  (3047) 
4.3

>  <PROTECTED>  (3047) 
TRUE

>  <SMILES>  (3047) 
N[C@@H](Cc1(ccc(cc1)NC(=O)C2(CC2)))C(=O)O

>  <INCHIKEY>  (3047) 
ANRRDOHWPYVPFU-NSHDSACASA-N

$$$$
Phe_4I
     RDKit          2D

 13 13  0  0  0  0  0  0  0  0999 V2000
   -1.5766    1.6851    0.0000 N   0  0  0  0  0  0  0  0  0  0  0  0
   -2.0128    0.2500    0.0000 C   0  0  0  0  0  0  0  0  0  0  0  0
   -0.9880   -0.8454    0.0000 C   0  0  0  0  0  0  0  0  0  0  0  0
    0.4730   -0.5055    0.0000 C   0  0  0  0  0  0  0  0  0  0  0  0
    0.9092    0.9296    0.0000 C   0  0  0  0  0  0  0  0  0  0  0  0
    2.3702    1.2695    0.0000 C   0  0  0  0  0  0  0  0  0  0  0  0
    3.3950    0.1741    0.0000 C   0  0  0  0  0  0  0  0  0  0  0  0
    4.8560    0.5140    0.0000 I   0  0  0  0  0  0  0  0  0  0  0  0
    2.9588   -1.2611    0.0000 C   0  0  0  0  0  0  0  0  0  0  0  0
    1.4978   -1.6009    0.0000 C   0  0  0  0  0  0  0  0  0  0  0  0
   -3.4738   -0.0899    0.0000 C   0  0  0  0  0  0  0  0  0  0  0  0
   -3.9100   -1.5250    0.0000 O   0  0  0  0  0  0  0  0  0  0  0  0
   -4.4986    1.0055    0.0000 O   0  0  0  0  0  0  0  0  0  0  0  0
  2  1  1  1
  2  3  1  0
  3  4  1  0
  4  5  1  0
  5  6  2  0
  6  7  1  0
  7  8  1  0
  7  9  2  0
  9 10  1  0
  2 11  1  0
 11 12  2  0
 11 13  1  0
 10  4  2  0
M  END
>  <rName>  (3048) 
Phe_4I

>  <PQ_SYMBOL>  (3048) 
Phe_4I

>  <FULL_NAME>  (3048) 
4-Iodo-L-Phenylalanine

>  <IUPAC_CONDENSED>  (3048) 
Phe(4-I)

>  <IUPAC>  (3048) 
(2S)-2-amino-3-(4-iodophenyl)propanoic acid

>  <TYPE>  (3048) 
Backbone

>  <CLASS>  (3048) 
alpha

>  <ANALOG>  (3048) 
Phe

>  <MOL_WT>  (3048) 
291.088

>  <LOGP>  (3048) 
1.2456

>  <TPSA>  (3048) 
63.32000000000001

>  <POPULARITY>  (3048) 
38.1

>  <PROTECTED>  (3048) 
TRUE

>  <SMILES>  (3048) 
N[C@@H](Cc1(ccc(I)cc1))C(=O)O

>  <INCHIKEY>  (3048) 
PZNQZSRPDOEBMS-QMMMGPOBSA-N

$$$$
Phe_4Me
     RDKit          2D

 13 13  0  0  0  0  0  0  0  0999 V2000
   -1.5766    1.6851    0.0000 N   0  0  0  0  0  0  0  0  0  0  0  0
   -2.0128    0.2500    0.0000 C   0  0  0  0  0  0  0  0  0  0  0  0
   -0.9880   -0.8454    0.0000 C   0  0  0  0  0  0  0  0  0  0  0  0
    0.4730   -0.5055    0.0000 C   0  0  0  0  0  0  0  0  0  0  0  0
    0.9092    0.9296    0.0000 C   0  0  0  0  0  0  0  0  0  0  0  0
    2.3702    1.2695    0.0000 C   0  0  0  0  0  0  0  0  0  0  0  0
    3.3950    0.1741    0.0000 C   0  0  0  0  0  0  0  0  0  0  0  0
    4.8560    0.5140    0.0000 C   0  0  0  0  0  0  0  0  0  0  0  0
    2.9588   -1.2611    0.0000 C   0  0  0  0  0  0  0  0  0  0  0  0
    1.4978   -1.6009    0.0000 C   0  0  0  0  0  0  0  0  0  0  0  0
   -3.4738   -0.0899    0.0000 C   0  0  0  0  0  0  0  0  0  0  0  0
   -3.9100   -1.5250    0.0000 O   0  0  0  0  0  0  0  0  0  0  0  0
   -4.4986    1.0055    0.0000 O   0  0  0  0  0  0  0  0  0  0  0  0
  2  1  1  1
  2  3  1  0
  3  4  1  0
  4  5  1  0
  5  6  2  0
  6  7  1  0
  7  8  1  0
  7  9  2  0
  9 10  1  0
  2 11  1  0
 11 12  2  0
 11 13  1  0
 10  4  2  0
M  END
>  <rName>  (3049) 
Phe_4Me

>  <PQ_SYMBOL>  (3049) 
Phe_4Me

>  <FULL_NAME>  (3049) 
4-Methyl-L-Phenylalanine

>  <IUPAC_CONDENSED>  (3049) 
Phe(4-Me)

>  <IUPAC>  (3049) 
(2S)-2-amino-3-(4-methylphenyl)propanoic acid

>  <TYPE>  (3049) 
Backbone

>  <CLASS>  (3049) 
alpha

>  <ANALOG>  (3049) 
Phe

>  <MOL_WT>  (3049) 
179.21899999999997

>  <LOGP>  (3049) 
0.9494199999999999

>  <TPSA>  (3049) 
63.32000000000001

>  <POPULARITY>  (3049) 
30.9

>  <PROTECTED>  (3049) 
TRUE

>  <SMILES>  (3049) 
N[C@@H](Cc1(ccc(C)cc1))C(=O)O

>  <INCHIKEY>  (3049) 
DQLHSFUMICQIMB-VIFPVBQESA-N

$$$$
Phe_4MeNH2
     RDKit          2D

 14 14  0  0  0  0  0  0  0  0999 V2000
   -2.0397    1.6757    0.0000 N   0  0  0  0  0  0  0  0  0  0  0  0
   -2.4395    0.2299    0.0000 C   0  0  0  0  0  0  0  0  0  0  0  0
   -1.3873   -0.8392    0.0000 C   0  0  0  0  0  0  0  0  0  0  0  0
    0.0646   -0.4625    0.0000 C   0  0  0  0  0  0  0  0  0  0  0  0
    0.4644    0.9832    0.0000 C   0  0  0  0  0  0  0  0  0  0  0  0
    1.9164    1.3598    0.0000 C   0  0  0  0  0  0  0  0  0  0  0  0
    2.9685    0.2907    0.0000 C   0  0  0  0  0  0  0  0  0  0  0  0
    2.5687   -1.1550    0.0000 C   0  0  0  0  0  0  0  0  0  0  0  0
    1.1168   -1.5316    0.0000 C   0  0  0  0  0  0  0  0  0  0  0  0
    4.4205    0.6674    0.0000 C   0  0  0  0  0  0  0  0  0  0  0  0
    5.4726   -0.4017    0.0000 N   0  0  0  0  0  0  0  0  0  0  0  0
   -3.8914   -0.1467    0.0000 C   0  0  0  0  0  0  0  0  0  0  0  0
   -4.2912   -1.5924    0.0000 O   0  0  0  0  0  0  0  0  0  0  0  0
   -4.9436    0.9224    0.0000 O   0  0  0  0  0  0  0  0  0  0  0  0
  2  1  1  1
  2  3  1  0
  3  4  1  0
  4  5  1  0
  5  6  2  0
  6  7  1  0
  7  8  2  0
  8  9  1  0
  7 10  1  0
 10 11  1  0
  2 12  1  0
 12 13  2  0
 12 14  1  0
  9  4  2  0
M  END
>  <rName>  (3050) 
Phe_4MeNH2

>  <PQ_SYMBOL>  (3050) 
Phe_4MeNH2

>  <FULL_NAME>  (3050) 
4-(Aminomethyl)-L-Phenylalanine

>  <IUPAC_CONDENSED>  (3050) 
Phe(4-MeNH2)

>  <IUPAC>  (3050) 
(2S)-2-amino-3-(4-(aminomethyl)phenyl)propanoic acid

>  <TYPE>  (3050) 
Backbone

>  <CLASS>  (3050) 
alpha

>  <ANALOG>  (3050) 
Phe

>  <MOL_WT>  (3050) 
194.23399999999995

>  <LOGP>  (3050) 
0.09970000000000018

>  <TPSA>  (3050) 
89.34

>  <POPULARITY>  (3050) 
14.7

>  <PROTECTED>  (3050) 
TRUE

>  <SMILES>  (3050) 
N[C@@H](Cc1(ccc(cc1)CN))C(=O)O

>  <INCHIKEY>  (3050) 
GNVNKFUEUXUWDV-VIFPVBQESA-N

$$$$
Phe_4MeOH
     RDKit          2D

 14 14  0  0  0  0  0  0  0  0999 V2000
   -2.0397    1.6757    0.0000 N   0  0  0  0  0  0  0  0  0  0  0  0
   -2.4395    0.2299    0.0000 C   0  0  0  0  0  0  0  0  0  0  0  0
   -1.3873   -0.8392    0.0000 C   0  0  0  0  0  0  0  0  0  0  0  0
    0.0646   -0.4625    0.0000 C   0  0  0  0  0  0  0  0  0  0  0  0
    0.4644    0.9832    0.0000 C   0  0  0  0  0  0  0  0  0  0  0  0
    1.9164    1.3598    0.0000 C   0  0  0  0  0  0  0  0  0  0  0  0
    2.9685    0.2907    0.0000 C   0  0  0  0  0  0  0  0  0  0  0  0
    2.5687   -1.1550    0.0000 C   0  0  0  0  0  0  0  0  0  0  0  0
    1.1168   -1.5316    0.0000 C   0  0  0  0  0  0  0  0  0  0  0  0
    4.4205    0.6674    0.0000 C   0  0  0  0  0  0  0  0  0  0  0  0
    5.4726   -0.4017    0.0000 O   0  0  0  0  0  0  0  0  0  0  0  0
   -3.8914   -0.1467    0.0000 C   0  0  0  0  0  0  0  0  0  0  0  0
   -4.2912   -1.5924    0.0000 O   0  0  0  0  0  0  0  0  0  0  0  0
   -4.9436    0.9224    0.0000 O   0  0  0  0  0  0  0  0  0  0  0  0
  2  1  1  1
  2  3  1  0
  3  4  1  0
  4  5  1  0
  5  6  2  0
  6  7  1  0
  7  8  2  0
  8  9  1  0
  7 10  1  0
 10 11  1  0
  2 12  1  0
 12 13  2  0
 12 14  1  0
  9  4  2  0
M  END
>  <rName>  (3051) 
Phe_4MeOH

>  <PQ_SYMBOL>  (3051) 
Phe_4MeOH

>  <FULL_NAME>  (3051) 
4-(hydroxymethyl)-L-phenylalanine

>  <IUPAC_CONDENSED>  (3051) 
Phe(4-MeOH)

>  <IUPAC>  (3051) 
(2S)-2-amino-3-(4-(hydroxymethyl)phenyl)propanoic acid

>  <TYPE>  (3051) 
Backbone

>  <CLASS>  (3051) 
alpha

>  <ANALOG>  (3051) 
Phe

>  <MOL_WT>  (3051) 
195.21799999999996

>  <LOGP>  (3051) 
0.13329999999999997

>  <TPSA>  (3051) 
83.55

>  <POPULARITY>  (3051) 
8.2

>  <PROTECTED>  (3051) 
TRUE

>  <SMILES>  (3051) 
N[C@@H](Cc1(ccc(cc1)CO))C(=O)O

>  <INCHIKEY>  (3051) 
OXNUZCWFCJRJSU-VIFPVBQESA-N

$$$$
Phe_4N3
     RDKit          2D

 15 15  0  0  0  0  0  0  0  0999 V2000
   -2.5677    1.6361    0.0000 N   0  0  0  0  0  0  0  0  0  0  0  0
   -2.8881    0.1707    0.0000 C   0  0  0  0  0  0  0  0  0  0  0  0
   -1.7791   -0.8394    0.0000 C   0  0  0  0  0  0  0  0  0  0  0  0
   -0.3499   -0.3841    0.0000 C   0  0  0  0  0  0  0  0  0  0  0  0
   -0.0296    1.0813    0.0000 C   0  0  0  0  0  0  0  0  0  0  0  0
    1.3996    1.5366    0.0000 C   0  0  0  0  0  0  0  0  0  0  0  0
    2.5086    0.5265    0.0000 C   0  0  0  0  0  0  0  0  0  0  0  0
    2.1882   -0.9389    0.0000 C   0  0  0  0  0  0  0  0  0  0  0  0
    0.7590   -1.3942    0.0000 C   0  0  0  0  0  0  0  0  0  0  0  0
    3.9378    0.9818    0.0000 N   0  0  0  0  0  0  0  0  0  0  0  0
    5.0467   -0.0283    0.0000 N   0  0  0  0  0  0  0  0  0  0  0  0
    6.1556   -1.0384    0.0000 N   0  0  0  0  0  0  0  0  0  0  0  0
   -4.3173   -0.2847    0.0000 C   0  0  0  0  0  0  0  0  0  0  0  0
   -4.6376   -1.7501    0.0000 O   0  0  0  0  0  0  0  0  0  0  0  0
   -5.4262    0.7254    0.0000 O   0  0  0  0  0  0  0  0  0  0  0  0
  2  1  1  1
  2  3  1  0
  3  4  1  0
  4  5  1  0
  5  6  2  0
  6  7  1  0
  7  8  2  0
  8  9  1  0
  7 10  1  0
 10 11  1  0
 11 12  3  0
  2 13  1  0
 13 14  2  0
 13 15  1  0
  9  4  2  0
M  CHG  2  10  -1  11   1
M  END
>  <rName>  (3052) 
Phe_4N3

>  <PQ_SYMBOL>  (3052) 
Phe_4N3

>  <FULL_NAME>  (3052) 
4-Azido-L-Phenylalanine

>  <IUPAC_CONDENSED>  (3052) 
Phe(4-N3)

>  <IUPAC>  (3052) 
(2S)-2-amino-3-(4-azidophenyl)propanoic acid

>  <TYPE>  (3052) 
Backbone

>  <CLASS>  (3052) 
alpha

>  <ANALOG>  (3052) 
Phe

>  <MOL_WT>  (3052) 
206.20499999999996

>  <LOGP>  (3052) 
1.41428

>  <TPSA>  (3052) 
105.57000000000001

>  <POPULARITY>  (3052) 
12.9

>  <PROTECTED>  (3052) 
TRUE

>  <SMILES>  (3052) 
N[C@@H](Cc1(ccc(cc1)[N-][N+]#N))C(=O)O

>  <INCHIKEY>  (3052) 
NEMHIKRLROONTL-QMMMGPOBSA-N

$$$$
Phe_4NEt2
     RDKit          2D

 17 17  0  0  0  0  0  0  0  0999 V2000
   -2.9458    1.7051    0.0000 N   0  0  0  0  0  0  0  0  0  0  0  0
   -3.4861    0.3058    0.0000 C   0  0  0  0  0  0  0  0  0  0  0  0
   -2.5445   -0.8618    0.0000 C   0  0  0  0  0  0  0  0  0  0  0  0
   -1.0625   -0.6302    0.0000 C   0  0  0  0  0  0  0  0  0  0  0  0
   -0.5221    0.7691    0.0000 C   0  0  0  0  0  0  0  0  0  0  0  0
    0.9599    1.0008    0.0000 C   0  0  0  0  0  0  0  0  0  0  0  0
    1.9015   -0.1668    0.0000 C   0  0  0  0  0  0  0  0  0  0  0  0
    1.3612   -1.5661    0.0000 C   0  0  0  0  0  0  0  0  0  0  0  0
   -0.1208   -1.7978    0.0000 C   0  0  0  0  0  0  0  0  0  0  0  0
    3.3835    0.0649    0.0000 N   0  0  0  0  0  0  0  0  0  0  0  0
    4.3252   -1.1027    0.0000 C   0  0  0  0  0  0  0  0  0  0  0  0
    5.8072   -0.8710    0.0000 C   0  0  0  0  0  0  0  0  0  0  0  0
    3.9239    1.4642    0.0000 C   0  0  0  0  0  0  0  0  0  0  0  0
    5.4059    1.6959    0.0000 C   0  0  0  0  0  0  0  0  0  0  0  0
   -4.9681    0.0741    0.0000 C   0  0  0  0  0  0  0  0  0  0  0  0
   -5.5085   -1.3252    0.0000 O   0  0  0  0  0  0  0  0  0  0  0  0
   -5.9098    1.2417    0.0000 O   0  0  0  0  0  0  0  0  0  0  0  0
  2  1  1  1
  2  3  1  0
  3  4  1  0
  4  5  1  0
  5  6  2  0
  6  7  1  0
  7  8  2  0
  8  9  1  0
  7 10  1  0
 10 11  1  0
 11 12  1  0
 10 13  1  0
 13 14  1  0
  2 15  1  0
 15 16  2  0
 15 17  1  0
  9  4  2  0
M  END
>  <rName>  (3053) 
Phe_4NEt2

>  <PQ_SYMBOL>  (3053) 
Phe_4NEt2

>  <FULL_NAME>  (3053) 
H-L-Phe(4-NEt2)-OH

>  <IUPAC_CONDENSED>  (3053) 
Phe(4-NEt2)

>  <IUPAC>  (3053) 
(2S)-2-amino-3-[4-(diethylamino)phenyl]propanoic acid

>  <TYPE>  (3053) 
Backbone

>  <CLASS>  (3053) 
alpha

>  <ANALOG>  (3053) 
Phe

>  <MOL_WT>  (3053) 
236.3149999999999

>  <LOGP>  (3053) 
1.4871999999999999

>  <TPSA>  (3053) 
66.56

>  <POPULARITY>  (3053) 
2.2

>  <PROTECTED>  (3053) 
TRUE

>  <SMILES>  (3053) 
N[C@@H](Cc1(ccc(cc1)N(CC)CC))C(=O)O

>  <INCHIKEY>  (3053) 
HMBDYJBUJGEPQD-LBPRGKRZSA-N

$$$$
Phe_4NH2
     RDKit          2D

 13 13  0  0  0  0  0  0  0  0999 V2000
   -1.5766    1.6851    0.0000 N   0  0  0  0  0  0  0  0  0  0  0  0
   -2.0128    0.2500    0.0000 C   0  0  0  0  0  0  0  0  0  0  0  0
   -0.9880   -0.8454    0.0000 C   0  0  0  0  0  0  0  0  0  0  0  0
    0.4730   -0.5055    0.0000 C   0  0  0  0  0  0  0  0  0  0  0  0
    0.9092    0.9296    0.0000 C   0  0  0  0  0  0  0  0  0  0  0  0
    2.3702    1.2695    0.0000 C   0  0  0  0  0  0  0  0  0  0  0  0
    3.3950    0.1741    0.0000 C   0  0  0  0  0  0  0  0  0  0  0  0
    4.8560    0.5140    0.0000 N   0  0  0  0  0  0  0  0  0  0  0  0
    2.9588   -1.2611    0.0000 C   0  0  0  0  0  0  0  0  0  0  0  0
    1.4978   -1.6009    0.0000 C   0  0  0  0  0  0  0  0  0  0  0  0
   -3.4738   -0.0899    0.0000 C   0  0  0  0  0  0  0  0  0  0  0  0
   -3.9100   -1.5250    0.0000 O   0  0  0  0  0  0  0  0  0  0  0  0
   -4.4986    1.0055    0.0000 O   0  0  0  0  0  0  0  0  0  0  0  0
  2  1  1  1
  2  3  1  0
  3  4  1  0
  4  5  1  0
  5  6  2  0
  6  7  1  0
  7  8  1  0
  7  9  2  0
  9 10  1  0
  2 11  1  0
 11 12  2  0
 11 13  1  0
 10  4  2  0
M  END
>  <rName>  (3054) 
Phe_4NH2

>  <PQ_SYMBOL>  (3054) 
Phe_4NH2

>  <FULL_NAME>  (3054) 
4-Amino-L-Phenylalanine

>  <IUPAC_CONDENSED>  (3054) 
Phe(4-NH2)

>  <IUPAC>  (3054) 
(2S)-2-amino-3-(4-aminophenyl)propanoic acid

>  <TYPE>  (3054) 
Backbone

>  <CLASS>  (3054) 
alpha

>  <ANALOG>  (3054) 
Phe

>  <MOL_WT>  (3054) 
180.207

>  <LOGP>  (3054) 
0.22319999999999962

>  <TPSA>  (3054) 
89.34

>  <POPULARITY>  (3054) 
36.6

>  <PROTECTED>  (3054) 
TRUE

>  <SMILES>  (3054) 
N[C@@H](Cc1(ccc(N)cc1))C(=O)O

>  <INCHIKEY>  (3054) 
CMUHFUGDYMFHEI-QMMMGPOBSA-N

$$$$
Phe_4NHAc
     RDKit          2D

 16 16  0  0  0  0  0  0  0  0999 V2000
   -2.8646    1.6700    0.0000 N   0  0  0  0  0  0  0  0  0  0  0  0
   -3.2013    0.2083    0.0000 C   0  0  0  0  0  0  0  0  0  0  0  0
   -2.1038   -0.8141    0.0000 C   0  0  0  0  0  0  0  0  0  0  0  0
   -0.6696   -0.3749    0.0000 C   0  0  0  0  0  0  0  0  0  0  0  0
   -0.3329    1.0868    0.0000 C   0  0  0  0  0  0  0  0  0  0  0  0
    1.1014    1.5261    0.0000 C   0  0  0  0  0  0  0  0  0  0  0  0
    2.1989    0.5036    0.0000 C   0  0  0  0  0  0  0  0  0  0  0  0
    1.8622   -0.9581    0.0000 C   0  0  0  0  0  0  0  0  0  0  0  0
    0.4280   -1.3974    0.0000 C   0  0  0  0  0  0  0  0  0  0  0  0
    3.6332    0.9429    0.0000 N   0  0  0  0  0  0  0  0  0  0  0  0
    4.7307   -0.0796    0.0000 C   0  0  0  0  0  0  0  0  0  0  0  0
    4.3940   -1.5413    0.0000 O   0  0  0  0  0  0  0  0  0  0  0  0
    6.1649    0.3597    0.0000 C   0  0  0  0  0  0  0  0  0  0  0  0
   -4.6356   -0.2309    0.0000 C   0  0  0  0  0  0  0  0  0  0  0  0
   -4.9723   -1.6927    0.0000 O   0  0  0  0  0  0  0  0  0  0  0  0
   -5.7331    0.7915    0.0000 O   0  0  0  0  0  0  0  0  0  0  0  0
  2  1  1  1
  2  3  1  0
  3  4  1  0
  4  5  1  0
  5  6  2  0
  6  7  1  0
  7  8  2  0
  8  9  1  0
  7 10  1  0
 10 11  1  0
 11 12  2  0
 11 13  1  0
  2 14  1  0
 14 15  2  0
 14 16  1  0
  9  4  2  0
M  END
>  <rName>  (3055) 
Phe_4NHAc

>  <PQ_SYMBOL>  (3055) 
Phe_4NHAc

>  <FULL_NAME>  (3055) 
4-acetamido-L-phenylalanine

>  <IUPAC_CONDENSED>  (3055) 
Phe(4-NHAc)

>  <IUPAC>  (3055) 
(2S)-2-amino-3-(4-methylcarbonylaminophenyl)propanoic acid

>  <TYPE>  (3055) 
Backbone

>  <CLASS>  (3055) 
alpha

>  <ANALOG>  (3055) 
Phe

>  <MOL_WT>  (3055) 
222.24399999999994

>  <LOGP>  (3055) 
0.5993999999999997

>  <TPSA>  (3055) 
92.42

>  <POPULARITY>  (3055) 
16.7

>  <PROTECTED>  (3055) 
TRUE

>  <SMILES>  (3055) 
N[C@@H](Cc1(ccc(cc1)NC(=O)C))C(=O)O

>  <INCHIKEY>  (3055) 
YAYQQGFBTYYMMH-JTQLQIEISA-N

$$$$
Phe_4NHMes
     RDKit          2D

 17 17  0  0  0  0  0  0  0  0999 V2000
   -3.1457    1.6694    0.0000 N   0  0  0  0  0  0  0  0  0  0  0  0
   -3.4800    0.2071    0.0000 C   0  0  0  0  0  0  0  0  0  0  0  0
   -2.3807   -0.8135    0.0000 C   0  0  0  0  0  0  0  0  0  0  0  0
   -0.9472   -0.3718    0.0000 C   0  0  0  0  0  0  0  0  0  0  0  0
   -0.6130    1.0905    0.0000 C   0  0  0  0  0  0  0  0  0  0  0  0
    0.8205    1.5322    0.0000 C   0  0  0  0  0  0  0  0  0  0  0  0
    1.9198    0.5116    0.0000 C   0  0  0  0  0  0  0  0  0  0  0  0
    1.5855   -0.9507    0.0000 C   0  0  0  0  0  0  0  0  0  0  0  0
    0.1520   -1.3924    0.0000 C   0  0  0  0  0  0  0  0  0  0  0  0
    3.3533    0.9532    0.0000 N   0  0  0  0  0  0  0  0  0  0  0  0
    4.4525   -0.0674    0.0000 S   0  0  0  0  0  0  0  0  0  0  0  0
    3.4319   -1.1666    0.0000 O   0  0  0  0  0  0  0  0  0  0  0  0
    5.4731    1.0319    0.0000 O   0  0  0  0  0  0  0  0  0  0  0  0
    5.5518   -1.0880    0.0000 C   0  0  0  0  0  0  0  0  0  0  0  0
   -4.9135   -0.2346    0.0000 C   0  0  0  0  0  0  0  0  0  0  0  0
   -5.2477   -1.6969    0.0000 O   0  0  0  0  0  0  0  0  0  0  0  0
   -6.0127    0.7860    0.0000 O   0  0  0  0  0  0  0  0  0  0  0  0
  2  1  1  1
  2  3  1  0
  3  4  1  0
  4  5  1  0
  5  6  2  0
  6  7  1  0
  7  8  2  0
  8  9  1  0
  7 10  1  0
 10 11  1  0
 11 12  2  0
 11 13  2  0
 11 14  1  0
  2 15  1  0
 15 16  2  0
 15 17  1  0
  9  4  2  0
M  END
>  <rName>  (3056) 
Phe_4NHMes

>  <PQ_SYMBOL>  (3056) 
Phe_4NHMes

>  <FULL_NAME>  (3056) 
(2S)-2-amino-3-[4-(methanesulfonamido)phenyl]propanoic acid

>  <IUPAC_CONDENSED>  (3056) 
Phe(4-NHMes)

>  <IUPAC>  (3056) 
(2S)-2-amino-3-(4-methylsulfonylaminophenyl)propanoic acid

>  <TYPE>  (3056) 
Backbone

>  <CLASS>  (3056) 
alpha

>  <ANALOG>  (3056) 
Phe

>  <MOL_WT>  (3056) 
258.2989999999999

>  <LOGP>  (3056) 
0.012499999999999678

>  <TPSA>  (3056) 
109.49

>  <POPULARITY>  (3056) 
7.9

>  <PROTECTED>  (3056) 
TRUE

>  <SMILES>  (3056) 
N[C@@H](Cc1(ccc(cc1)NS(=O)(=O)C))C(=O)O

>  <INCHIKEY>  (3056) 
JCDAIQZEQLVVRT-VIFPVBQESA-N

$$$$
Phe_4NMe2
     RDKit          2D

 15 15  0  0  0  0  0  0  0  0999 V2000
   -2.2547    1.6872    0.0000 N   0  0  0  0  0  0  0  0  0  0  0  0
   -2.7489    0.2709    0.0000 C   0  0  0  0  0  0  0  0  0  0  0  0
   -1.7696   -0.8652    0.0000 C   0  0  0  0  0  0  0  0  0  0  0  0
   -0.2959   -0.5852    0.0000 C   0  0  0  0  0  0  0  0  0  0  0  0
    0.1983    0.8311    0.0000 C   0  0  0  0  0  0  0  0  0  0  0  0
    1.6719    1.1111    0.0000 C   0  0  0  0  0  0  0  0  0  0  0  0
    2.6513   -0.0250    0.0000 C   0  0  0  0  0  0  0  0  0  0  0  0
    2.1570   -1.4413    0.0000 C   0  0  0  0  0  0  0  0  0  0  0  0
    0.6834   -1.7213    0.0000 C   0  0  0  0  0  0  0  0  0  0  0  0
    4.1249    0.2550    0.0000 N   0  0  0  0  0  0  0  0  0  0  0  0
    5.1043   -0.8811    0.0000 C   0  0  0  0  0  0  0  0  0  0  0  0
    4.6192    1.6713    0.0000 C   0  0  0  0  0  0  0  0  0  0  0  0
   -4.2225   -0.0091    0.0000 C   0  0  0  0  0  0  0  0  0  0  0  0
   -4.7168   -1.4254    0.0000 O   0  0  0  0  0  0  0  0  0  0  0  0
   -5.2019    1.1270    0.0000 O   0  0  0  0  0  0  0  0  0  0  0  0
  2  1  1  1
  2  3  1  0
  3  4  1  0
  4  5  1  0
  5  6  2  0
  6  7  1  0
  7  8  2  0
  8  9  1  0
  7 10  1  0
 10 11  1  0
 10 12  1  0
  2 13  1  0
 13 14  2  0
 13 15  1  0
  9  4  2  0
M  END
>  <rName>  (3057) 
Phe_4NMe2

>  <PQ_SYMBOL>  (3057) 
Phe_4NMe2

>  <FULL_NAME>  (3057) 
(S)-2-amino-3-(4-(dimethylamino)phenyl)propanoic acid

>  <IUPAC_CONDENSED>  (3057) 
Phe(4-NMe2)

>  <IUPAC>  (3057) 
(2S)-2-amino-3-(4-(dimethylamino)phenyl)propanoic acid

>  <TYPE>  (3057) 
Backbone

>  <CLASS>  (3057) 
alpha

>  <ANALOG>  (3057) 
Phe

>  <MOL_WT>  (3057) 
208.26099999999994

>  <LOGP>  (3057) 
0.7070000000000001

>  <TPSA>  (3057) 
66.56

>  <POPULARITY>  (3057) 
11.1

>  <PROTECTED>  (3057) 
TRUE

>  <SMILES>  (3057) 
N[C@@H](Cc1(ccc(cc1)N(C)C))C(=O)O

>  <INCHIKEY>  (3057) 
USEYFCOAPFGKLX-JTQLQIEISA-N

$$$$
Phe_4NNPh
     RDKit          2D

 20 21  0  0  0  0  0  0  0  0999 V2000
   -4.5045    1.7035    0.0000 N   0  0  0  0  0  0  0  0  0  0  0  0
   -4.9466    0.2701    0.0000 C   0  0  0  0  0  0  0  0  0  0  0  0
   -3.9264   -0.8295    0.0000 C   0  0  0  0  0  0  0  0  0  0  0  0
   -2.4640   -0.4957    0.0000 C   0  0  0  0  0  0  0  0  0  0  0  0
   -2.0218    0.9376    0.0000 C   0  0  0  0  0  0  0  0  0  0  0  0
   -0.5594    1.2714    0.0000 C   0  0  0  0  0  0  0  0  0  0  0  0
    0.4608    0.1718    0.0000 C   0  0  0  0  0  0  0  0  0  0  0  0
    1.9232    0.5056    0.0000 N   0  0  0  0  0  0  0  0  0  0  0  0
    2.9435   -0.5940    0.0000 N   0  0  0  0  0  0  0  0  0  0  0  0
    4.4059   -0.2603    0.0000 C   0  0  0  0  0  0  0  0  0  0  0  0
    5.4261   -1.3599    0.0000 C   0  0  0  0  0  0  0  0  0  0  0  0
    6.8885   -1.0261    0.0000 C   0  0  0  0  0  0  0  0  0  0  0  0
    7.3307    0.4072    0.0000 C   0  0  0  0  0  0  0  0  0  0  0  0
    6.3104    1.5068    0.0000 C   0  0  0  0  0  0  0  0  0  0  0  0
    4.8480    1.1731    0.0000 C   0  0  0  0  0  0  0  0  0  0  0  0
    0.0187   -1.2616    0.0000 C   0  0  0  0  0  0  0  0  0  0  0  0
   -1.4437   -1.5953    0.0000 C   0  0  0  0  0  0  0  0  0  0  0  0
   -6.4090   -0.0637    0.0000 C   0  0  0  0  0  0  0  0  0  0  0  0
   -6.8512   -1.4970    0.0000 O   0  0  0  0  0  0  0  0  0  0  0  0
   -7.4292    1.0359    0.0000 O   0  0  0  0  0  0  0  0  0  0  0  0
  2  1  1  1
  2  3  1  0
  3  4  1  0
  4  5  1  0
  5  6  2  0
  6  7  1  0
  7  8  1  0
  8  9  2  0
  9 10  1  0
 10 11  2  0
 11 12  1  0
 12 13  2  0
 13 14  1  0
 14 15  2  0
  7 16  2  0
 16 17  1  0
  2 18  1  0
 18 19  2  0
 18 20  1  0
 17  4  2  0
 15 10  1  0
M  END
>  <rName>  (3058) 
Phe_4NNPh

>  <PQ_SYMBOL>  (3058) 
Phe_4NNPh

>  <FULL_NAME>  (3058) 
(2S)-2-amino-3-[4-(2-phenyldiazen-1-yl)phenyl]propanoic acid

>  <IUPAC_CONDENSED>  (3058) 
Phe(4-N=NPh)

>  <IUPAC>  (3058) 
(2S)-2-amino-3-(4-phenyldiazenylphenyl)propanoic acid

>  <TYPE>  (3058) 
Backbone

>  <CLASS>  (3058) 
alpha

>  <ANALOG>  (3058) 
Phe

>  <MOL_WT>  (3058) 
269.30400000000003

>  <LOGP>  (3058) 
3.056400000000001

>  <TPSA>  (3058) 
88.04

>  <POPULARITY>  (3058) 
2.2

>  <PROTECTED>  (3058) 
TRUE

>  <SMILES>  (3058) 
N[C@@H](Cc1ccc(/N=N/c2ccccc2)cc1)C(=O)O

>  <INCHIKEY>  (3058) 
FIJMKZXEEUMYAE-YWMAMYRUSA-N

$$$$
Phe_4NO2
     RDKit          2D

 15 15  0  0  0  0  0  0  0  0999 V2000
   -2.2547    1.6872    0.0000 N   0  0  0  0  0  0  0  0  0  0  0  0
   -2.7489    0.2709    0.0000 C   0  0  0  0  0  0  0  0  0  0  0  0
   -1.7696   -0.8652    0.0000 C   0  0  0  0  0  0  0  0  0  0  0  0
   -0.2959   -0.5852    0.0000 C   0  0  0  0  0  0  0  0  0  0  0  0
    0.1983    0.8311    0.0000 C   0  0  0  0  0  0  0  0  0  0  0  0
    1.6719    1.1111    0.0000 C   0  0  0  0  0  0  0  0  0  0  0  0
    2.6513   -0.0250    0.0000 C   0  0  0  0  0  0  0  0  0  0  0  0
    2.1570   -1.4413    0.0000 C   0  0  0  0  0  0  0  0  0  0  0  0
    0.6834   -1.7213    0.0000 C   0  0  0  0  0  0  0  0  0  0  0  0
    4.1249    0.2550    0.0000 N   0  0  0  0  0  0  0  0  0  0  0  0
    4.6192    1.6713    0.0000 O   0  0  0  0  0  0  0  0  0  0  0  0
    5.1043   -0.8811    0.0000 O   0  0  0  0  0  0  0  0  0  0  0  0
   -4.2225   -0.0091    0.0000 C   0  0  0  0  0  0  0  0  0  0  0  0
   -4.7168   -1.4254    0.0000 O   0  0  0  0  0  0  0  0  0  0  0  0
   -5.2019    1.1270    0.0000 O   0  0  0  0  0  0  0  0  0  0  0  0
  2  1  1  1
  2  3  1  0
  3  4  1  0
  4  5  1  0
  5  6  2  0
  6  7  1  0
  7  8  2  0
  8  9  1  0
  7 10  1  0
 10 11  2  0
 10 12  1  0
  2 13  1  0
 13 14  2  0
 13 15  1  0
  9  4  2  0
M  CHG  2  10   1  12  -1
M  END
>  <rName>  (3059) 
Phe_4NO2

>  <PQ_SYMBOL>  (3059) 
Phe_4NO2

>  <FULL_NAME>  (3059) 
4-Nitro-L-Phenylalanine

>  <IUPAC_CONDENSED>  (3059) 
Phe(4-NO2)

>  <IUPAC>  (3059) 
(2S)-2-amino-3-(4-nitrophenyl)propanoic acid

>  <TYPE>  (3059) 
Backbone

>  <CLASS>  (3059) 
alpha

>  <ANALOG>  (3059) 
Phe

>  <MOL_WT>  (3059) 
210.18899999999994

>  <LOGP>  (3059) 
0.5492000000000001

>  <TPSA>  (3059) 
106.46

>  <POPULARITY>  (3059) 
21.3

>  <PROTECTED>  (3059) 
TRUE

>  <SMILES>  (3059) 
N[C@@H](Cc1(ccc(cc1)[N+](=O)[O-]))C(=O)O

>  <INCHIKEY>  (3059) 
GTVVZTAFGPQSPC-QMMMGPOBSA-N

$$$$
Phe_4OAc
     RDKit          2D

 16 16  0  0  0  0  0  0  0  0999 V2000
   -6.1649   -0.3597    0.0000 C   0  0  0  0  0  0  0  0  0  0  0  0
   -4.7307    0.0796    0.0000 C   0  0  0  0  0  0  0  0  0  0  0  0
   -4.3940    1.5413    0.0000 O   0  0  0  0  0  0  0  0  0  0  0  0
   -3.6332   -0.9429    0.0000 O   0  0  0  0  0  0  0  0  0  0  0  0
   -2.1989   -0.5036    0.0000 C   0  0  0  0  0  0  0  0  0  0  0  0
   -1.8622    0.9581    0.0000 C   0  0  0  0  0  0  0  0  0  0  0  0
   -0.4280    1.3974    0.0000 C   0  0  0  0  0  0  0  0  0  0  0  0
    0.6696    0.3749    0.0000 C   0  0  0  0  0  0  0  0  0  0  0  0
    2.1038    0.8141    0.0000 C   0  0  0  0  0  0  0  0  0  0  0  0
    3.2013   -0.2083    0.0000 C   0  0  0  0  0  0  0  0  0  0  0  0
    2.8646   -1.6700    0.0000 N   0  0  0  0  0  0  0  0  0  0  0  0
    4.6356    0.2309    0.0000 C   0  0  0  0  0  0  0  0  0  0  0  0
    4.9723    1.6927    0.0000 O   0  0  0  0  0  0  0  0  0  0  0  0
    5.7331   -0.7915    0.0000 O   0  0  0  0  0  0  0  0  0  0  0  0
    0.3329   -1.0868    0.0000 C   0  0  0  0  0  0  0  0  0  0  0  0
   -1.1014   -1.5261    0.0000 C   0  0  0  0  0  0  0  0  0  0  0  0
  1  2  1  0
  2  3  2  0
  2  4  1  0
  4  5  1  0
  5  6  1  0
  6  7  2  0
  7  8  1  0
  8  9  1  0
  9 10  1  0
 10 11  1  1
 10 12  1  0
 12 13  2  0
 12 14  1  0
  8 15  2  0
 15 16  1  0
 16  5  2  0
M  END
>  <rName>  (3060) 
Phe_4OAc

>  <PQ_SYMBOL>  (3060) 
Phe_4OAc

>  <FULL_NAME>  (3060) 
(2S)-3-(4-acetyloxyphenyl)-2-aminopropanoic acid

>  <IUPAC_CONDENSED>  (3060) 
Phe(4-O-Ac)

>  <IUPAC>  (3060) 
(2S)-3-(4-acetyloxyphenyl)-2-aminopropanoic acid

>  <TYPE>  (3060) 
Backbone

>  <CLASS>  (3060) 
alpha

>  <ANALOG>  (3060) 
Tyr

>  <MOL_WT>  (3060) 
223.228

>  <LOGP>  (3060) 
0.5663

>  <TPSA>  (3060) 
89.62

>  <POPULARITY>  (3060) 
3.5

>  <PROTECTED>  (3060) 
TRUE

>  <SMILES>  (3060) 
CC(=O)Oc1ccc(C[C@H](N)C(=O)O)cc1

>  <INCHIKEY>  (3060) 
QBFQXAKABOKEHT-JTQLQIEISA-N

$$$$
Phe_4OBn
     RDKit          2D

 20 21  0  0  0  0  0  0  0  0999 V2000
   -4.5045    1.7035    0.0000 N   0  0  0  0  0  0  0  0  0  0  0  0
   -4.9466    0.2701    0.0000 C   0  0  0  0  0  0  0  0  0  0  0  0
   -3.9264   -0.8295    0.0000 C   0  0  0  0  0  0  0  0  0  0  0  0
   -2.4640   -0.4957    0.0000 C   0  0  0  0  0  0  0  0  0  0  0  0
   -2.0218    0.9376    0.0000 C   0  0  0  0  0  0  0  0  0  0  0  0
   -0.5594    1.2714    0.0000 C   0  0  0  0  0  0  0  0  0  0  0  0
    0.4608    0.1718    0.0000 C   0  0  0  0  0  0  0  0  0  0  0  0
    1.9232    0.5056    0.0000 O   0  0  0  0  0  0  0  0  0  0  0  0
    2.9435   -0.5940    0.0000 C   0  0  0  0  0  0  0  0  0  0  0  0
    4.4059   -0.2603    0.0000 C   0  0  0  0  0  0  0  0  0  0  0  0
    5.4261   -1.3599    0.0000 C   0  0  0  0  0  0  0  0  0  0  0  0
    6.8885   -1.0261    0.0000 C   0  0  0  0  0  0  0  0  0  0  0  0
    7.3307    0.4072    0.0000 C   0  0  0  0  0  0  0  0  0  0  0  0
    6.3104    1.5068    0.0000 C   0  0  0  0  0  0  0  0  0  0  0  0
    4.8480    1.1731    0.0000 C   0  0  0  0  0  0  0  0  0  0  0  0
    0.0187   -1.2616    0.0000 C   0  0  0  0  0  0  0  0  0  0  0  0
   -1.4437   -1.5953    0.0000 C   0  0  0  0  0  0  0  0  0  0  0  0
   -6.4090   -0.0637    0.0000 C   0  0  0  0  0  0  0  0  0  0  0  0
   -6.8512   -1.4970    0.0000 O   0  0  0  0  0  0  0  0  0  0  0  0
   -7.4292    1.0359    0.0000 O   0  0  0  0  0  0  0  0  0  0  0  0
  2  1  1  1
  2  3  1  0
  3  4  1  0
  4  5  1  0
  5  6  2  0
  6  7  1  0
  7  8  1  0
  8  9  1  0
  9 10  1  0
 10 11  2  0
 11 12  1  0
 12 13  2  0
 13 14  1  0
 14 15  2  0
  7 16  2  0
 16 17  1  0
  2 18  1  0
 18 19  2  0
 18 20  1  0
 15 10  1  0
 17  4  2  0
M  END
>  <rName>  (3061) 
Phe_4OBn

>  <PQ_SYMBOL>  (3061) 
Phe_4OBn

>  <FULL_NAME>  (3061) 
O-Benzyl-L-Tyrosine

>  <IUPAC_CONDENSED>  (3061) 
Tyr(Bn)

>  <IUPAC>  (3061) 
(2S)-2-amino-3-(4-benzyloxyphenyl)propanoic acid

>  <TYPE>  (3061) 
Backbone

>  <CLASS>  (3061) 
alpha

>  <ANALOG>  (3061) 
Tyr

>  <MOL_WT>  (3061) 
271.316

>  <LOGP>  (3061) 
2.22

>  <TPSA>  (3061) 
72.55

>  <POPULARITY>  (3061) 
26.2

>  <PROTECTED>  (3061) 
TRUE

>  <SMILES>  (3061) 
N[C@@H](Cc2(ccc(OCc1(ccccc1))cc2))C(=O)O

>  <INCHIKEY>  (3061) 
KAFHLONDOVSENM-HNNXBMFYSA-N

$$$$
Phe_4OCF3
     RDKit          2D

 17 17  0  0  0  0  0  0  0  0999 V2000
   -3.1457    1.6694    0.0000 N   0  0  0  0  0  0  0  0  0  0  0  0
   -3.4800    0.2071    0.0000 C   0  0  0  0  0  0  0  0  0  0  0  0
   -2.3807   -0.8135    0.0000 C   0  0  0  0  0  0  0  0  0  0  0  0
   -0.9472   -0.3718    0.0000 C   0  0  0  0  0  0  0  0  0  0  0  0
   -0.6130    1.0905    0.0000 C   0  0  0  0  0  0  0  0  0  0  0  0
    0.8205    1.5322    0.0000 C   0  0  0  0  0  0  0  0  0  0  0  0
    1.9198    0.5116    0.0000 C   0  0  0  0  0  0  0  0  0  0  0  0
    3.3533    0.9532    0.0000 O   0  0  0  0  0  0  0  0  0  0  0  0
    4.4525   -0.0674    0.0000 C   0  0  0  0  0  0  0  0  0  0  0  0
    5.5518   -1.0880    0.0000 F   0  0  0  0  0  0  0  0  0  0  0  0
    5.4731    1.0319    0.0000 F   0  0  0  0  0  0  0  0  0  0  0  0
    3.4319   -1.1666    0.0000 F   0  0  0  0  0  0  0  0  0  0  0  0
    1.5855   -0.9507    0.0000 C   0  0  0  0  0  0  0  0  0  0  0  0
    0.1520   -1.3924    0.0000 C   0  0  0  0  0  0  0  0  0  0  0  0
   -4.9135   -0.2346    0.0000 C   0  0  0  0  0  0  0  0  0  0  0  0
   -5.2477   -1.6969    0.0000 O   0  0  0  0  0  0  0  0  0  0  0  0
   -6.0127    0.7860    0.0000 O   0  0  0  0  0  0  0  0  0  0  0  0
  2  1  1  1
  2  3  1  0
  3  4  1  0
  4  5  1  0
  5  6  2  0
  6  7  1  0
  7  8  1  0
  8  9  1  0
  9 10  1  0
  9 11  1  0
  9 12  1  0
  7 13  2  0
 13 14  1  0
  2 15  1  0
 15 16  2  0
 15 17  1  0
 14  4  2  0
M  END
>  <rName>  (3062) 
Phe_4OCF3

>  <PQ_SYMBOL>  (3062) 
Phe_4OCF3

>  <FULL_NAME>  (3062) 
(2S)-2-amino-3-[4-(trifluoromethoxy)phenyl]propanal

>  <IUPAC_CONDENSED>  (3062) 
Tyr(CF3)

>  <IUPAC>  (3062) 
(2S)-2-amino-3-(4-((trifluoromethyl)oxy)phenyl)propanoic acid

>  <TYPE>  (3062) 
Backbone

>  <CLASS>  (3062) 
alpha

>  <ANALOG>  (3062) 
Tyr

>  <MOL_WT>  (3062) 
249.18799999999996

>  <LOGP>  (3062) 
1.5396000000000003

>  <TPSA>  (3062) 
72.55

>  <POPULARITY>  (3062) 
10.4

>  <PROTECTED>  (3062) 
TRUE

>  <SMILES>  (3062) 
N[C@@H](Cc1(ccc(OC(F)(F)F)cc1))C(=O)O

>  <INCHIKEY>  (3062) 
YZXUCQCJZKJMIR-QMMMGPOBSA-N

$$$$
Phe_4OCHF2
     RDKit          2D

 16 16  0  0  0  0  0  0  0  0999 V2000
   -2.8646    1.6700    0.0000 N   0  0  0  0  0  0  0  0  0  0  0  0
   -3.2013    0.2083    0.0000 C   0  0  0  0  0  0  0  0  0  0  0  0
   -2.1038   -0.8141    0.0000 C   0  0  0  0  0  0  0  0  0  0  0  0
   -0.6696   -0.3749    0.0000 C   0  0  0  0  0  0  0  0  0  0  0  0
   -0.3329    1.0868    0.0000 C   0  0  0  0  0  0  0  0  0  0  0  0
    1.1014    1.5261    0.0000 C   0  0  0  0  0  0  0  0  0  0  0  0
    2.1989    0.5036    0.0000 C   0  0  0  0  0  0  0  0  0  0  0  0
    3.6332    0.9429    0.0000 O   0  0  0  0  0  0  0  0  0  0  0  0
    4.7307   -0.0796    0.0000 C   0  0  0  0  0  0  0  0  0  0  0  0
    6.1649    0.3597    0.0000 F   0  0  0  0  0  0  0  0  0  0  0  0
    4.3940   -1.5413    0.0000 F   0  0  0  0  0  0  0  0  0  0  0  0
    1.8622   -0.9581    0.0000 C   0  0  0  0  0  0  0  0  0  0  0  0
    0.4280   -1.3974    0.0000 C   0  0  0  0  0  0  0  0  0  0  0  0
   -4.6356   -0.2309    0.0000 C   0  0  0  0  0  0  0  0  0  0  0  0
   -4.9723   -1.6927    0.0000 O   0  0  0  0  0  0  0  0  0  0  0  0
   -5.7331    0.7915    0.0000 O   0  0  0  0  0  0  0  0  0  0  0  0
  2  1  1  1
  2  3  1  0
  3  4  1  0
  4  5  1  0
  5  6  2  0
  6  7  1  0
  7  8  1  0
  8  9  1  0
  9 10  1  0
  9 11  1  0
  7 12  2  0
 12 13  1  0
  2 14  1  0
 14 15  2  0
 14 16  1  0
 13  4  2  0
M  END
>  <rName>  (3063) 
Phe_4OCHF2

>  <PQ_SYMBOL>  (3063) 
Phe_4OCHF2

>  <FULL_NAME>  (3063) 
O4-(difluoromethyl)-L-tyrosine

>  <IUPAC_CONDENSED>  (3063) 
Tyr(CHF2)

>  <IUPAC>  (3063) 
(2S)-2-amino-3-(4-((difluoromethyl)oxy)phenyl)propanoic acid

>  <TYPE>  (3063) 
Backbone

>  <CLASS>  (3063) 
alpha

>  <ANALOG>  (3063) 
Tyr

>  <MOL_WT>  (3063) 
231.19799999999995

>  <LOGP>  (3063) 
1.2424000000000002

>  <TPSA>  (3063) 
72.55

>  <POPULARITY>  (3063) 
7.3

>  <PROTECTED>  (3063) 
TRUE

>  <SMILES>  (3063) 
N[C@@H](Cc1(ccc(OC(F)F)cc1))C(=O)O

>  <INCHIKEY>  (3063) 
ITFQXKAULLPDSW-QMMMGPOBSA-N

$$$$
Phe_4OPh
     RDKit          2D

 19 20  0  0  0  0  0  0  0  0999 V2000
   -4.0697    1.5683    0.0000 N   0  0  0  0  0  0  0  0  0  0  0  0
   -4.2646    0.0811    0.0000 C   0  0  0  0  0  0  0  0  0  0  0  0
   -3.0740   -0.8314    0.0000 C   0  0  0  0  0  0  0  0  0  0  0  0
   -1.6885   -0.2565    0.0000 C   0  0  0  0  0  0  0  0  0  0  0  0
   -1.4936    1.2308    0.0000 C   0  0  0  0  0  0  0  0  0  0  0  0
   -0.1082    1.8057    0.0000 C   0  0  0  0  0  0  0  0  0  0  0  0
    1.0824    0.8933    0.0000 C   0  0  0  0  0  0  0  0  0  0  0  0
    2.4679    1.4681    0.0000 O   0  0  0  0  0  0  0  0  0  0  0  0
    3.6585    0.5557    0.0000 C   0  0  0  0  0  0  0  0  0  0  0  0
    3.4636   -0.9316    0.0000 C   0  0  0  0  0  0  0  0  0  0  0  0
    4.6542   -1.8440    0.0000 C   0  0  0  0  0  0  0  0  0  0  0  0
    6.0396   -1.2691    0.0000 C   0  0  0  0  0  0  0  0  0  0  0  0
    6.2345    0.2182    0.0000 C   0  0  0  0  0  0  0  0  0  0  0  0
    5.0439    1.1306    0.0000 C   0  0  0  0  0  0  0  0  0  0  0  0
    0.8875   -0.5940    0.0000 C   0  0  0  0  0  0  0  0  0  0  0  0
   -0.4979   -1.1689    0.0000 C   0  0  0  0  0  0  0  0  0  0  0  0
   -5.6500   -0.4938    0.0000 C   0  0  0  0  0  0  0  0  0  0  0  0
   -5.8449   -1.9811    0.0000 O   0  0  0  0  0  0  0  0  0  0  0  0
   -6.8406    0.4186    0.0000 O   0  0  0  0  0  0  0  0  0  0  0  0
  2  1  1  1
  2  3  1  0
  3  4  1  0
  4  5  1  0
  5  6  2  0
  6  7  1  0
  7  8  1  0
  8  9  1  0
  9 10  2  0
 10 11  1  0
 11 12  2  0
 12 13  1  0
 13 14  2  0
  7 15  2  0
 15 16  1  0
  2 17  1  0
 17 18  2  0
 17 19  1  0
 14  9  1  0
 16  4  2  0
M  END
>  <rName>  (3064) 
Phe_4OPh

>  <PQ_SYMBOL>  (3064) 
Phe_4OPh

>  <FULL_NAME>  (3064) 
(S)-2-amino-3-(4-phenoxyphenyl)propanoic acid

>  <IUPAC_CONDENSED>  (3064) 
Tyr(Ph)

>  <IUPAC>  (3064) 
(2S)-2-amino-3-(4-phenoxyphenyl)propanoic acid

>  <TYPE>  (3064) 
Backbone

>  <CLASS>  (3064) 
alpha

>  <ANALOG>  (3064) 
Tyr

>  <MOL_WT>  (3064) 
257.289

>  <LOGP>  (3064) 
2.4333

>  <TPSA>  (3064) 
72.55

>  <POPULARITY>  (3064) 
11.2

>  <PROTECTED>  (3064) 
TRUE

>  <SMILES>  (3064) 
N[C@@H](Cc2(ccc(Oc1(ccccc1))cc2))C(=O)O

>  <INCHIKEY>  (3064) 
DRDNRDDAAFSVNM-AWEZNQCLSA-N

$$$$
Phe_4OPr
     RDKit          2D

 16 16  0  0  0  0  0  0  0  0999 V2000
   -3.0307    1.6397    0.0000 N   0  0  0  0  0  0  0  0  0  0  0  0
   -3.3793    0.1807    0.0000 C   0  0  0  0  0  0  0  0  0  0  0  0
   -2.2900   -0.8506    0.0000 C   0  0  0  0  0  0  0  0  0  0  0  0
   -0.8523   -0.4229    0.0000 C   0  0  0  0  0  0  0  0  0  0  0  0
   -0.5038    1.0360    0.0000 C   0  0  0  0  0  0  0  0  0  0  0  0
    0.9340    1.4637    0.0000 C   0  0  0  0  0  0  0  0  0  0  0  0
    2.0232    0.4324    0.0000 C   0  0  0  0  0  0  0  0  0  0  0  0
    3.4609    0.8600    0.0000 O   0  0  0  0  0  0  0  0  0  0  0  0
    4.5502   -0.1713    0.0000 C   0  0  0  0  0  0  0  0  0  0  0  0
    5.9879    0.2564    0.0000 C   0  0  0  0  0  0  0  0  0  0  0  0
    7.0771   -0.7749    0.0000 C   0  0  0  0  0  0  0  0  0  0  0  0
    1.6747   -1.0266    0.0000 C   0  0  0  0  0  0  0  0  0  0  0  0
    0.2369   -1.4542    0.0000 C   0  0  0  0  0  0  0  0  0  0  0  0
   -4.8170   -0.2469    0.0000 C   0  0  0  0  0  0  0  0  0  0  0  0
   -5.1655   -1.7059    0.0000 O   0  0  0  0  0  0  0  0  0  0  0  0
   -5.9062    0.7844    0.0000 O   0  0  0  0  0  0  0  0  0  0  0  0
  2  1  1  1
  2  3  1  0
  3  4  1  0
  4  5  1  0
  5  6  2  0
  6  7  1  0
  7  8  1  0
  8  9  1  0
  9 10  1  0
 10 11  1  0
  7 12  2  0
 12 13  1  0
  2 14  1  0
 14 15  2  0
 14 16  1  0
 13  4  2  0
M  END
>  <rName>  (3065) 
Phe_4OPr

>  <PQ_SYMBOL>  (3065) 
Phe_4OPr

>  <FULL_NAME>  (3065) 
O-Propyl-L-tyrosine

>  <IUPAC_CONDENSED>  (3065) 
Phe(4-OPr)

>  <IUPAC>  (3065) 
(2S)-2-amino-3-(4-propoxyphenyl)propanoic acid

>  <TYPE>  (3065) 
Backbone

>  <CLASS>  (3065) 
alpha

>  <ANALOG>  (3065) 
Tyr

>  <MOL_WT>  (3065) 
223.27199999999996

>  <LOGP>  (3065) 
1.4298000000000002

>  <TPSA>  (3065) 
72.55

>  <POPULARITY>  (3065) 
2.2

>  <PROTECTED>  (3065) 
TRUE

>  <SMILES>  (3065) 
N[C@@H](Cc1(ccc(OCCC)cc1))C(=O)O

>  <INCHIKEY>  (3065) 
WIDNDXOANCQXPD-NSHDSACASA-N

$$$$
Phe_4Oallyl
     RDKit          2D

 16 16  0  0  0  0  0  0  0  0999 V2000
   -3.0307    1.6397    0.0000 N   0  0  0  0  0  0  0  0  0  0  0  0
   -3.3793    0.1807    0.0000 C   0  0  0  0  0  0  0  0  0  0  0  0
   -2.2900   -0.8506    0.0000 C   0  0  0  0  0  0  0  0  0  0  0  0
   -0.8523   -0.4229    0.0000 C   0  0  0  0  0  0  0  0  0  0  0  0
   -0.5038    1.0360    0.0000 C   0  0  0  0  0  0  0  0  0  0  0  0
    0.9340    1.4637    0.0000 C   0  0  0  0  0  0  0  0  0  0  0  0
    2.0232    0.4324    0.0000 C   0  0  0  0  0  0  0  0  0  0  0  0
    3.4609    0.8600    0.0000 O   0  0  0  0  0  0  0  0  0  0  0  0
    4.5502   -0.1713    0.0000 C   0  0  0  0  0  0  0  0  0  0  0  0
    5.9879    0.2564    0.0000 C   0  0  0  0  0  0  0  0  0  0  0  0
    7.0771   -0.7749    0.0000 C   0  0  0  0  0  0  0  0  0  0  0  0
    1.6747   -1.0266    0.0000 C   0  0  0  0  0  0  0  0  0  0  0  0
    0.2369   -1.4542    0.0000 C   0  0  0  0  0  0  0  0  0  0  0  0
   -4.8170   -0.2469    0.0000 C   0  0  0  0  0  0  0  0  0  0  0  0
   -5.1655   -1.7059    0.0000 O   0  0  0  0  0  0  0  0  0  0  0  0
   -5.9062    0.7844    0.0000 O   0  0  0  0  0  0  0  0  0  0  0  0
  2  1  1  1
  2  3  1  0
  3  4  1  0
  4  5  1  0
  5  6  2  0
  6  7  1  0
  7  8  1  0
  8  9  1  0
  9 10  1  0
 10 11  2  0
  7 12  2  0
 12 13  1  0
  2 14  1  0
 14 15  2  0
 14 16  1  0
 13  4  2  0
M  END
>  <rName>  (3066) 
Phe_4Oallyl

>  <PQ_SYMBOL>  (3066) 
Phe_4Oallyl

>  <FULL_NAME>  (3066) 
(S)-3-(4-(allyloxy)phenyl)-2-aminopropanoic acid

>  <IUPAC_CONDENSED>  (3066) 
Tyr(allyl)

>  <IUPAC>  (3066) 
(2S)-2-amino-3-(4-((prop-2-en-1-yl)oxy)phenyl)propanoic acid

>  <TYPE>  (3066) 
Backbone

>  <CLASS>  (3066) 
alpha

>  <ANALOG>  (3066) 
Tyr

>  <MOL_WT>  (3066) 
221.25599999999997

>  <LOGP>  (3066) 
1.2058000000000002

>  <TPSA>  (3066) 
72.55

>  <POPULARITY>  (3066) 
6.5

>  <PROTECTED>  (3066) 
TRUE

>  <SMILES>  (3066) 
N[C@@H](Cc1(ccc(OCC=C)cc1))C(=O)O

>  <INCHIKEY>  (3066) 
PHUOJEKTSKQBNT-NSHDSACASA-N

$$$$
Phe_4Ododecyl
     RDKit          2D

 25 25  0  0  0  0  0  0  0  0999 V2000
   -8.1126    1.3288    0.0000 N   0  0  0  0  0  0  0  0  0  0  0  0
   -8.2791   -0.1619    0.0000 C   0  0  0  0  0  0  0  0  0  0  0  0
   -7.0713   -1.0515    0.0000 C   0  0  0  0  0  0  0  0  0  0  0  0
   -5.6970   -0.4504    0.0000 C   0  0  0  0  0  0  0  0  0  0  0  0
   -5.5305    1.0404    0.0000 C   0  0  0  0  0  0  0  0  0  0  0  0
   -4.1563    1.6415    0.0000 C   0  0  0  0  0  0  0  0  0  0  0  0
   -2.9485    0.7520    0.0000 C   0  0  0  0  0  0  0  0  0  0  0  0
   -1.5743    1.3531    0.0000 O   0  0  0  0  0  0  0  0  0  0  0  0
   -0.3665    0.4635    0.0000 C   0  0  0  0  0  0  0  0  0  0  0  0
    1.0078    1.0647    0.0000 C   0  0  0  0  0  0  0  0  0  0  0  0
    2.2155    0.1751    0.0000 C   0  0  0  0  0  0  0  0  0  0  0  0
    3.5898    0.7763    0.0000 C   0  0  0  0  0  0  0  0  0  0  0  0
    4.7975   -0.1133    0.0000 C   0  0  0  0  0  0  0  0  0  0  0  0
    6.1718    0.4879    0.0000 C   0  0  0  0  0  0  0  0  0  0  0  0
    7.3796   -0.4017    0.0000 C   0  0  0  0  0  0  0  0  0  0  0  0
    8.7538    0.1995    0.0000 C   0  0  0  0  0  0  0  0  0  0  0  0
    9.9616   -0.6901    0.0000 C   0  0  0  0  0  0  0  0  0  0  0  0
   11.3358   -0.0889    0.0000 C   0  0  0  0  0  0  0  0  0  0  0  0
   12.5436   -0.9785    0.0000 C   0  0  0  0  0  0  0  0  0  0  0  0
   13.9179   -0.3773    0.0000 C   0  0  0  0  0  0  0  0  0  0  0  0
   -3.1150   -0.7388    0.0000 C   0  0  0  0  0  0  0  0  0  0  0  0
   -4.4893   -1.3399    0.0000 C   0  0  0  0  0  0  0  0  0  0  0  0
   -9.6533   -0.7631    0.0000 C   0  0  0  0  0  0  0  0  0  0  0  0
   -9.8198   -2.2538    0.0000 O   0  0  0  0  0  0  0  0  0  0  0  0
  -10.8611    0.1265    0.0000 O   0  0  0  0  0  0  0  0  0  0  0  0
  2  1  1  1
  2  3  1  0
  3  4  1  0
  4  5  1  0
  5  6  2  0
  6  7  1  0
  7  8  1  0
  8  9  1  0
  9 10  1  0
 10 11  1  0
 11 12  1  0
 12 13  1  0
 13 14  1  0
 14 15  1  0
 15 16  1  0
 16 17  1  0
 17 18  1  0
 18 19  1  0
 19 20  1  0
  7 21  2  0
 21 22  1  0
  2 23  1  0
 23 24  2  0
 23 25  1  0
 22  4  2  0
M  END
>  <rName>  (3067) 
Phe_4Ododecyl

>  <PQ_SYMBOL>  (3067) 
Phe_4Ododecyl

>  <FULL_NAME>  (3067) 
(2S)-2-amino-3-(4-dodecoxyphenyl)propanoic acid

>  <IUPAC_CONDENSED>  (3067) 
Phe(4-Ododecyl)

>  <IUPAC>  (3067) 
(2S)-2-amino-3-(4-dodecoxyphenyl)propanoic acid

>  <TYPE>  (3067) 
Backbone

>  <CLASS>  (3067) 
alpha

>  <ANALOG>  (3067) 
Tyr

>  <MOL_WT>  (3067) 
349.515

>  <LOGP>  (3067) 
4.940700000000005

>  <TPSA>  (3067) 
72.55

>  <POPULARITY>  (3067) 
3.5

>  <PROTECTED>  (3067) 
TRUE

>  <SMILES>  (3067) 
N[C@@H](Cc1(ccc(OCCCCCCCCCCCC)cc1))C(=O)O

>  <INCHIKEY>  (3067) 
LCHWMHOJXSBXRG-FQEVSTJZSA-N

$$$$
Phe_4Oprop2ynyl
     RDKit          2D

 16 16  0  0  0  0  0  0  0  0999 V2000
   -2.9780    1.6873    0.0000 N   0  0  0  0  0  0  0  0  0  0  0  0
   -3.3933    0.2460    0.0000 C   0  0  0  0  0  0  0  0  0  0  0  0
   -2.3527   -0.8344    0.0000 C   0  0  0  0  0  0  0  0  0  0  0  0
   -0.8968   -0.4733    0.0000 C   0  0  0  0  0  0  0  0  0  0  0  0
   -0.4815    0.9680    0.0000 C   0  0  0  0  0  0  0  0  0  0  0  0
    0.9744    1.3291    0.0000 C   0  0  0  0  0  0  0  0  0  0  0  0
    2.0150    0.2487    0.0000 C   0  0  0  0  0  0  0  0  0  0  0  0
    3.4709    0.6098    0.0000 O   0  0  0  0  0  0  0  0  0  0  0  0
    4.5115   -0.4706    0.0000 C   0  0  0  0  0  0  0  0  0  0  0  0
    5.9674   -0.1095    0.0000 C   0  0  0  0  0  0  0  0  0  0  0  0
    7.4233    0.2515    0.0000 C   0  0  0  0  0  0  0  0  0  0  0  0
    1.5997   -1.1926    0.0000 C   0  0  0  0  0  0  0  0  0  0  0  0
    0.1438   -1.5537    0.0000 C   0  0  0  0  0  0  0  0  0  0  0  0
   -4.8492   -0.1151    0.0000 C   0  0  0  0  0  0  0  0  0  0  0  0
   -5.2645   -1.5564    0.0000 O   0  0  0  0  0  0  0  0  0  0  0  0
   -5.8899    0.9653    0.0000 O   0  0  0  0  0  0  0  0  0  0  0  0
  2  1  1  1
  2  3  1  0
  3  4  1  0
  4  5  1  0
  5  6  2  0
  6  7  1  0
  7  8  1  0
  8  9  1  0
  9 10  1  0
 10 11  3  0
  7 12  2  0
 12 13  1  0
  2 14  1  0
 14 15  2  0
 14 16  1  0
 13  4  2  0
M  END
>  <rName>  (3068) 
Phe_4Oprop2ynyl

>  <PQ_SYMBOL>  (3068) 
Phe_4Oprop2ynyl

>  <FULL_NAME>  (3068) 
O-propargyl-L-tyrosine

>  <IUPAC_CONDENSED>  (3068) 
Tyr(prop-2-ynyl)

>  <IUPAC>  (3068) 
(2S)-2-amino-3-(4-((prop-2-yn-1-yl)oxy)phenyl)propanoic acid

>  <TYPE>  (3068) 
Backbone

>  <CLASS>  (3068) 
alpha

>  <ANALOG>  (3068) 
Tyr

>  <MOL_WT>  (3068) 
219.23999999999998

>  <LOGP>  (3068) 
0.653

>  <TPSA>  (3068) 
72.55

>  <POPULARITY>  (3068) 
7.5

>  <PROTECTED>  (3068) 
TRUE

>  <SMILES>  (3068) 
N[C@@H](Cc1(ccc(OCC#C)cc1))C(=O)O

>  <INCHIKEY>  (3068) 
JSXMFBNJRFXRCX-NSHDSACASA-N

$$$$
Phe_4PO3H2
     RDKit          2D

 16 16  0  0  0  0  0  0  0  0999 V2000
   -2.5021    1.6866    0.0000 N   0  0  0  0  0  0  0  0  0  0  0  0
   -3.0051    0.2735    0.0000 C   0  0  0  0  0  0  0  0  0  0  0  0
   -2.0328   -0.8687    0.0000 C   0  0  0  0  0  0  0  0  0  0  0  0
   -0.5574   -0.5977    0.0000 C   0  0  0  0  0  0  0  0  0  0  0  0
   -0.0545    0.8155    0.0000 C   0  0  0  0  0  0  0  0  0  0  0  0
    1.4208    1.0865    0.0000 C   0  0  0  0  0  0  0  0  0  0  0  0
    2.3932   -0.0557    0.0000 C   0  0  0  0  0  0  0  0  0  0  0  0
    1.8902   -1.4688    0.0000 C   0  0  0  0  0  0  0  0  0  0  0  0
    0.4149   -1.7398    0.0000 C   0  0  0  0  0  0  0  0  0  0  0  0
    3.8685    0.2153    0.0000 P   0  0  0  0  0  0  0  0  0  0  0  0
    5.3438    0.4863    0.0000 O   0  0  0  0  0  0  0  0  0  0  0  0
    4.1395   -1.2600    0.0000 O   0  0  0  0  0  0  0  0  0  0  0  0
    3.5975    1.6906    0.0000 O   0  0  0  0  0  0  0  0  0  0  0  0
   -4.4804    0.0025    0.0000 C   0  0  0  0  0  0  0  0  0  0  0  0
   -4.9834   -1.4107    0.0000 O   0  0  0  0  0  0  0  0  0  0  0  0
   -5.4528    1.1446    0.0000 O   0  0  0  0  0  0  0  0  0  0  0  0
  2  1  1  1
  2  3  1  0
  3  4  1  0
  4  5  1  0
  5  6  2  0
  6  7  1  0
  7  8  2  0
  8  9  1  0
  7 10  1  0
 10 11  2  0
 10 12  1  0
 10 13  1  0
  2 14  1  0
 14 15  2  0
 14 16  1  0
  9  4  2  0
M  END
>  <rName>  (3069) 
Phe_4PO3H2

>  <PQ_SYMBOL>  (3069) 
Phe_4PO3H2

>  <FULL_NAME>  (3069) 
(2S)-2-amino-3-(4-phosphonophenyl)propanoic acid

>  <IUPAC_CONDENSED>  (3069) 
Phe(4-PO3H2)

>  <IUPAC>  (3069) 
(2S)-2-amino-3-(4-(dihydroxyphosphoryl)phenyl)propanoic acid

>  <TYPE>  (3069) 
Backbone

>  <CLASS>  (3069) 
alpha

>  <ANALOG>  (3069) 
Phe

>  <MOL_WT>  (3069) 
245.17099999999996

>  <LOGP>  (3069) 
-0.5560000000000003

>  <TPSA>  (3069) 
120.85000000000001

>  <POPULARITY>  (3069) 
11.3

>  <PROTECTED>  (3069) 
TRUE

>  <SMILES>  (3069) 
N[C@@H](Cc1(ccc(cc1)P(=O)(O)O))C(=O)O

>  <INCHIKEY>  (3069) 
DGIHNAYKZDFPPV-QMMMGPOBSA-N

$$$$
Phe_4POOMe2
     RDKit          2D

 19 19  0  0  0  0  0  0  0  0999 V2000
   -3.7809    1.6141    0.0000 N   0  0  0  0  0  0  0  0  0  0  0  0
   -3.9852    0.1281    0.0000 C   0  0  0  0  0  0  0  0  0  0  0  0
   -2.8004   -0.7918    0.0000 C   0  0  0  0  0  0  0  0  0  0  0  0
   -1.4113   -0.2258    0.0000 C   0  0  0  0  0  0  0  0  0  0  0  0
   -1.2070    1.2603    0.0000 C   0  0  0  0  0  0  0  0  0  0  0  0
    0.1821    1.8263    0.0000 C   0  0  0  0  0  0  0  0  0  0  0  0
    1.3669    0.9064    0.0000 C   0  0  0  0  0  0  0  0  0  0  0  0
    2.7559    1.4725    0.0000 O   0  0  0  0  0  0  0  0  0  0  0  0
    3.9407    0.5525    0.0000 P   0  0  0  0  0  0  0  0  0  0  0  0
    4.8607    1.7373    0.0000 O   0  0  0  0  0  0  0  0  0  0  0  0
    3.0208   -0.6323    0.0000 O   0  0  0  0  0  0  0  0  0  0  0  0
    3.5869   -2.0213    0.0000 C   0  0  0  0  0  0  0  0  0  0  0  0
    5.1255   -0.3674    0.0000 O   0  0  0  0  0  0  0  0  0  0  0  0
    4.9212   -1.8534    0.0000 C   0  0  0  0  0  0  0  0  0  0  0  0
    1.1626   -0.5796    0.0000 C   0  0  0  0  0  0  0  0  0  0  0  0
   -0.2265   -1.1457    0.0000 C   0  0  0  0  0  0  0  0  0  0  0  0
   -5.3743   -0.4380    0.0000 C   0  0  0  0  0  0  0  0  0  0  0  0
   -5.5786   -1.9240    0.0000 O   0  0  0  0  0  0  0  0  0  0  0  0
   -6.5590    0.4820    0.0000 O   0  0  0  0  0  0  0  0  0  0  0  0
  2  1  1  1
  2  3  1  0
  3  4  1  0
  4  5  1  0
  5  6  2  0
  6  7  1  0
  7  8  1  0
  8  9  1  0
  9 10  2  0
  9 11  1  0
 11 12  1  0
  9 13  1  0
 13 14  1  0
  7 15  2  0
 15 16  1  0
  2 17  1  0
 17 18  2  0
 17 19  1  0
 16  4  2  0
M  END
>  <rName>  (3070) 
Phe_4POOMe2

>  <PQ_SYMBOL>  (3070) 
Phe_4POOMe2

>  <FULL_NAME>  (3070) 
(S)-2-amino-3-(4-((dimethoxyphosphoryl)oxy)phenyl)propanoic acid

>  <IUPAC_CONDENSED>  (3070) 
Phe(4-PO(OMe)2)

>  <IUPAC>  (3070) 
(2S)-2-amino-3-(4-((dimethoxyphosphoryl)oxy)phenyl)propanoic acid

>  <TYPE>  (3070) 
Backbone

>  <CLASS>  (3070) 
alpha

>  <ANALOG>  (3070) 
Tyr

>  <MOL_WT>  (3070) 
289.224

>  <LOGP>  (3070) 
1.4207

>  <TPSA>  (3070) 
108.08

>  <POPULARITY>  (3070) 
7.3

>  <PROTECTED>  (3070) 
TRUE

>  <SMILES>  (3070) 
N[C@@H](Cc1(ccc(OP(=O)(OC)OC)cc1))C(=O)O

>  <INCHIKEY>  (3070) 
HESLJQBDDBJJQQ-JTQLQIEISA-N

$$$$
Phe_4PhEt
     RDKit          2D

 20 21  0  0  0  0  0  0  0  0999 V2000
   -4.4711    1.7782    0.0000 N   0  0  0  0  0  0  0  0  0  0  0  0
   -5.0900    0.4118    0.0000 C   0  0  0  0  0  0  0  0  0  0  0  0
   -4.2161   -0.8074    0.0000 C   0  0  0  0  0  0  0  0  0  0  0  0
   -2.7234   -0.6602    0.0000 C   0  0  0  0  0  0  0  0  0  0  0  0
   -2.1045    0.7062    0.0000 C   0  0  0  0  0  0  0  0  0  0  0  0
   -0.6117    0.8534    0.0000 C   0  0  0  0  0  0  0  0  0  0  0  0
    0.2622   -0.3658    0.0000 C   0  0  0  0  0  0  0  0  0  0  0  0
    1.7549   -0.2185    0.0000 C   0  0  0  0  0  0  0  0  0  0  0  0
    3.2477   -0.0713    0.0000 C   0  0  0  0  0  0  0  0  0  0  0  0
    4.7404    0.0759    0.0000 C   0  0  0  0  0  0  0  0  0  0  0  0
    5.6143   -1.1433    0.0000 C   0  0  0  0  0  0  0  0  0  0  0  0
    7.1071   -0.9961    0.0000 C   0  0  0  0  0  0  0  0  0  0  0  0
    7.7260    0.3703    0.0000 C   0  0  0  0  0  0  0  0  0  0  0  0
    6.8521    1.5894    0.0000 C   0  0  0  0  0  0  0  0  0  0  0  0
    5.3593    1.4422    0.0000 C   0  0  0  0  0  0  0  0  0  0  0  0
   -0.3567   -1.7321    0.0000 C   0  0  0  0  0  0  0  0  0  0  0  0
   -1.8495   -1.8793    0.0000 C   0  0  0  0  0  0  0  0  0  0  0  0
   -6.5827    0.2646    0.0000 C   0  0  0  0  0  0  0  0  0  0  0  0
   -7.2016   -1.1018    0.0000 O   0  0  0  0  0  0  0  0  0  0  0  0
   -7.4566    1.4838    0.0000 O   0  0  0  0  0  0  0  0  0  0  0  0
  2  1  1  1
  2  3  1  0
  3  4  1  0
  4  5  1  0
  5  6  2  0
  6  7  1  0
  7  8  1  0
  8  9  3  0
  9 10  1  0
 10 11  2  0
 11 12  1  0
 12 13  2  0
 13 14  1  0
 14 15  2  0
  7 16  2  0
 16 17  1  0
  2 18  1  0
 18 19  2  0
 18 20  1  0
 15 10  1  0
 17  4  2  0
M  END
>  <rName>  (3071) 
Phe_4PhEt

>  <PQ_SYMBOL>  (3071) 
Phe_4PhEt

>  <FULL_NAME>  (3071) 
4-(2-Phenylethynyl)-L-phenylalanine

>  <IUPAC_CONDENSED>  (3071) 
Phe(4-PhEt)

>  <IUPAC>  (3071) 
(2S)-2-amino-3-[4-(2-phenylethynyl)phenyl]propanoic acid

>  <TYPE>  (3071) 
Backbone

>  <CLASS>  (3071) 
alpha

>  <ANALOG>  (3071) 
Phe

>  <MOL_WT>  (3071) 
265.312

>  <LOGP>  (3071) 
2.0408

>  <TPSA>  (3071) 
63.32000000000001

>  <POPULARITY>  (3071) 
2.2

>  <PROTECTED>  (3071) 
TRUE

>  <SMILES>  (3071) 
N[C@@H](Cc2(ccc(C#Cc1(ccccc1))cc2))C(=O)O

>  <INCHIKEY>  (3071) 
KJTJIPHLAUVCGH-INIZCTEOSA-N

$$$$
Phe_4Ph_23diMe
     RDKit          2D

 20 21  0  0  0  0  0  0  0  0999 V2000
   -3.5677    1.7236    0.0000 N   0  0  0  0  0  0  0  0  0  0  0  0
   -4.2330    0.3792    0.0000 C   0  0  0  0  0  0  0  0  0  0  0  0
   -3.4013   -0.8691    0.0000 C   0  0  0  0  0  0  0  0  0  0  0  0
   -1.9044   -0.7731    0.0000 C   0  0  0  0  0  0  0  0  0  0  0  0
   -1.2391    0.5713    0.0000 C   0  0  0  0  0  0  0  0  0  0  0  0
    0.2578    0.6674    0.0000 C   0  0  0  0  0  0  0  0  0  0  0  0
    1.0894   -0.5809    0.0000 C   0  0  0  0  0  0  0  0  0  0  0  0
    0.4242   -1.9253    0.0000 C   0  0  0  0  0  0  0  0  0  0  0  0
   -1.0727   -2.0214    0.0000 C   0  0  0  0  0  0  0  0  0  0  0  0
    2.5864   -0.4849    0.0000 C   0  0  0  0  0  0  0  0  0  0  0  0
    3.4180   -1.7332    0.0000 C   0  0  0  0  0  0  0  0  0  0  0  0
    4.9149   -1.6371    0.0000 C   0  0  0  0  0  0  0  0  0  0  0  0
    5.5802   -0.2927    0.0000 C   0  0  0  0  0  0  0  0  0  0  0  0
    4.7485    0.9556    0.0000 C   0  0  0  0  0  0  0  0  0  0  0  0
    5.4138    2.3000    0.0000 C   0  0  0  0  0  0  0  0  0  0  0  0
    3.2516    0.8595    0.0000 C   0  0  0  0  0  0  0  0  0  0  0  0
    2.4200    2.1079    0.0000 C   0  0  0  0  0  0  0  0  0  0  0  0
   -5.7299    0.2831    0.0000 C   0  0  0  0  0  0  0  0  0  0  0  0
   -6.3952   -1.0613    0.0000 O   0  0  0  0  0  0  0  0  0  0  0  0
   -6.5616    1.5315    0.0000 O   0  0  0  0  0  0  0  0  0  0  0  0
  2  1  1  1
  2  3  1  0
  3  4  1  0
  4  5  1  0
  5  6  2  0
  6  7  1  0
  7  8  2  0
  8  9  1  0
  7 10  1  0
 10 11  2  0
 11 12  1  0
 12 13  2  0
 13 14  1  0
 14 15  1  0
 14 16  2  0
 16 17  1  0
  2 18  1  0
 18 19  2  0
 18 20  1  0
  9  4  2  0
 16 10  1  0
M  END
>  <rName>  (3072) 
Phe_4Ph_23diMe

>  <PQ_SYMBOL>  (3072) 
Phe_4Ph_23diMe

>  <FULL_NAME>  (3072) 
Phe(4-Ph(2,3-diMe))

>  <IUPAC_CONDENSED>  (3072) 
Phe(4-Ph(2,3-diMe))

>  <IUPAC>  (3072) 
(2S)-2-amino-3-(4-(2,3-dimethylphenyl)phenyl)propanoic acid

>  <TYPE>  (3072) 
Backbone

>  <CLASS>  (3072) 
alpha

>  <ANALOG>  (3072) 
Phe

>  <MOL_WT>  (3072) 
269.34399999999994

>  <LOGP>  (3072) 
2.9248400000000014

>  <TPSA>  (3072) 
63.32000000000001

>  <POPULARITY>  (3072) 
2.2

>  <PROTECTED>  (3072) 
TRUE

>  <SMILES>  (3072) 
N[C@@H](Cc1(ccc(cc1)c2(cccc(C)c2C)))C(=O)O

>  <INCHIKEY>  (3072) 
ADXOFYJIOBURDE-INIZCTEOSA-N

$$$$
Phe_4Ph_24diCl
     RDKit          2D

 20 21  0  0  0  0  0  0  0  0999 V2000
   -3.7307    1.6814    0.0000 N   0  0  0  0  0  0  0  0  0  0  0  0
   -4.3345    0.3083    0.0000 C   0  0  0  0  0  0  0  0  0  0  0  0
   -3.4473   -0.9011    0.0000 C   0  0  0  0  0  0  0  0  0  0  0  0
   -1.9562   -0.7375    0.0000 C   0  0  0  0  0  0  0  0  0  0  0  0
   -1.3524    0.6357    0.0000 C   0  0  0  0  0  0  0  0  0  0  0  0
    0.1386    0.7993    0.0000 C   0  0  0  0  0  0  0  0  0  0  0  0
    1.0259   -0.4101    0.0000 C   0  0  0  0  0  0  0  0  0  0  0  0
    0.4221   -1.7832    0.0000 C   0  0  0  0  0  0  0  0  0  0  0  0
   -1.0690   -1.9469    0.0000 C   0  0  0  0  0  0  0  0  0  0  0  0
    2.5169   -0.2465    0.0000 C   0  0  0  0  0  0  0  0  0  0  0  0
    3.4042   -1.4559    0.0000 C   0  0  0  0  0  0  0  0  0  0  0  0
    4.8952   -1.2922    0.0000 C   0  0  0  0  0  0  0  0  0  0  0  0
    5.4990    0.0809    0.0000 C   0  0  0  0  0  0  0  0  0  0  0  0
    6.9901    0.2445    0.0000 Cl  0  0  0  0  0  0  0  0  0  0  0  0
    4.6117    1.2903    0.0000 C   0  0  0  0  0  0  0  0  0  0  0  0
    3.1207    1.1267    0.0000 C   0  0  0  0  0  0  0  0  0  0  0  0
    2.2334    2.3361    0.0000 Cl  0  0  0  0  0  0  0  0  0  0  0  0
   -5.8256    0.1447    0.0000 C   0  0  0  0  0  0  0  0  0  0  0  0
   -6.4293   -1.2285    0.0000 O   0  0  0  0  0  0  0  0  0  0  0  0
   -6.7128    1.3541    0.0000 O   0  0  0  0  0  0  0  0  0  0  0  0
  2  1  1  1
  2  3  1  0
  3  4  1  0
  4  5  1  0
  5  6  2  0
  6  7  1  0
  7  8  2  0
  8  9  1  0
  7 10  1  0
 10 11  1  0
 11 12  2  0
 12 13  1  0
 13 14  1  0
 13 15  2  0
 15 16  1  0
 16 17  1  0
  2 18  1  0
 18 19  2  0
 18 20  1  0
  9  4  2  0
 16 10  2  0
M  END
>  <rName>  (3073) 
Phe_4Ph_24diCl

>  <PQ_SYMBOL>  (3073) 
Phe_4Ph_24diCl

>  <FULL_NAME>  (3073) 
Phe(4-Ph(2,4-diCl))

>  <IUPAC_CONDENSED>  (3073) 
Phe(4-Ph(2,4-diCl))

>  <IUPAC>  (3073) 
(2S)-2-amino-3-(4-(2,4-dichlorophenyl)phenyl)propanoic acid

>  <TYPE>  (3073) 
Backbone

>  <CLASS>  (3073) 
alpha

>  <ANALOG>  (3073) 
Phe

>  <MOL_WT>  (3073) 
310.18000000000006

>  <LOGP>  (3073) 
3.6148000000000016

>  <TPSA>  (3073) 
63.32000000000001

>  <POPULARITY>  (3073) 
2.2

>  <PROTECTED>  (3073) 
TRUE

>  <SMILES>  (3073) 
N[C@@H](Cc1(ccc(cc1)c2(ccc(Cl)cc2Cl)))C(=O)O

>  <INCHIKEY>  (3073) 
LCYHIMNCMRBRRY-AWEZNQCLSA-N

$$$$
Phe_4Ph_24diMe
     RDKit          2D

 20 21  0  0  0  0  0  0  0  0999 V2000
   -3.7307    1.6814    0.0000 N   0  0  0  0  0  0  0  0  0  0  0  0
   -4.3345    0.3083    0.0000 C   0  0  0  0  0  0  0  0  0  0  0  0
   -3.4473   -0.9011    0.0000 C   0  0  0  0  0  0  0  0  0  0  0  0
   -1.9562   -0.7375    0.0000 C   0  0  0  0  0  0  0  0  0  0  0  0
   -1.3524    0.6357    0.0000 C   0  0  0  0  0  0  0  0  0  0  0  0
    0.1386    0.7993    0.0000 C   0  0  0  0  0  0  0  0  0  0  0  0
    1.0259   -0.4101    0.0000 C   0  0  0  0  0  0  0  0  0  0  0  0
    0.4221   -1.7832    0.0000 C   0  0  0  0  0  0  0  0  0  0  0  0
   -1.0690   -1.9469    0.0000 C   0  0  0  0  0  0  0  0  0  0  0  0
    2.5169   -0.2465    0.0000 C   0  0  0  0  0  0  0  0  0  0  0  0
    3.4042   -1.4559    0.0000 C   0  0  0  0  0  0  0  0  0  0  0  0
    4.8952   -1.2922    0.0000 C   0  0  0  0  0  0  0  0  0  0  0  0
    5.4990    0.0809    0.0000 C   0  0  0  0  0  0  0  0  0  0  0  0
    6.9901    0.2445    0.0000 C   0  0  0  0  0  0  0  0  0  0  0  0
    4.6117    1.2903    0.0000 C   0  0  0  0  0  0  0  0  0  0  0  0
    3.1207    1.1267    0.0000 C   0  0  0  0  0  0  0  0  0  0  0  0
    2.2334    2.3361    0.0000 C   0  0  0  0  0  0  0  0  0  0  0  0
   -5.8256    0.1447    0.0000 C   0  0  0  0  0  0  0  0  0  0  0  0
   -6.4293   -1.2285    0.0000 O   0  0  0  0  0  0  0  0  0  0  0  0
   -6.7128    1.3541    0.0000 O   0  0  0  0  0  0  0  0  0  0  0  0
  2  1  1  1
  2  3  1  0
  3  4  1  0
  4  5  1  0
  5  6  2  0
  6  7  1  0
  7  8  2  0
  8  9  1  0
  7 10  1  0
 10 11  1  0
 11 12  2  0
 12 13  1  0
 13 14  1  0
 13 15  2  0
 15 16  1  0
 16 17  1  0
  2 18  1  0
 18 19  2  0
 18 20  1  0
  9  4  2  0
 16 10  2  0
M  END
>  <rName>  (3074) 
Phe_4Ph_24diMe

>  <PQ_SYMBOL>  (3074) 
Phe_4Ph_24diMe

>  <FULL_NAME>  (3074) 
Phe(4-Ph(2,4-diMe))

>  <IUPAC_CONDENSED>  (3074) 
Phe(4-Ph(2,4-diMe))

>  <IUPAC>  (3074) 
(2S)-2-amino-3-(4-(2,4-dimethylphenyl)phenyl)propanoic acid

>  <TYPE>  (3074) 
Backbone

>  <CLASS>  (3074) 
alpha

>  <ANALOG>  (3074) 
Phe

>  <MOL_WT>  (3074) 
269.34399999999994

>  <LOGP>  (3074) 
2.9248400000000014

>  <TPSA>  (3074) 
63.32000000000001

>  <POPULARITY>  (3074) 
2.2

>  <PROTECTED>  (3074) 
TRUE

>  <SMILES>  (3074) 
N[C@@H](Cc1(ccc(cc1)c2(ccc(C)cc2C)))C(=O)O

>  <INCHIKEY>  (3074) 
VHPMQVVGHKFYHV-INIZCTEOSA-N

$$$$
Phe_4Ph_24diOMe
     RDKit          2D

 22 23  0  0  0  0  0  0  0  0999 V2000
   -4.2107    1.5757    0.0000 N   0  0  0  0  0  0  0  0  0  0  0  0
   -4.8207    0.2053    0.0000 C   0  0  0  0  0  0  0  0  0  0  0  0
   -3.9389   -1.0081    0.0000 C   0  0  0  0  0  0  0  0  0  0  0  0
   -2.4471   -0.8512    0.0000 C   0  0  0  0  0  0  0  0  0  0  0  0
   -1.8371    0.5192    0.0000 C   0  0  0  0  0  0  0  0  0  0  0  0
   -0.3454    0.6761    0.0000 C   0  0  0  0  0  0  0  0  0  0  0  0
    0.5364   -0.5373    0.0000 C   0  0  0  0  0  0  0  0  0  0  0  0
   -0.0735   -1.9077    0.0000 C   0  0  0  0  0  0  0  0  0  0  0  0
   -1.5653   -2.0646    0.0000 C   0  0  0  0  0  0  0  0  0  0  0  0
    2.0282   -0.3803    0.0000 C   0  0  0  0  0  0  0  0  0  0  0  0
    2.9100   -1.5938    0.0000 C   0  0  0  0  0  0  0  0  0  0  0  0
    4.4018   -1.4368    0.0000 C   0  0  0  0  0  0  0  0  0  0  0  0
    5.0117   -0.0664    0.0000 C   0  0  0  0  0  0  0  0  0  0  0  0
    6.5035    0.0905    0.0000 O   0  0  0  0  0  0  0  0  0  0  0  0
    7.3853   -1.1229    0.0000 C   0  0  0  0  0  0  0  0  0  0  0  0
    4.1299    1.1470    0.0000 C   0  0  0  0  0  0  0  0  0  0  0  0
    2.6382    0.9900    0.0000 C   0  0  0  0  0  0  0  0  0  0  0  0
    1.7564    2.2035    0.0000 O   0  0  0  0  0  0  0  0  0  0  0  0
    2.3663    3.5739    0.0000 C   0  0  0  0  0  0  0  0  0  0  0  0
   -6.3124    0.0483    0.0000 C   0  0  0  0  0  0  0  0  0  0  0  0
   -6.9224   -1.3221    0.0000 O   0  0  0  0  0  0  0  0  0  0  0  0
   -7.1942    1.2618    0.0000 O   0  0  0  0  0  0  0  0  0  0  0  0
  2  1  1  1
  2  3  1  0
  3  4  1  0
  4  5  1  0
  5  6  2  0
  6  7  1  0
  7  8  2  0
  8  9  1  0
  7 10  1  0
 10 11  1  0
 11 12  2  0
 12 13  1  0
 13 14  1  0
 14 15  1  0
 13 16  2  0
 16 17  1  0
 17 18  1  0
 18 19  1  0
  2 20  1  0
 20 21  2  0
 20 22  1  0
  9  4  2  0
 17 10  2  0
M  END
>  <rName>  (3075) 
Phe_4Ph_24diOMe

>  <PQ_SYMBOL>  (3075) 
Phe_4Ph_24diOMe

>  <FULL_NAME>  (3075) 
Phe(4-Ph(2,4-diOMe))

>  <IUPAC_CONDENSED>  (3075) 
Phe(4-Ph(2,4-diOMe))

>  <IUPAC>  (3075) 
(2S)-2-amino-3-(4-(2,4-dimethoxyphenyl)phenyl)propanoic acid

>  <TYPE>  (3075) 
Backbone

>  <CLASS>  (3075) 
alpha

>  <ANALOG>  (3075) 
Phe

>  <MOL_WT>  (3075) 
301.342

>  <LOGP>  (3075) 
2.3251999999999997

>  <TPSA>  (3075) 
81.78

>  <POPULARITY>  (3075) 
2.2

>  <PROTECTED>  (3075) 
TRUE

>  <SMILES>  (3075) 
N[C@@H](Cc1(ccc(cc1)c2(ccc(OC)cc2OC)))C(=O)O

>  <INCHIKEY>  (3075) 
BPPCCWZGXRZIST-HNNXBMFYSA-N

$$$$
Phe_4Ph_25diOMe
     RDKit          2D

 22 23  0  0  0  0  0  0  0  0999 V2000
   -4.1816    1.4586    0.0000 N   0  0  0  0  0  0  0  0  0  0  0  0
   -4.6647    0.0386    0.0000 C   0  0  0  0  0  0  0  0  0  0  0  0
   -3.6764   -1.0899    0.0000 C   0  0  0  0  0  0  0  0  0  0  0  0
   -2.2051   -0.7982    0.0000 C   0  0  0  0  0  0  0  0  0  0  0  0
   -1.7219    0.6218    0.0000 C   0  0  0  0  0  0  0  0  0  0  0  0
   -0.2506    0.9135    0.0000 C   0  0  0  0  0  0  0  0  0  0  0  0
    0.7377   -0.2150    0.0000 C   0  0  0  0  0  0  0  0  0  0  0  0
    0.2546   -1.6350    0.0000 C   0  0  0  0  0  0  0  0  0  0  0  0
   -1.2168   -1.9267    0.0000 C   0  0  0  0  0  0  0  0  0  0  0  0
    2.2091    0.0767    0.0000 C   0  0  0  0  0  0  0  0  0  0  0  0
    3.1973   -1.0518    0.0000 C   0  0  0  0  0  0  0  0  0  0  0  0
    4.6687   -0.7601    0.0000 C   0  0  0  0  0  0  0  0  0  0  0  0
    5.6569   -1.8886    0.0000 O   0  0  0  0  0  0  0  0  0  0  0  0
    5.1738   -3.3086    0.0000 C   0  0  0  0  0  0  0  0  0  0  0  0
    5.1518    0.6599    0.0000 C   0  0  0  0  0  0  0  0  0  0  0  0
    4.1636    1.7884    0.0000 C   0  0  0  0  0  0  0  0  0  0  0  0
    2.6922    1.4967    0.0000 C   0  0  0  0  0  0  0  0  0  0  0  0
    1.7039    2.6252    0.0000 O   0  0  0  0  0  0  0  0  0  0  0  0
    2.1871    4.0452    0.0000 C   0  0  0  0  0  0  0  0  0  0  0  0
   -6.1361   -0.2531    0.0000 C   0  0  0  0  0  0  0  0  0  0  0  0
   -6.6192   -1.6731    0.0000 O   0  0  0  0  0  0  0  0  0  0  0  0
   -7.1243    0.8754    0.0000 O   0  0  0  0  0  0  0  0  0  0  0  0
  2  1  1  1
  2  3  1  0
  3  4  1  0
  4  5  1  0
  5  6  2  0
  6  7  1  0
  7  8  2  0
  8  9  1  0
  7 10  1  0
 10 11  1  0
 11 12  2  0
 12 13  1  0
 13 14  1  0
 12 15  1  0
 15 16  2  0
 16 17  1  0
 17 18  1  0
 18 19  1  0
  2 20  1  0
 20 21  2  0
 20 22  1  0
  9  4  2  0
 17 10  2  0
M  END
>  <rName>  (3076) 
Phe_4Ph_25diOMe

>  <PQ_SYMBOL>  (3076) 
Phe_4Ph_25diOMe

>  <FULL_NAME>  (3076) 
Phe(4-Ph(2,5-diOMe))

>  <IUPAC_CONDENSED>  (3076) 
Phe(4-Ph(2,5-diOMe))

>  <IUPAC>  (3076) 
(2S)-2-amino-3-(4-(2,5-dimethoxyphenyl)phenyl)propanoic acid

>  <TYPE>  (3076) 
Backbone

>  <CLASS>  (3076) 
alpha

>  <ANALOG>  (3076) 
Phe

>  <MOL_WT>  (3076) 
301.342

>  <LOGP>  (3076) 
2.3252

>  <TPSA>  (3076) 
81.78

>  <POPULARITY>  (3076) 
2.2

>  <PROTECTED>  (3076) 
TRUE

>  <SMILES>  (3076) 
N[C@@H](Cc1(ccc(cc1)c2(cc(OC)ccc2OC)))C(=O)O

>  <INCHIKEY>  (3076) 
JFQZVQFHAWLKSC-HNNXBMFYSA-N

$$$$
Phe_4Ph_26diMe
     RDKit          2D

 20 21  0  0  0  0  0  0  0  0999 V2000
   -3.5929    1.6906    0.0000 N   0  0  0  0  0  0  0  0  0  0  0  0
   -4.1404    0.2941    0.0000 C   0  0  0  0  0  0  0  0  0  0  0  0
   -3.2048   -0.8783    0.0000 C   0  0  0  0  0  0  0  0  0  0  0  0
   -1.7216   -0.6542    0.0000 C   0  0  0  0  0  0  0  0  0  0  0  0
   -1.1741    0.7423    0.0000 C   0  0  0  0  0  0  0  0  0  0  0  0
    0.3091    0.9663    0.0000 C   0  0  0  0  0  0  0  0  0  0  0  0
    1.2448   -0.2061    0.0000 C   0  0  0  0  0  0  0  0  0  0  0  0
    0.6972   -1.6026    0.0000 C   0  0  0  0  0  0  0  0  0  0  0  0
   -0.7860   -1.8267    0.0000 C   0  0  0  0  0  0  0  0  0  0  0  0
    2.7279    0.0180    0.0000 C   0  0  0  0  0  0  0  0  0  0  0  0
    3.6636   -1.1544    0.0000 C   0  0  0  0  0  0  0  0  0  0  0  0
    3.1160   -2.5509    0.0000 C   0  0  0  0  0  0  0  0  0  0  0  0
    5.1467   -0.9304    0.0000 C   0  0  0  0  0  0  0  0  0  0  0  0
    5.6943    0.4661    0.0000 C   0  0  0  0  0  0  0  0  0  0  0  0
    4.7586    1.6386    0.0000 C   0  0  0  0  0  0  0  0  0  0  0  0
    3.2755    1.4145    0.0000 C   0  0  0  0  0  0  0  0  0  0  0  0
    2.3398    2.5869    0.0000 C   0  0  0  0  0  0  0  0  0  0  0  0
   -5.6236    0.0701    0.0000 C   0  0  0  0  0  0  0  0  0  0  0  0
   -6.1711   -1.3264    0.0000 O   0  0  0  0  0  0  0  0  0  0  0  0
   -6.5592    1.2425    0.0000 O   0  0  0  0  0  0  0  0  0  0  0  0
  2  1  1  1
  2  3  1  0
  3  4  1  0
  4  5  1  0
  5  6  2  0
  6  7  1  0
  7  8  2  0
  8  9  1  0
  7 10  1  0
 10 11  2  0
 11 12  1  0
 11 13  1  0
 13 14  2  0
 14 15  1  0
 15 16  2  0
 16 17  1  0
  2 18  1  0
 18 19  2  0
 18 20  1  0
  9  4  2  0
 16 10  1  0
M  END
>  <rName>  (3077) 
Phe_4Ph_26diMe

>  <PQ_SYMBOL>  (3077) 
Phe_4Ph_26diMe

>  <FULL_NAME>  (3077) 
(2S)-2-amino-3-[4-(2,6-dimethylphenyl)phenyl]propanoic acid

>  <IUPAC_CONDENSED>  (3077) 
Phe(4-Ph(2,6-diMe))

>  <IUPAC>  (3077) 
(2S)-2-amino-3-[4-(2,6-dimethylphenyl)phenyl]propanoic acid

>  <TYPE>  (3077) 
Backbone

>  <CLASS>  (3077) 
alpha

>  <ANALOG>  (3077) 
Phe

>  <MOL_WT>  (3077) 
269.34399999999994

>  <LOGP>  (3077) 
2.9248400000000014

>  <TPSA>  (3077) 
63.32000000000001

>  <POPULARITY>  (3077) 
2.2

>  <PROTECTED>  (3077) 
TRUE

>  <SMILES>  (3077) 
N[C@@H](Cc1(ccc(cc1)c2(c(C)cccc2C)))C(=O)O

>  <INCHIKEY>  (3077) 
PUXKQXYPXXGKGU-HNNXBMFYSA-N

$$$$
Phe_4Ph_26diOMe
     RDKit          2D

 22 23  0  0  0  0  0  0  0  0999 V2000
   -3.9328    1.6204    0.0000 N   0  0  0  0  0  0  0  0  0  0  0  0
   -4.4595    0.2159    0.0000 C   0  0  0  0  0  0  0  0  0  0  0  0
   -3.5065   -0.9424    0.0000 C   0  0  0  0  0  0  0  0  0  0  0  0
   -2.0269   -0.6963    0.0000 C   0  0  0  0  0  0  0  0  0  0  0  0
   -1.5002    0.7082    0.0000 C   0  0  0  0  0  0  0  0  0  0  0  0
   -0.0205    0.9543    0.0000 C   0  0  0  0  0  0  0  0  0  0  0  0
    0.9325   -0.2040    0.0000 C   0  0  0  0  0  0  0  0  0  0  0  0
    0.4058   -1.6085    0.0000 C   0  0  0  0  0  0  0  0  0  0  0  0
   -1.0739   -1.8547    0.0000 C   0  0  0  0  0  0  0  0  0  0  0  0
    2.4122    0.0421    0.0000 C   0  0  0  0  0  0  0  0  0  0  0  0
    3.3651   -1.1163    0.0000 C   0  0  0  0  0  0  0  0  0  0  0  0
    2.8385   -2.5208    0.0000 O   0  0  0  0  0  0  0  0  0  0  0  0
    3.7915   -3.6791    0.0000 C   0  0  0  0  0  0  0  0  0  0  0  0
    4.8448   -0.8701    0.0000 C   0  0  0  0  0  0  0  0  0  0  0  0
    5.3715    0.5344    0.0000 C   0  0  0  0  0  0  0  0  0  0  0  0
    4.4185    1.6927    0.0000 C   0  0  0  0  0  0  0  0  0  0  0  0
    2.9388    1.4466    0.0000 C   0  0  0  0  0  0  0  0  0  0  0  0
    1.9858    2.6050    0.0000 O   0  0  0  0  0  0  0  0  0  0  0  0
    2.5125    4.0094    0.0000 C   0  0  0  0  0  0  0  0  0  0  0  0
   -5.9392   -0.0302    0.0000 C   0  0  0  0  0  0  0  0  0  0  0  0
   -6.4659   -1.4347    0.0000 O   0  0  0  0  0  0  0  0  0  0  0  0
   -6.8922    1.1282    0.0000 O   0  0  0  0  0  0  0  0  0  0  0  0
  2  1  1  1
  2  3  1  0
  3  4  1  0
  4  5  1  0
  5  6  2  0
  6  7  1  0
  7  8  2  0
  8  9  1  0
  7 10  1  0
 10 11  2  0
 11 12  1  0
 12 13  1  0
 11 14  1  0
 14 15  2  0
 15 16  1  0
 16 17  2  0
 17 18  1  0
 18 19  1  0
  2 20  1  0
 20 21  2  0
 20 22  1  0
  9  4  2  0
 17 10  1  0
M  END
>  <rName>  (3078) 
Phe_4Ph_26diOMe

>  <PQ_SYMBOL>  (3078) 
Phe_4Ph_26diOMe

>  <FULL_NAME>  (3078) 
4-(2,6-Dimethoxyphenyl)-l-phenylalanine

>  <IUPAC_CONDENSED>  (3078) 
Phe(4-Ph(2,6-diOMe))

>  <IUPAC>  (3078) 
(2S)-2-amino-3-[4-(2,6-dimethoxyphenyl)phenyl]propanoic acid

>  <TYPE>  (3078) 
Backbone

>  <CLASS>  (3078) 
alpha

>  <ANALOG>  (3078) 
Phe

>  <MOL_WT>  (3078) 
301.342

>  <LOGP>  (3078) 
2.3252

>  <TPSA>  (3078) 
81.78

>  <POPULARITY>  (3078) 
2.2

>  <PROTECTED>  (3078) 
TRUE

>  <SMILES>  (3078) 
N[C@@H](Cc1(ccc(cc1)c2(c(OC)cccc2OC)))C(=O)O

>  <INCHIKEY>  (3078) 
JFZRFLNIXSWGJP-ZDUSSCGKSA-N

$$$$
Phe_4Ph_2CF3
     RDKit          2D

 22 23  0  0  0  0  0  0  0  0999 V2000
   -3.5837    1.5554    0.0000 N   0  0  0  0  0  0  0  0  0  0  0  0
   -4.2755    0.2245    0.0000 C   0  0  0  0  0  0  0  0  0  0  0  0
   -3.4688   -1.0401    0.0000 C   0  0  0  0  0  0  0  0  0  0  0  0
   -1.9702   -0.9738    0.0000 C   0  0  0  0  0  0  0  0  0  0  0  0
   -1.2784    0.3571    0.0000 C   0  0  0  0  0  0  0  0  0  0  0  0
    0.2201    0.4235    0.0000 C   0  0  0  0  0  0  0  0  0  0  0  0
    1.0268   -0.8411    0.0000 C   0  0  0  0  0  0  0  0  0  0  0  0
    0.3350   -2.1721    0.0000 C   0  0  0  0  0  0  0  0  0  0  0  0
   -1.1635   -2.2384    0.0000 C   0  0  0  0  0  0  0  0  0  0  0  0
    2.5254   -0.7748    0.0000 C   0  0  0  0  0  0  0  0  0  0  0  0
    3.3321   -2.0394    0.0000 C   0  0  0  0  0  0  0  0  0  0  0  0
    4.8306   -1.9731    0.0000 C   0  0  0  0  0  0  0  0  0  0  0  0
    5.5224   -0.6421    0.0000 C   0  0  0  0  0  0  0  0  0  0  0  0
    4.7157    0.6225    0.0000 C   0  0  0  0  0  0  0  0  0  0  0  0
    3.2172    0.5561    0.0000 C   0  0  0  0  0  0  0  0  0  0  0  0
    2.4105    1.8207    0.0000 C   0  0  0  0  0  0  0  0  0  0  0  0
    1.6038    3.0853    0.0000 F   0  0  0  0  0  0  0  0  0  0  0  0
    3.6751    2.6275    0.0000 F   0  0  0  0  0  0  0  0  0  0  0  0
    1.1459    1.0140    0.0000 F   0  0  0  0  0  0  0  0  0  0  0  0
   -5.7740    0.1581    0.0000 C   0  0  0  0  0  0  0  0  0  0  0  0
   -6.4658   -1.1728    0.0000 O   0  0  0  0  0  0  0  0  0  0  0  0
   -6.5807    1.4228    0.0000 O   0  0  0  0  0  0  0  0  0  0  0  0
  2  1  1  1
  2  3  1  0
  3  4  1  0
  4  5  1  0
  5  6  2  0
  6  7  1  0
  7  8  2  0
  8  9  1  0
  7 10  1  0
 10 11  2  0
 11 12  1  0
 12 13  2  0
 13 14  1  0
 14 15  2  0
 15 16  1  0
 16 17  1  0
 16 18  1  0
 16 19  1  0
  2 20  1  0
 20 21  2  0
 20 22  1  0
  9  4  2  0
 15 10  1  0
M  END
>  <rName>  (3079) 
Phe_4Ph_2CF3

>  <PQ_SYMBOL>  (3079) 
Phe_4Ph_2CF3

>  <FULL_NAME>  (3079) 
(2S)-2-amino-3-[2'-(trifluoromethyl)-[1,1'-biphenyl]-4-yl]propanoic acid

>  <IUPAC_CONDENSED>  (3079) 
Phe(4-Ph(2-CF3))

>  <IUPAC>  (3079) 
(2S)-2-amino-3-(4-(2-(trifluoromethyl)phenyl)phenyl)propanoic acid

>  <TYPE>  (3079) 
Backbone

>  <CLASS>  (3079) 
alpha

>  <ANALOG>  (3079) 
Phe

>  <MOL_WT>  (3079) 
309.28700000000003

>  <LOGP>  (3079) 
3.3268000000000013

>  <TPSA>  (3079) 
63.32000000000001

>  <POPULARITY>  (3079) 
5.2

>  <PROTECTED>  (3079) 
TRUE

>  <SMILES>  (3079) 
N[C@@H](Cc1(ccc(cc1)c2(ccccc2C(F)(F)F)))C(=O)O

>  <INCHIKEY>  (3079) 
LGRCMGCAYUALHZ-AWEZNQCLSA-N

$$$$
Phe_4Ph_2CO2H
     RDKit          2D

 21 22  0  0  0  0  0  0  0  0999 V2000
   -3.4991    1.5768    0.0000 N   0  0  0  0  0  0  0  0  0  0  0  0
   -4.1658    0.2331    0.0000 C   0  0  0  0  0  0  0  0  0  0  0  0
   -3.3355   -1.0162    0.0000 C   0  0  0  0  0  0  0  0  0  0  0  0
   -1.8385   -0.9217    0.0000 C   0  0  0  0  0  0  0  0  0  0  0  0
   -1.1717    0.4219    0.0000 C   0  0  0  0  0  0  0  0  0  0  0  0
    0.3253    0.5164    0.0000 C   0  0  0  0  0  0  0  0  0  0  0  0
    1.1556   -0.7329    0.0000 C   0  0  0  0  0  0  0  0  0  0  0  0
    0.4888   -2.0765    0.0000 C   0  0  0  0  0  0  0  0  0  0  0  0
   -1.0082   -2.1710    0.0000 C   0  0  0  0  0  0  0  0  0  0  0  0
    2.6526   -0.6384    0.0000 C   0  0  0  0  0  0  0  0  0  0  0  0
    3.4829   -1.8877    0.0000 C   0  0  0  0  0  0  0  0  0  0  0  0
    4.9799   -1.7933    0.0000 C   0  0  0  0  0  0  0  0  0  0  0  0
    5.6466   -0.4496    0.0000 C   0  0  0  0  0  0  0  0  0  0  0  0
    4.8164    0.7997    0.0000 C   0  0  0  0  0  0  0  0  0  0  0  0
    3.3193    0.7052    0.0000 C   0  0  0  0  0  0  0  0  0  0  0  0
    2.4890    1.9545    0.0000 C   0  0  0  0  0  0  0  0  0  0  0  0
    0.9920    1.8600    0.0000 O   0  0  0  0  0  0  0  0  0  0  0  0
    3.1558    3.2982    0.0000 O   0  0  0  0  0  0  0  0  0  0  0  0
   -5.6628    0.1387    0.0000 C   0  0  0  0  0  0  0  0  0  0  0  0
   -6.3296   -1.2050    0.0000 O   0  0  0  0  0  0  0  0  0  0  0  0
   -6.4931    1.3879    0.0000 O   0  0  0  0  0  0  0  0  0  0  0  0
  2  1  1  1
  2  3  1  0
  3  4  1  0
  4  5  1  0
  5  6  2  0
  6  7  1  0
  7  8  2  0
  8  9  1  0
  7 10  1  0
 10 11  2  0
 11 12  1  0
 12 13  2  0
 13 14  1  0
 14 15  2  0
 15 16  1  0
 16 17  2  0
 16 18  1  0
  2 19  1  0
 19 20  2  0
 19 21  1  0
  9  4  2  0
 15 10  1  0
M  END
>  <rName>  (3080) 
Phe_4Ph_2CO2H

>  <PQ_SYMBOL>  (3080) 
Phe_4Ph_2CO2H

>  <FULL_NAME>  (3080) 
(S)-4'-(2-amino-2-carboxyethyl)-[1,1'-biphenyl]-2-carboxylic acid

>  <IUPAC_CONDENSED>  (3080) 
Phe(4-Ph(2-CO2H))

>  <IUPAC>  (3080) 
2-(4-((2S)-2-amino-3-hydroxy-3-oxopropyl)phenyl)benzoic acid

>  <TYPE>  (3080) 
Backbone

>  <CLASS>  (3080) 
alpha

>  <ANALOG>  (3080) 
Phe

>  <MOL_WT>  (3080) 
285.299

>  <LOGP>  (3080) 
2.0062

>  <TPSA>  (3080) 
100.62000000000002

>  <POPULARITY>  (3080) 
3.4

>  <PROTECTED>  (3080) 
TRUE

>  <SMILES>  (3080) 
N[C@@H](Cc1(ccc(cc1)c2(ccccc2C(=O)O)))C(=O)O

>  <INCHIKEY>  (3080) 
PBGUUDQWSBFDJM-AWEZNQCLSA-N

$$$$
Phe_4Ph_2Cl
     RDKit          2D

 19 20  0  0  0  0  0  0  0  0999 V2000
   -3.3749    1.6701    0.0000 N   0  0  0  0  0  0  0  0  0  0  0  0
   -3.9688    0.2927    0.0000 C   0  0  0  0  0  0  0  0  0  0  0  0
   -3.0729   -0.9104    0.0000 C   0  0  0  0  0  0  0  0  0  0  0  0
   -1.5831   -0.7360    0.0000 C   0  0  0  0  0  0  0  0  0  0  0  0
   -0.9892    0.6414    0.0000 C   0  0  0  0  0  0  0  0  0  0  0  0
    0.5007    0.8158    0.0000 C   0  0  0  0  0  0  0  0  0  0  0  0
    1.3966   -0.3872    0.0000 C   0  0  0  0  0  0  0  0  0  0  0  0
    0.8027   -1.7647    0.0000 C   0  0  0  0  0  0  0  0  0  0  0  0
   -0.6871   -1.9390    0.0000 C   0  0  0  0  0  0  0  0  0  0  0  0
    2.8864   -0.2129    0.0000 C   0  0  0  0  0  0  0  0  0  0  0  0
    3.7823   -1.4159    0.0000 C   0  0  0  0  0  0  0  0  0  0  0  0
    5.2722   -1.2415    0.0000 C   0  0  0  0  0  0  0  0  0  0  0  0
    5.8661    0.1359    0.0000 C   0  0  0  0  0  0  0  0  0  0  0  0
    4.9702    1.3389    0.0000 C   0  0  0  0  0  0  0  0  0  0  0  0
    3.4803    1.1646    0.0000 C   0  0  0  0  0  0  0  0  0  0  0  0
    2.5844    2.3676    0.0000 Cl  0  0  0  0  0  0  0  0  0  0  0  0
   -5.4587    0.1183    0.0000 C   0  0  0  0  0  0  0  0  0  0  0  0
   -6.0526   -1.2591    0.0000 O   0  0  0  0  0  0  0  0  0  0  0  0
   -6.3546    1.3214    0.0000 O   0  0  0  0  0  0  0  0  0  0  0  0
  2  1  1  1
  2  3  1  0
  3  4  1  0
  4  5  1  0
  5  6  2  0
  6  7  1  0
  7  8  2  0
  8  9  1  0
  7 10  1  0
 10 11  2  0
 11 12  1  0
 12 13  2  0
 13 14  1  0
 14 15  2  0
 15 16  1  0
  2 17  1  0
 17 18  2  0
 17 19  1  0
  9  4  2  0
 15 10  1  0
M  END
>  <rName>  (3081) 
Phe_4Ph_2Cl

>  <PQ_SYMBOL>  (3081) 
Phe_4Ph_2Cl

>  <FULL_NAME>  (3081) 
(S)-2-amino-3-(2'-chloro-[1,1'-biphenyl]-4-yl)propanoic acid

>  <IUPAC_CONDENSED>  (3081) 
Phe(4-Ph(2-Cl))

>  <IUPAC>  (3081) 
(2S)-2-amino-3-(4-(2-chlorophenyl)phenyl)propanoic acid

>  <TYPE>  (3081) 
Backbone

>  <CLASS>  (3081) 
alpha

>  <ANALOG>  (3081) 
Phe

>  <MOL_WT>  (3081) 
275.735

>  <LOGP>  (3081) 
2.961400000000001

>  <TPSA>  (3081) 
63.32000000000001

>  <POPULARITY>  (3081) 
5.6

>  <PROTECTED>  (3081) 
TRUE

>  <SMILES>  (3081) 
N[C@@H](Cc1(ccc(cc1)c2(ccccc2Cl)))C(=O)O

>  <INCHIKEY>  (3081) 
UHZXKTIUPOTGKP-AWEZNQCLSA-N

$$$$
Phe_4Ph_2Cl_4CF3
     RDKit          2D

 23 24  0  0  0  0  0  0  0  0999 V2000
   -4.6866    1.7006    0.0000 N   0  0  0  0  0  0  0  0  0  0  0  0
   -5.3073    0.3351    0.0000 C   0  0  0  0  0  0  0  0  0  0  0  0
   -4.4351   -0.8852    0.0000 C   0  0  0  0  0  0  0  0  0  0  0  0
   -2.9422   -0.7401    0.0000 C   0  0  0  0  0  0  0  0  0  0  0  0
   -2.3214    0.6255    0.0000 C   0  0  0  0  0  0  0  0  0  0  0  0
   -0.8285    0.7706    0.0000 C   0  0  0  0  0  0  0  0  0  0  0  0
    0.0437   -0.4497    0.0000 C   0  0  0  0  0  0  0  0  0  0  0  0
   -0.5770   -1.8152    0.0000 C   0  0  0  0  0  0  0  0  0  0  0  0
   -2.0700   -1.9604    0.0000 C   0  0  0  0  0  0  0  0  0  0  0  0
    1.5367   -0.3045    0.0000 C   0  0  0  0  0  0  0  0  0  0  0  0
    2.4089   -1.5249    0.0000 C   0  0  0  0  0  0  0  0  0  0  0  0
    3.9018   -1.3797    0.0000 C   0  0  0  0  0  0  0  0  0  0  0  0
    4.5226   -0.0142    0.0000 C   0  0  0  0  0  0  0  0  0  0  0  0
    3.6504    1.2061    0.0000 C   0  0  0  0  0  0  0  0  0  0  0  0
    2.1574    1.0610    0.0000 C   0  0  0  0  0  0  0  0  0  0  0  0
    1.2852    2.2813    0.0000 Cl  0  0  0  0  0  0  0  0  0  0  0  0
    6.0156    0.1310    0.0000 C   0  0  0  0  0  0  0  0  0  0  0  0
    7.5085    0.2761    0.0000 F   0  0  0  0  0  0  0  0  0  0  0  0
    6.1607   -1.3620    0.0000 F   0  0  0  0  0  0  0  0  0  0  0  0
    5.8704    1.6239    0.0000 F   0  0  0  0  0  0  0  0  0  0  0  0
   -6.8003    0.1900    0.0000 C   0  0  0  0  0  0  0  0  0  0  0  0
   -7.4211   -1.1756    0.0000 O   0  0  0  0  0  0  0  0  0  0  0  0
   -7.6725    1.4103    0.0000 O   0  0  0  0  0  0  0  0  0  0  0  0
  2  1  1  1
  2  3  1  0
  3  4  1  0
  4  5  1  0
  5  6  2  0
  6  7  1  0
  7  8  2  0
  8  9  1  0
  7 10  1  0
 10 11  1  0
 11 12  2  0
 12 13  1  0
 13 14  2  0
 14 15  1  0
 15 16  1  0
 13 17  1  0
 17 18  1  0
 17 19  1  0
 17 20  1  0
  2 21  1  0
 21 22  2  0
 21 23  1  0
  9  4  2  0
 15 10  2  0
M  END
>  <rName>  (3082) 
Phe_4Ph_2Cl_4CF3

>  <PQ_SYMBOL>  (3082) 
Phe_4Ph_2Cl_4CF3

>  <FULL_NAME>  (3082) 
Phe(4-Ph(2-Cl,4-CF3))

>  <IUPAC_CONDENSED>  (3082) 
Phe(4-Ph(2-Cl,4-CF3))

>  <IUPAC>  (3082) 
(2S)-2-amino-3-(4-(2-chloro-4-(trifluoromethyl)phenyl)phenyl)propanoic acid

>  <TYPE>  (3082) 
Backbone

>  <CLASS>  (3082) 
alpha

>  <ANALOG>  (3082) 
Phe

>  <MOL_WT>  (3082) 
343.732

>  <LOGP>  (3082) 
3.9802000000000017

>  <TPSA>  (3082) 
63.32000000000001

>  <POPULARITY>  (3082) 
2.2

>  <PROTECTED>  (3082) 
TRUE

>  <SMILES>  (3082) 
N[C@@H](Cc1(ccc(cc1)c2(ccc(cc2Cl)C(F)(F)F)))C(=O)O

>  <INCHIKEY>  (3082) 
SICSZNQDQUEEEY-AWEZNQCLSA-N

$$$$
Phe_4Ph_2Et_4OMe
     RDKit          2D

 22 23  0  0  0  0  0  0  0  0999 V2000
   -4.2107    1.5757    0.0000 N   0  0  0  0  0  0  0  0  0  0  0  0
   -4.8207    0.2053    0.0000 C   0  0  0  0  0  0  0  0  0  0  0  0
   -3.9389   -1.0081    0.0000 C   0  0  0  0  0  0  0  0  0  0  0  0
   -2.4471   -0.8512    0.0000 C   0  0  0  0  0  0  0  0  0  0  0  0
   -1.8371    0.5192    0.0000 C   0  0  0  0  0  0  0  0  0  0  0  0
   -0.3454    0.6761    0.0000 C   0  0  0  0  0  0  0  0  0  0  0  0
    0.5364   -0.5373    0.0000 C   0  0  0  0  0  0  0  0  0  0  0  0
   -0.0735   -1.9077    0.0000 C   0  0  0  0  0  0  0  0  0  0  0  0
   -1.5653   -2.0646    0.0000 C   0  0  0  0  0  0  0  0  0  0  0  0
    2.0282   -0.3803    0.0000 C   0  0  0  0  0  0  0  0  0  0  0  0
    2.9100   -1.5938    0.0000 C   0  0  0  0  0  0  0  0  0  0  0  0
    4.4018   -1.4368    0.0000 C   0  0  0  0  0  0  0  0  0  0  0  0
    5.0117   -0.0664    0.0000 C   0  0  0  0  0  0  0  0  0  0  0  0
    6.5035    0.0905    0.0000 O   0  0  0  0  0  0  0  0  0  0  0  0
    7.3853   -1.1229    0.0000 C   0  0  0  0  0  0  0  0  0  0  0  0
    4.1299    1.1470    0.0000 C   0  0  0  0  0  0  0  0  0  0  0  0
    2.6382    0.9900    0.0000 C   0  0  0  0  0  0  0  0  0  0  0  0
    1.7564    2.2035    0.0000 C   0  0  0  0  0  0  0  0  0  0  0  0
    2.3663    3.5739    0.0000 C   0  0  0  0  0  0  0  0  0  0  0  0
   -6.3124    0.0483    0.0000 C   0  0  0  0  0  0  0  0  0  0  0  0
   -6.9224   -1.3221    0.0000 O   0  0  0  0  0  0  0  0  0  0  0  0
   -7.1942    1.2618    0.0000 O   0  0  0  0  0  0  0  0  0  0  0  0
  2  1  1  1
  2  3  1  0
  3  4  1  0
  4  5  1  0
  5  6  2  0
  6  7  1  0
  7  8  2  0
  8  9  1  0
  7 10  1  0
 10 11  1  0
 11 12  2  0
 12 13  1  0
 13 14  1  0
 14 15  1  0
 13 16  2  0
 16 17  1  0
 17 18  1  0
 18 19  1  0
  2 20  1  0
 20 21  2  0
 20 22  1  0
  9  4  2  0
 17 10  2  0
M  END
>  <rName>  (3083) 
Phe_4Ph_2Et_4OMe

>  <PQ_SYMBOL>  (3083) 
Phe_4Ph_2Et_4OMe

>  <FULL_NAME>  (3083) 
(2S)-2-amino-3-[4-(2-ethyl-4-methoxyphenyl)phenyl]propanoic acid

>  <IUPAC_CONDENSED>  (3083) 
Phe(4-Ph(2-Et,4-OMe))

>  <IUPAC>  (3083) 
(2S)-2-amino-3-(4-(2-ethyl-4-methoxyphenyl)phenyl)propanoic acid

>  <TYPE>  (3083) 
Backbone

>  <CLASS>  (3083) 
alpha

>  <ANALOG>  (3083) 
Phe

>  <MOL_WT>  (3083) 
299.37

>  <LOGP>  (3083) 
2.8790000000000004

>  <TPSA>  (3083) 
72.55

>  <POPULARITY>  (3083) 
15.0

>  <PROTECTED>  (3083) 
TRUE

>  <SMILES>  (3083) 
N[C@@H](Cc1(ccc(cc1)c2(ccc(OC)cc2CC)))C(=O)O

>  <INCHIKEY>  (3083) 
WLVXKTIBRNXBIF-KRWDZBQOSA-N

$$$$
Phe_4Ph_2F
     RDKit          2D

 19 20  0  0  0  0  0  0  0  0999 V2000
   -3.3749    1.6701    0.0000 N   0  0  0  0  0  0  0  0  0  0  0  0
   -3.9688    0.2927    0.0000 C   0  0  0  0  0  0  0  0  0  0  0  0
   -3.0729   -0.9104    0.0000 C   0  0  0  0  0  0  0  0  0  0  0  0
   -1.5831   -0.7360    0.0000 C   0  0  0  0  0  0  0  0  0  0  0  0
   -0.9892    0.6414    0.0000 C   0  0  0  0  0  0  0  0  0  0  0  0
    0.5007    0.8158    0.0000 C   0  0  0  0  0  0  0  0  0  0  0  0
    1.3966   -0.3872    0.0000 C   0  0  0  0  0  0  0  0  0  0  0  0
    0.8027   -1.7647    0.0000 C   0  0  0  0  0  0  0  0  0  0  0  0
   -0.6871   -1.9390    0.0000 C   0  0  0  0  0  0  0  0  0  0  0  0
    2.8864   -0.2129    0.0000 C   0  0  0  0  0  0  0  0  0  0  0  0
    3.7823   -1.4159    0.0000 C   0  0  0  0  0  0  0  0  0  0  0  0
    5.2722   -1.2415    0.0000 C   0  0  0  0  0  0  0  0  0  0  0  0
    5.8661    0.1359    0.0000 C   0  0  0  0  0  0  0  0  0  0  0  0
    4.9702    1.3389    0.0000 C   0  0  0  0  0  0  0  0  0  0  0  0
    3.4803    1.1646    0.0000 C   0  0  0  0  0  0  0  0  0  0  0  0
    2.5844    2.3676    0.0000 F   0  0  0  0  0  0  0  0  0  0  0  0
   -5.4587    0.1183    0.0000 C   0  0  0  0  0  0  0  0  0  0  0  0
   -6.0526   -1.2591    0.0000 O   0  0  0  0  0  0  0  0  0  0  0  0
   -6.3546    1.3214    0.0000 O   0  0  0  0  0  0  0  0  0  0  0  0
  2  1  1  1
  2  3  1  0
  3  4  1  0
  4  5  1  0
  5  6  2  0
  6  7  1  0
  7  8  2  0
  8  9  1  0
  7 10  1  0
 10 11  2  0
 11 12  1  0
 12 13  2  0
 13 14  1  0
 14 15  2  0
 15 16  1  0
  2 17  1  0
 17 18  2  0
 17 19  1  0
  9  4  2  0
 15 10  1  0
M  END
>  <rName>  (3084) 
Phe_4Ph_2F

>  <PQ_SYMBOL>  (3084) 
Phe_4Ph_2F

>  <FULL_NAME>  (3084) 
(S)-2-amino-3-(2'-fluoro-[1,1'-biphenyl]-4-yl)propanoic acid

>  <IUPAC_CONDENSED>  (3084) 
Phe(4-Ph(2-F))

>  <IUPAC>  (3084) 
(2S)-2-amino-3-(4-(2-fluorophenyl)phenyl)propanoic acid

>  <TYPE>  (3084) 
Backbone

>  <CLASS>  (3084) 
alpha

>  <ANALOG>  (3084) 
Phe

>  <MOL_WT>  (3084) 
259.28

>  <LOGP>  (3084) 
2.4471

>  <TPSA>  (3084) 
63.32000000000001

>  <POPULARITY>  (3084) 
6.2

>  <PROTECTED>  (3084) 
TRUE

>  <SMILES>  (3084) 
N[C@@H](Cc1(ccc(cc1)c2(ccccc2F)))C(=O)O

>  <INCHIKEY>  (3084) 
JSOJVEHPJNZBIZ-AWEZNQCLSA-N

$$$$
Phe_4Ph_2Me
     RDKit          2D

 19 20  0  0  0  0  0  0  0  0999 V2000
   -3.3749    1.6701    0.0000 N   0  0  0  0  0  0  0  0  0  0  0  0
   -3.9688    0.2927    0.0000 C   0  0  0  0  0  0  0  0  0  0  0  0
   -3.0729   -0.9104    0.0000 C   0  0  0  0  0  0  0  0  0  0  0  0
   -1.5831   -0.7360    0.0000 C   0  0  0  0  0  0  0  0  0  0  0  0
   -0.9892    0.6414    0.0000 C   0  0  0  0  0  0  0  0  0  0  0  0
    0.5007    0.8158    0.0000 C   0  0  0  0  0  0  0  0  0  0  0  0
    1.3966   -0.3872    0.0000 C   0  0  0  0  0  0  0  0  0  0  0  0
    0.8027   -1.7647    0.0000 C   0  0  0  0  0  0  0  0  0  0  0  0
   -0.6871   -1.9390    0.0000 C   0  0  0  0  0  0  0  0  0  0  0  0
    2.8864   -0.2129    0.0000 C   0  0  0  0  0  0  0  0  0  0  0  0
    3.7823   -1.4159    0.0000 C   0  0  0  0  0  0  0  0  0  0  0  0
    5.2722   -1.2415    0.0000 C   0  0  0  0  0  0  0  0  0  0  0  0
    5.8661    0.1359    0.0000 C   0  0  0  0  0  0  0  0  0  0  0  0
    4.9702    1.3389    0.0000 C   0  0  0  0  0  0  0  0  0  0  0  0
    3.4803    1.1646    0.0000 C   0  0  0  0  0  0  0  0  0  0  0  0
    2.5844    2.3676    0.0000 C   0  0  0  0  0  0  0  0  0  0  0  0
   -5.4587    0.1183    0.0000 C   0  0  0  0  0  0  0  0  0  0  0  0
   -6.0526   -1.2591    0.0000 O   0  0  0  0  0  0  0  0  0  0  0  0
   -6.3546    1.3214    0.0000 O   0  0  0  0  0  0  0  0  0  0  0  0
  2  1  1  1
  2  3  1  0
  3  4  1  0
  4  5  1  0
  5  6  2  0
  6  7  1  0
  7  8  2  0
  8  9  1  0
  7 10  1  0
 10 11  2  0
 11 12  1  0
 12 13  2  0
 13 14  1  0
 14 15  2  0
 15 16  1  0
  2 17  1  0
 17 18  2  0
 17 19  1  0
  9  4  2  0
 15 10  1  0
M  END
>  <rName>  (3085) 
Phe_4Ph_2Me

>  <PQ_SYMBOL>  (3085) 
Phe_4Ph_2Me

>  <FULL_NAME>  (3085) 
(2S)-2-amino-3-[4-(2-methylphenyl)phenyl]propanoic acid

>  <IUPAC_CONDENSED>  (3085) 
Phe(4-Ph(2-Me))

>  <IUPAC>  (3085) 
(2S)-2-amino-3-(4-(2-methylphenyl)phenyl)propanoic acid

>  <TYPE>  (3085) 
Backbone

>  <CLASS>  (3085) 
alpha

>  <ANALOG>  (3085) 
Phe

>  <MOL_WT>  (3085) 
255.31699999999998

>  <LOGP>  (3085) 
2.6164200000000006

>  <TPSA>  (3085) 
63.32000000000001

>  <POPULARITY>  (3085) 
14.5

>  <PROTECTED>  (3085) 
TRUE

>  <SMILES>  (3085) 
N[C@@H](Cc1(ccc(cc1)c2(ccccc2C)))C(=O)O

>  <INCHIKEY>  (3085) 
UTGOGZMACBMWOF-HNNXBMFYSA-N

$$$$
Phe_4Ph_2Me_4OMe
     RDKit          2D

 21 22  0  0  0  0  0  0  0  0999 V2000
   -4.1397    1.6445    0.0000 N   0  0  0  0  0  0  0  0  0  0  0  0
   -4.7158    0.2596    0.0000 C   0  0  0  0  0  0  0  0  0  0  0  0
   -3.8044   -0.9318    0.0000 C   0  0  0  0  0  0  0  0  0  0  0  0
   -2.3170   -0.7382    0.0000 C   0  0  0  0  0  0  0  0  0  0  0  0
   -1.7409    0.6467    0.0000 C   0  0  0  0  0  0  0  0  0  0  0  0
   -0.2534    0.8403    0.0000 C   0  0  0  0  0  0  0  0  0  0  0  0
    0.6580   -0.3510    0.0000 C   0  0  0  0  0  0  0  0  0  0  0  0
    0.0819   -1.7360    0.0000 C   0  0  0  0  0  0  0  0  0  0  0  0
   -1.4056   -1.9296    0.0000 C   0  0  0  0  0  0  0  0  0  0  0  0
    2.1454   -0.1574    0.0000 C   0  0  0  0  0  0  0  0  0  0  0  0
    3.0568   -1.3488    0.0000 C   0  0  0  0  0  0  0  0  0  0  0  0
    4.5442   -1.1552    0.0000 C   0  0  0  0  0  0  0  0  0  0  0  0
    5.1203    0.2298    0.0000 C   0  0  0  0  0  0  0  0  0  0  0  0
    6.6078    0.4233    0.0000 O   0  0  0  0  0  0  0  0  0  0  0  0
    7.5192   -0.7680    0.0000 C   0  0  0  0  0  0  0  0  0  0  0  0
    4.2089    1.4211    0.0000 C   0  0  0  0  0  0  0  0  0  0  0  0
    2.7215    1.2275    0.0000 C   0  0  0  0  0  0  0  0  0  0  0  0
    1.8101    2.4189    0.0000 C   0  0  0  0  0  0  0  0  0  0  0  0
   -6.2033    0.0660    0.0000 C   0  0  0  0  0  0  0  0  0  0  0  0
   -6.7793   -1.3190    0.0000 O   0  0  0  0  0  0  0  0  0  0  0  0
   -7.1146    1.2573    0.0000 O   0  0  0  0  0  0  0  0  0  0  0  0
  2  1  1  1
  2  3  1  0
  3  4  1  0
  4  5  1  0
  5  6  2  0
  6  7  1  0
  7  8  2  0
  8  9  1  0
  7 10  1  0
 10 11  1  0
 11 12  2  0
 12 13  1  0
 13 14  1  0
 14 15  1  0
 13 16  2  0
 16 17  1  0
 17 18  1  0
  2 19  1  0
 19 20  2  0
 19 21  1  0
  9  4  2  0
 17 10  2  0
M  END
>  <rName>  (3086) 
Phe_4Ph_2Me_4OMe

>  <PQ_SYMBOL>  (3086) 
Phe_4Ph_2Me_4OMe

>  <FULL_NAME>  (3086) 
(2S)-2-amino-3-[4-(4-methoxy-2-methylphenyl)phenyl]propanoic acid

>  <IUPAC_CONDENSED>  (3086) 
Phe(4-Ph(2-Me,4-OMe))

>  <IUPAC>  (3086) 
(2S)-2-amino-3-(4-(4-methoxy-2-methylphenyl)phenyl)propanoic acid

>  <TYPE>  (3086) 
Backbone

>  <CLASS>  (3086) 
alpha

>  <ANALOG>  (3086) 
Phe

>  <MOL_WT>  (3086) 
285.34299999999996

>  <LOGP>  (3086) 
2.62502

>  <TPSA>  (3086) 
72.55

>  <POPULARITY>  (3086) 
5.1

>  <PROTECTED>  (3086) 
TRUE

>  <SMILES>  (3086) 
N[C@@H](Cc1(ccc(cc1)c2(ccc(OC)cc2C)))C(=O)O

>  <INCHIKEY>  (3086) 
JEDSIOLFVAZSFT-INIZCTEOSA-N

$$$$
Phe_4Ph_2OEt
     RDKit          2D

 21 22  0  0  0  0  0  0  0  0999 V2000
   -3.5070    1.5786    0.0000 N   0  0  0  0  0  0  0  0  0  0  0  0
   -4.2226    0.2603    0.0000 C   0  0  0  0  0  0  0  0  0  0  0  0
   -3.4387   -1.0186    0.0000 C   0  0  0  0  0  0  0  0  0  0  0  0
   -1.9392   -0.9792    0.0000 C   0  0  0  0  0  0  0  0  0  0  0  0
   -1.2236    0.3391    0.0000 C   0  0  0  0  0  0  0  0  0  0  0  0
    0.2759    0.3785    0.0000 C   0  0  0  0  0  0  0  0  0  0  0  0
    1.0597   -0.9004    0.0000 C   0  0  0  0  0  0  0  0  0  0  0  0
    0.3441   -2.2187    0.0000 C   0  0  0  0  0  0  0  0  0  0  0  0
   -1.1554   -2.2580    0.0000 C   0  0  0  0  0  0  0  0  0  0  0  0
    2.5592   -0.8610    0.0000 C   0  0  0  0  0  0  0  0  0  0  0  0
    3.3431   -2.1399    0.0000 C   0  0  0  0  0  0  0  0  0  0  0  0
    4.8426   -2.1005    0.0000 C   0  0  0  0  0  0  0  0  0  0  0  0
    5.5582   -0.7822    0.0000 C   0  0  0  0  0  0  0  0  0  0  0  0
    4.7743    0.4967    0.0000 C   0  0  0  0  0  0  0  0  0  0  0  0
    3.2748    0.4573    0.0000 C   0  0  0  0  0  0  0  0  0  0  0  0
    2.4910    1.7362    0.0000 O   0  0  0  0  0  0  0  0  0  0  0  0
    3.2066    3.0545    0.0000 C   0  0  0  0  0  0  0  0  0  0  0  0
    2.4227    4.3334    0.0000 C   0  0  0  0  0  0  0  0  0  0  0  0
   -5.7221    0.2209    0.0000 C   0  0  0  0  0  0  0  0  0  0  0  0
   -6.4377   -1.0973    0.0000 O   0  0  0  0  0  0  0  0  0  0  0  0
   -6.5059    1.4998    0.0000 O   0  0  0  0  0  0  0  0  0  0  0  0
  2  1  1  1
  2  3  1  0
  3  4  1  0
  4  5  1  0
  5  6  2  0
  6  7  1  0
  7  8  2  0
  8  9  1  0
  7 10  1  0
 10 11  2  0
 11 12  1  0
 12 13  2  0
 13 14  1  0
 14 15  2  0
 15 16  1  0
 16 17  1  0
 17 18  1  0
  2 19  1  0
 19 20  2  0
 19 21  1  0
  9  4  2  0
 15 10  1  0
M  END
>  <rName>  (3087) 
Phe_4Ph_2OEt

>  <PQ_SYMBOL>  (3087) 
Phe_4Ph_2OEt

>  <FULL_NAME>  (3087) 
Phe(4-Ph(2-OEt))

>  <IUPAC_CONDENSED>  (3087) 
Phe(4-Ph(2-OEt))

>  <IUPAC>  (3087) 
(2S)-2-amino-3-(4-(2-ethoxyphenyl)phenyl)propanoic acid

>  <TYPE>  (3087) 
Backbone

>  <CLASS>  (3087) 
alpha

>  <ANALOG>  (3087) 
Phe

>  <MOL_WT>  (3087) 
285.34299999999996

>  <LOGP>  (3087) 
2.7067000000000005

>  <TPSA>  (3087) 
72.55

>  <POPULARITY>  (3087) 
2.2

>  <PROTECTED>  (3087) 
TRUE

>  <SMILES>  (3087) 
N[C@@H](Cc1(ccc(cc1)c2(ccccc2OCC)))C(=O)O

>  <INCHIKEY>  (3087) 
KNVXZNJLJRHLBO-HNNXBMFYSA-N

$$$$
Phe_4Ph_2OMe
     RDKit          2D

 20 21  0  0  0  0  0  0  0  0999 V2000
   -3.4624    1.6427    0.0000 N   0  0  0  0  0  0  0  0  0  0  0  0
   -4.1186    0.2939    0.0000 C   0  0  0  0  0  0  0  0  0  0  0  0
   -3.2786   -0.9488    0.0000 C   0  0  0  0  0  0  0  0  0  0  0  0
   -1.7823   -0.8427    0.0000 C   0  0  0  0  0  0  0  0  0  0  0  0
   -1.1261    0.5062    0.0000 C   0  0  0  0  0  0  0  0  0  0  0  0
    0.3701    0.6123    0.0000 C   0  0  0  0  0  0  0  0  0  0  0  0
    1.2101   -0.6304    0.0000 C   0  0  0  0  0  0  0  0  0  0  0  0
    0.5539   -1.9793    0.0000 C   0  0  0  0  0  0  0  0  0  0  0  0
   -0.9423   -2.0854    0.0000 C   0  0  0  0  0  0  0  0  0  0  0  0
    2.7064   -0.5243    0.0000 C   0  0  0  0  0  0  0  0  0  0  0  0
    3.5464   -1.7670    0.0000 C   0  0  0  0  0  0  0  0  0  0  0  0
    5.0427   -1.6609    0.0000 C   0  0  0  0  0  0  0  0  0  0  0  0
    5.6989   -0.3120    0.0000 C   0  0  0  0  0  0  0  0  0  0  0  0
    4.8588    0.9307    0.0000 C   0  0  0  0  0  0  0  0  0  0  0  0
    3.3626    0.8246    0.0000 C   0  0  0  0  0  0  0  0  0  0  0  0
    2.5226    2.0673    0.0000 O   0  0  0  0  0  0  0  0  0  0  0  0
    3.1788    3.4161    0.0000 C   0  0  0  0  0  0  0  0  0  0  0  0
   -5.6149    0.1878    0.0000 C   0  0  0  0  0  0  0  0  0  0  0  0
   -6.2711   -1.1611    0.0000 O   0  0  0  0  0  0  0  0  0  0  0  0
   -6.4549    1.4305    0.0000 O   0  0  0  0  0  0  0  0  0  0  0  0
  2  1  1  1
  2  3  1  0
  3  4  1  0
  4  5  1  0
  5  6  2  0
  6  7  1  0
  7  8  2  0
  8  9  1  0
  7 10  1  0
 10 11  2  0
 11 12  1  0
 12 13  2  0
 13 14  1  0
 14 15  2  0
 15 16  1  0
 16 17  1  0
  2 18  1  0
 18 19  2  0
 18 20  1  0
  9  4  2  0
 15 10  1  0
M  END
>  <rName>  (3088) 
Phe_4Ph_2OMe

>  <PQ_SYMBOL>  (3088) 
Phe_4Ph_2OMe

>  <FULL_NAME>  (3088) 
L-2-Amino-3-(2'-methoxy-biphenyl-4-YL)-propionic acid

>  <IUPAC_CONDENSED>  (3088) 
Phe(4-Ph(2-OMe))

>  <IUPAC>  (3088) 
(2S)-2-amino-3-[4-(2-methoxyphenyl)phenyl]propanoic acid

>  <TYPE>  (3088) 
Backbone

>  <CLASS>  (3088) 
alpha

>  <ANALOG>  (3088) 
Phe

>  <MOL_WT>  (3088) 
271.316

>  <LOGP>  (3088) 
2.3166

>  <TPSA>  (3088) 
72.55

>  <POPULARITY>  (3088) 
2.2

>  <PROTECTED>  (3088) 
TRUE

>  <SMILES>  (3088) 
N[C@@H](Cc1(ccc(cc1)c2(ccccc2OC)))C(=O)O

>  <INCHIKEY>  (3088) 
BUKWKMVOQZRTSM-AWEZNQCLSA-N

$$$$
Phe_4Ph_2OMe_4F
     RDKit          2D

 21 22  0  0  0  0  0  0  0  0999 V2000
   -3.8128    1.6345    0.0000 N   0  0  0  0  0  0  0  0  0  0  0  0
   -4.4626    0.2825    0.0000 C   0  0  0  0  0  0  0  0  0  0  0  0
   -3.6167   -0.9562    0.0000 C   0  0  0  0  0  0  0  0  0  0  0  0
   -2.1210   -0.8430    0.0000 C   0  0  0  0  0  0  0  0  0  0  0  0
   -1.4712    0.5090    0.0000 C   0  0  0  0  0  0  0  0  0  0  0  0
    0.0245    0.6222    0.0000 C   0  0  0  0  0  0  0  0  0  0  0  0
    0.8705   -0.6165    0.0000 C   0  0  0  0  0  0  0  0  0  0  0  0
    0.2207   -1.9684    0.0000 C   0  0  0  0  0  0  0  0  0  0  0  0
   -1.2751   -2.0817    0.0000 C   0  0  0  0  0  0  0  0  0  0  0  0
    2.3662   -0.5033    0.0000 C   0  0  0  0  0  0  0  0  0  0  0  0
    3.2121   -1.7420    0.0000 C   0  0  0  0  0  0  0  0  0  0  0  0
    4.7078   -1.6287    0.0000 C   0  0  0  0  0  0  0  0  0  0  0  0
    5.3576   -0.2768    0.0000 C   0  0  0  0  0  0  0  0  0  0  0  0
    6.8533   -0.1635    0.0000 F   0  0  0  0  0  0  0  0  0  0  0  0
    4.5117    0.9619    0.0000 C   0  0  0  0  0  0  0  0  0  0  0  0
    3.0160    0.8487    0.0000 C   0  0  0  0  0  0  0  0  0  0  0  0
    2.1700    2.0874    0.0000 O   0  0  0  0  0  0  0  0  0  0  0  0
    2.8198    3.4394    0.0000 C   0  0  0  0  0  0  0  0  0  0  0  0
   -5.9584    0.1693    0.0000 C   0  0  0  0  0  0  0  0  0  0  0  0
   -6.6081   -1.1827    0.0000 O   0  0  0  0  0  0  0  0  0  0  0  0
   -6.8043    1.4080    0.0000 O   0  0  0  0  0  0  0  0  0  0  0  0
  2  1  1  1
  2  3  1  0
  3  4  1  0
  4  5  1  0
  5  6  2  0
  6  7  1  0
  7  8  2  0
  8  9  1  0
  7 10  1  0
 10 11  1  0
 11 12  2  0
 12 13  1  0
 13 14  1  0
 13 15  2  0
 15 16  1  0
 16 17  1  0
 17 18  1  0
  2 19  1  0
 19 20  2  0
 19 21  1  0
  9  4  2  0
 16 10  2  0
M  END
>  <rName>  (3089) 
Phe_4Ph_2OMe_4F

>  <PQ_SYMBOL>  (3089) 
Phe_4Ph_2OMe_4F

>  <FULL_NAME>  (3089) 
Phe(4-Ph(2-OMe,4-F))

>  <IUPAC_CONDENSED>  (3089) 
Phe(4-Ph(2-OMe,4-F))

>  <IUPAC>  (3089) 
(2S)-2-amino-3-(4-(4-fluoro-2-methoxyphenyl)phenyl)propanoic acid

>  <TYPE>  (3089) 
Backbone

>  <CLASS>  (3089) 
alpha

>  <ANALOG>  (3089) 
Phe

>  <MOL_WT>  (3089) 
289.306

>  <LOGP>  (3089) 
2.4557

>  <TPSA>  (3089) 
72.55

>  <POPULARITY>  (3089) 
2.2

>  <PROTECTED>  (3089) 
TRUE

>  <SMILES>  (3089) 
N[C@@H](Cc1(ccc(cc1)c2(ccc(F)cc2OC)))C(=O)O

>  <INCHIKEY>  (3089) 
FSPUNHRDCQKQPL-AWEZNQCLSA-N

$$$$
Phe_4Ph_34diCl
     RDKit          2D

 20 21  0  0  0  0  0  0  0  0999 V2000
   -3.8339    1.7683    0.0000 N   0  0  0  0  0  0  0  0  0  0  0  0
   -4.4742    0.4118    0.0000 C   0  0  0  0  0  0  0  0  0  0  0  0
   -3.6196   -0.8209    0.0000 C   0  0  0  0  0  0  0  0  0  0  0  0
   -2.1247   -0.6972    0.0000 C   0  0  0  0  0  0  0  0  0  0  0  0
   -1.4844    0.6592    0.0000 C   0  0  0  0  0  0  0  0  0  0  0  0
    0.0105    0.7830    0.0000 C   0  0  0  0  0  0  0  0  0  0  0  0
    0.8650   -0.4498    0.0000 C   0  0  0  0  0  0  0  0  0  0  0  0
    0.2247   -1.8063    0.0000 C   0  0  0  0  0  0  0  0  0  0  0  0
   -1.2702   -1.9300    0.0000 C   0  0  0  0  0  0  0  0  0  0  0  0
    2.3599   -0.3261    0.0000 C   0  0  0  0  0  0  0  0  0  0  0  0
    3.2145   -1.5589    0.0000 C   0  0  0  0  0  0  0  0  0  0  0  0
    4.7094   -1.4351    0.0000 C   0  0  0  0  0  0  0  0  0  0  0  0
    5.3497   -0.0787    0.0000 C   0  0  0  0  0  0  0  0  0  0  0  0
    6.8446    0.0450    0.0000 Cl  0  0  0  0  0  0  0  0  0  0  0  0
    4.4951    1.1541    0.0000 C   0  0  0  0  0  0  0  0  0  0  0  0
    5.1354    2.5105    0.0000 Cl  0  0  0  0  0  0  0  0  0  0  0  0
    3.0002    1.0304    0.0000 C   0  0  0  0  0  0  0  0  0  0  0  0
   -5.9691    0.2881    0.0000 C   0  0  0  0  0  0  0  0  0  0  0  0
   -6.6094   -1.0683    0.0000 O   0  0  0  0  0  0  0  0  0  0  0  0
   -6.8237    1.5209    0.0000 O   0  0  0  0  0  0  0  0  0  0  0  0
  2  1  1  1
  2  3  1  0
  3  4  1  0
  4  5  1  0
  5  6  2  0
  6  7  1  0
  7  8  2  0
  8  9  1  0
  7 10  1  0
 10 11  1  0
 11 12  2  0
 12 13  1  0
 13 14  1  0
 13 15  2  0
 15 16  1  0
 15 17  1  0
  2 18  1  0
 18 19  2  0
 18 20  1  0
  9  4  2  0
 17 10  2  0
M  END
>  <rName>  (3090) 
Phe_4Ph_34diCl

>  <PQ_SYMBOL>  (3090) 
Phe_4Ph_34diCl

>  <FULL_NAME>  (3090) 
(S)-2-amino-3-(3',4'-dichloro-[1,1'-biphenyl]-4-yl)propanoic acid

>  <IUPAC_CONDENSED>  (3090) 
Phe(4-Ph(3,4-diCl))

>  <IUPAC>  (3090) 
(2S)-2-amino-3-(4-(3,4-dichlorophenyl)phenyl)propanoic acid

>  <TYPE>  (3090) 
Backbone

>  <CLASS>  (3090) 
alpha

>  <ANALOG>  (3090) 
Phe

>  <MOL_WT>  (3090) 
310.18

>  <LOGP>  (3090) 
3.6148000000000025

>  <TPSA>  (3090) 
63.32000000000001

>  <POPULARITY>  (3090) 
4.1

>  <PROTECTED>  (3090) 
TRUE

>  <SMILES>  (3090) 
N[C@@H](Cc1(ccc(cc1)c2(ccc(Cl)c(Cl)c2)))C(=O)O

>  <INCHIKEY>  (3090) 
JNGFTZCQSHBMTQ-AWEZNQCLSA-N

$$$$
Phe_4Ph_34diOMe
     RDKit          2D

 22 23  0  0  0  0  0  0  0  0999 V2000
   -4.3540    1.7154    0.0000 N   0  0  0  0  0  0  0  0  0  0  0  0
   -5.0139    0.3684    0.0000 C   0  0  0  0  0  0  0  0  0  0  0  0
   -4.1773   -0.8766    0.0000 C   0  0  0  0  0  0  0  0  0  0  0  0
   -2.6808   -0.7746    0.0000 C   0  0  0  0  0  0  0  0  0  0  0  0
   -2.0209    0.5724    0.0000 C   0  0  0  0  0  0  0  0  0  0  0  0
   -0.5244    0.6745    0.0000 C   0  0  0  0  0  0  0  0  0  0  0  0
    0.3123   -0.5706    0.0000 C   0  0  0  0  0  0  0  0  0  0  0  0
   -0.3477   -1.9176    0.0000 C   0  0  0  0  0  0  0  0  0  0  0  0
   -1.8442   -2.0196    0.0000 C   0  0  0  0  0  0  0  0  0  0  0  0
    1.8088   -0.4685    0.0000 C   0  0  0  0  0  0  0  0  0  0  0  0
    2.6454   -1.7136    0.0000 C   0  0  0  0  0  0  0  0  0  0  0  0
    4.1419   -1.6115    0.0000 C   0  0  0  0  0  0  0  0  0  0  0  0
    4.8018   -0.2645    0.0000 C   0  0  0  0  0  0  0  0  0  0  0  0
    6.2984   -0.1625    0.0000 O   0  0  0  0  0  0  0  0  0  0  0  0
    7.1350   -1.4075    0.0000 C   0  0  0  0  0  0  0  0  0  0  0  0
    3.9652    0.9805    0.0000 C   0  0  0  0  0  0  0  0  0  0  0  0
    4.6251    2.3276    0.0000 O   0  0  0  0  0  0  0  0  0  0  0  0
    3.7885    3.5726    0.0000 C   0  0  0  0  0  0  0  0  0  0  0  0
    2.4687    0.8785    0.0000 C   0  0  0  0  0  0  0  0  0  0  0  0
   -6.5105    0.2664    0.0000 C   0  0  0  0  0  0  0  0  0  0  0  0
   -7.1704   -1.0806    0.0000 O   0  0  0  0  0  0  0  0  0  0  0  0
   -7.3471    1.5114    0.0000 O   0  0  0  0  0  0  0  0  0  0  0  0
  2  1  1  1
  2  3  1  0
  3  4  1  0
  4  5  1  0
  5  6  2  0
  6  7  1  0
  7  8  2  0
  8  9  1  0
  7 10  1  0
 10 11  1  0
 11 12  2  0
 12 13  1  0
 13 14  1  0
 14 15  1  0
 13 16  2  0
 16 17  1  0
 17 18  1  0
 16 19  1  0
  2 20  1  0
 20 21  2  0
 20 22  1  0
  9  4  2  0
 19 10  2  0
M  END
>  <rName>  (3091) 
Phe_4Ph_34diOMe

>  <PQ_SYMBOL>  (3091) 
Phe_4Ph_34diOMe

>  <FULL_NAME>  (3091) 
(2S)-2-amino-3-[4-(3,4-dimethoxyphenyl)phenyl]propanoic acid

>  <IUPAC_CONDENSED>  (3091) 
Phe(4-Ph(3,4-diOMe))

>  <IUPAC>  (3091) 
(2S)-2-amino-3-[4-(3,4-dimethoxyphenyl)phenyl]propanoic acid

>  <TYPE>  (3091) 
Backbone

>  <CLASS>  (3091) 
alpha

>  <ANALOG>  (3091) 
Phe

>  <MOL_WT>  (3091) 
301.342

>  <LOGP>  (3091) 
2.3251999999999997

>  <TPSA>  (3091) 
81.78

>  <POPULARITY>  (3091) 
2.2

>  <PROTECTED>  (3091) 
TRUE

>  <SMILES>  (3091) 
N[C@@H](Cc1(ccc(cc1)c2(ccc(OC)c(OC)c2)))C(=O)O

>  <INCHIKEY>  (3091) 
YZFJIZKUJONJCA-AWEZNQCLSA-N

$$$$
Phe_4Ph_3CF3
     RDKit          2D

 22 23  0  0  0  0  0  0  0  0999 V2000
    4.0518   -1.8789    0.0000 N   0  0  0  0  0  0  0  0  0  0  0  0
    4.8541   -0.6115    0.0000 C   0  0  0  0  0  0  0  0  0  0  0  0
    4.1576    0.7170    0.0000 C   0  0  0  0  0  0  0  0  0  0  0  0
    2.6589    0.7781    0.0000 C   0  0  0  0  0  0  0  0  0  0  0  0
    1.8566   -0.4893    0.0000 C   0  0  0  0  0  0  0  0  0  0  0  0
    0.3579   -0.4283    0.0000 C   0  0  0  0  0  0  0  0  0  0  0  0
   -0.3386    0.9002    0.0000 C   0  0  0  0  0  0  0  0  0  0  0  0
    0.4637    2.1677    0.0000 C   0  0  0  0  0  0  0  0  0  0  0  0
    1.9624    2.1066    0.0000 C   0  0  0  0  0  0  0  0  0  0  0  0
   -1.8374    0.9613    0.0000 C   0  0  0  0  0  0  0  0  0  0  0  0
   -2.5339    2.2898    0.0000 C   0  0  0  0  0  0  0  0  0  0  0  0
   -4.0326    2.3509    0.0000 C   0  0  0  0  0  0  0  0  0  0  0  0
   -4.8349    1.0835    0.0000 C   0  0  0  0  0  0  0  0  0  0  0  0
   -4.1384   -0.2450    0.0000 C   0  0  0  0  0  0  0  0  0  0  0  0
   -2.6397   -0.3061    0.0000 C   0  0  0  0  0  0  0  0  0  0  0  0
   -4.9407   -1.5124    0.0000 C   0  0  0  0  0  0  0  0  0  0  0  0
   -5.7430   -2.7798    0.0000 F   0  0  0  0  0  0  0  0  0  0  0  0
   -6.2081   -0.7101    0.0000 F   0  0  0  0  0  0  0  0  0  0  0  0
   -3.6733   -2.3147    0.0000 F   0  0  0  0  0  0  0  0  0  0  0  0
    6.3529   -0.6726    0.0000 C   0  0  0  0  0  0  0  0  0  0  0  0
    7.1552    0.5948    0.0000 O   0  0  0  0  0  0  0  0  0  0  0  0
    7.0494   -2.0011    0.0000 O   0  0  0  0  0  0  0  0  0  0  0  0
  2  1  1  1
  2  3  1  0
  3  4  1  0
  4  5  1  0
  5  6  2  0
  6  7  1  0
  7  8  2  0
  8  9  1  0
  7 10  1  0
 10 11  1  0
 11 12  2  0
 12 13  1  0
 13 14  2  0
 14 15  1  0
 14 16  1  0
 16 17  1  0
 16 18  1  0
 16 19  1  0
  2 20  1  0
 20 21  2  0
 20 22  1  0
  9  4  2  0
 15 10  2  0
M  END
>  <rName>  (3092) 
Phe_4Ph_3CF3

>  <PQ_SYMBOL>  (3092) 
Phe_4Ph_3CF3

>  <FULL_NAME>  (3092) 
Phe(4-Ph(3-CF3))

>  <IUPAC_CONDENSED>  (3092) 
Phe(4-Ph(3-CF3))

>  <IUPAC>  (3092) 
(2S)-2-amino-3-(4-(3-(trifluoromethyl)phenyl)phenyl)propanoic acid

>  <TYPE>  (3092) 
Backbone

>  <CLASS>  (3092) 
alpha

>  <ANALOG>  (3092) 
Phe

>  <MOL_WT>  (3092) 
309.28700000000003

>  <LOGP>  (3092) 
3.3268000000000013

>  <TPSA>  (3092) 
63.32000000000001

>  <POPULARITY>  (3092) 
2.2

>  <PROTECTED>  (3092) 
TRUE

>  <SMILES>  (3092) 
N[C@@H](Cc1(ccc(cc1)c2(cccc(c2)C(F)(F)F)))C(=O)O

>  <INCHIKEY>  (3092) 
DNMUPDIFFWKZFZ-AWEZNQCLSA-N

$$$$
Phe_4Ph_3CN
     RDKit          2D

 20 21  0  0  0  0  0  0  0  0999 V2000
   -3.6519    1.8556    0.0000 N   0  0  0  0  0  0  0  0  0  0  0  0
   -4.3919    0.5508    0.0000 C   0  0  0  0  0  0  0  0  0  0  0  0
   -3.6319   -0.7424    0.0000 C   0  0  0  0  0  0  0  0  0  0  0  0
   -2.1319   -0.7309    0.0000 C   0  0  0  0  0  0  0  0  0  0  0  0
   -1.3920    0.5739    0.0000 C   0  0  0  0  0  0  0  0  0  0  0  0
    0.1080    0.5854    0.0000 C   0  0  0  0  0  0  0  0  0  0  0  0
    0.8680   -0.7078    0.0000 C   0  0  0  0  0  0  0  0  0  0  0  0
    0.1280   -2.0126    0.0000 C   0  0  0  0  0  0  0  0  0  0  0  0
   -1.3720   -2.0241    0.0000 C   0  0  0  0  0  0  0  0  0  0  0  0
    2.3679   -0.6963    0.0000 C   0  0  0  0  0  0  0  0  0  0  0  0
    3.1279   -1.9895    0.0000 C   0  0  0  0  0  0  0  0  0  0  0  0
    4.6278   -1.9780    0.0000 C   0  0  0  0  0  0  0  0  0  0  0  0
    5.3678   -0.6732    0.0000 C   0  0  0  0  0  0  0  0  0  0  0  0
    4.6079    0.6200    0.0000 C   0  0  0  0  0  0  0  0  0  0  0  0
    5.3479    1.9248    0.0000 C   0  0  0  0  0  0  0  0  0  0  0  0
    6.0879    3.2295    0.0000 N   0  0  0  0  0  0  0  0  0  0  0  0
    3.1079    0.6085    0.0000 C   0  0  0  0  0  0  0  0  0  0  0  0
   -5.8918    0.5393    0.0000 C   0  0  0  0  0  0  0  0  0  0  0  0
   -6.6318   -0.7654    0.0000 O   0  0  0  0  0  0  0  0  0  0  0  0
   -6.6518    1.8326    0.0000 O   0  0  0  0  0  0  0  0  0  0  0  0
  2  1  1  1
  2  3  1  0
  3  4  1  0
  4  5  1  0
  5  6  2  0
  6  7  1  0
  7  8  2  0
  8  9  1  0
  7 10  1  0
 10 11  2  0
 11 12  1  0
 12 13  2  0
 13 14  1  0
 14 15  1  0
 15 16  3  0
 14 17  2  0
  2 18  1  0
 18 19  2  0
 18 20  1  0
  9  4  2  0
 17 10  1  0
M  END
>  <rName>  (3093) 
Phe_4Ph_3CN

>  <PQ_SYMBOL>  (3093) 
Phe_4Ph_3CN

>  <FULL_NAME>  (3093) 
(S)-2-amino-3-(3'-cyano-[1,1'-biphenyl]-4-yl)propanoic acid

>  <IUPAC_CONDENSED>  (3093) 
Phe(4-Ph(3-CN))

>  <IUPAC>  (3093) 
(2S)-2-amino-3-(4-(3-(nitrilomethyl)phenyl)phenyl)propanoic acid

>  <TYPE>  (3093) 
Backbone

>  <CLASS>  (3093) 
alpha

>  <ANALOG>  (3093) 
Phe

>  <MOL_WT>  (3093) 
266.29999999999995

>  <LOGP>  (3093) 
2.17968

>  <TPSA>  (3093) 
87.11

>  <POPULARITY>  (3093) 
3.9

>  <PROTECTED>  (3093) 
TRUE

>  <SMILES>  (3093) 
N[C@@H](Cc1(ccc(cc1)c2(cccc(C#N)c2)))C(=O)O

>  <INCHIKEY>  (3093) 
LXWUNEPCKFFJBA-HNNXBMFYSA-N

$$$$
Phe_4Ph_3CO2H
     RDKit          2D

 21 22  0  0  0  0  0  0  0  0999 V2000
    3.8626   -1.8583    0.0000 N   0  0  0  0  0  0  0  0  0  0  0  0
    4.6340   -0.5718    0.0000 C   0  0  0  0  0  0  0  0  0  0  0  0
    3.9057    0.7395    0.0000 C   0  0  0  0  0  0  0  0  0  0  0  0
    2.4059    0.7644    0.0000 C   0  0  0  0  0  0  0  0  0  0  0  0
    1.6344   -0.5221    0.0000 C   0  0  0  0  0  0  0  0  0  0  0  0
    0.1346   -0.4972    0.0000 C   0  0  0  0  0  0  0  0  0  0  0  0
   -0.5937    0.8141    0.0000 C   0  0  0  0  0  0  0  0  0  0  0  0
    0.1777    2.1005    0.0000 C   0  0  0  0  0  0  0  0  0  0  0  0
    1.6775    2.0757    0.0000 C   0  0  0  0  0  0  0  0  0  0  0  0
   -2.0935    0.8390    0.0000 C   0  0  0  0  0  0  0  0  0  0  0  0
   -2.8219    2.1503    0.0000 C   0  0  0  0  0  0  0  0  0  0  0  0
   -4.3216    2.1752    0.0000 C   0  0  0  0  0  0  0  0  0  0  0  0
   -5.0931    0.8888    0.0000 C   0  0  0  0  0  0  0  0  0  0  0  0
   -4.3648   -0.4225    0.0000 C   0  0  0  0  0  0  0  0  0  0  0  0
   -2.8650   -0.4474    0.0000 C   0  0  0  0  0  0  0  0  0  0  0  0
   -5.1362   -1.7089    0.0000 C   0  0  0  0  0  0  0  0  0  0  0  0
   -4.4079   -3.0202    0.0000 O   0  0  0  0  0  0  0  0  0  0  0  0
   -6.6360   -1.6840    0.0000 O   0  0  0  0  0  0  0  0  0  0  0  0
    6.1338   -0.5967    0.0000 C   0  0  0  0  0  0  0  0  0  0  0  0
    6.9053    0.6897    0.0000 O   0  0  0  0  0  0  0  0  0  0  0  0
    6.8621   -1.9080    0.0000 O   0  0  0  0  0  0  0  0  0  0  0  0
  2  1  1  1
  2  3  1  0
  3  4  1  0
  4  5  1  0
  5  6  2  0
  6  7  1  0
  7  8  2  0
  8  9  1  0
  7 10  1  0
 10 11  2  0
 11 12  1  0
 12 13  2  0
 13 14  1  0
 14 15  2  0
 14 16  1  0
 16 17  2  0
 16 18  1  0
  2 19  1  0
 19 20  2  0
 19 21  1  0
  9  4  2  0
 15 10  1  0
M  END
>  <rName>  (3094) 
Phe_4Ph_3CO2H

>  <PQ_SYMBOL>  (3094) 
Phe_4Ph_3CO2H

>  <FULL_NAME>  (3094) 
(S)-4'-(2-amino-2-carboxyethyl)-[1,1'-biphenyl]-3-carboxylic acid

>  <IUPAC_CONDENSED>  (3094) 
Phe(4-Ph(3-CO2H))

>  <IUPAC>  (3094) 
3-(4-((2S)-2-amino-3-hydroxy-3-oxopropyl)phenyl)benzoic acid

>  <TYPE>  (3094) 
Backbone

>  <CLASS>  (3094) 
alpha

>  <ANALOG>  (3094) 
Phe

>  <MOL_WT>  (3094) 
285.299

>  <LOGP>  (3094) 
2.0062

>  <TPSA>  (3094) 
100.62000000000002

>  <POPULARITY>  (3094) 
5.4

>  <PROTECTED>  (3094) 
TRUE

>  <SMILES>  (3094) 
N[C@@H](Cc1(ccc(cc1)c2(cccc(c2)C(=O)O)))C(=O)O

>  <INCHIKEY>  (3094) 
JQKOMNVRHCDMFH-AWEZNQCLSA-N

$$$$
Phe_4Ph_3Cl
     RDKit          2D

 19 20  0  0  0  0  0  0  0  0999 V2000
   -3.4758    1.7665    0.0000 N   0  0  0  0  0  0  0  0  0  0  0  0
   -4.1145    0.4093    0.0000 C   0  0  0  0  0  0  0  0  0  0  0  0
   -3.2584   -0.8224    0.0000 C   0  0  0  0  0  0  0  0  0  0  0  0
   -1.7637   -0.6969    0.0000 C   0  0  0  0  0  0  0  0  0  0  0  0
   -1.1250    0.6603    0.0000 C   0  0  0  0  0  0  0  0  0  0  0  0
    0.3698    0.7858    0.0000 C   0  0  0  0  0  0  0  0  0  0  0  0
    1.2258   -0.4460    0.0000 C   0  0  0  0  0  0  0  0  0  0  0  0
    0.5871   -1.8032    0.0000 C   0  0  0  0  0  0  0  0  0  0  0  0
   -0.9076   -1.9287    0.0000 C   0  0  0  0  0  0  0  0  0  0  0  0
    2.7206   -0.3205    0.0000 C   0  0  0  0  0  0  0  0  0  0  0  0
    3.5766   -1.5522    0.0000 C   0  0  0  0  0  0  0  0  0  0  0  0
    5.0713   -1.4268    0.0000 C   0  0  0  0  0  0  0  0  0  0  0  0
    5.7100   -0.0695    0.0000 C   0  0  0  0  0  0  0  0  0  0  0  0
    4.8540    1.1622    0.0000 C   0  0  0  0  0  0  0  0  0  0  0  0
    5.4927    2.5194    0.0000 Cl  0  0  0  0  0  0  0  0  0  0  0  0
    3.3593    1.0367    0.0000 C   0  0  0  0  0  0  0  0  0  0  0  0
   -5.6092    0.2838    0.0000 C   0  0  0  0  0  0  0  0  0  0  0  0
   -6.2479   -1.0734    0.0000 O   0  0  0  0  0  0  0  0  0  0  0  0
   -6.4652    1.5156    0.0000 O   0  0  0  0  0  0  0  0  0  0  0  0
  2  1  1  1
  2  3  1  0
  3  4  1  0
  4  5  1  0
  5  6  2  0
  6  7  1  0
  7  8  2  0
  8  9  1  0
  7 10  1  0
 10 11  2  0
 11 12  1  0
 12 13  2  0
 13 14  1  0
 14 15  1  0
 14 16  2  0
  2 17  1  0
 17 18  2  0
 17 19  1  0
  9  4  2  0
 16 10  1  0
M  END
>  <rName>  (3095) 
Phe_4Ph_3Cl

>  <PQ_SYMBOL>  (3095) 
Phe_4Ph_3Cl

>  <FULL_NAME>  (3095) 
(S)-2-amino-3-(3'-chloro-[1,1'-biphenyl]-4-yl)propanoic acid

>  <IUPAC_CONDENSED>  (3095) 
Phe(4-Ph(3-Cl))

>  <IUPAC>  (3095) 
(2S)-2-amino-3-(4-(3-chlorophenyl)phenyl)propanoic acid

>  <TYPE>  (3095) 
Backbone

>  <CLASS>  (3095) 
alpha

>  <ANALOG>  (3095) 
Phe

>  <MOL_WT>  (3095) 
275.735

>  <LOGP>  (3095) 
2.961400000000001

>  <TPSA>  (3095) 
63.32000000000001

>  <POPULARITY>  (3095) 
6.1

>  <PROTECTED>  (3095) 
TRUE

>  <SMILES>  (3095) 
N[C@@H](Cc1(ccc(cc1)c2(cccc(Cl)c2)))C(=O)O

>  <INCHIKEY>  (3095) 
TYODQDGKOZCVHK-AWEZNQCLSA-N

$$$$
Phe_4Ph_3F
     RDKit          2D

 19 20  0  0  0  0  0  0  0  0999 V2000
   -3.4758    1.7665    0.0000 N   0  0  0  0  0  0  0  0  0  0  0  0
   -4.1145    0.4093    0.0000 C   0  0  0  0  0  0  0  0  0  0  0  0
   -3.2584   -0.8224    0.0000 C   0  0  0  0  0  0  0  0  0  0  0  0
   -1.7637   -0.6969    0.0000 C   0  0  0  0  0  0  0  0  0  0  0  0
   -1.1250    0.6603    0.0000 C   0  0  0  0  0  0  0  0  0  0  0  0
    0.3698    0.7858    0.0000 C   0  0  0  0  0  0  0  0  0  0  0  0
    1.2258   -0.4460    0.0000 C   0  0  0  0  0  0  0  0  0  0  0  0
    0.5871   -1.8032    0.0000 C   0  0  0  0  0  0  0  0  0  0  0  0
   -0.9076   -1.9287    0.0000 C   0  0  0  0  0  0  0  0  0  0  0  0
    2.7206   -0.3205    0.0000 C   0  0  0  0  0  0  0  0  0  0  0  0
    3.5766   -1.5522    0.0000 C   0  0  0  0  0  0  0  0  0  0  0  0
    5.0713   -1.4268    0.0000 C   0  0  0  0  0  0  0  0  0  0  0  0
    5.7100   -0.0695    0.0000 C   0  0  0  0  0  0  0  0  0  0  0  0
    4.8540    1.1622    0.0000 C   0  0  0  0  0  0  0  0  0  0  0  0
    5.4927    2.5194    0.0000 F   0  0  0  0  0  0  0  0  0  0  0  0
    3.3593    1.0367    0.0000 C   0  0  0  0  0  0  0  0  0  0  0  0
   -5.6092    0.2838    0.0000 C   0  0  0  0  0  0  0  0  0  0  0  0
   -6.2479   -1.0734    0.0000 O   0  0  0  0  0  0  0  0  0  0  0  0
   -6.4652    1.5156    0.0000 O   0  0  0  0  0  0  0  0  0  0  0  0
  2  1  1  1
  2  3  1  0
  3  4  1  0
  4  5  1  0
  5  6  2  0
  6  7  1  0
  7  8  2  0
  8  9  1  0
  7 10  1  0
 10 11  2  0
 11 12  1  0
 12 13  2  0
 13 14  1  0
 14 15  1  0
 14 16  2  0
  2 17  1  0
 17 18  2  0
 17 19  1  0
  9  4  2  0
 16 10  1  0
M  END
>  <rName>  (3096) 
Phe_4Ph_3F

>  <PQ_SYMBOL>  (3096) 
Phe_4Ph_3F

>  <FULL_NAME>  (3096) 
(S)-2-amino-3-(3'-fluoro-[1,1'-biphenyl]-4-yl)propanoic acid

>  <IUPAC_CONDENSED>  (3096) 
Phe(4-Ph(3-F))

>  <IUPAC>  (3096) 
(2S)-2-amino-3-(4-(3-fluorophenyl)phenyl)propanoic acid

>  <TYPE>  (3096) 
Backbone

>  <CLASS>  (3096) 
alpha

>  <ANALOG>  (3096) 
Phe

>  <MOL_WT>  (3096) 
259.28

>  <LOGP>  (3096) 
2.4471

>  <TPSA>  (3096) 
63.32000000000001

>  <POPULARITY>  (3096) 
5.9

>  <PROTECTED>  (3096) 
TRUE

>  <SMILES>  (3096) 
N[C@@H](Cc1(ccc(cc1)c2(cccc(F)c2)))C(=O)O

>  <INCHIKEY>  (3096) 
FCQAZEOPLJJZBF-AWEZNQCLSA-N

$$$$
Phe_4Ph_3Me
     RDKit          2D

 19 20  0  0  0  0  0  0  0  0999 V2000
   -3.4758    1.7665    0.0000 N   0  0  0  0  0  0  0  0  0  0  0  0
   -4.1145    0.4093    0.0000 C   0  0  0  0  0  0  0  0  0  0  0  0
   -3.2584   -0.8224    0.0000 C   0  0  0  0  0  0  0  0  0  0  0  0
   -1.7637   -0.6969    0.0000 C   0  0  0  0  0  0  0  0  0  0  0  0
   -1.1250    0.6603    0.0000 C   0  0  0  0  0  0  0  0  0  0  0  0
    0.3698    0.7858    0.0000 C   0  0  0  0  0  0  0  0  0  0  0  0
    1.2258   -0.4460    0.0000 C   0  0  0  0  0  0  0  0  0  0  0  0
    0.5871   -1.8032    0.0000 C   0  0  0  0  0  0  0  0  0  0  0  0
   -0.9076   -1.9287    0.0000 C   0  0  0  0  0  0  0  0  0  0  0  0
    2.7206   -0.3205    0.0000 C   0  0  0  0  0  0  0  0  0  0  0  0
    3.5766   -1.5522    0.0000 C   0  0  0  0  0  0  0  0  0  0  0  0
    5.0713   -1.4268    0.0000 C   0  0  0  0  0  0  0  0  0  0  0  0
    5.7100   -0.0695    0.0000 C   0  0  0  0  0  0  0  0  0  0  0  0
    4.8540    1.1622    0.0000 C   0  0  0  0  0  0  0  0  0  0  0  0
    5.4927    2.5194    0.0000 C   0  0  0  0  0  0  0  0  0  0  0  0
    3.3593    1.0367    0.0000 C   0  0  0  0  0  0  0  0  0  0  0  0
   -5.6092    0.2838    0.0000 C   0  0  0  0  0  0  0  0  0  0  0  0
   -6.2479   -1.0734    0.0000 O   0  0  0  0  0  0  0  0  0  0  0  0
   -6.4652    1.5156    0.0000 O   0  0  0  0  0  0  0  0  0  0  0  0
  2  1  1  1
  2  3  1  0
  3  4  1  0
  4  5  1  0
  5  6  2  0
  6  7  1  0
  7  8  2  0
  8  9  1  0
  7 10  1  0
 10 11  2  0
 11 12  1  0
 12 13  2  0
 13 14  1  0
 14 15  1  0
 14 16  2  0
  2 17  1  0
 17 18  2  0
 17 19  1  0
  9  4  2  0
 16 10  1  0
M  END
>  <rName>  (3097) 
Phe_4Ph_3Me

>  <PQ_SYMBOL>  (3097) 
Phe_4Ph_3Me

>  <FULL_NAME>  (3097) 
4-(3-Methylphenyl)-L-phenylalanine

>  <IUPAC_CONDENSED>  (3097) 
Phe(4-Ph(3-Me))

>  <IUPAC>  (3097) 
(2S)-2-amino-3-[4-(3-methylphenyl)phenyl]propanoic acid

>  <TYPE>  (3097) 
Backbone

>  <CLASS>  (3097) 
alpha

>  <ANALOG>  (3097) 
Phe

>  <MOL_WT>  (3097) 
255.31699999999998

>  <LOGP>  (3097) 
2.6164200000000006

>  <TPSA>  (3097) 
63.32000000000001

>  <POPULARITY>  (3097) 
2.2

>  <PROTECTED>  (3097) 
TRUE

>  <SMILES>  (3097) 
N[C@@H](Cc1(ccc(cc1)c2(cccc(C)c2)))C(=O)O

>  <INCHIKEY>  (3097) 
KNGPCDWTKTUSBB-HNNXBMFYSA-N

$$$$
Phe_4Ph_3NO2
     RDKit          2D

 21 22  0  0  0  0  0  0  0  0999 V2000
    3.8626   -1.8583    0.0000 N   0  0  0  0  0  0  0  0  0  0  0  0
    4.6340   -0.5718    0.0000 C   0  0  0  0  0  0  0  0  0  0  0  0
    3.9057    0.7395    0.0000 C   0  0  0  0  0  0  0  0  0  0  0  0
    2.4059    0.7644    0.0000 C   0  0  0  0  0  0  0  0  0  0  0  0
    1.6344   -0.5221    0.0000 C   0  0  0  0  0  0  0  0  0  0  0  0
    0.1346   -0.4972    0.0000 C   0  0  0  0  0  0  0  0  0  0  0  0
   -0.5937    0.8141    0.0000 C   0  0  0  0  0  0  0  0  0  0  0  0
    0.1777    2.1005    0.0000 C   0  0  0  0  0  0  0  0  0  0  0  0
    1.6775    2.0757    0.0000 C   0  0  0  0  0  0  0  0  0  0  0  0
   -2.0935    0.8390    0.0000 C   0  0  0  0  0  0  0  0  0  0  0  0
   -2.8219    2.1503    0.0000 C   0  0  0  0  0  0  0  0  0  0  0  0
   -4.3216    2.1752    0.0000 C   0  0  0  0  0  0  0  0  0  0  0  0
   -5.0931    0.8888    0.0000 C   0  0  0  0  0  0  0  0  0  0  0  0
   -4.3648   -0.4225    0.0000 C   0  0  0  0  0  0  0  0  0  0  0  0
   -2.8650   -0.4474    0.0000 C   0  0  0  0  0  0  0  0  0  0  0  0
   -5.1362   -1.7089    0.0000 N   0  0  0  0  0  0  0  0  0  0  0  0
   -4.4079   -3.0202    0.0000 O   0  0  0  0  0  0  0  0  0  0  0  0
   -6.6360   -1.6840    0.0000 O   0  0  0  0  0  0  0  0  0  0  0  0
    6.1338   -0.5967    0.0000 C   0  0  0  0  0  0  0  0  0  0  0  0
    6.9053    0.6897    0.0000 O   0  0  0  0  0  0  0  0  0  0  0  0
    6.8621   -1.9080    0.0000 O   0  0  0  0  0  0  0  0  0  0  0  0
  2  1  1  1
  2  3  1  0
  3  4  1  0
  4  5  1  0
  5  6  2  0
  6  7  1  0
  7  8  2  0
  8  9  1  0
  7 10  1  0
 10 11  1  0
 11 12  2  0
 12 13  1  0
 13 14  2  0
 14 15  1  0
 14 16  1  0
 16 17  2  0
 16 18  1  0
  2 19  1  0
 19 20  2  0
 19 21  1  0
  9  4  2  0
 15 10  2  0
M  CHG  2  16   1  18  -1
M  END
>  <rName>  (3098) 
Phe_4Ph_3NO2

>  <PQ_SYMBOL>  (3098) 
Phe_4Ph_3NO2

>  <FULL_NAME>  (3098) 
Phe(4-Ph(3-NO2))

>  <IUPAC_CONDENSED>  (3098) 
Phe(4-Ph(3-NO2))

>  <IUPAC>  (3098) 
(2S)-2-amino-3-(4-(3-nitrophenyl)phenyl)propanoic acid

>  <TYPE>  (3098) 
Backbone

>  <CLASS>  (3098) 
alpha

>  <ANALOG>  (3098) 
Phe

>  <MOL_WT>  (3098) 
286.287

>  <LOGP>  (3098) 
2.2161999999999997

>  <TPSA>  (3098) 
106.46

>  <POPULARITY>  (3098) 
2.2

>  <PROTECTED>  (3098) 
TRUE

>  <SMILES>  (3098) 
N[C@@H](Cc1(ccc(cc1)c2(cccc(c2)[N+](=O)[O-])))C(=O)O

>  <INCHIKEY>  (3098) 
QNWLMHUGWVFACL-AWEZNQCLSA-N

$$$$
Phe_4Ph_3OEt
     RDKit          2D

 21 22  0  0  0  0  0  0  0  0999 V2000
    3.9593   -1.9568    0.0000 N   0  0  0  0  0  0  0  0  0  0  0  0
    4.7616   -0.6894    0.0000 C   0  0  0  0  0  0  0  0  0  0  0  0
    4.0651    0.6391    0.0000 C   0  0  0  0  0  0  0  0  0  0  0  0
    2.5664    0.7002    0.0000 C   0  0  0  0  0  0  0  0  0  0  0  0
    1.7641   -0.5672    0.0000 C   0  0  0  0  0  0  0  0  0  0  0  0
    0.2653   -0.5061    0.0000 C   0  0  0  0  0  0  0  0  0  0  0  0
   -0.4311    0.8224    0.0000 C   0  0  0  0  0  0  0  0  0  0  0  0
    0.3712    2.0898    0.0000 C   0  0  0  0  0  0  0  0  0  0  0  0
    1.8699    2.0287    0.0000 C   0  0  0  0  0  0  0  0  0  0  0  0
   -1.9299    0.8835    0.0000 C   0  0  0  0  0  0  0  0  0  0  0  0
   -2.6263    2.2120    0.0000 C   0  0  0  0  0  0  0  0  0  0  0  0
   -4.1251    2.2732    0.0000 C   0  0  0  0  0  0  0  0  0  0  0  0
   -4.9274    1.0058    0.0000 C   0  0  0  0  0  0  0  0  0  0  0  0
   -4.2309   -0.3228    0.0000 C   0  0  0  0  0  0  0  0  0  0  0  0
   -5.0333   -1.5902    0.0000 O   0  0  0  0  0  0  0  0  0  0  0  0
   -6.5320   -1.5290    0.0000 C   0  0  0  0  0  0  0  0  0  0  0  0
   -7.3343   -2.7964    0.0000 C   0  0  0  0  0  0  0  0  0  0  0  0
   -2.7322   -0.3839    0.0000 C   0  0  0  0  0  0  0  0  0  0  0  0
    6.2603   -0.7506    0.0000 C   0  0  0  0  0  0  0  0  0  0  0  0
    7.0626    0.5168    0.0000 O   0  0  0  0  0  0  0  0  0  0  0  0
    6.9568   -2.0791    0.0000 O   0  0  0  0  0  0  0  0  0  0  0  0
  2  1  1  1
  2  3  1  0
  3  4  1  0
  4  5  1  0
  5  6  2  0
  6  7  1  0
  7  8  2  0
  8  9  1  0
  7 10  1  0
 10 11  2  0
 11 12  1  0
 12 13  2  0
 13 14  1  0
 14 15  1  0
 15 16  1  0
 16 17  1  0
 14 18  2  0
  2 19  1  0
 19 20  2  0
 19 21  1  0
  9  4  2  0
 18 10  1  0
M  END
>  <rName>  (3099) 
Phe_4Ph_3OEt

>  <PQ_SYMBOL>  (3099) 
Phe_4Ph_3OEt

>  <FULL_NAME>  (3099) 
Phe(4-Ph(3-OEt))

>  <IUPAC_CONDENSED>  (3099) 
Phe(4-Ph(3-OEt))

>  <IUPAC>  (3099) 
(2S)-2-amino-3-(4-(3-ethoxyphenyl)phenyl)propanoic acid

>  <TYPE>  (3099) 
Backbone

>  <CLASS>  (3099) 
alpha

>  <ANALOG>  (3099) 
Phe

>  <MOL_WT>  (3099) 
285.34299999999996

>  <LOGP>  (3099) 
2.7067000000000005

>  <TPSA>  (3099) 
72.55

>  <POPULARITY>  (3099) 
2.2

>  <PROTECTED>  (3099) 
TRUE

>  <SMILES>  (3099) 
N[C@@H](Cc1(ccc(cc1)c2(cccc(OCC)c2)))C(=O)O

>  <INCHIKEY>  (3099) 
QYHYCLONDLGKBA-INIZCTEOSA-N

$$$$
Phe_4Ph_3OMe
     RDKit          2D

 20 21  0  0  0  0  0  0  0  0999 V2000
   -3.7279    1.8454    0.0000 N   0  0  0  0  0  0  0  0  0  0  0  0
   -4.4414    0.5260    0.0000 C   0  0  0  0  0  0  0  0  0  0  0  0
   -3.6555   -0.7517    0.0000 C   0  0  0  0  0  0  0  0  0  0  0  0
   -2.1561   -0.7099    0.0000 C   0  0  0  0  0  0  0  0  0  0  0  0
   -1.4425    0.6096    0.0000 C   0  0  0  0  0  0  0  0  0  0  0  0
    0.0569    0.6514    0.0000 C   0  0  0  0  0  0  0  0  0  0  0  0
    0.8428   -0.6263    0.0000 C   0  0  0  0  0  0  0  0  0  0  0  0
    0.1293   -1.9457    0.0000 C   0  0  0  0  0  0  0  0  0  0  0  0
   -1.3702   -1.9875    0.0000 C   0  0  0  0  0  0  0  0  0  0  0  0
    2.3422   -0.5845    0.0000 C   0  0  0  0  0  0  0  0  0  0  0  0
    3.1281   -1.8621    0.0000 C   0  0  0  0  0  0  0  0  0  0  0  0
    4.6275   -1.8203    0.0000 C   0  0  0  0  0  0  0  0  0  0  0  0
    5.3410   -0.5009    0.0000 C   0  0  0  0  0  0  0  0  0  0  0  0
    4.5551    0.7767    0.0000 C   0  0  0  0  0  0  0  0  0  0  0  0
    5.2686    2.0962    0.0000 O   0  0  0  0  0  0  0  0  0  0  0  0
    6.7681    2.1380    0.0000 C   0  0  0  0  0  0  0  0  0  0  0  0
    3.0557    0.7349    0.0000 C   0  0  0  0  0  0  0  0  0  0  0  0
   -5.9408    0.4842    0.0000 C   0  0  0  0  0  0  0  0  0  0  0  0
   -6.6543   -0.8353    0.0000 O   0  0  0  0  0  0  0  0  0  0  0  0
   -6.7267    1.7618    0.0000 O   0  0  0  0  0  0  0  0  0  0  0  0
  2  1  1  1
  2  3  1  0
  3  4  1  0
  4  5  1  0
  5  6  2  0
  6  7  1  0
  7  8  2  0
  8  9  1  0
  7 10  1  0
 10 11  2  0
 11 12  1  0
 12 13  2  0
 13 14  1  0
 14 15  1  0
 15 16  1  0
 14 17  2  0
  2 18  1  0
 18 19  2  0
 18 20  1  0
  9  4  2  0
 17 10  1  0
M  END
>  <rName>  (3100) 
Phe_4Ph_3OMe

>  <PQ_SYMBOL>  (3100) 
Phe_4Ph_3OMe

>  <FULL_NAME>  (3100) 
(2S)-2-amino-3-[4-(3-methoxyphenyl)phenyl]propanoic acid

>  <IUPAC_CONDENSED>  (3100) 
Phe(4-Ph(3-OMe))

>  <IUPAC>  (3100) 
(2S)-2-amino-3-(4-(3-methoxyphenyl)phenyl)propanoic acid

>  <TYPE>  (3100) 
Backbone

>  <CLASS>  (3100) 
alpha

>  <ANALOG>  (3100) 
Phe

>  <MOL_WT>  (3100) 
271.316

>  <LOGP>  (3100) 
2.3166

>  <TPSA>  (3100) 
72.55

>  <POPULARITY>  (3100) 
9.0

>  <PROTECTED>  (3100) 
TRUE

>  <SMILES>  (3100) 
N[C@@H](Cc1(ccc(cc1)c2(cccc(OC)c2)))C(=O)O

>  <INCHIKEY>  (3100) 
FREFJQVVDGOAQX-HNNXBMFYSA-N

$$$$
Phe_4Ph_4CF3
     RDKit          2D

 22 23  0  0  0  0  0  0  0  0999 V2000
   -4.6404    1.7727    0.0000 N   0  0  0  0  0  0  0  0  0  0  0  0
   -5.2518    0.4030    0.0000 C   0  0  0  0  0  0  0  0  0  0  0  0
   -4.3713   -0.8114    0.0000 C   0  0  0  0  0  0  0  0  0  0  0  0
   -2.8794   -0.6560    0.0000 C   0  0  0  0  0  0  0  0  0  0  0  0
   -2.2679    0.7137    0.0000 C   0  0  0  0  0  0  0  0  0  0  0  0
   -0.7760    0.8691    0.0000 C   0  0  0  0  0  0  0  0  0  0  0  0
    0.1045   -0.3453    0.0000 C   0  0  0  0  0  0  0  0  0  0  0  0
   -0.5069   -1.7150    0.0000 C   0  0  0  0  0  0  0  0  0  0  0  0
   -1.9988   -1.8704    0.0000 C   0  0  0  0  0  0  0  0  0  0  0  0
    1.5964   -0.1900    0.0000 C   0  0  0  0  0  0  0  0  0  0  0  0
    2.4770   -1.4043    0.0000 C   0  0  0  0  0  0  0  0  0  0  0  0
    3.9689   -1.2490    0.0000 C   0  0  0  0  0  0  0  0  0  0  0  0
    4.5803    0.1208    0.0000 C   0  0  0  0  0  0  0  0  0  0  0  0
    3.6998    1.3351    0.0000 C   0  0  0  0  0  0  0  0  0  0  0  0
    2.2079    1.1798    0.0000 C   0  0  0  0  0  0  0  0  0  0  0  0
    6.0722    0.2761    0.0000 C   0  0  0  0  0  0  0  0  0  0  0  0
    7.5642    0.4315    0.0000 F   0  0  0  0  0  0  0  0  0  0  0  0
    6.2276   -1.2158    0.0000 F   0  0  0  0  0  0  0  0  0  0  0  0
    5.9169    1.7681    0.0000 F   0  0  0  0  0  0  0  0  0  0  0  0
   -6.7437    0.2476    0.0000 C   0  0  0  0  0  0  0  0  0  0  0  0
   -7.3552   -1.1221    0.0000 O   0  0  0  0  0  0  0  0  0  0  0  0
   -7.6243    1.4620    0.0000 O   0  0  0  0  0  0  0  0  0  0  0  0
  2  1  1  1
  2  3  1  0
  3  4  1  0
  4  5  1  0
  5  6  2  0
  6  7  1  0
  7  8  2  0
  8  9  1  0
  7 10  1  0
 10 11  1  0
 11 12  2  0
 12 13  1  0
 13 14  2  0
 14 15  1  0
 13 16  1  0
 16 17  1  0
 16 18  1  0
 16 19  1  0
  2 20  1  0
 20 21  2  0
 20 22  1  0
  9  4  2  0
 15 10  2  0
M  END
>  <rName>  (3101) 
Phe_4Ph_4CF3

>  <PQ_SYMBOL>  (3101) 
Phe_4Ph_4CF3

>  <FULL_NAME>  (3101) 
(2S)-2-amino-3-[4-[4-(trifluoromethyl)phenyl]phenyl]propanoic acid

>  <IUPAC_CONDENSED>  (3101) 
Phe(4-Ph(4-CF3))

>  <IUPAC>  (3101) 
(2S)-2-amino-3-[4-[4-(trifluoromethyl)phenyl]phenyl]propanoic acid

>  <TYPE>  (3101) 
Backbone

>  <CLASS>  (3101) 
alpha

>  <ANALOG>  (3101) 
Phe

>  <MOL_WT>  (3101) 
309.28700000000003

>  <LOGP>  (3101) 
3.3268000000000013

>  <TPSA>  (3101) 
63.32000000000001

>  <POPULARITY>  (3101) 
2.2

>  <PROTECTED>  (3101) 
TRUE

>  <SMILES>  (3101) 
N[C@@H](Cc1(ccc(cc1)c2(ccc(cc2)C(F)(F)F)))C(=O)O

>  <INCHIKEY>  (3101) 
NENDMBAVBFAWHY-AWEZNQCLSA-N

$$$$
Phe_4Ph_4Cl
     RDKit          2D

 19 20  0  0  0  0  0  0  0  0999 V2000
   -3.6454    1.7385    0.0000 N   0  0  0  0  0  0  0  0  0  0  0  0
   -4.2241    0.3546    0.0000 C   0  0  0  0  0  0  0  0  0  0  0  0
   -3.3150   -0.8385    0.0000 C   0  0  0  0  0  0  0  0  0  0  0  0
   -1.8272   -0.6478    0.0000 C   0  0  0  0  0  0  0  0  0  0  0  0
   -1.2485    0.7361    0.0000 C   0  0  0  0  0  0  0  0  0  0  0  0
    0.2394    0.9268    0.0000 C   0  0  0  0  0  0  0  0  0  0  0  0
    1.1485   -0.2664    0.0000 C   0  0  0  0  0  0  0  0  0  0  0  0
    0.5697   -1.6502    0.0000 C   0  0  0  0  0  0  0  0  0  0  0  0
   -0.9181   -1.8409    0.0000 C   0  0  0  0  0  0  0  0  0  0  0  0
    2.6363   -0.0757    0.0000 C   0  0  0  0  0  0  0  0  0  0  0  0
    3.5454   -1.2688    0.0000 C   0  0  0  0  0  0  0  0  0  0  0  0
    5.0332   -1.0781    0.0000 C   0  0  0  0  0  0  0  0  0  0  0  0
    5.6119    0.3058    0.0000 C   0  0  0  0  0  0  0  0  0  0  0  0
    7.0998    0.4965    0.0000 Cl  0  0  0  0  0  0  0  0  0  0  0  0
    4.7029    1.4989    0.0000 C   0  0  0  0  0  0  0  0  0  0  0  0
    3.2150    1.3082    0.0000 C   0  0  0  0  0  0  0  0  0  0  0  0
   -5.7119    0.1639    0.0000 C   0  0  0  0  0  0  0  0  0  0  0  0
   -6.2907   -1.2199    0.0000 O   0  0  0  0  0  0  0  0  0  0  0  0
   -6.6210    1.3571    0.0000 O   0  0  0  0  0  0  0  0  0  0  0  0
  2  1  1  1
  2  3  1  0
  3  4  1  0
  4  5  1  0
  5  6  2  0
  6  7  1  0
  7  8  2  0
  8  9  1  0
  7 10  1  0
 10 11  1  0
 11 12  2  0
 12 13  1  0
 13 14  1  0
 13 15  2  0
 15 16  1  0
  2 17  1  0
 17 18  2  0
 17 19  1  0
  9  4  2  0
 16 10  2  0
M  END
>  <rName>  (3102) 
Phe_4Ph_4Cl

>  <PQ_SYMBOL>  (3102) 
Phe_4Ph_4Cl

>  <FULL_NAME>  (3102) 
(S)-2-amino-3-(4'-chloro-[1,1'-biphenyl]-4-yl)propanoic acid

>  <IUPAC_CONDENSED>  (3102) 
Phe(4-Ph(4-Cl))

>  <IUPAC>  (3102) 
(2S)-2-amino-3-(4-(4-chlorophenyl)phenyl)propanoic acid

>  <TYPE>  (3102) 
Backbone

>  <CLASS>  (3102) 
alpha

>  <ANALOG>  (3102) 
Phe

>  <MOL_WT>  (3102) 
275.735

>  <LOGP>  (3102) 
2.961400000000001

>  <TPSA>  (3102) 
63.32000000000001

>  <POPULARITY>  (3102) 
7.1

>  <PROTECTED>  (3102) 
TRUE

>  <SMILES>  (3102) 
N[C@@H](Cc1(ccc(cc1)c2(ccc(Cl)cc2)))C(=O)O

>  <INCHIKEY>  (3102) 
YNAJOMWNXOKORZ-AWEZNQCLSA-N

$$$$
Phe_4Ph_4Et
     RDKit          2D

 20 21  0  0  0  0  0  0  0  0999 V2000
   -4.0713    1.7141    0.0000 N   0  0  0  0  0  0  0  0  0  0  0  0
   -4.6297    0.3219    0.0000 C   0  0  0  0  0  0  0  0  0  0  0  0
   -3.7033   -0.8578    0.0000 C   0  0  0  0  0  0  0  0  0  0  0  0
   -2.2185   -0.6454    0.0000 C   0  0  0  0  0  0  0  0  0  0  0  0
   -1.6600    0.7467    0.0000 C   0  0  0  0  0  0  0  0  0  0  0  0
   -0.1751    0.9592    0.0000 C   0  0  0  0  0  0  0  0  0  0  0  0
    0.7513   -0.2206    0.0000 C   0  0  0  0  0  0  0  0  0  0  0  0
    0.1928   -1.6127    0.0000 C   0  0  0  0  0  0  0  0  0  0  0  0
   -1.2921   -1.8252    0.0000 C   0  0  0  0  0  0  0  0  0  0  0  0
    2.2362   -0.0082    0.0000 C   0  0  0  0  0  0  0  0  0  0  0  0
    3.1626   -1.1879    0.0000 C   0  0  0  0  0  0  0  0  0  0  0  0
    4.6475   -0.9755    0.0000 C   0  0  0  0  0  0  0  0  0  0  0  0
    5.2060    0.4166    0.0000 C   0  0  0  0  0  0  0  0  0  0  0  0
    4.2796    1.5964    0.0000 C   0  0  0  0  0  0  0  0  0  0  0  0
    2.7947    1.3840    0.0000 C   0  0  0  0  0  0  0  0  0  0  0  0
    6.6908    0.6291    0.0000 C   0  0  0  0  0  0  0  0  0  0  0  0
    7.6172   -0.5507    0.0000 C   0  0  0  0  0  0  0  0  0  0  0  0
   -6.1146    0.1095    0.0000 C   0  0  0  0  0  0  0  0  0  0  0  0
   -6.6731   -1.2827    0.0000 O   0  0  0  0  0  0  0  0  0  0  0  0
   -7.0410    1.2892    0.0000 O   0  0  0  0  0  0  0  0  0  0  0  0
  2  1  1  1
  2  3  1  0
  3  4  1  0
  4  5  1  0
  5  6  2  0
  6  7  1  0
  7  8  2  0
  8  9  1  0
  7 10  1  0
 10 11  1  0
 11 12  2  0
 12 13  1  0
 13 14  2  0
 14 15  1  0
 13 16  1  0
 16 17  1  0
  2 18  1  0
 18 19  2  0
 18 20  1  0
  9  4  2  0
 15 10  2  0
M  END
>  <rName>  (3103) 
Phe_4Ph_4Et

>  <PQ_SYMBOL>  (3103) 
Phe_4Ph_4Et

>  <FULL_NAME>  (3103) 
(S)-2-amino-3-(4'-ethyl-[1,1'-biphenyl]-4-yl)propanoic acid

>  <IUPAC_CONDENSED>  (3103) 
Phe(4-Ph(4-Et))

>  <IUPAC>  (3103) 
(2S)-2-amino-3-(4-(4-ethylphenyl)phenyl)propanoic acid

>  <TYPE>  (3103) 
Backbone

>  <CLASS>  (3103) 
alpha

>  <ANALOG>  (3103) 
Phe

>  <MOL_WT>  (3103) 
269.34399999999994

>  <LOGP>  (3103) 
2.870400000000001

>  <TPSA>  (3103) 
63.32000000000001

>  <POPULARITY>  (3103) 
4.7

>  <PROTECTED>  (3103) 
TRUE

>  <SMILES>  (3103) 
N[C@@H](Cc1(ccc(cc1)c2(ccc(cc2)CC)))C(=O)O

>  <INCHIKEY>  (3103) 
NOUZOIQUNLAZBG-INIZCTEOSA-N

$$$$
Phe_4Ph_4F
     RDKit          2D

 19 20  0  0  0  0  0  0  0  0999 V2000
   -3.6454    1.7385    0.0000 N   0  0  0  0  0  0  0  0  0  0  0  0
   -4.2241    0.3546    0.0000 C   0  0  0  0  0  0  0  0  0  0  0  0
   -3.3150   -0.8385    0.0000 C   0  0  0  0  0  0  0  0  0  0  0  0
   -1.8272   -0.6478    0.0000 C   0  0  0  0  0  0  0  0  0  0  0  0
   -1.2485    0.7361    0.0000 C   0  0  0  0  0  0  0  0  0  0  0  0
    0.2394    0.9268    0.0000 C   0  0  0  0  0  0  0  0  0  0  0  0
    1.1485   -0.2664    0.0000 C   0  0  0  0  0  0  0  0  0  0  0  0
    0.5697   -1.6502    0.0000 C   0  0  0  0  0  0  0  0  0  0  0  0
   -0.9181   -1.8409    0.0000 C   0  0  0  0  0  0  0  0  0  0  0  0
    2.6363   -0.0757    0.0000 C   0  0  0  0  0  0  0  0  0  0  0  0
    3.5454   -1.2688    0.0000 C   0  0  0  0  0  0  0  0  0  0  0  0
    5.0332   -1.0781    0.0000 C   0  0  0  0  0  0  0  0  0  0  0  0
    5.6119    0.3058    0.0000 C   0  0  0  0  0  0  0  0  0  0  0  0
    7.0998    0.4965    0.0000 F   0  0  0  0  0  0  0  0  0  0  0  0
    4.7029    1.4989    0.0000 C   0  0  0  0  0  0  0  0  0  0  0  0
    3.2150    1.3082    0.0000 C   0  0  0  0  0  0  0  0  0  0  0  0
   -5.7119    0.1639    0.0000 C   0  0  0  0  0  0  0  0  0  0  0  0
   -6.2907   -1.2199    0.0000 O   0  0  0  0  0  0  0  0  0  0  0  0
   -6.6210    1.3571    0.0000 O   0  0  0  0  0  0  0  0  0  0  0  0
  2  1  1  1
  2  3  1  0
  3  4  1  0
  4  5  1  0
  5  6  2  0
  6  7  1  0
  7  8  2  0
  8  9  1  0
  7 10  1  0
 10 11  1  0
 11 12  2  0
 12 13  1  0
 13 14  1  0
 13 15  2  0
 15 16  1  0
  2 17  1  0
 17 18  2  0
 17 19  1  0
  9  4  2  0
 16 10  2  0
M  END
>  <rName>  (3104) 
Phe_4Ph_4F

>  <PQ_SYMBOL>  (3104) 
Phe_4Ph_4F

>  <FULL_NAME>  (3104) 
4-(4-fluorophenyl)-L-phenylalanine

>  <IUPAC_CONDENSED>  (3104) 
Phe(4-Ph(4-F))

>  <IUPAC>  (3104) 
(2S)-2-amino-3-(4-(4-fluorophenyl)phenyl)propanoic acid

>  <TYPE>  (3104) 
Backbone

>  <CLASS>  (3104) 
alpha

>  <ANALOG>  (3104) 
Phe

>  <MOL_WT>  (3104) 
259.28

>  <LOGP>  (3104) 
2.4471

>  <TPSA>  (3104) 
63.32000000000001

>  <POPULARITY>  (3104) 
7.4

>  <PROTECTED>  (3104) 
TRUE

>  <SMILES>  (3104) 
N[C@@H](Cc1(ccc(cc1)c2(ccc(F)cc2)))C(=O)O

>  <INCHIKEY>  (3104) 
ZHWJVPSCAHSSBQ-AWEZNQCLSA-N

$$$$
Phe_4Ph_4Me
     RDKit          2D

 19 20  0  0  0  0  0  0  0  0999 V2000
   -3.6454    1.7385    0.0000 N   0  0  0  0  0  0  0  0  0  0  0  0
   -4.2241    0.3546    0.0000 C   0  0  0  0  0  0  0  0  0  0  0  0
   -3.3150   -0.8385    0.0000 C   0  0  0  0  0  0  0  0  0  0  0  0
   -1.8272   -0.6478    0.0000 C   0  0  0  0  0  0  0  0  0  0  0  0
   -1.2485    0.7361    0.0000 C   0  0  0  0  0  0  0  0  0  0  0  0
    0.2394    0.9268    0.0000 C   0  0  0  0  0  0  0  0  0  0  0  0
    1.1485   -0.2664    0.0000 C   0  0  0  0  0  0  0  0  0  0  0  0
    0.5697   -1.6502    0.0000 C   0  0  0  0  0  0  0  0  0  0  0  0
   -0.9181   -1.8409    0.0000 C   0  0  0  0  0  0  0  0  0  0  0  0
    2.6363   -0.0757    0.0000 C   0  0  0  0  0  0  0  0  0  0  0  0
    3.5454   -1.2688    0.0000 C   0  0  0  0  0  0  0  0  0  0  0  0
    5.0332   -1.0781    0.0000 C   0  0  0  0  0  0  0  0  0  0  0  0
    5.6119    0.3058    0.0000 C   0  0  0  0  0  0  0  0  0  0  0  0
    7.0998    0.4965    0.0000 C   0  0  0  0  0  0  0  0  0  0  0  0
    4.7029    1.4989    0.0000 C   0  0  0  0  0  0  0  0  0  0  0  0
    3.2150    1.3082    0.0000 C   0  0  0  0  0  0  0  0  0  0  0  0
   -5.7119    0.1639    0.0000 C   0  0  0  0  0  0  0  0  0  0  0  0
   -6.2907   -1.2199    0.0000 O   0  0  0  0  0  0  0  0  0  0  0  0
   -6.6210    1.3571    0.0000 O   0  0  0  0  0  0  0  0  0  0  0  0
  2  1  1  1
  2  3  1  0
  3  4  1  0
  4  5  1  0
  5  6  2  0
  6  7  1  0
  7  8  2  0
  8  9  1  0
  7 10  1  0
 10 11  1  0
 11 12  2  0
 12 13  1  0
 13 14  1  0
 13 15  2  0
 15 16  1  0
  2 17  1  0
 17 18  2  0
 17 19  1  0
  9  4  2  0
 16 10  2  0
M  END
>  <rName>  (3105) 
Phe_4Ph_4Me

>  <PQ_SYMBOL>  (3105) 
Phe_4Ph_4Me

>  <FULL_NAME>  (3105) 
4-(4-Methylphenyl)-L-phenylalanine

>  <IUPAC_CONDENSED>  (3105) 
Phe(4-Ph(4-Me))

>  <IUPAC>  (3105) 
(2S)-2-amino-3-[4-(4-methylphenyl)phenyl]propanoic acid

>  <TYPE>  (3105) 
Backbone

>  <CLASS>  (3105) 
alpha

>  <ANALOG>  (3105) 
Phe

>  <MOL_WT>  (3105) 
255.31699999999998

>  <LOGP>  (3105) 
2.6164200000000006

>  <TPSA>  (3105) 
63.32000000000001

>  <POPULARITY>  (3105) 
2.2

>  <PROTECTED>  (3105) 
TRUE

>  <SMILES>  (3105) 
N[C@@H](Cc1(ccc(cc1)c2(ccc(C)cc2)))C(=O)O

>  <INCHIKEY>  (3105) 
QGHWUXHTBOODPJ-HNNXBMFYSA-N

$$$$
Phe_4Ph_4NHAc
     RDKit          2D

 22 23  0  0  0  0  0  0  0  0999 V2000
   -8.3708   -0.0285    0.0000 C   0  0  0  0  0  0  0  0  0  0  0  0
   -6.8933    0.2305    0.0000 C   0  0  0  0  0  0  0  0  0  0  0  0
   -6.3788    1.6395    0.0000 O   0  0  0  0  0  0  0  0  0  0  0  0
   -5.9303   -0.9196    0.0000 N   0  0  0  0  0  0  0  0  0  0  0  0
   -4.4528   -0.6606    0.0000 C   0  0  0  0  0  0  0  0  0  0  0  0
   -3.9384    0.7484    0.0000 C   0  0  0  0  0  0  0  0  0  0  0  0
   -2.4609    1.0074    0.0000 C   0  0  0  0  0  0  0  0  0  0  0  0
   -1.4979   -0.1427    0.0000 C   0  0  0  0  0  0  0  0  0  0  0  0
   -0.0204    0.1163    0.0000 C   0  0  0  0  0  0  0  0  0  0  0  0
    0.9426   -1.0337    0.0000 C   0  0  0  0  0  0  0  0  0  0  0  0
    2.4201   -0.7747    0.0000 C   0  0  0  0  0  0  0  0  0  0  0  0
    2.9346    0.6343    0.0000 C   0  0  0  0  0  0  0  0  0  0  0  0
    4.4120    0.8932    0.0000 C   0  0  0  0  0  0  0  0  0  0  0  0
    5.3751   -0.2568    0.0000 C   0  0  0  0  0  0  0  0  0  0  0  0
    4.8606   -1.6658    0.0000 N   0  0  0  0  0  0  0  0  0  0  0  0
    6.8525    0.0022    0.0000 C   0  0  0  0  0  0  0  0  0  0  0  0
    7.3670    1.4112    0.0000 O   0  0  0  0  0  0  0  0  0  0  0  0
    7.8155   -1.1479    0.0000 O   0  0  0  0  0  0  0  0  0  0  0  0
    1.9715    1.7843    0.0000 C   0  0  0  0  0  0  0  0  0  0  0  0
    0.4941    1.5253    0.0000 C   0  0  0  0  0  0  0  0  0  0  0  0
   -2.0123   -1.5517    0.0000 C   0  0  0  0  0  0  0  0  0  0  0  0
   -3.4898   -1.8106    0.0000 C   0  0  0  0  0  0  0  0  0  0  0  0
  1  2  1  0
  2  3  2  0
  2  4  1  0
  4  5  1  0
  5  6  1  0
  6  7  2  0
  7  8  1  0
  8  9  1  0
  9 10  1  0
 10 11  2  0
 11 12  1  0
 12 13  1  0
 13 14  1  0
 14 15  1  1
 14 16  1  0
 16 17  2  0
 16 18  1  0
 12 19  2  0
 19 20  1  0
  8 21  2  0
 21 22  1  0
 22  5  2  0
 20  9  2  0
M  END
>  <rName>  (3106) 
Phe_4Ph_4NHAc

>  <PQ_SYMBOL>  (3106) 
Phe_4Ph_4NHAc

>  <FULL_NAME>  (3106) 
Phe(4-Ph(4-NHAc))

>  <IUPAC_CONDENSED>  (3106) 
Phe(4-Ph(4-NHAc))

>  <IUPAC>  (3106) 
(2S)-2-amino-3-(4-(4-methylcarbonylaminophenyl)phenyl)propanoic acid

>  <TYPE>  (3106) 
Backbone

>  <CLASS>  (3106) 
alpha

>  <ANALOG>  (3106) 
Phe

>  <MOL_WT>  (3106) 
298.342

>  <LOGP>  (3106) 
2.2664

>  <TPSA>  (3106) 
92.42

>  <POPULARITY>  (3106) 
3.5

>  <PROTECTED>  (3106) 
TRUE

>  <SMILES>  (3106) 
CC(=O)Nc1ccc(-c2ccc(C[C@H](N)C(=O)O)cc2)cc1

>  <INCHIKEY>  (3106) 
YMFPRWQRWNRDHK-INIZCTEOSA-N

$$$$
Phe_4Ph_4NO2
     RDKit          2D

 21 22  0  0  0  0  0  0  0  0999 V2000
   -4.3588    1.7672    0.0000 N   0  0  0  0  0  0  0  0  0  0  0  0
   -4.9644    0.3949    0.0000 C   0  0  0  0  0  0  0  0  0  0  0  0
   -4.0787   -0.8157    0.0000 C   0  0  0  0  0  0  0  0  0  0  0  0
   -2.5874   -0.6540    0.0000 C   0  0  0  0  0  0  0  0  0  0  0  0
   -1.9819    0.7184    0.0000 C   0  0  0  0  0  0  0  0  0  0  0  0
   -0.4906    0.8801    0.0000 C   0  0  0  0  0  0  0  0  0  0  0  0
    0.3951   -0.3305    0.0000 C   0  0  0  0  0  0  0  0  0  0  0  0
   -0.2105   -1.7028    0.0000 C   0  0  0  0  0  0  0  0  0  0  0  0
   -1.7017   -1.8646    0.0000 C   0  0  0  0  0  0  0  0  0  0  0  0
    1.8863   -0.1687    0.0000 C   0  0  0  0  0  0  0  0  0  0  0  0
    2.7720   -1.3793    0.0000 C   0  0  0  0  0  0  0  0  0  0  0  0
    4.2633   -1.2176    0.0000 C   0  0  0  0  0  0  0  0  0  0  0  0
    4.8688    0.1548    0.0000 C   0  0  0  0  0  0  0  0  0  0  0  0
    3.9831    1.3654    0.0000 C   0  0  0  0  0  0  0  0  0  0  0  0
    2.4919    1.2036    0.0000 C   0  0  0  0  0  0  0  0  0  0  0  0
    6.3601    0.3165    0.0000 N   0  0  0  0  0  0  0  0  0  0  0  0
    6.9656    1.6889    0.0000 O   0  0  0  0  0  0  0  0  0  0  0  0
    7.2458   -0.8941    0.0000 O   0  0  0  0  0  0  0  0  0  0  0  0
   -6.4556    0.2331    0.0000 C   0  0  0  0  0  0  0  0  0  0  0  0
   -7.0612   -1.1392    0.0000 O   0  0  0  0  0  0  0  0  0  0  0  0
   -7.3413    1.4437    0.0000 O   0  0  0  0  0  0  0  0  0  0  0  0
  2  1  1  1
  2  3  1  0
  3  4  1  0
  4  5  1  0
  5  6  2  0
  6  7  1  0
  7  8  2  0
  8  9  1  0
  7 10  1  0
 10 11  1  0
 11 12  2  0
 12 13  1  0
 13 14  2  0
 14 15  1  0
 13 16  1  0
 16 17  2  0
 16 18  1  0
  2 19  1  0
 19 20  2  0
 19 21  1  0
  9  4  2  0
 15 10  2  0
M  CHG  2  16   1  18  -1
M  END
>  <rName>  (3107) 
Phe_4Ph_4NO2

>  <PQ_SYMBOL>  (3107) 
Phe_4Ph_4NO2

>  <FULL_NAME>  (3107) 
(S)-2-amino-3-(4'-nitro-[1,1'-biphenyl]-4-yl)propanoic acid

>  <IUPAC_CONDENSED>  (3107) 
Phe(4-Ph(4-NO2))

>  <IUPAC>  (3107) 
(2S)-2-amino-3-(4-(4-nitrophenyl)phenyl)propanoic acid

>  <TYPE>  (3107) 
Backbone

>  <CLASS>  (3107) 
alpha

>  <ANALOG>  (3107) 
Phe

>  <MOL_WT>  (3107) 
286.287

>  <LOGP>  (3107) 
2.2161999999999997

>  <TPSA>  (3107) 
106.46

>  <POPULARITY>  (3107) 
3.1

>  <PROTECTED>  (3107) 
TRUE

>  <SMILES>  (3107) 
N[C@@H](Cc1(ccc(cc1)c2(ccc(cc2)[N+](=O)[O-])))C(=O)O

>  <INCHIKEY>  (3107) 
YBTKBIVROPBGAT-AWEZNQCLSA-N

$$$$
Phe_4Ph_4OEt
     RDKit          2D

 21 22  0  0  0  0  0  0  0  0999 V2000
   -4.5161    1.7003    0.0000 N   0  0  0  0  0  0  0  0  0  0  0  0
   -5.0653    0.3044    0.0000 C   0  0  0  0  0  0  0  0  0  0  0  0
   -4.1311   -0.8691    0.0000 C   0  0  0  0  0  0  0  0  0  0  0  0
   -2.6477   -0.6469    0.0000 C   0  0  0  0  0  0  0  0  0  0  0  0
   -2.0984    0.7489    0.0000 C   0  0  0  0  0  0  0  0  0  0  0  0
   -0.6150    0.9712    0.0000 C   0  0  0  0  0  0  0  0  0  0  0  0
    0.3192   -0.2024    0.0000 C   0  0  0  0  0  0  0  0  0  0  0  0
   -0.2300   -1.5982    0.0000 C   0  0  0  0  0  0  0  0  0  0  0  0
   -1.7135   -1.8205    0.0000 C   0  0  0  0  0  0  0  0  0  0  0  0
    1.8027    0.0199    0.0000 C   0  0  0  0  0  0  0  0  0  0  0  0
    2.7369   -1.1537    0.0000 C   0  0  0  0  0  0  0  0  0  0  0  0
    4.2203   -0.9314    0.0000 C   0  0  0  0  0  0  0  0  0  0  0  0
    4.7696    0.4644    0.0000 C   0  0  0  0  0  0  0  0  0  0  0  0
    6.2530    0.6867    0.0000 O   0  0  0  0  0  0  0  0  0  0  0  0
    7.1872   -0.4869    0.0000 C   0  0  0  0  0  0  0  0  0  0  0  0
    8.6706   -0.2646    0.0000 C   0  0  0  0  0  0  0  0  0  0  0  0
    3.8353    1.6380    0.0000 C   0  0  0  0  0  0  0  0  0  0  0  0
    2.3519    1.4157    0.0000 C   0  0  0  0  0  0  0  0  0  0  0  0
   -6.5487    0.0822    0.0000 C   0  0  0  0  0  0  0  0  0  0  0  0
   -7.0980   -1.3137    0.0000 O   0  0  0  0  0  0  0  0  0  0  0  0
   -7.4830    1.2557    0.0000 O   0  0  0  0  0  0  0  0  0  0  0  0
  2  1  1  1
  2  3  1  0
  3  4  1  0
  4  5  1  0
  5  6  2  0
  6  7  1  0
  7  8  2  0
  8  9  1  0
  7 10  1  0
 10 11  1  0
 11 12  2  0
 12 13  1  0
 13 14  1  0
 14 15  1  0
 15 16  1  0
 13 17  2  0
 17 18  1  0
  2 19  1  0
 19 20  2  0
 19 21  1  0
  9  4  2  0
 18 10  2  0
M  END
>  <rName>  (3108) 
Phe_4Ph_4OEt

>  <PQ_SYMBOL>  (3108) 
Phe_4Ph_4OEt

>  <FULL_NAME>  (3108) 
Phe(4-Ph(4-OEt))

>  <IUPAC_CONDENSED>  (3108) 
Phe(4-Ph(4-OEt))

>  <IUPAC>  (3108) 
(2S)-2-amino-3-(4-(4-ethoxyphenyl)phenyl)propanoic acid

>  <TYPE>  (3108) 
Backbone

>  <CLASS>  (3108) 
alpha

>  <ANALOG>  (3108) 
Phe

>  <MOL_WT>  (3108) 
285.34299999999996

>  <LOGP>  (3108) 
2.7067000000000005

>  <TPSA>  (3108) 
72.55

>  <POPULARITY>  (3108) 
2.2

>  <PROTECTED>  (3108) 
TRUE

>  <SMILES>  (3108) 
N[C@@H](Cc1(ccc(cc1)c2(ccc(OCC)cc2)))C(=O)O

>  <INCHIKEY>  (3108) 
DIZANWBKRBQRHA-INIZCTEOSA-N

$$$$
Phe_4Ph_4OMe
     RDKit          2D

 20 21  0  0  0  0  0  0  0  0999 V2000
   -4.0713    1.7141    0.0000 N   0  0  0  0  0  0  0  0  0  0  0  0
   -4.6297    0.3219    0.0000 C   0  0  0  0  0  0  0  0  0  0  0  0
   -3.7033   -0.8578    0.0000 C   0  0  0  0  0  0  0  0  0  0  0  0
   -2.2185   -0.6454    0.0000 C   0  0  0  0  0  0  0  0  0  0  0  0
   -1.6600    0.7467    0.0000 C   0  0  0  0  0  0  0  0  0  0  0  0
   -0.1751    0.9592    0.0000 C   0  0  0  0  0  0  0  0  0  0  0  0
    0.7513   -0.2206    0.0000 C   0  0  0  0  0  0  0  0  0  0  0  0
    0.1928   -1.6127    0.0000 C   0  0  0  0  0  0  0  0  0  0  0  0
   -1.2921   -1.8252    0.0000 C   0  0  0  0  0  0  0  0  0  0  0  0
    2.2362   -0.0082    0.0000 C   0  0  0  0  0  0  0  0  0  0  0  0
    3.1626   -1.1879    0.0000 C   0  0  0  0  0  0  0  0  0  0  0  0
    4.6475   -0.9755    0.0000 C   0  0  0  0  0  0  0  0  0  0  0  0
    5.2060    0.4166    0.0000 C   0  0  0  0  0  0  0  0  0  0  0  0
    6.6908    0.6291    0.0000 O   0  0  0  0  0  0  0  0  0  0  0  0
    7.6172   -0.5507    0.0000 C   0  0  0  0  0  0  0  0  0  0  0  0
    4.2796    1.5964    0.0000 C   0  0  0  0  0  0  0  0  0  0  0  0
    2.7947    1.3840    0.0000 C   0  0  0  0  0  0  0  0  0  0  0  0
   -6.1146    0.1095    0.0000 C   0  0  0  0  0  0  0  0  0  0  0  0
   -6.6731   -1.2827    0.0000 O   0  0  0  0  0  0  0  0  0  0  0  0
   -7.0410    1.2892    0.0000 O   0  0  0  0  0  0  0  0  0  0  0  0
  2  1  1  1
  2  3  1  0
  3  4  1  0
  4  5  1  0
  5  6  2  0
  6  7  1  0
  7  8  2  0
  8  9  1  0
  7 10  1  0
 10 11  1  0
 11 12  2  0
 12 13  1  0
 13 14  1  0
 14 15  1  0
 13 16  2  0
 16 17  1  0
  2 18  1  0
 18 19  2  0
 18 20  1  0
  9  4  2  0
 17 10  2  0
M  END
>  <rName>  (3109) 
Phe_4Ph_4OMe

>  <PQ_SYMBOL>  (3109) 
Phe_4Ph_4OMe

>  <FULL_NAME>  (3109) 
(2S)-2-amino-3-[4-(4-methoxyphenyl)phenyl]propanoic acid

>  <IUPAC_CONDENSED>  (3109) 
Phe(4-Ph(4-OMe))

>  <IUPAC>  (3109) 
(2S)-2-amino-3-[4-(4-methoxyphenyl)phenyl]propanoic acid

>  <TYPE>  (3109) 
Backbone

>  <CLASS>  (3109) 
alpha

>  <ANALOG>  (3109) 
Phe

>  <MOL_WT>  (3109) 
271.316

>  <LOGP>  (3109) 
2.3166

>  <TPSA>  (3109) 
72.55

>  <POPULARITY>  (3109) 
2.2

>  <PROTECTED>  (3109) 
TRUE

>  <SMILES>  (3109) 
N[C@@H](Cc1(ccc(cc1)c2(ccc(OC)cc2)))C(=O)O

>  <INCHIKEY>  (3109) 
KBRNEOQEUIOUSL-HNNXBMFYSA-N

$$$$
Phe_4Ph_4Ph
     RDKit          2D

 24 26  0  0  0  0  0  0  0  0999 V2000
   -5.4265    1.8121    0.0000 N   0  0  0  0  0  0  0  0  0  0  0  0
   -6.0617    0.4533    0.0000 C   0  0  0  0  0  0  0  0  0  0  0  0
   -5.2024   -0.7763    0.0000 C   0  0  0  0  0  0  0  0  0  0  0  0
   -3.7080   -0.6469    0.0000 C   0  0  0  0  0  0  0  0  0  0  0  0
   -3.0728    0.7120    0.0000 C   0  0  0  0  0  0  0  0  0  0  0  0
   -1.5784    0.8413    0.0000 C   0  0  0  0  0  0  0  0  0  0  0  0
   -0.7192   -0.3882    0.0000 C   0  0  0  0  0  0  0  0  0  0  0  0
   -1.3544   -1.7471    0.0000 C   0  0  0  0  0  0  0  0  0  0  0  0
   -2.8488   -1.8764    0.0000 C   0  0  0  0  0  0  0  0  0  0  0  0
    0.7752   -0.2589    0.0000 C   0  0  0  0  0  0  0  0  0  0  0  0
    1.6344   -1.4884    0.0000 C   0  0  0  0  0  0  0  0  0  0  0  0
    3.1288   -1.3591    0.0000 C   0  0  0  0  0  0  0  0  0  0  0  0
    3.7640   -0.0002    0.0000 C   0  0  0  0  0  0  0  0  0  0  0  0
    2.9048    1.2293    0.0000 C   0  0  0  0  0  0  0  0  0  0  0  0
    1.4104    1.1000    0.0000 C   0  0  0  0  0  0  0  0  0  0  0  0
    5.2584    0.1292    0.0000 C   0  0  0  0  0  0  0  0  0  0  0  0
    6.1177   -1.1004    0.0000 C   0  0  0  0  0  0  0  0  0  0  0  0
    7.6121   -0.9710    0.0000 C   0  0  0  0  0  0  0  0  0  0  0  0
    8.2473    0.3879    0.0000 C   0  0  0  0  0  0  0  0  0  0  0  0
    7.3880    1.6174    0.0000 C   0  0  0  0  0  0  0  0  0  0  0  0
    5.8936    1.4880    0.0000 C   0  0  0  0  0  0  0  0  0  0  0  0
   -7.5561    0.3239    0.0000 C   0  0  0  0  0  0  0  0  0  0  0  0
   -8.1913   -1.0350    0.0000 O   0  0  0  0  0  0  0  0  0  0  0  0
   -8.4153    1.5534    0.0000 O   0  0  0  0  0  0  0  0  0  0  0  0
  2  1  1  1
  2  3  1  0
  3  4  1  0
  4  5  1  0
  5  6  2  0
  6  7  1  0
  7  8  2  0
  8  9  1  0
  7 10  1  0
 10 11  1  0
 11 12  2  0
 12 13  1  0
 13 14  2  0
 14 15  1  0
 13 16  1  0
 16 17  2  0
 17 18  1  0
 18 19  2  0
 19 20  1  0
 20 21  2  0
  2 22  1  0
 22 23  2  0
 22 24  1  0
  9  4  2  0
 15 10  2  0
 21 16  1  0
M  END
>  <rName>  (3110) 
Phe_4Ph_4Ph

>  <PQ_SYMBOL>  (3110) 
Phe_4Ph_4Ph

>  <FULL_NAME>  (3110) 
(2S)-2-amino-3-[4-(4-phenylphenyl)phenyl]propanoic acid

>  <IUPAC_CONDENSED>  (3110) 
Phe(4-Ph(4-Ph))

>  <IUPAC>  (3110) 
(2S)-2-amino-3-(4-(4-phenylphenyl)phenyl)propanoic acid

>  <TYPE>  (3110) 
Backbone

>  <CLASS>  (3110) 
alpha

>  <ANALOG>  (3110) 
Phe

>  <MOL_WT>  (3110) 
317.38800000000003

>  <LOGP>  (3110) 
3.9750000000000023

>  <TPSA>  (3110) 
63.32000000000001

>  <POPULARITY>  (3110) 
5.8

>  <PROTECTED>  (3110) 
TRUE

>  <SMILES>  (3110) 
N[C@@H](Cc1(ccc(cc1)c2(ccc(cc2)c3(ccccc3))))C(=O)O

>  <INCHIKEY>  (3110) 
VVJSFKRZWZKXLP-FQEVSTJZSA-N

$$$$
Phe_4Ph_4Pr
     RDKit          2D

 21 22  0  0  0  0  0  0  0  0999 V2000
   -4.5161    1.7003    0.0000 N   0  0  0  0  0  0  0  0  0  0  0  0
   -5.0653    0.3044    0.0000 C   0  0  0  0  0  0  0  0  0  0  0  0
   -4.1311   -0.8691    0.0000 C   0  0  0  0  0  0  0  0  0  0  0  0
   -2.6477   -0.6469    0.0000 C   0  0  0  0  0  0  0  0  0  0  0  0
   -2.0984    0.7489    0.0000 C   0  0  0  0  0  0  0  0  0  0  0  0
   -0.6150    0.9712    0.0000 C   0  0  0  0  0  0  0  0  0  0  0  0
    0.3192   -0.2024    0.0000 C   0  0  0  0  0  0  0  0  0  0  0  0
   -0.2300   -1.5982    0.0000 C   0  0  0  0  0  0  0  0  0  0  0  0
   -1.7135   -1.8205    0.0000 C   0  0  0  0  0  0  0  0  0  0  0  0
    1.8027    0.0199    0.0000 C   0  0  0  0  0  0  0  0  0  0  0  0
    2.7369   -1.1537    0.0000 C   0  0  0  0  0  0  0  0  0  0  0  0
    4.2203   -0.9314    0.0000 C   0  0  0  0  0  0  0  0  0  0  0  0
    4.7696    0.4644    0.0000 C   0  0  0  0  0  0  0  0  0  0  0  0
    3.8353    1.6380    0.0000 C   0  0  0  0  0  0  0  0  0  0  0  0
    2.3519    1.4157    0.0000 C   0  0  0  0  0  0  0  0  0  0  0  0
    6.2530    0.6867    0.0000 C   0  0  0  0  0  0  0  0  0  0  0  0
    7.1872   -0.4869    0.0000 C   0  0  0  0  0  0  0  0  0  0  0  0
    8.6706   -0.2646    0.0000 C   0  0  0  0  0  0  0  0  0  0  0  0
   -6.5487    0.0822    0.0000 C   0  0  0  0  0  0  0  0  0  0  0  0
   -7.0980   -1.3137    0.0000 O   0  0  0  0  0  0  0  0  0  0  0  0
   -7.4830    1.2557    0.0000 O   0  0  0  0  0  0  0  0  0  0  0  0
  2  1  1  1
  2  3  1  0
  3  4  1  0
  4  5  1  0
  5  6  2  0
  6  7  1  0
  7  8  2  0
  8  9  1  0
  7 10  1  0
 10 11  1  0
 11 12  2  0
 12 13  1  0
 13 14  2  0
 14 15  1  0
 13 16  1  0
 16 17  1  0
 17 18  1  0
  2 19  1  0
 19 20  2  0
 19 21  1  0
  9  4  2  0
 15 10  2  0
M  END
>  <rName>  (3111) 
Phe_4Ph_4Pr

>  <PQ_SYMBOL>  (3111) 
Phe_4Ph_4Pr

>  <FULL_NAME>  (3111) 
(S)-2-amino-3-(4'-propyl-[1,1'-biphenyl]-4-yl)propanoic acid

>  <IUPAC_CONDENSED>  (3111) 
Phe(4-Ph(4-Pr))

>  <IUPAC>  (3111) 
(2S)-2-amino-3-(4-(4-propylphenyl)phenyl)propanoic acid

>  <TYPE>  (3111) 
Backbone

>  <CLASS>  (3111) 
alpha

>  <ANALOG>  (3111) 
Phe

>  <MOL_WT>  (3111) 
283.371

>  <LOGP>  (3111) 
3.2605000000000013

>  <TPSA>  (3111) 
63.32000000000001

>  <POPULARITY>  (3111) 
4.6

>  <PROTECTED>  (3111) 
TRUE

>  <SMILES>  (3111) 
N[C@@H](Cc1(ccc(cc1)c2(ccc(cc2)CCC)))C(=O)O

>  <INCHIKEY>  (3111) 
ZKXHZKIBVJODSY-KRWDZBQOSA-N

$$$$
Phe_4Ph_4pentyl
     RDKit          2D

 23 24  0  0  0  0  0  0  0  0999 V2000
   -5.4826    1.6024    0.0000 N   0  0  0  0  0  0  0  0  0  0  0  0
   -5.9769    0.1862    0.0000 C   0  0  0  0  0  0  0  0  0  0  0  0
   -4.9975   -0.9500    0.0000 C   0  0  0  0  0  0  0  0  0  0  0  0
   -3.5239   -0.6698    0.0000 C   0  0  0  0  0  0  0  0  0  0  0  0
   -3.0296    0.7464    0.0000 C   0  0  0  0  0  0  0  0  0  0  0  0
   -1.5560    1.0265    0.0000 C   0  0  0  0  0  0  0  0  0  0  0  0
   -0.5766   -0.1096    0.0000 C   0  0  0  0  0  0  0  0  0  0  0  0
   -1.0709   -1.5259    0.0000 C   0  0  0  0  0  0  0  0  0  0  0  0
   -2.5445   -1.8060    0.0000 C   0  0  0  0  0  0  0  0  0  0  0  0
    0.8970    0.1705    0.0000 C   0  0  0  0  0  0  0  0  0  0  0  0
    1.8764   -0.9656    0.0000 C   0  0  0  0  0  0  0  0  0  0  0  0
    3.3500   -0.6855    0.0000 C   0  0  0  0  0  0  0  0  0  0  0  0
    3.8442    0.7307    0.0000 C   0  0  0  0  0  0  0  0  0  0  0  0
    2.8648    1.8669    0.0000 C   0  0  0  0  0  0  0  0  0  0  0  0
    1.3912    1.5867    0.0000 C   0  0  0  0  0  0  0  0  0  0  0  0
    5.3178    1.0109    0.0000 C   0  0  0  0  0  0  0  0  0  0  0  0
    6.2972   -0.1253    0.0000 C   0  0  0  0  0  0  0  0  0  0  0  0
    7.7708    0.1548    0.0000 C   0  0  0  0  0  0  0  0  0  0  0  0
    8.7502   -0.9813    0.0000 C   0  0  0  0  0  0  0  0  0  0  0  0
   10.2238   -0.7012    0.0000 C   0  0  0  0  0  0  0  0  0  0  0  0
   -7.4505   -0.0939    0.0000 C   0  0  0  0  0  0  0  0  0  0  0  0
   -7.9447   -1.5102    0.0000 O   0  0  0  0  0  0  0  0  0  0  0  0
   -8.4299    1.0422    0.0000 O   0  0  0  0  0  0  0  0  0  0  0  0
  2  1  1  1
  2  3  1  0
  3  4  1  0
  4  5  1  0
  5  6  2  0
  6  7  1  0
  7  8  2  0
  8  9  1  0
  7 10  1  0
 10 11  1  0
 11 12  2  0
 12 13  1  0
 13 14  2  0
 14 15  1  0
 13 16  1  0
 16 17  1  0
 17 18  1  0
 18 19  1  0
 19 20  1  0
  2 21  1  0
 21 22  2  0
 21 23  1  0
  9  4  2  0
 15 10  2  0
M  END
>  <rName>  (3112) 
Phe_4Ph_4pentyl

>  <PQ_SYMBOL>  (3112) 
Phe_4Ph_4pentyl

>  <FULL_NAME>  (3112) 
(S)-2-amino-3-(4'-pentyl-[1,1'-biphenyl]-4-yl)propanoic acid

>  <IUPAC_CONDENSED>  (3112) 
Phe(4-Ph(4-pentyl))

>  <IUPAC>  (3112) 
(2S)-2-amino-3-(4-(4-pentylphenyl)phenyl)propanoic acid

>  <TYPE>  (3112) 
Backbone

>  <CLASS>  (3112) 
alpha

>  <ANALOG>  (3112) 
Phe

>  <MOL_WT>  (3112) 
311.425

>  <LOGP>  (3112) 
4.040700000000003

>  <TPSA>  (3112) 
63.32000000000001

>  <POPULARITY>  (3112) 
3.0

>  <PROTECTED>  (3112) 
TRUE

>  <SMILES>  (3112) 
N[C@@H](Cc1(ccc(cc1)c2(ccc(cc2)CCCCC)))C(=O)O

>  <INCHIKEY>  (3112) 
DRQZIRXJBUEPGX-IBGZPJMESA-N

$$$$
Phe_4Pyranose_SSRSR
     RDKit          2D

 24 25  0  0  0  0  0  0  0  0999 V2000
   -5.2902    1.6051    0.0000 N   0  0  0  0  0  0  0  0  0  0  0  0
   -5.4245    0.1111    0.0000 C   0  0  0  0  0  0  0  0  0  0  0  0
   -4.1978   -0.7522    0.0000 C   0  0  0  0  0  0  0  0  0  0  0  0
   -2.8369   -0.1215    0.0000 C   0  0  0  0  0  0  0  0  0  0  0  0
   -2.7025    1.3725    0.0000 C   0  0  0  0  0  0  0  0  0  0  0  0
   -1.3416    2.0032    0.0000 C   0  0  0  0  0  0  0  0  0  0  0  0
   -0.1149    1.1399    0.0000 C   0  0  0  0  0  0  0  0  0  0  0  0
    1.2461    1.7705    0.0000 O   0  0  0  0  0  0  0  0  0  0  0  0
    2.4727    0.9072    0.0000 C   0  0  0  0  0  0  0  0  0  0  0  0
    2.3384   -0.5867    0.0000 O   0  0  0  0  0  0  0  0  0  0  0  0
    3.5651   -1.4500    0.0000 C   0  0  0  0  0  0  0  0  0  0  0  0
    3.4308   -2.9440    0.0000 C   0  0  0  0  0  0  0  0  0  0  0  0
    2.0698   -3.5747    0.0000 O   0  0  0  0  0  0  0  0  0  0  0  0
    4.9261   -0.8194    0.0000 C   0  0  0  0  0  0  0  0  0  0  0  0
    6.1527   -1.6827    0.0000 O   0  0  0  0  0  0  0  0  0  0  0  0
    5.0604    0.6746    0.0000 C   0  0  0  0  0  0  0  0  0  0  0  0
    6.4213    1.3053    0.0000 O   0  0  0  0  0  0  0  0  0  0  0  0
    3.8337    1.5379    0.0000 C   0  0  0  0  0  0  0  0  0  0  0  0
    3.9680    3.0319    0.0000 O   0  0  0  0  0  0  0  0  0  0  0  0
   -0.2492   -0.3541    0.0000 C   0  0  0  0  0  0  0  0  0  0  0  0
   -1.6102   -0.9848    0.0000 C   0  0  0  0  0  0  0  0  0  0  0  0
   -6.7855   -0.5195    0.0000 C   0  0  0  0  0  0  0  0  0  0  0  0
   -6.9198   -2.0135    0.0000 O   0  0  0  0  0  0  0  0  0  0  0  0
   -8.0121    0.3438    0.0000 O   0  0  0  0  0  0  0  0  0  0  0  0
  2  1  1  1
  2  3  1  0
  3  4  1  0
  4  5  1  0
  5  6  2  0
  6  7  1  0
  7  8  1  0
  9  8  1  1
  9 10  1  0
 10 11  1  0
 11 12  1  1
 12 13  1  0
 11 14  1  0
 14 15  1  6
 14 16  1  0
 16 17  1  1
 16 18  1  0
 18 19  1  6
  7 20  2  0
 20 21  1  0
  2 22  1  0
 22 23  2  0
 22 24  1  0
 18  9  1  0
 21  4  2  0
M  END
>  <rName>  (3113) 
Phe_4Pyranose_SSRSR

>  <PQ_SYMBOL>  (3113) 
Phe_4Pyranose_SSRSR

>  <FULL_NAME>  (3113) 
Tyrosine glucoside

>  <IUPAC_CONDENSED>  (3113) 
Phe(4-Pyranose(SSRSR))

>  <IUPAC>  (3113) 
(2S)-2-amino-3-[4-[(2S,3R,4S,5S,6R)-3,4,5-trihydroxy-6-(hydroxymethyl)oxan-2-yl]oxyphenyl]propanoic acid

>  <TYPE>  (3113) 
Backbone

>  <CLASS>  (3113) 
alpha

>  <ANALOG>  (3113) 
Tyr

>  <MOL_WT>  (3113) 
343.33200000000005

>  <LOGP>  (3113) 
-2.180299999999999

>  <TPSA>  (3113) 
162.70000000000002

>  <POPULARITY>  (3113) 
2.4

>  <PROTECTED>  (3113) 
TRUE

>  <SMILES>  (3113) 
N[C@@H](Cc2(ccc(O[C@@H]1(O[C@H](CO)[C@@H](O)[C@H](O)[C@H]1O))cc2))C(=O)O

>  <INCHIKEY>  (3113) 
JZAFZYMRELRTKL-MYMCGMNMSA-N

$$$$
Phe_4Rdihydroorotamido
     RDKit          2D

 23 24  0  0  0  0  0  0  0  0999 V2000
   -5.2545    1.7445    0.0000 N   0  0  0  0  0  0  0  0  0  0  0  0
   -5.6935    0.3102    0.0000 C   0  0  0  0  0  0  0  0  0  0  0  0
   -4.6708   -0.7871    0.0000 C   0  0  0  0  0  0  0  0  0  0  0  0
   -3.2092   -0.4501    0.0000 C   0  0  0  0  0  0  0  0  0  0  0  0
   -2.7702    0.9842    0.0000 C   0  0  0  0  0  0  0  0  0  0  0  0
   -1.3086    1.3212    0.0000 C   0  0  0  0  0  0  0  0  0  0  0  0
   -0.2859    0.2239    0.0000 C   0  0  0  0  0  0  0  0  0  0  0  0
   -0.7248   -1.2104    0.0000 C   0  0  0  0  0  0  0  0  0  0  0  0
   -2.1865   -1.5475    0.0000 C   0  0  0  0  0  0  0  0  0  0  0  0
    1.1758    0.5609    0.0000 N   0  0  0  0  0  0  0  0  0  0  0  0
    2.1985   -0.5364    0.0000 C   0  0  0  0  0  0  0  0  0  0  0  0
    1.7595   -1.9707    0.0000 O   0  0  0  0  0  0  0  0  0  0  0  0
    3.6601   -0.1994    0.0000 C   0  0  0  0  0  0  0  0  0  0  0  0
    4.6828   -1.2967    0.0000 C   0  0  0  0  0  0  0  0  0  0  0  0
    6.1445   -0.9597    0.0000 C   0  0  0  0  0  0  0  0  0  0  0  0
    7.1671   -2.0570    0.0000 O   0  0  0  0  0  0  0  0  0  0  0  0
    6.5834    0.4746    0.0000 N   0  0  0  0  0  0  0  0  0  0  0  0
    5.5607    1.5720    0.0000 C   0  0  0  0  0  0  0  0  0  0  0  0
    5.9997    3.0063    0.0000 O   0  0  0  0  0  0  0  0  0  0  0  0
    4.0991    1.2349    0.0000 N   0  0  0  0  0  0  0  0  0  0  0  0
   -7.1552   -0.0268    0.0000 C   0  0  0  0  0  0  0  0  0  0  0  0
   -7.5941   -1.4612    0.0000 O   0  0  0  0  0  0  0  0  0  0  0  0
   -8.1779    1.0705    0.0000 O   0  0  0  0  0  0  0  0  0  0  0  0
  2  1  1  1
  2  3  1  0
  3  4  1  0
  4  5  1  0
  5  6  2  0
  6  7  1  0
  7  8  2  0
  8  9  1  0
  7 10  1  0
 10 11  1  0
 11 12  2  0
 13 11  1  6
 13 14  1  0
 14 15  1  0
 15 16  2  0
 15 17  1  0
 17 18  1  0
 18 19  2  0
 18 20  1  0
  2 21  1  0
 21 22  2  0
 21 23  1  0
  9  4  2  0
 20 13  1  0
M  END
>  <rName>  (3114) 
Phe_4Rdihydroorotamido

>  <PQ_SYMBOL>  (3114) 
Phe_4Rdihydroorotamido

>  <FULL_NAME>  (3114) 
Phe(4-R-dihydroorotamido)

>  <IUPAC_CONDENSED>  (3114) 
Phe(4-R-dihydroorotamido)

>  <IUPAC>  (3114) 
(2S)-2-amino-3-(4-((4R)-2,6-dioxo-1,3-diazacyclohexan-4-ylcarbonylamino)phenyl)propanoic acid

>  <TYPE>  (3114) 
Backbone

>  <CLASS>  (3114) 
alpha

>  <ANALOG>  (3114) 
Phe

>  <MOL_WT>  (3114) 
320.305

>  <LOGP>  (3114) 
-0.8223999999999989

>  <TPSA>  (3114) 
150.61999999999998

>  <POPULARITY>  (3114) 
2.2

>  <PROTECTED>  (3114) 
TRUE

>  <SMILES>  (3114) 
N[C@@H](Cc1(ccc(cc1)NC(=O)[C@H]2(CC(=O)NC(=O)N2)))C(=O)O

>  <INCHIKEY>  (3114) 
OLPMLGPIXOYZDU-VHSXEESVSA-N

$$$$
Phe_4Sdihydroorotamido
     RDKit          2D

 23 24  0  0  0  0  0  0  0  0999 V2000
   -5.2545    1.7445    0.0000 N   0  0  0  0  0  0  0  0  0  0  0  0
   -5.6935    0.3102    0.0000 C   0  0  0  0  0  0  0  0  0  0  0  0
   -4.6708   -0.7871    0.0000 C   0  0  0  0  0  0  0  0  0  0  0  0
   -3.2092   -0.4501    0.0000 C   0  0  0  0  0  0  0  0  0  0  0  0
   -2.7702    0.9842    0.0000 C   0  0  0  0  0  0  0  0  0  0  0  0
   -1.3086    1.3212    0.0000 C   0  0  0  0  0  0  0  0  0  0  0  0
   -0.2859    0.2239    0.0000 C   0  0  0  0  0  0  0  0  0  0  0  0
   -0.7248   -1.2104    0.0000 C   0  0  0  0  0  0  0  0  0  0  0  0
   -2.1865   -1.5475    0.0000 C   0  0  0  0  0  0  0  0  0  0  0  0
    1.1758    0.5609    0.0000 N   0  0  0  0  0  0  0  0  0  0  0  0
    2.1985   -0.5364    0.0000 C   0  0  0  0  0  0  0  0  0  0  0  0
    1.7595   -1.9707    0.0000 O   0  0  0  0  0  0  0  0  0  0  0  0
    3.6601   -0.1994    0.0000 C   0  0  0  0  0  0  0  0  0  0  0  0
    4.6828   -1.2967    0.0000 C   0  0  0  0  0  0  0  0  0  0  0  0
    6.1445   -0.9597    0.0000 C   0  0  0  0  0  0  0  0  0  0  0  0
    7.1671   -2.0570    0.0000 O   0  0  0  0  0  0  0  0  0  0  0  0
    6.5834    0.4746    0.0000 N   0  0  0  0  0  0  0  0  0  0  0  0
    5.5607    1.5720    0.0000 C   0  0  0  0  0  0  0  0  0  0  0  0
    5.9997    3.0063    0.0000 O   0  0  0  0  0  0  0  0  0  0  0  0
    4.0991    1.2349    0.0000 N   0  0  0  0  0  0  0  0  0  0  0  0
   -7.1552   -0.0268    0.0000 C   0  0  0  0  0  0  0  0  0  0  0  0
   -7.5941   -1.4612    0.0000 O   0  0  0  0  0  0  0  0  0  0  0  0
   -8.1779    1.0705    0.0000 O   0  0  0  0  0  0  0  0  0  0  0  0
  2  1  1  1
  2  3  1  0
  3  4  1  0
  4  5  1  0
  5  6  2  0
  6  7  1  0
  7  8  2  0
  8  9  1  0
  7 10  1  0
 10 11  1  0
 11 12  2  0
 13 11  1  1
 13 14  1  0
 14 15  1  0
 15 16  2  0
 15 17  1  0
 17 18  1  0
 18 19  2  0
 18 20  1  0
  2 21  1  0
 21 22  2  0
 21 23  1  0
  9  4  2  0
 20 13  1  0
M  END
>  <rName>  (3115) 
Phe_4Sdihydroorotamido

>  <PQ_SYMBOL>  (3115) 
Phe_4Sdihydroorotamido

>  <FULL_NAME>  (3115) 
4-(((Hexahydro-2,6-dioxo-4S-pyrimidinyl)carbonyl)amino)-L-phenylalanine

>  <IUPAC_CONDENSED>  (3115) 
Phe(4-S-dihydroorotamido)

>  <IUPAC>  (3115) 
(2S)-2-amino-3-(4-((4S)-2,6-dioxo-1,3-diazacyclohexan-4-ylcarbonylamino)phenyl)propanoic acid

>  <TYPE>  (3115) 
Backbone

>  <CLASS>  (3115) 
alpha

>  <ANALOG>  (3115) 
Phe

>  <MOL_WT>  (3115) 
320.305

>  <LOGP>  (3115) 
-0.8223999999999989

>  <TPSA>  (3115) 
150.61999999999998

>  <POPULARITY>  (3115) 
5.3

>  <PROTECTED>  (3115) 
TRUE

>  <SMILES>  (3115) 
N[C@@H](Cc1(ccc(cc1)NC(=O)[C@@H]2(CC(=O)NC(=O)N2)))C(=O)O

>  <INCHIKEY>  (3115) 
OLPMLGPIXOYZDU-UWVGGRQHSA-N

$$$$
Phe_4cHex
     RDKit          2D

 18 19  0  0  0  0  0  0  0  0999 V2000
   -3.2769    1.7174    0.0000 N   0  0  0  0  0  0  0  0  0  0  0  0
   -3.8349    0.3251    0.0000 C   0  0  0  0  0  0  0  0  0  0  0  0
   -2.9082   -0.8544    0.0000 C   0  0  0  0  0  0  0  0  0  0  0  0
   -1.4234   -0.6415    0.0000 C   0  0  0  0  0  0  0  0  0  0  0  0
   -0.8653    0.7508    0.0000 C   0  0  0  0  0  0  0  0  0  0  0  0
    0.6195    0.9637    0.0000 C   0  0  0  0  0  0  0  0  0  0  0  0
    1.5463   -0.2158    0.0000 C   0  0  0  0  0  0  0  0  0  0  0  0
    0.9882   -1.6081    0.0000 C   0  0  0  0  0  0  0  0  0  0  0  0
   -0.4966   -1.8210    0.0000 C   0  0  0  0  0  0  0  0  0  0  0  0
    3.0311   -0.0029    0.0000 C   0  0  0  0  0  0  0  0  0  0  0  0
    3.9578   -1.1824    0.0000 C   0  0  0  0  0  0  0  0  0  0  0  0
    5.4427   -0.9695    0.0000 C   0  0  0  0  0  0  0  0  0  0  0  0
    6.0007    0.4228    0.0000 C   0  0  0  0  0  0  0  0  0  0  0  0
    5.0740    1.6023    0.0000 C   0  0  0  0  0  0  0  0  0  0  0  0
    3.5891    1.3894    0.0000 C   0  0  0  0  0  0  0  0  0  0  0  0
   -5.3198    0.1122    0.0000 C   0  0  0  0  0  0  0  0  0  0  0  0
   -5.8778   -1.2801    0.0000 O   0  0  0  0  0  0  0  0  0  0  0  0
   -6.2465    1.2917    0.0000 O   0  0  0  0  0  0  0  0  0  0  0  0
  2  1  1  1
  2  3  1  0
  3  4  1  0
  4  5  1  0
  5  6  2  0
  6  7  1  0
  7  8  2  0
  8  9  1  0
  7 10  1  0
 10 11  1  0
 11 12  1  0
 12 13  1  0
 13 14  1  0
 14 15  1  0
  2 16  1  0
 16 17  2  0
 16 18  1  0
  9  4  2  0
 15 10  1  0
M  END
>  <rName>  (3116) 
Phe_4cHex

>  <PQ_SYMBOL>  (3116) 
Phe_4cHex

>  <FULL_NAME>  (3116) 
4-Cyclohexyl-L-phenylalanine

>  <IUPAC_CONDENSED>  (3116) 
Phe(4-cHex)

>  <IUPAC>  (3116) 
(2S)-2-amino-3-(4-cyclohexylphenyl)propanoic acid

>  <TYPE>  (3116) 
Backbone

>  <CLASS>  (3116) 
alpha

>  <ANALOG>  (3116) 
Phe

>  <MOL_WT>  (3116) 
247.3379999999999

>  <LOGP>  (3116) 
2.6887000000000008

>  <TPSA>  (3116) 
63.32000000000001

>  <POPULARITY>  (3116) 
2.2

>  <PROTECTED>  (3116) 
TRUE

>  <SMILES>  (3116) 
N[C@@H](Cc1(ccc(cc1)C2(CCCCC2)))C(=O)O

>  <INCHIKEY>  (3116) 
QXUOMWJRQQFFGF-AWEZNQCLSA-N

$$$$
Phe_4cHex_4SPr
     RDKit          2D

 21 22  0  0  0  0  0  0  0  0999 V2000
   -4.5161    1.7003    0.0000 N   0  0  0  0  0  0  0  0  0  0  0  0
   -5.0653    0.3044    0.0000 C   0  0  0  0  0  0  0  0  0  0  0  0
   -4.1311   -0.8691    0.0000 C   0  0  0  0  0  0  0  0  0  0  0  0
   -2.6477   -0.6469    0.0000 C   0  0  0  0  0  0  0  0  0  0  0  0
   -2.0984    0.7489    0.0000 C   0  0  0  0  0  0  0  0  0  0  0  0
   -0.6150    0.9712    0.0000 C   0  0  0  0  0  0  0  0  0  0  0  0
    0.3192   -0.2024    0.0000 C   0  0  0  0  0  0  0  0  0  0  0  0
   -0.2300   -1.5982    0.0000 C   0  0  0  0  0  0  0  0  0  0  0  0
   -1.7135   -1.8205    0.0000 C   0  0  0  0  0  0  0  0  0  0  0  0
    1.8027    0.0199    0.0000 C   0  0  0  0  0  0  0  0  0  0  0  0
    2.7369   -1.1537    0.0000 C   0  0  0  0  0  0  0  0  0  0  0  0
    4.2203   -0.9314    0.0000 C   0  0  0  0  0  0  0  0  0  0  0  0
    4.7696    0.4644    0.0000 C   0  0  0  0  0  0  0  0  0  0  0  0
    6.2530    0.6867    0.0000 C   0  0  0  0  0  0  0  0  0  0  0  0
    7.1872   -0.4869    0.0000 C   0  0  0  0  0  0  0  0  0  0  0  0
    8.6706   -0.2646    0.0000 C   0  0  0  0  0  0  0  0  0  0  0  0
    3.8353    1.6380    0.0000 C   0  0  0  0  0  0  0  0  0  0  0  0
    2.3519    1.4157    0.0000 C   0  0  0  0  0  0  0  0  0  0  0  0
   -6.5487    0.0822    0.0000 C   0  0  0  0  0  0  0  0  0  0  0  0
   -7.0980   -1.3137    0.0000 O   0  0  0  0  0  0  0  0  0  0  0  0
   -7.4830    1.2557    0.0000 O   0  0  0  0  0  0  0  0  0  0  0  0
  2  1  1  1
  2  3  1  0
  3  4  1  0
  4  5  1  0
  5  6  2  0
  6  7  1  0
  7  8  2  0
  8  9  1  0
 10  7  1  1
 10 11  1  0
 11 12  1  0
 12 13  1  0
 13 14  1  6
 14 15  1  0
 15 16  1  0
 13 17  1  0
 17 18  1  0
  2 19  1  0
 19 20  2  0
 19 21  1  0
  9  4  2  0
 18 10  1  0
M  END
>  <rName>  (3117) 
Phe_4cHex_4SPr

>  <PQ_SYMBOL>  (3117) 
Phe_4cHex_4SPr

>  <FULL_NAME>  (3117) 
(S)-2-amino-3-(4-((1s,4S)-4-propylcyclohexyl)phenyl)propanoic acid

>  <IUPAC_CONDENSED>  (3117) 
Phe(4-cHex(4S-Pr))

>  <IUPAC>  (3117) 
(2S)-2-amino-3-(4-(trans-4-propylcyclohexyl)phenyl)propanoic acid

>  <TYPE>  (3117) 
Backbone

>  <CLASS>  (3117) 
alpha

>  <ANALOG>  (3117) 
Phe

>  <MOL_WT>  (3117) 
289.4189999999999

>  <LOGP>  (3117) 
3.7149000000000028

>  <TPSA>  (3117) 
63.32000000000001

>  <POPULARITY>  (3117) 
2.5

>  <PROTECTED>  (3117) 
TRUE

>  <SMILES>  (3117) 
N[C@@H](Cc1(ccc(cc1)[C@@H]2(CC[C@@H](CCC)CC2)))C(=O)O

>  <INCHIKEY>  (3117) 
CIAOKTKTHOSCHU-QRTARXTBSA-N

$$$$
Phe_4cHex_4Spentyl
     RDKit          2D

 23 24  0  0  0  0  0  0  0  0999 V2000
   -5.4826    1.6024    0.0000 N   0  0  0  0  0  0  0  0  0  0  0  0
   -5.9769    0.1862    0.0000 C   0  0  0  0  0  0  0  0  0  0  0  0
   -4.9975   -0.9500    0.0000 C   0  0  0  0  0  0  0  0  0  0  0  0
   -3.5239   -0.6698    0.0000 C   0  0  0  0  0  0  0  0  0  0  0  0
   -3.0296    0.7464    0.0000 C   0  0  0  0  0  0  0  0  0  0  0  0
   -1.5560    1.0265    0.0000 C   0  0  0  0  0  0  0  0  0  0  0  0
   -0.5766   -0.1096    0.0000 C   0  0  0  0  0  0  0  0  0  0  0  0
   -1.0709   -1.5259    0.0000 C   0  0  0  0  0  0  0  0  0  0  0  0
   -2.5445   -1.8060    0.0000 C   0  0  0  0  0  0  0  0  0  0  0  0
    0.8970    0.1705    0.0000 C   0  0  0  0  0  0  0  0  0  0  0  0
    1.8764   -0.9656    0.0000 C   0  0  0  0  0  0  0  0  0  0  0  0
    3.3500   -0.6855    0.0000 C   0  0  0  0  0  0  0  0  0  0  0  0
    3.8442    0.7307    0.0000 C   0  0  0  0  0  0  0  0  0  0  0  0
    5.3178    1.0109    0.0000 C   0  0  0  0  0  0  0  0  0  0  0  0
    6.2972   -0.1253    0.0000 C   0  0  0  0  0  0  0  0  0  0  0  0
    7.7708    0.1548    0.0000 C   0  0  0  0  0  0  0  0  0  0  0  0
    8.7502   -0.9813    0.0000 C   0  0  0  0  0  0  0  0  0  0  0  0
   10.2238   -0.7012    0.0000 C   0  0  0  0  0  0  0  0  0  0  0  0
    2.8648    1.8669    0.0000 C   0  0  0  0  0  0  0  0  0  0  0  0
    1.3912    1.5867    0.0000 C   0  0  0  0  0  0  0  0  0  0  0  0
   -7.4505   -0.0939    0.0000 C   0  0  0  0  0  0  0  0  0  0  0  0
   -7.9447   -1.5102    0.0000 O   0  0  0  0  0  0  0  0  0  0  0  0
   -8.4299    1.0422    0.0000 O   0  0  0  0  0  0  0  0  0  0  0  0
  2  1  1  1
  2  3  1  0
  3  4  1  0
  4  5  1  0
  5  6  2  0
  6  7  1  0
  7  8  2  0
  8  9  1  0
 10  7  1  1
 10 11  1  0
 11 12  1  0
 12 13  1  0
 13 14  1  6
 14 15  1  0
 15 16  1  0
 16 17  1  0
 17 18  1  0
 13 19  1  0
 19 20  1  0
  2 21  1  0
 21 22  2  0
 21 23  1  0
  9  4  2  0
 20 10  1  0
M  END
>  <rName>  (3118) 
Phe_4cHex_4Spentyl

>  <PQ_SYMBOL>  (3118) 
Phe_4cHex_4Spentyl

>  <FULL_NAME>  (3118) 
(S)-2-amino-3-(4-((1s,4S)-4-pentylcyclohexyl)phenyl)propanoic acid

>  <IUPAC_CONDENSED>  (3118) 
Phe(4-cHex(4S-pentyl))

>  <IUPAC>  (3118) 
(2S)-2-amino-3-(4-(trans-4-pentylcyclohexyl)phenyl)propanoic acid

>  <TYPE>  (3118) 
Backbone

>  <CLASS>  (3118) 
alpha

>  <ANALOG>  (3118) 
Phe

>  <MOL_WT>  (3118) 
317.473

>  <LOGP>  (3118) 
4.495100000000003

>  <TPSA>  (3118) 
63.32000000000001

>  <POPULARITY>  (3118) 
2.4

>  <PROTECTED>  (3118) 
TRUE

>  <SMILES>  (3118) 
N[C@@H](Cc1(ccc(cc1)[C@@H]2(CC[C@@H](CCCCC)CC2)))C(=O)O

>  <INCHIKEY>  (3118) 
BORGFFOURUXTBP-IEZWGBDMSA-N

$$$$
Phe_4cHex_4pentyl
     RDKit          2D

 23 24  0  0  0  0  0  0  0  0999 V2000
   -5.4826    1.6024    0.0000 N   0  0  0  0  0  0  0  0  0  0  0  0
   -5.9769    0.1862    0.0000 C   0  0  0  0  0  0  0  0  0  0  0  0
   -4.9975   -0.9500    0.0000 C   0  0  0  0  0  0  0  0  0  0  0  0
   -3.5239   -0.6698    0.0000 C   0  0  0  0  0  0  0  0  0  0  0  0
   -3.0296    0.7464    0.0000 C   0  0  0  0  0  0  0  0  0  0  0  0
   -1.5560    1.0265    0.0000 C   0  0  0  0  0  0  0  0  0  0  0  0
   -0.5766   -0.1096    0.0000 C   0  0  0  0  0  0  0  0  0  0  0  0
   -1.0709   -1.5259    0.0000 C   0  0  0  0  0  0  0  0  0  0  0  0
   -2.5445   -1.8060    0.0000 C   0  0  0  0  0  0  0  0  0  0  0  0
    0.8970    0.1705    0.0000 C   0  0  0  0  0  0  0  0  0  0  0  0
    1.8764   -0.9656    0.0000 C   0  0  0  0  0  0  0  0  0  0  0  0
    3.3500   -0.6855    0.0000 C   0  0  0  0  0  0  0  0  0  0  0  0
    3.8442    0.7307    0.0000 C   0  0  0  0  0  0  0  0  0  0  0  0
    5.3178    1.0109    0.0000 C   0  0  0  0  0  0  0  0  0  0  0  0
    6.2972   -0.1253    0.0000 C   0  0  0  0  0  0  0  0  0  0  0  0
    7.7708    0.1548    0.0000 C   0  0  0  0  0  0  0  0  0  0  0  0
    8.7502   -0.9813    0.0000 C   0  0  0  0  0  0  0  0  0  0  0  0
   10.2238   -0.7012    0.0000 C   0  0  0  0  0  0  0  0  0  0  0  0
    2.8648    1.8669    0.0000 C   0  0  0  0  0  0  0  0  0  0  0  0
    1.3912    1.5867    0.0000 C   0  0  0  0  0  0  0  0  0  0  0  0
   -7.4505   -0.0939    0.0000 C   0  0  0  0  0  0  0  0  0  0  0  0
   -7.9447   -1.5102    0.0000 O   0  0  0  0  0  0  0  0  0  0  0  0
   -8.4299    1.0422    0.0000 O   0  0  0  0  0  0  0  0  0  0  0  0
  2  1  1  1
  2  3  1  0
  3  4  1  0
  4  5  1  0
  5  6  2  0
  6  7  1  0
  7  8  2  0
  8  9  1  0
  7 10  1  0
 10 11  1  0
 11 12  1  0
 12 13  1  0
 13 14  1  0
 14 15  1  0
 15 16  1  0
 16 17  1  0
 17 18  1  0
 13 19  1  0
 19 20  1  0
  2 21  1  0
 21 22  2  0
 21 23  1  0
  9  4  2  0
 20 10  1  0
M  END
>  <rName>  (3119) 
Phe_4cHex_4pentyl

>  <PQ_SYMBOL>  (3119) 
Phe_4cHex_4pentyl

>  <FULL_NAME>  (3119) 
(S)-2-amino-3-(4-(4-pentylcyclohexyl)phenyl)propanoic acid

>  <IUPAC_CONDENSED>  (3119) 
Phe(4-cHex(4-pentyl))

>  <IUPAC>  (3119) 
(2S)-2-amino-3-(4-(4-pentylcyclohexyl)phenyl)propanoic acid

>  <TYPE>  (3119) 
Backbone

>  <CLASS>  (3119) 
alpha

>  <ANALOG>  (3119) 
Phe

>  <MOL_WT>  (3119) 
317.473

>  <LOGP>  (3119) 
4.495100000000003

>  <TPSA>  (3119) 
63.32000000000001

>  <POPULARITY>  (3119) 
3.0

>  <PROTECTED>  (3119) 
TRUE

>  <SMILES>  (3119) 
N[C@@H](Cc1(ccc(cc1)C2(CCC(CCCCC)CC2)))C(=O)O

>  <INCHIKEY>  (3119) 
BORGFFOURUXTBP-KVWWFHCMSA-N

$$$$
Phe_4cPent
     RDKit          2D

 18 19  0  0  0  0  0  0  0  0999 V2000
   -3.7178    1.5903    0.0000 N   0  0  0  0  0  0  0  0  0  0  0  0
   -3.9444    0.1075    0.0000 C   0  0  0  0  0  0  0  0  0  0  0  0
   -2.7735   -0.8301    0.0000 C   0  0  0  0  0  0  0  0  0  0  0  0
   -1.3761   -0.2849    0.0000 C   0  0  0  0  0  0  0  0  0  0  0  0
   -1.1496    1.1979    0.0000 C   0  0  0  0  0  0  0  0  0  0  0  0
    0.2478    1.7431    0.0000 C   0  0  0  0  0  0  0  0  0  0  0  0
    1.4187    0.8055    0.0000 C   0  0  0  0  0  0  0  0  0  0  0  0
    2.8161    1.3507    0.0000 O   0  0  0  0  0  0  0  0  0  0  0  0
    3.9870    0.4131    0.0000 C   0  0  0  0  0  0  0  0  0  0  0  0
    5.4337    0.8093    0.0000 C   0  0  0  0  0  0  0  0  0  0  0  0
    6.2575   -0.4443    0.0000 C   0  0  0  0  0  0  0  0  0  0  0  0
    5.3199   -1.6151    0.0000 C   0  0  0  0  0  0  0  0  0  0  0  0
    3.9167   -1.0852    0.0000 C   0  0  0  0  0  0  0  0  0  0  0  0
    1.1921   -0.6773    0.0000 C   0  0  0  0  0  0  0  0  0  0  0  0
   -0.2053   -1.2225    0.0000 C   0  0  0  0  0  0  0  0  0  0  0  0
   -5.3418   -0.4377    0.0000 C   0  0  0  0  0  0  0  0  0  0  0  0
   -5.5684   -1.9205    0.0000 O   0  0  0  0  0  0  0  0  0  0  0  0
   -6.5127    0.4999    0.0000 O   0  0  0  0  0  0  0  0  0  0  0  0
  2  1  1  1
  2  3  1  0
  3  4  1  0
  4  5  1  0
  5  6  2  0
  6  7  1  0
  7  8  1  0
  8  9  1  0
  9 10  1  0
 10 11  1  0
 11 12  1  0
 12 13  1  0
  7 14  2  0
 14 15  1  0
  2 16  1  0
 16 17  2  0
 16 18  1  0
 13  9  1  0
 15  4  2  0
M  END
>  <rName>  (3120) 
Phe_4cPent

>  <PQ_SYMBOL>  (3120) 
Phe_4cPent

>  <FULL_NAME>  (3120) 
O-Cyclopentyl-L-tyrosine

>  <IUPAC_CONDENSED>  (3120) 
Phe(4-cPent)

>  <IUPAC>  (3120) 
(2S)-2-amino-3-(4-cyclopentyloxyphenyl)propanoic acid

>  <TYPE>  (3120) 
Backbone

>  <CLASS>  (3120) 
alpha

>  <ANALOG>  (3120) 
Tyr

>  <MOL_WT>  (3120) 
249.30999999999992

>  <LOGP>  (3120) 
1.9624000000000001

>  <TPSA>  (3120) 
72.55

>  <POPULARITY>  (3120) 
2.2

>  <PROTECTED>  (3120) 
TRUE

>  <SMILES>  (3120) 
N[C@@H](Cc2(ccc(OC1(CCCC1))cc2))C(=O)O

>  <INCHIKEY>  (3120) 
LTWHQHQKHFUXEW-ZDUSSCGKSA-N

$$$$
Phe_4cPr
     RDKit          2D

 15 16  0  0  0  0  0  0  0  0999 V2000
   -2.3059    1.7019    0.0000 N   0  0  0  0  0  0  0  0  0  0  0  0
   -2.8175    0.2919    0.0000 C   0  0  0  0  0  0  0  0  0  0  0  0
   -1.8521   -0.8562    0.0000 C   0  0  0  0  0  0  0  0  0  0  0  0
   -0.3752   -0.5943    0.0000 C   0  0  0  0  0  0  0  0  0  0  0  0
    0.1364    0.8158    0.0000 C   0  0  0  0  0  0  0  0  0  0  0  0
    1.6134    1.0777    0.0000 C   0  0  0  0  0  0  0  0  0  0  0  0
    2.5787   -0.0703    0.0000 C   0  0  0  0  0  0  0  0  0  0  0  0
    2.0671   -1.4804    0.0000 C   0  0  0  0  0  0  0  0  0  0  0  0
    0.5902   -1.7424    0.0000 C   0  0  0  0  0  0  0  0  0  0  0  0
    4.0557    0.1916    0.0000 C   0  0  0  0  0  0  0  0  0  0  0  0
    5.2037    1.1570    0.0000 C   0  0  0  0  0  0  0  0  0  0  0  0
    5.4657   -0.3200    0.0000 C   0  0  0  0  0  0  0  0  0  0  0  0
   -4.2944    0.0299    0.0000 C   0  0  0  0  0  0  0  0  0  0  0  0
   -4.8060   -1.3802    0.0000 O   0  0  0  0  0  0  0  0  0  0  0  0
   -5.2598    1.1780    0.0000 O   0  0  0  0  0  0  0  0  0  0  0  0
  2  1  1  1
  2  3  1  0
  3  4  1  0
  4  5  1  0
  5  6  2  0
  6  7  1  0
  7  8  2  0
  8  9  1  0
  7 10  1  0
 10 11  1  0
 11 12  1  0
  2 13  1  0
 13 14  2  0
 13 15  1  0
  9  4  2  0
 12 10  1  0
M  END
>  <rName>  (3121) 
Phe_4cPr

>  <PQ_SYMBOL>  (3121) 
Phe_4cPr

>  <FULL_NAME>  (3121) 
4-Cyclopropyl-L-phenylalanine HCl

>  <IUPAC_CONDENSED>  (3121) 
Phe(4-cPr)

>  <IUPAC>  (3121) 
(2S)-2-amino-3-(4-cyclopropylphenyl)propanoic acid

>  <TYPE>  (3121) 
Backbone

>  <CLASS>  (3121) 
alpha

>  <ANALOG>  (3121) 
Phe

>  <MOL_WT>  (3121) 
205.25699999999995

>  <LOGP>  (3121) 
1.5184000000000002

>  <TPSA>  (3121) 
63.32000000000001

>  <POPULARITY>  (3121) 
2.2

>  <PROTECTED>  (3121) 
TRUE

>  <SMILES>  (3121) 
N[C@@H](Cc1(ccc(cc1)C2(CC2)))C(=O)O

>  <INCHIKEY>  (3121) 
INIPWUPYILOWPM-NSHDSACASA-N

$$$$
Phe_4di2chloroethylamino
     RDKit          2D

 19 19  0  0  0  0  0  0  0  0999 V2000
   -3.5895    1.7019    0.0000 N   0  0  0  0  0  0  0  0  0  0  0  0
   -4.1502    0.3106    0.0000 C   0  0  0  0  0  0  0  0  0  0  0  0
   -3.2257   -0.8706    0.0000 C   0  0  0  0  0  0  0  0  0  0  0  0
   -1.7404   -0.6605    0.0000 C   0  0  0  0  0  0  0  0  0  0  0  0
   -1.1798    0.7308    0.0000 C   0  0  0  0  0  0  0  0  0  0  0  0
    0.3054    0.9409    0.0000 C   0  0  0  0  0  0  0  0  0  0  0  0
    1.2300   -0.2403    0.0000 C   0  0  0  0  0  0  0  0  0  0  0  0
    0.6693   -1.6316    0.0000 C   0  0  0  0  0  0  0  0  0  0  0  0
   -0.8159   -1.8417    0.0000 C   0  0  0  0  0  0  0  0  0  0  0  0
    2.7152   -0.0302    0.0000 N   0  0  0  0  0  0  0  0  0  0  0  0
    3.6398   -1.2114    0.0000 C   0  0  0  0  0  0  0  0  0  0  0  0
    5.1250   -1.0014    0.0000 C   0  0  0  0  0  0  0  0  0  0  0  0
    6.0495   -2.1825    0.0000 Cl  0  0  0  0  0  0  0  0  0  0  0  0
    3.2759    1.3610    0.0000 C   0  0  0  0  0  0  0  0  0  0  0  0
    4.7611    1.5711    0.0000 C   0  0  0  0  0  0  0  0  0  0  0  0
    5.3218    2.9624    0.0000 Cl  0  0  0  0  0  0  0  0  0  0  0  0
   -5.6354    0.1005    0.0000 C   0  0  0  0  0  0  0  0  0  0  0  0
   -6.1961   -1.2907    0.0000 O   0  0  0  0  0  0  0  0  0  0  0  0
   -6.5600    1.2817    0.0000 O   0  0  0  0  0  0  0  0  0  0  0  0
  2  1  1  1
  2  3  1  0
  3  4  1  0
  4  5  1  0
  5  6  2  0
  6  7  1  0
  7  8  2  0
  8  9  1  0
  7 10  1  0
 10 11  1  0
 11 12  1  0
 12 13  1  0
 10 14  1  0
 14 15  1  0
 15 16  1  0
  2 17  1  0
 17 18  2  0
 17 19  1  0
  9  4  2  0
M  END
>  <rName>  (3122) 
Phe_4di2chloroethylamino

>  <PQ_SYMBOL>  (3122) 
Phe_4di2chloroethylamino

>  <FULL_NAME>  (3122) 
Melphalan

>  <IUPAC_CONDENSED>  (3122) 
Phe(4-di(2-chloroethyl)amino)

>  <IUPAC>  (3122) 
(2S)-2-amino-3-(4-(bis(2-chloroethyl)amino)phenyl)propanoic acid

>  <TYPE>  (3122) 
Backbone

>  <CLASS>  (3122) 
alpha

>  <ANALOG>  (3122) 
Phe

>  <MOL_WT>  (3122) 
305.2049999999999

>  <LOGP>  (3122) 
1.925

>  <TPSA>  (3122) 
66.56

>  <POPULARITY>  (3122) 
13.5

>  <PROTECTED>  (3122) 
TRUE

>  <SMILES>  (3122) 
N[C@@H](Cc1(ccc(cc1)N(CCCl)CCCl))C(=O)O

>  <INCHIKEY>  (3122) 
SGDBTWWWUNNDEQ-LBPRGKRZSA-N

$$$$
Phe_4ethynyl
     RDKit          2D

 14 14  0  0  0  0  0  0  0  0999 V2000
   -1.9640    1.7008    0.0000 N   0  0  0  0  0  0  0  0  0  0  0  0
   -2.4550    0.2835    0.0000 C   0  0  0  0  0  0  0  0  0  0  0  0
   -1.4730   -0.8504    0.0000 C   0  0  0  0  0  0  0  0  0  0  0  0
   -0.0000   -0.5669    0.0000 C   0  0  0  0  0  0  0  0  0  0  0  0
    0.4910    0.8504    0.0000 C   0  0  0  0  0  0  0  0  0  0  0  0
    1.9640    1.1339    0.0000 C   0  0  0  0  0  0  0  0  0  0  0  0
    2.9459    0.0000    0.0000 C   0  0  0  0  0  0  0  0  0  0  0  0
    4.4189    0.2835    0.0000 C   0  0  0  0  0  0  0  0  0  0  0  0
    5.8919    0.5669    0.0000 C   0  0  0  0  0  0  0  0  0  0  0  0
    2.4550   -1.4174    0.0000 C   0  0  0  0  0  0  0  0  0  0  0  0
    0.9820   -1.7008    0.0000 C   0  0  0  0  0  0  0  0  0  0  0  0
   -3.9279   -0.0000    0.0000 C   0  0  0  0  0  0  0  0  0  0  0  0
   -4.4189   -1.4174    0.0000 O   0  0  0  0  0  0  0  0  0  0  0  0
   -4.9099    1.1339    0.0000 O   0  0  0  0  0  0  0  0  0  0  0  0
  2  1  1  1
  2  3  1  0
  3  4  1  0
  4  5  1  0
  5  6  2  0
  6  7  1  0
  7  8  1  0
  8  9  3  0
  7 10  2  0
 10 11  1  0
  2 12  1  0
 12 13  2  0
 12 14  1  0
 11  4  2  0
M  END
>  <rName>  (3123) 
Phe_4ethynyl

>  <PQ_SYMBOL>  (3123) 
Phe_4ethynyl

>  <FULL_NAME>  (3123) 
4-ethynyl-L-phenylalanine

>  <IUPAC_CONDENSED>  (3123) 
Phe(4-ethynyl)

>  <IUPAC>  (3123) 
(2S)-2-amino-3-(4-(ethynyl)phenyl)propanoic acid

>  <TYPE>  (3123) 
Backbone

>  <CLASS>  (3123) 
alpha

>  <ANALOG>  (3123) 
Phe

>  <MOL_WT>  (3123) 
189.21399999999997

>  <LOGP>  (3123) 
0.6223000000000001

>  <TPSA>  (3123) 
63.32000000000001

>  <POPULARITY>  (3123) 
10.8

>  <PROTECTED>  (3123) 
TRUE

>  <SMILES>  (3123) 
N[C@@H](Cc1(ccc(C#C)cc1))C(=O)O

>  <INCHIKEY>  (3123) 
PPDNGMUGVMESGE-JTQLQIEISA-N

$$$$
Phe_4ethynylTMS
     RDKit          2D

 18 18  0  0  0  0  0  0  0  0999 V2000
   -3.5704    1.7467    0.0000 N   0  0  0  0  0  0  0  0  0  0  0  0
   -4.1580    0.3666    0.0000 C   0  0  0  0  0  0  0  0  0  0  0  0
   -3.2567   -0.8323    0.0000 C   0  0  0  0  0  0  0  0  0  0  0  0
   -1.7676   -0.6512    0.0000 C   0  0  0  0  0  0  0  0  0  0  0  0
   -1.1800    0.7289    0.0000 C   0  0  0  0  0  0  0  0  0  0  0  0
    0.3090    0.9100    0.0000 C   0  0  0  0  0  0  0  0  0  0  0  0
    1.2104   -0.2890    0.0000 C   0  0  0  0  0  0  0  0  0  0  0  0
    2.6994   -0.1079    0.0000 C   0  0  0  0  0  0  0  0  0  0  0  0
    4.1885    0.0733    0.0000 C   0  0  0  0  0  0  0  0  0  0  0  0
    5.6775    0.2544    0.0000 Si  0  0  0  0  0  4  0  0  0  0  0  0
    5.8586   -1.2346    0.0000 C   0  0  0  0  0  0  0  0  0  0  0  0
    5.4964    1.7434    0.0000 C   0  0  0  0  0  0  0  0  0  0  0  0
    7.1665    0.4355    0.0000 C   0  0  0  0  0  0  0  0  0  0  0  0
    0.6228   -1.6691    0.0000 C   0  0  0  0  0  0  0  0  0  0  0  0
   -0.8663   -1.8502    0.0000 C   0  0  0  0  0  0  0  0  0  0  0  0
   -5.6471    0.1855    0.0000 C   0  0  0  0  0  0  0  0  0  0  0  0
   -6.2347   -1.1946    0.0000 O   0  0  0  0  0  0  0  0  0  0  0  0
   -6.5484    1.3845    0.0000 O   0  0  0  0  0  0  0  0  0  0  0  0
  2  1  1  1
  2  3  1  0
  3  4  1  0
  4  5  1  0
  5  6  2  0
  6  7  1  0
  7  8  1  0
  8  9  3  0
  9 10  1  0
 10 11  1  0
 10 12  1  0
 10 13  1  0
  7 14  2  0
 14 15  1  0
  2 16  1  0
 16 17  2  0
 16 18  1  0
 15  4  2  0
M  END
>  <rName>  (3124) 
Phe_4ethynylTMS

>  <PQ_SYMBOL>  (3124) 
Phe_4ethynylTMS

>  <FULL_NAME>  (3124) 
(S)-2-amino-3-(4-((trimethylsilyl)ethynyl)phenyl)propanoic acid

>  <IUPAC_CONDENSED>  (3124) 
Phe(4-ethynylTMS)

>  <IUPAC>  (3124) 
(2S)-2-amino-3-(4-(2-(trimethylsilyl)ethynyl)phenyl)propanoic acid

>  <TYPE>  (3124) 
Backbone

>  <CLASS>  (3124) 
alpha

>  <ANALOG>  (3124) 
Phe

>  <MOL_WT>  (3124) 
261.39699999999993

>  <LOGP>  (3124) 
1.8699000000000003

>  <TPSA>  (3124) 
63.32000000000001

>  <POPULARITY>  (3124) 
2.6

>  <PROTECTED>  (3124) 
TRUE

>  <SMILES>  (3124) 
N[C@@H](Cc1(ccc(C#C[Si](C)(C)C)cc1))C(=O)O

>  <INCHIKEY>  (3124) 
FWTNTVOWPVLODN-ZDUSSCGKSA-N

$$$$
Phe_4guanidino
     RDKit          2D

 16 16  0  0  0  0  0  0  0  0999 V2000
   -2.8646    1.6700    0.0000 N   0  0  0  0  0  0  0  0  0  0  0  0
   -3.2013    0.2083    0.0000 C   0  0  0  0  0  0  0  0  0  0  0  0
   -2.1038   -0.8141    0.0000 C   0  0  0  0  0  0  0  0  0  0  0  0
   -0.6696   -0.3749    0.0000 C   0  0  0  0  0  0  0  0  0  0  0  0
   -0.3329    1.0868    0.0000 C   0  0  0  0  0  0  0  0  0  0  0  0
    1.1014    1.5261    0.0000 C   0  0  0  0  0  0  0  0  0  0  0  0
    2.1989    0.5036    0.0000 C   0  0  0  0  0  0  0  0  0  0  0  0
    1.8622   -0.9581    0.0000 C   0  0  0  0  0  0  0  0  0  0  0  0
    0.4280   -1.3974    0.0000 C   0  0  0  0  0  0  0  0  0  0  0  0
    3.6332    0.9429    0.0000 N   0  0  0  0  0  0  0  0  0  0  0  0
    4.7307   -0.0796    0.0000 C   0  0  0  0  0  0  0  0  0  0  0  0
    4.3940   -1.5413    0.0000 N   0  0  0  0  0  0  0  0  0  0  0  0
    6.1649    0.3597    0.0000 N   0  0  0  0  0  0  0  0  0  0  0  0
   -4.6356   -0.2309    0.0000 C   0  0  0  0  0  0  0  0  0  0  0  0
   -4.9723   -1.6927    0.0000 O   0  0  0  0  0  0  0  0  0  0  0  0
   -5.7331    0.7915    0.0000 O   0  0  0  0  0  0  0  0  0  0  0  0
  2  1  1  1
  2  3  1  0
  3  4  1  0
  4  5  1  0
  5  6  2  0
  6  7  1  0
  7  8  2  0
  8  9  1  0
  7 10  1  0
 10 11  1  0
 11 12  2  0
 11 13  1  0
  2 14  1  0
 14 15  2  0
 14 16  1  0
  9  4  2  0
M  END
>  <rName>  (3125) 
Phe_4guanidino

>  <PQ_SYMBOL>  (3125) 
Phe_4guanidino

>  <FULL_NAME>  (3125) 
4-Guanidino-L-Phenylalanine

>  <IUPAC_CONDENSED>  (3125) 
Phe(4-guanidino)

>  <IUPAC>  (3125) 
(2S)-2-amino-3-(4-(((amino)(imino)methyl)amino)phenyl)propanoic acid

>  <TYPE>  (3125) 
Backbone

>  <CLASS>  (3125) 
alpha

>  <ANALOG>  (3125) 
Phe

>  <MOL_WT>  (3125) 
222.24799999999996

>  <LOGP>  (3125) 
-0.05363000000000029

>  <TPSA>  (3125) 
125.22000000000001

>  <POPULARITY>  (3125) 
18.1

>  <PROTECTED>  (3125) 
TRUE

>  <SMILES>  (3125) 
N[C@@H](Cc1(ccc(cc1)NC(=N)N))C(=O)O

>  <INCHIKEY>  (3125) 
FYMNTAQFDTZISY-QMMMGPOBSA-N

$$$$
Phe_4iBu
     RDKit          2D

 16 16  0  0  0  0  0  0  0  0999 V2000
   -2.8646    1.6700    0.0000 N   0  0  0  0  0  0  0  0  0  0  0  0
   -3.2013    0.2083    0.0000 C   0  0  0  0  0  0  0  0  0  0  0  0
   -2.1038   -0.8141    0.0000 C   0  0  0  0  0  0  0  0  0  0  0  0
   -0.6696   -0.3749    0.0000 C   0  0  0  0  0  0  0  0  0  0  0  0
   -0.3329    1.0868    0.0000 C   0  0  0  0  0  0  0  0  0  0  0  0
    1.1014    1.5261    0.0000 C   0  0  0  0  0  0  0  0  0  0  0  0
    2.1989    0.5036    0.0000 C   0  0  0  0  0  0  0  0  0  0  0  0
    1.8622   -0.9581    0.0000 C   0  0  0  0  0  0  0  0  0  0  0  0
    0.4280   -1.3974    0.0000 C   0  0  0  0  0  0  0  0  0  0  0  0
    3.6332    0.9429    0.0000 C   0  0  0  0  0  0  0  0  0  0  0  0
    4.7307   -0.0796    0.0000 C   0  0  0  0  0  0  0  0  0  0  0  0
    6.1649    0.3597    0.0000 C   0  0  0  0  0  0  0  0  0  0  0  0
    4.3940   -1.5413    0.0000 C   0  0  0  0  0  0  0  0  0  0  0  0
   -4.6356   -0.2309    0.0000 C   0  0  0  0  0  0  0  0  0  0  0  0
   -4.9723   -1.6927    0.0000 O   0  0  0  0  0  0  0  0  0  0  0  0
   -5.7331    0.7915    0.0000 O   0  0  0  0  0  0  0  0  0  0  0  0
  2  1  1  1
  2  3  1  0
  3  4  1  0
  4  5  1  0
  5  6  2  0
  6  7  1  0
  7  8  2  0
  8  9  1  0
  7 10  1  0
 10 11  1  0
 11 12  1  0
 11 13  1  0
  2 14  1  0
 14 15  2  0
 14 16  1  0
  9  4  2  0
M  END
>  <rName>  (3126) 
Phe_4iBu

>  <PQ_SYMBOL>  (3126) 
Phe_4iBu

>  <FULL_NAME>  (3126) 
4-Isobutyl-L-phenylalanine (H-L-Phe(4-iBu)-OH)

>  <IUPAC_CONDENSED>  (3126) 
Phe(4-iBu)

>  <IUPAC>  (3126) 
(2S)-2-amino-3-[4-(2-methylpropyl)phenyl]propanoic acid

>  <TYPE>  (3126) 
Backbone

>  <CLASS>  (3126) 
alpha

>  <ANALOG>  (3126) 
Phe

>  <MOL_WT>  (3126) 
221.29999999999995

>  <LOGP>  (3126) 
1.8395000000000001

>  <TPSA>  (3126) 
63.32000000000001

>  <POPULARITY>  (3126) 
3.5

>  <PROTECTED>  (3126) 
TRUE

>  <SMILES>  (3126) 
N[C@@H](Cc1(ccc(cc1)CC(C)C))C(=O)O

>  <INCHIKEY>  (3126) 
UOEVBYYIYAIKDF-LBPRGKRZSA-N

$$$$
Phe_4iPr
     RDKit          2D

 15 15  0  0  0  0  0  0  0  0999 V2000
   -2.2547    1.6872    0.0000 N   0  0  0  0  0  0  0  0  0  0  0  0
   -2.7489    0.2709    0.0000 C   0  0  0  0  0  0  0  0  0  0  0  0
   -1.7696   -0.8652    0.0000 C   0  0  0  0  0  0  0  0  0  0  0  0
   -0.2959   -0.5852    0.0000 C   0  0  0  0  0  0  0  0  0  0  0  0
    0.1983    0.8311    0.0000 C   0  0  0  0  0  0  0  0  0  0  0  0
    1.6719    1.1111    0.0000 C   0  0  0  0  0  0  0  0  0  0  0  0
    2.6513   -0.0250    0.0000 C   0  0  0  0  0  0  0  0  0  0  0  0
    2.1570   -1.4413    0.0000 C   0  0  0  0  0  0  0  0  0  0  0  0
    0.6834   -1.7213    0.0000 C   0  0  0  0  0  0  0  0  0  0  0  0
    4.1249    0.2550    0.0000 C   0  0  0  0  0  0  0  0  0  0  0  0
    5.1043   -0.8811    0.0000 C   0  0  0  0  0  0  0  0  0  0  0  0
    4.6192    1.6713    0.0000 C   0  0  0  0  0  0  0  0  0  0  0  0
   -4.2225   -0.0091    0.0000 C   0  0  0  0  0  0  0  0  0  0  0  0
   -4.7168   -1.4254    0.0000 O   0  0  0  0  0  0  0  0  0  0  0  0
   -5.2019    1.1270    0.0000 O   0  0  0  0  0  0  0  0  0  0  0  0
  2  1  1  1
  2  3  1  0
  3  4  1  0
  4  5  1  0
  5  6  2  0
  6  7  1  0
  7  8  2  0
  8  9  1  0
  7 10  1  0
 10 11  1  0
 10 12  1  0
  2 13  1  0
 13 14  2  0
 13 15  1  0
  9  4  2  0
M  END
>  <rName>  (3127) 
Phe_4iPr

>  <PQ_SYMBOL>  (3127) 
Phe_4iPr

>  <FULL_NAME>  (3127) 
(S)-2-amino-3-(4-isopropylphenyl)propanoic acid

>  <IUPAC_CONDENSED>  (3127) 
Phe(4-iPr)

>  <IUPAC>  (3127) 
(2S)-2-amino-3-(4-(propan-2-yl)phenyl)propanoic acid

>  <TYPE>  (3127) 
Backbone

>  <CLASS>  (3127) 
alpha

>  <ANALOG>  (3127) 
Phe

>  <MOL_WT>  (3127) 
207.27299999999997

>  <LOGP>  (3127) 
1.7644000000000002

>  <TPSA>  (3127) 
63.32000000000001

>  <POPULARITY>  (3127) 
8.1

>  <PROTECTED>  (3127) 
TRUE

>  <SMILES>  (3127) 
N[C@@H](Cc1(ccc(cc1)C(C)C))C(=O)O

>  <INCHIKEY>  (3127) 
CYHRSNOITZHLJN-NSHDSACASA-N

$$$$
Phe_4isoxazol4yl_35diMe
     RDKit          2D

 19 20  0  0  0  0  0  0  0  0999 V2000
   -3.3688    1.6810    0.0000 N   0  0  0  0  0  0  0  0  0  0  0  0
   -3.9061    0.2806    0.0000 C   0  0  0  0  0  0  0  0  0  0  0  0
   -2.9620   -0.8850    0.0000 C   0  0  0  0  0  0  0  0  0  0  0  0
   -1.4805   -0.6501    0.0000 C   0  0  0  0  0  0  0  0  0  0  0  0
   -0.9432    0.7504    0.0000 C   0  0  0  0  0  0  0  0  0  0  0  0
    0.5383    0.9853    0.0000 C   0  0  0  0  0  0  0  0  0  0  0  0
    1.4825   -0.1803    0.0000 C   0  0  0  0  0  0  0  0  0  0  0  0
    0.9452   -1.5807    0.0000 C   0  0  0  0  0  0  0  0  0  0  0  0
   -0.5363   -1.8156    0.0000 C   0  0  0  0  0  0  0  0  0  0  0  0
    2.9640    0.0546    0.0000 C   0  0  0  0  0  0  0  0  0  0  0  0
    3.6448    1.3912    0.0000 C   0  0  0  0  0  0  0  0  0  0  0  0
    2.9636    2.7276    0.0000 C   0  0  0  0  0  0  0  0  0  0  0  0
    5.1263    1.1568    0.0000 N   0  0  0  0  0  0  0  0  0  0  0  0
    5.3612   -0.3247    0.0000 O   0  0  0  0  0  0  0  0  0  0  0  0
    4.0248   -1.0059    0.0000 C   0  0  0  0  0  0  0  0  0  0  0  0
    3.7904   -2.4874    0.0000 C   0  0  0  0  0  0  0  0  0  0  0  0
   -5.3876    0.0457    0.0000 C   0  0  0  0  0  0  0  0  0  0  0  0
   -5.9250   -1.3548    0.0000 O   0  0  0  0  0  0  0  0  0  0  0  0
   -6.3318    1.2112    0.0000 O   0  0  0  0  0  0  0  0  0  0  0  0
  2  1  1  1
  2  3  1  0
  3  4  1  0
  4  5  1  0
  5  6  2  0
  6  7  1  0
  7  8  2  0
  8  9  1  0
  7 10  1  0
 10 11  1  0
 11 12  1  0
 11 13  2  0
 13 14  1  0
 14 15  1  0
 15 16  1  0
  2 17  1  0
 17 18  2  0
 17 19  1  0
  9  4  2  0
 15 10  2  0
M  END
>  <rName>  (3128) 
Phe_4isoxazol4yl_35diMe

>  <PQ_SYMBOL>  (3128) 
Phe_4isoxazol4yl_35diMe

>  <FULL_NAME>  (3128) 
(S)-2-amino-3-(4-(3,5-dimethylisoxazol-4-yl)phenyl)propanoic acid

>  <IUPAC_CONDENSED>  (3128) 
Phe(4-isoxazol-4-yl(3,5-diMe))

>  <IUPAC>  (3128) 
(2S)-2-amino-3-(4-(3,5-dimethylisoxazol-4-yl)phenyl)propanoic acid

>  <TYPE>  (3128) 
Backbone

>  <CLASS>  (3128) 
alpha

>  <ANALOG>  (3128) 
Phe

>  <MOL_WT>  (3128) 
260.29299999999995

>  <LOGP>  (3128) 
1.91284

>  <TPSA>  (3128) 
89.35000000000001

>  <POPULARITY>  (3128) 
4.1

>  <PROTECTED>  (3128) 
TRUE

>  <SMILES>  (3128) 
N[C@@H](Cc1(ccc(cc1)c2(c(C)noc2C)))C(=O)O

>  <INCHIKEY>  (3128) 
XKIJDWRDDSOHCZ-LBPRGKRZSA-N

$$$$
Phe_4piperazin1yl
     RDKit          2D

 18 19  0  0  0  0  0  0  0  0999 V2000
   -3.2769    1.7174    0.0000 N   0  0  0  0  0  0  0  0  0  0  0  0
   -3.8349    0.3251    0.0000 C   0  0  0  0  0  0  0  0  0  0  0  0
   -2.9082   -0.8544    0.0000 C   0  0  0  0  0  0  0  0  0  0  0  0
   -1.4234   -0.6415    0.0000 C   0  0  0  0  0  0  0  0  0  0  0  0
   -0.8653    0.7508    0.0000 C   0  0  0  0  0  0  0  0  0  0  0  0
    0.6195    0.9637    0.0000 C   0  0  0  0  0  0  0  0  0  0  0  0
    1.5463   -0.2158    0.0000 C   0  0  0  0  0  0  0  0  0  0  0  0
    0.9882   -1.6081    0.0000 C   0  0  0  0  0  0  0  0  0  0  0  0
   -0.4966   -1.8210    0.0000 C   0  0  0  0  0  0  0  0  0  0  0  0
    3.0311   -0.0029    0.0000 N   0  0  0  0  0  0  0  0  0  0  0  0
    3.9578   -1.1824    0.0000 C   0  0  0  0  0  0  0  0  0  0  0  0
    5.4427   -0.9695    0.0000 C   0  0  0  0  0  0  0  0  0  0  0  0
    6.0007    0.4228    0.0000 N   0  0  0  0  0  0  0  0  0  0  0  0
    5.0740    1.6023    0.0000 C   0  0  0  0  0  0  0  0  0  0  0  0
    3.5891    1.3894    0.0000 C   0  0  0  0  0  0  0  0  0  0  0  0
   -5.3198    0.1122    0.0000 C   0  0  0  0  0  0  0  0  0  0  0  0
   -5.8778   -1.2801    0.0000 O   0  0  0  0  0  0  0  0  0  0  0  0
   -6.2465    1.2917    0.0000 O   0  0  0  0  0  0  0  0  0  0  0  0
  2  1  1  1
  2  3  1  0
  3  4  1  0
  4  5  1  0
  5  6  2  0
  6  7  1  0
  7  8  2  0
  8  9  1  0
  7 10  1  0
 10 11  1  0
 11 12  1  0
 12 13  1  0
 13 14  1  0
 14 15  1  0
  2 16  1  0
 16 17  2  0
 16 18  1  0
  9  4  2  0
 15 10  1  0
M  END
>  <rName>  (3129) 
Phe_4piperazin1yl

>  <PQ_SYMBOL>  (3129) 
Phe_4piperazin1yl

>  <FULL_NAME>  (3129) 
(S)-2-amino-3-(4-(piperazin-1-yl)phenyl)propanoic acid

>  <IUPAC_CONDENSED>  (3129) 
Phe(piperazino)

>  <IUPAC>  (3129) 
(2S)-2-amino-3-(4-(piperazin-1-yl)phenyl)propanoic acid

>  <TYPE>  (3129) 
Backbone

>  <CLASS>  (3129) 
alpha

>  <ANALOG>  (3129) 
Phe

>  <MOL_WT>  (3129) 
249.3139999999999

>  <LOGP>  (3129) 
0.05059999999999992

>  <TPSA>  (3129) 
78.59

>  <POPULARITY>  (3129) 
5.2

>  <PROTECTED>  (3129) 
TRUE

>  <SMILES>  (3129) 
N[C@@H](Cc1(ccc(cc1)N2(CCNCC2)))C(=O)O

>  <INCHIKEY>  (3129) 
IIDQBUPOQMTSDY-LBPRGKRZSA-N

$$$$
Phe_4piperazin1yl_4Me
     RDKit          2D

 19 20  0  0  0  0  0  0  0  0999 V2000
   -3.6454    1.7385    0.0000 N   0  0  0  0  0  0  0  0  0  0  0  0
   -4.2241    0.3546    0.0000 C   0  0  0  0  0  0  0  0  0  0  0  0
   -3.3150   -0.8385    0.0000 C   0  0  0  0  0  0  0  0  0  0  0  0
   -1.8272   -0.6478    0.0000 C   0  0  0  0  0  0  0  0  0  0  0  0
   -1.2485    0.7361    0.0000 C   0  0  0  0  0  0  0  0  0  0  0  0
    0.2394    0.9268    0.0000 C   0  0  0  0  0  0  0  0  0  0  0  0
    1.1485   -0.2664    0.0000 C   0  0  0  0  0  0  0  0  0  0  0  0
    0.5697   -1.6502    0.0000 C   0  0  0  0  0  0  0  0  0  0  0  0
   -0.9181   -1.8409    0.0000 C   0  0  0  0  0  0  0  0  0  0  0  0
    2.6363   -0.0757    0.0000 N   0  0  0  0  0  0  0  0  0  0  0  0
    3.5454   -1.2688    0.0000 C   0  0  0  0  0  0  0  0  0  0  0  0
    5.0332   -1.0781    0.0000 C   0  0  0  0  0  0  0  0  0  0  0  0
    5.6119    0.3058    0.0000 N   0  0  0  0  0  0  0  0  0  0  0  0
    7.0998    0.4965    0.0000 C   0  0  0  0  0  0  0  0  0  0  0  0
    4.7029    1.4989    0.0000 C   0  0  0  0  0  0  0  0  0  0  0  0
    3.2150    1.3082    0.0000 C   0  0  0  0  0  0  0  0  0  0  0  0
   -5.7119    0.1639    0.0000 C   0  0  0  0  0  0  0  0  0  0  0  0
   -6.2907   -1.2199    0.0000 O   0  0  0  0  0  0  0  0  0  0  0  0
   -6.6210    1.3571    0.0000 O   0  0  0  0  0  0  0  0  0  0  0  0
  2  1  1  1
  2  3  1  0
  3  4  1  0
  4  5  1  0
  5  6  2  0
  6  7  1  0
  7  8  2  0
  8  9  1  0
  7 10  1  0
 10 11  1  0
 11 12  1  0
 12 13  1  0
 13 14  1  0
 13 15  1  0
 15 16  1  0
  2 17  1  0
 17 18  2  0
 17 19  1  0
  9  4  2  0
 16 10  1  0
M  END
>  <rName>  (3130) 
Phe_4piperazin1yl_4Me

>  <PQ_SYMBOL>  (3130) 
Phe_4piperazin1yl_4Me

>  <FULL_NAME>  (3130) 
(S)-2-amino-3-(4-(4-methylpiperazin-1-yl)phenyl)propanoic acid

>  <IUPAC_CONDENSED>  (3130) 
Phe(piperazino(4-Me))

>  <IUPAC>  (3130) 
(2S)-2-amino-3-(4-(4-methylpiperazin-1-yl)phenyl)propanoic acid

>  <TYPE>  (3130) 
Backbone

>  <CLASS>  (3130) 
alpha

>  <ANALOG>  (3130) 
Phe

>  <MOL_WT>  (3130) 
263.3409999999999

>  <LOGP>  (3130) 
0.3928000000000002

>  <TPSA>  (3130) 
69.8

>  <POPULARITY>  (3130) 
5.2

>  <PROTECTED>  (3130) 
TRUE

>  <SMILES>  (3130) 
N[C@@H](Cc1(ccc(cc1)N2(CCN(C)CC2)))C(=O)O

>  <INCHIKEY>  (3130) 
NXYXFDRVWKVFEZ-ZDUSSCGKSA-N

$$$$
Phe_4pyrid2yl
     RDKit          2D

 18 19  0  0  0  0  0  0  0  0999 V2000
   -3.2769    1.7174    0.0000 N   0  0  0  0  0  0  0  0  0  0  0  0
   -3.8349    0.3251    0.0000 C   0  0  0  0  0  0  0  0  0  0  0  0
   -2.9082   -0.8544    0.0000 C   0  0  0  0  0  0  0  0  0  0  0  0
   -1.4234   -0.6415    0.0000 C   0  0  0  0  0  0  0  0  0  0  0  0
   -0.8653    0.7508    0.0000 C   0  0  0  0  0  0  0  0  0  0  0  0
    0.6195    0.9637    0.0000 C   0  0  0  0  0  0  0  0  0  0  0  0
    1.5463   -0.2158    0.0000 C   0  0  0  0  0  0  0  0  0  0  0  0
    0.9882   -1.6081    0.0000 C   0  0  0  0  0  0  0  0  0  0  0  0
   -0.4966   -1.8210    0.0000 C   0  0  0  0  0  0  0  0  0  0  0  0
    3.0311   -0.0029    0.0000 C   0  0  0  0  0  0  0  0  0  0  0  0
    3.9578   -1.1824    0.0000 C   0  0  0  0  0  0  0  0  0  0  0  0
    5.4427   -0.9695    0.0000 C   0  0  0  0  0  0  0  0  0  0  0  0
    6.0007    0.4228    0.0000 C   0  0  0  0  0  0  0  0  0  0  0  0
    5.0740    1.6023    0.0000 C   0  0  0  0  0  0  0  0  0  0  0  0
    3.5891    1.3894    0.0000 N   0  0  0  0  0  0  0  0  0  0  0  0
   -5.3198    0.1122    0.0000 C   0  0  0  0  0  0  0  0  0  0  0  0
   -5.8778   -1.2801    0.0000 O   0  0  0  0  0  0  0  0  0  0  0  0
   -6.2465    1.2917    0.0000 O   0  0  0  0  0  0  0  0  0  0  0  0
  2  1  1  1
  2  3  1  0
  3  4  1  0
  4  5  1  0
  5  6  2  0
  6  7  1  0
  7  8  2  0
  8  9  1  0
  7 10  1  0
 10 11  2  0
 11 12  1  0
 12 13  2  0
 13 14  1  0
 14 15  2  0
  2 16  1  0
 16 17  2  0
 16 18  1  0
  9  4  2  0
 15 10  1  0
M  END
>  <rName>  (3131) 
Phe_4pyrid2yl

>  <PQ_SYMBOL>  (3131) 
Phe_4pyrid2yl

>  <FULL_NAME>  (3131) 
(S)-2-amino-3-(4-(pyridin-2-yl)phenyl)propanoic acid

>  <IUPAC_CONDENSED>  (3131) 
Phe(4-pyrid-2-yl)

>  <IUPAC>  (3131) 
(2S)-2-amino-3-(4-pyridin-2-ylphenyl)propanoic acid

>  <TYPE>  (3131) 
Backbone

>  <CLASS>  (3131) 
alpha

>  <ANALOG>  (3131) 
Phe

>  <MOL_WT>  (3131) 
242.278

>  <LOGP>  (3131) 
1.703

>  <TPSA>  (3131) 
76.21

>  <POPULARITY>  (3131) 
3.5

>  <PROTECTED>  (3131) 
TRUE

>  <SMILES>  (3131) 
N[C@@H](Cc1(ccc(cc1)c2(ccccn2)))C(=O)O

>  <INCHIKEY>  (3131) 
OWCPLIWSWLTAFU-LBPRGKRZSA-N

$$$$
Phe_4pyrid4yl
     RDKit          2D

 18 19  0  0  0  0  0  0  0  0999 V2000
   -3.2769    1.7174    0.0000 N   0  0  0  0  0  0  0  0  0  0  0  0
   -3.8349    0.3251    0.0000 C   0  0  0  0  0  0  0  0  0  0  0  0
   -2.9082   -0.8544    0.0000 C   0  0  0  0  0  0  0  0  0  0  0  0
   -1.4234   -0.6415    0.0000 C   0  0  0  0  0  0  0  0  0  0  0  0
   -0.8653    0.7508    0.0000 C   0  0  0  0  0  0  0  0  0  0  0  0
    0.6195    0.9637    0.0000 C   0  0  0  0  0  0  0  0  0  0  0  0
    1.5463   -0.2158    0.0000 C   0  0  0  0  0  0  0  0  0  0  0  0
    0.9882   -1.6081    0.0000 C   0  0  0  0  0  0  0  0  0  0  0  0
   -0.4966   -1.8210    0.0000 C   0  0  0  0  0  0  0  0  0  0  0  0
    3.0311   -0.0029    0.0000 C   0  0  0  0  0  0  0  0  0  0  0  0
    3.9578   -1.1824    0.0000 C   0  0  0  0  0  0  0  0  0  0  0  0
    5.4427   -0.9695    0.0000 C   0  0  0  0  0  0  0  0  0  0  0  0
    6.0007    0.4228    0.0000 N   0  0  0  0  0  0  0  0  0  0  0  0
    5.0740    1.6023    0.0000 C   0  0  0  0  0  0  0  0  0  0  0  0
    3.5891    1.3894    0.0000 C   0  0  0  0  0  0  0  0  0  0  0  0
   -5.3198    0.1122    0.0000 C   0  0  0  0  0  0  0  0  0  0  0  0
   -5.8778   -1.2801    0.0000 O   0  0  0  0  0  0  0  0  0  0  0  0
   -6.2465    1.2917    0.0000 O   0  0  0  0  0  0  0  0  0  0  0  0
  2  1  1  1
  2  3  1  0
  3  4  1  0
  4  5  1  0
  5  6  2  0
  6  7  1  0
  7  8  2  0
  8  9  1  0
  7 10  1  0
 10 11  1  0
 11 12  2  0
 12 13  1  0
 13 14  2  0
 14 15  1  0
  2 16  1  0
 16 17  2  0
 16 18  1  0
  9  4  2  0
 15 10  2  0
M  END
>  <rName>  (3132) 
Phe_4pyrid4yl

>  <PQ_SYMBOL>  (3132) 
Phe_4pyrid4yl

>  <FULL_NAME>  (3132) 
(S)-2-amino-3-(4-(pyridin-4-yl)phenyl)propanoic acid

>  <IUPAC_CONDENSED>  (3132) 
Phe(4-pyrid-4-yl)

>  <IUPAC>  (3132) 
(2S)-2-amino-3-(4-(pyridin-4-yl)phenyl)propanoic acid

>  <TYPE>  (3132) 
Backbone

>  <CLASS>  (3132) 
alpha

>  <ANALOG>  (3132) 
Phe

>  <MOL_WT>  (3132) 
242.278

>  <LOGP>  (3132) 
1.703

>  <TPSA>  (3132) 
76.21

>  <POPULARITY>  (3132) 
8.5

>  <PROTECTED>  (3132) 
TRUE

>  <SMILES>  (3132) 
N[C@@H](Cc1(ccc(cc1)c2(ccncc2)))C(=O)O

>  <INCHIKEY>  (3132) 
VLCKOHYUPSSERC-ZDUSSCGKSA-N

$$$$
Phe_4tBu
     RDKit          2D

 16 16  0  0  0  0  0  0  0  0999 V2000
   -2.5021    1.6866    0.0000 N   0  0  0  0  0  0  0  0  0  0  0  0
   -3.0051    0.2735    0.0000 C   0  0  0  0  0  0  0  0  0  0  0  0
   -2.0328   -0.8687    0.0000 C   0  0  0  0  0  0  0  0  0  0  0  0
   -0.5574   -0.5977    0.0000 C   0  0  0  0  0  0  0  0  0  0  0  0
   -0.0545    0.8155    0.0000 C   0  0  0  0  0  0  0  0  0  0  0  0
    1.4208    1.0865    0.0000 C   0  0  0  0  0  0  0  0  0  0  0  0
    2.3932   -0.0557    0.0000 C   0  0  0  0  0  0  0  0  0  0  0  0
    1.8902   -1.4688    0.0000 C   0  0  0  0  0  0  0  0  0  0  0  0
    0.4149   -1.7398    0.0000 C   0  0  0  0  0  0  0  0  0  0  0  0
    3.8685    0.2153    0.0000 C   0  0  0  0  0  0  0  0  0  0  0  0
    4.1395   -1.2600    0.0000 C   0  0  0  0  0  0  0  0  0  0  0  0
    3.5975    1.6906    0.0000 C   0  0  0  0  0  0  0  0  0  0  0  0
    5.3438    0.4863    0.0000 C   0  0  0  0  0  0  0  0  0  0  0  0
   -4.4804    0.0025    0.0000 C   0  0  0  0  0  0  0  0  0  0  0  0
   -4.9834   -1.4107    0.0000 O   0  0  0  0  0  0  0  0  0  0  0  0
   -5.4528    1.1446    0.0000 O   0  0  0  0  0  0  0  0  0  0  0  0
  2  1  1  1
  2  3  1  0
  3  4  1  0
  4  5  1  0
  5  6  2  0
  6  7  1  0
  7  8  2  0
  8  9  1  0
  7 10  1  0
 10 11  1  0
 10 12  1  0
 10 13  1  0
  2 14  1  0
 14 15  2  0
 14 16  1  0
  9  4  2  0
M  END
>  <rName>  (3133) 
Phe_4tBu

>  <PQ_SYMBOL>  (3133) 
Phe_4tBu

>  <FULL_NAME>  (3133) 
4-tert-Butyl-L-Phenylalanine

>  <IUPAC_CONDENSED>  (3133) 
Phe(4-tBu)

>  <IUPAC>  (3133) 
(2S)-2-amino-3-(4-(tert-butyl)phenyl)propanoic acid

>  <TYPE>  (3133) 
Backbone

>  <CLASS>  (3133) 
alpha

>  <ANALOG>  (3133) 
Phe

>  <MOL_WT>  (3133) 
221.29999999999995

>  <LOGP>  (3133) 
1.9385000000000001

>  <TPSA>  (3133) 
63.32000000000001

>  <POPULARITY>  (3133) 
12.5

>  <PROTECTED>  (3133) 
TRUE

>  <SMILES>  (3133) 
N[C@@H](Cc1(ccc(cc1)C(C)(C)C))C(=O)O

>  <INCHIKEY>  (3133) 
CSJZKSXYLTYFPU-NSHDSACASA-N

$$$$
Phe_4ureido
     RDKit          2D

 16 16  0  0  0  0  0  0  0  0999 V2000
   -2.8646    1.6700    0.0000 N   0  0  0  0  0  0  0  0  0  0  0  0
   -3.2013    0.2083    0.0000 C   0  0  0  0  0  0  0  0  0  0  0  0
   -2.1038   -0.8141    0.0000 C   0  0  0  0  0  0  0  0  0  0  0  0
   -0.6696   -0.3749    0.0000 C   0  0  0  0  0  0  0  0  0  0  0  0
   -0.3329    1.0868    0.0000 C   0  0  0  0  0  0  0  0  0  0  0  0
    1.1014    1.5261    0.0000 C   0  0  0  0  0  0  0  0  0  0  0  0
    2.1989    0.5036    0.0000 C   0  0  0  0  0  0  0  0  0  0  0  0
    1.8622   -0.9581    0.0000 C   0  0  0  0  0  0  0  0  0  0  0  0
    0.4280   -1.3974    0.0000 C   0  0  0  0  0  0  0  0  0  0  0  0
    3.6332    0.9429    0.0000 N   0  0  0  0  0  0  0  0  0  0  0  0
    4.7307   -0.0796    0.0000 C   0  0  0  0  0  0  0  0  0  0  0  0
    4.3940   -1.5413    0.0000 O   0  0  0  0  0  0  0  0  0  0  0  0
    6.1649    0.3597    0.0000 N   0  0  0  0  0  0  0  0  0  0  0  0
   -4.6356   -0.2309    0.0000 C   0  0  0  0  0  0  0  0  0  0  0  0
   -4.9723   -1.6927    0.0000 O   0  0  0  0  0  0  0  0  0  0  0  0
   -5.7331    0.7915    0.0000 O   0  0  0  0  0  0  0  0  0  0  0  0
  2  1  1  1
  2  3  1  0
  3  4  1  0
  4  5  1  0
  5  6  2  0
  6  7  1  0
  7  8  2  0
  8  9  1  0
  7 10  1  0
 10 11  1  0
 11 12  2  0
 11 13  1  0
  2 14  1  0
 14 15  2  0
 14 16  1  0
  9  4  2  0
M  END
>  <rName>  (3134) 
Phe_4ureido

>  <PQ_SYMBOL>  (3134) 
Phe_4ureido

>  <FULL_NAME>  (3134) 
(2S)-2-amino-3-[4-(carbamoylamino)phenyl]propanoic acid

>  <IUPAC_CONDENSED>  (3134) 
Phe(4-ureido)

>  <IUPAC>  (3134) 
(2S)-2-amino-3-(4-(carbamoylamino)phenyl)propanoic acid

>  <TYPE>  (3134) 
Backbone

>  <CLASS>  (3134) 
alpha

>  <ANALOG>  (3134) 
Phe

>  <MOL_WT>  (3134) 
223.23199999999994

>  <LOGP>  (3134) 
0.1316

>  <TPSA>  (3134) 
118.44000000000001

>  <POPULARITY>  (3134) 
14.7

>  <PROTECTED>  (3134) 
TRUE

>  <SMILES>  (3134) 
N[C@@H](Cc1(ccc(cc1)NC(=O)N))C(=O)O

>  <INCHIKEY>  (3134) 
ZTAKYRNNPKFXGS-QMMMGPOBSA-N

$$$$
Phe_4ureido_tBu
     RDKit          2D

 20 20  0  0  0  0  0  0  0  0999 V2000
   -4.4694    1.6046    0.0000 N   0  0  0  0  0  0  0  0  0  0  0  0
   -4.7233    0.1263    0.0000 C   0  0  0  0  0  0  0  0  0  0  0  0
   -3.5700   -0.8328    0.0000 C   0  0  0  0  0  0  0  0  0  0  0  0
   -2.1627   -0.3135    0.0000 C   0  0  0  0  0  0  0  0  0  0  0  0
   -1.9088    1.1649    0.0000 C   0  0  0  0  0  0  0  0  0  0  0  0
   -0.5016    1.6842    0.0000 C   0  0  0  0  0  0  0  0  0  0  0  0
    0.6518    0.7251    0.0000 C   0  0  0  0  0  0  0  0  0  0  0  0
    0.3979   -0.7532    0.0000 C   0  0  0  0  0  0  0  0  0  0  0  0
   -1.0094   -1.2725    0.0000 C   0  0  0  0  0  0  0  0  0  0  0  0
    2.0590    1.2444    0.0000 N   0  0  0  0  0  0  0  0  0  0  0  0
    3.2123    0.2854    0.0000 C   0  0  0  0  0  0  0  0  0  0  0  0
    2.9585   -1.1930    0.0000 O   0  0  0  0  0  0  0  0  0  0  0  0
    4.6196    0.8047    0.0000 N   0  0  0  0  0  0  0  0  0  0  0  0
    5.7729   -0.1544    0.0000 C   0  0  0  0  0  0  0  0  0  0  0  0
    6.7320    0.9990    0.0000 C   0  0  0  0  0  0  0  0  0  0  0  0
    4.8139   -1.3077    0.0000 C   0  0  0  0  0  0  0  0  0  0  0  0
    6.9263   -1.1134    0.0000 C   0  0  0  0  0  0  0  0  0  0  0  0
   -6.1306   -0.3930    0.0000 C   0  0  0  0  0  0  0  0  0  0  0  0
   -6.3844   -1.8714    0.0000 O   0  0  0  0  0  0  0  0  0  0  0  0
   -7.2839    0.5660    0.0000 O   0  0  0  0  0  0  0  0  0  0  0  0
  2  1  1  1
  2  3  1  0
  3  4  1  0
  4  5  1  0
  5  6  2  0
  6  7  1  0
  7  8  2  0
  8  9  1  0
  7 10  1  0
 10 11  1  0
 11 12  2  0
 11 13  1  0
 13 14  1  0
 14 15  1  0
 14 16  1  0
 14 17  1  0
  2 18  1  0
 18 19  2  0
 18 20  1  0
  9  4  2  0
M  END
>  <rName>  (3135) 
Phe_4ureido_tBu

>  <PQ_SYMBOL>  (3135) 
Phe_4ureido_tBu

>  <FULL_NAME>  (3135) 
(S)-2-amino-3-(4-(3-(tert-butyl)ureido)phenyl)propanoic acid

>  <IUPAC_CONDENSED>  (3135) 
Phe(4-ureido(tBu))

>  <IUPAC>  (3135) 
(2S)-2-amino-3-(4-(((tert-butyl)carbamoyl)amino)phenyl)propanoic acid

>  <TYPE>  (3135) 
Backbone

>  <CLASS>  (3135) 
alpha

>  <ANALOG>  (3135) 
Phe

>  <MOL_WT>  (3135) 
279.34

>  <LOGP>  (3135) 
1.561

>  <TPSA>  (3135) 
104.45

>  <POPULARITY>  (3135) 
4.2

>  <PROTECTED>  (3135) 
TRUE

>  <SMILES>  (3135) 
N[C@@H](Cc1(ccc(cc1)NC(=O)NC(C)(C)C))C(=O)O

>  <INCHIKEY>  (3135) 
QAUACHLRTFZNBE-NSHDSACASA-N

$$$$
Phe_4vinyl
     RDKit          2D

 14 14  0  0  0  0  0  0  0  0999 V2000
   -2.0397    1.6757    0.0000 N   0  0  0  0  0  0  0  0  0  0  0  0
   -2.4395    0.2299    0.0000 C   0  0  0  0  0  0  0  0  0  0  0  0
   -1.3873   -0.8392    0.0000 C   0  0  0  0  0  0  0  0  0  0  0  0
    0.0646   -0.4625    0.0000 C   0  0  0  0  0  0  0  0  0  0  0  0
    0.4644    0.9832    0.0000 C   0  0  0  0  0  0  0  0  0  0  0  0
    1.9164    1.3598    0.0000 C   0  0  0  0  0  0  0  0  0  0  0  0
    2.9685    0.2907    0.0000 C   0  0  0  0  0  0  0  0  0  0  0  0
    4.4205    0.6674    0.0000 C   0  0  0  0  0  0  0  0  0  0  0  0
    5.4726   -0.4017    0.0000 C   0  0  0  0  0  0  0  0  0  0  0  0
    2.5687   -1.1550    0.0000 C   0  0  0  0  0  0  0  0  0  0  0  0
    1.1168   -1.5316    0.0000 C   0  0  0  0  0  0  0  0  0  0  0  0
   -3.8914   -0.1467    0.0000 C   0  0  0  0  0  0  0  0  0  0  0  0
   -4.2912   -1.5924    0.0000 O   0  0  0  0  0  0  0  0  0  0  0  0
   -4.9436    0.9224    0.0000 O   0  0  0  0  0  0  0  0  0  0  0  0
  2  1  1  1
  2  3  1  0
  3  4  1  0
  4  5  1  0
  5  6  2  0
  6  7  1  0
  7  8  1  0
  8  9  2  0
  7 10  2  0
 10 11  1  0
  2 12  1  0
 12 13  2  0
 12 14  1  0
 11  4  2  0
M  END
>  <rName>  (3136) 
Phe_4vinyl

>  <PQ_SYMBOL>  (3136) 
Phe_4vinyl

>  <FULL_NAME>  (3136) 
(S)-2-amino-3-(4-vinylphenyl)propanoic acid

>  <IUPAC_CONDENSED>  (3136) 
Phe(4-vinyl)

>  <IUPAC>  (3136) 
(2S)-2-amino-3-(4-ethenylphenyl)propanoic acid

>  <TYPE>  (3136) 
Backbone

>  <CLASS>  (3136) 
alpha

>  <ANALOG>  (3136) 
Phe

>  <MOL_WT>  (3136) 
191.23

>  <LOGP>  (3136) 
1.284

>  <TPSA>  (3136) 
63.32000000000001

>  <POPULARITY>  (3136) 
6.9

>  <PROTECTED>  (3136) 
TRUE

>  <SMILES>  (3136) 
N[C@@H](Cc1(ccc(C=C)cc1))C(=O)O

>  <INCHIKEY>  (3136) 
FEXQXSKTRZQJLH-JTQLQIEISA-N

$$$$
Phe_Bn
     RDKit          2D

 19 20  0  0  0  0  0  0  0  0999 V2000
   -4.0697    1.5683    0.0000 N   0  0  0  0  0  0  0  0  0  0  0  0
   -4.2646    0.0811    0.0000 C   0  0  0  0  0  0  0  0  0  0  0  0
   -3.0740   -0.8314    0.0000 C   0  0  0  0  0  0  0  0  0  0  0  0
   -1.6885   -0.2565    0.0000 C   0  0  0  0  0  0  0  0  0  0  0  0
   -1.4936    1.2308    0.0000 C   0  0  0  0  0  0  0  0  0  0  0  0
   -0.1082    1.8057    0.0000 C   0  0  0  0  0  0  0  0  0  0  0  0
    1.0824    0.8933    0.0000 C   0  0  0  0  0  0  0  0  0  0  0  0
    0.8875   -0.5940    0.0000 C   0  0  0  0  0  0  0  0  0  0  0  0
   -0.4979   -1.1689    0.0000 C   0  0  0  0  0  0  0  0  0  0  0  0
    2.4679    1.4681    0.0000 C   0  0  0  0  0  0  0  0  0  0  0  0
    3.6585    0.5557    0.0000 C   0  0  0  0  0  0  0  0  0  0  0  0
    3.4636   -0.9316    0.0000 C   0  0  0  0  0  0  0  0  0  0  0  0
    4.6542   -1.8440    0.0000 C   0  0  0  0  0  0  0  0  0  0  0  0
    6.0396   -1.2691    0.0000 C   0  0  0  0  0  0  0  0  0  0  0  0
    6.2345    0.2182    0.0000 C   0  0  0  0  0  0  0  0  0  0  0  0
    5.0439    1.1306    0.0000 C   0  0  0  0  0  0  0  0  0  0  0  0
   -5.6500   -0.4938    0.0000 C   0  0  0  0  0  0  0  0  0  0  0  0
   -5.8449   -1.9811    0.0000 O   0  0  0  0  0  0  0  0  0  0  0  0
   -6.8406    0.4186    0.0000 O   0  0  0  0  0  0  0  0  0  0  0  0
  2  1  1  1
  2  3  1  0
  3  4  1  0
  4  5  1  0
  5  6  2  0
  6  7  1  0
  7  8  2  0
  8  9  1  0
  7 10  1  0
 10 11  1  0
 11 12  2  0
 12 13  1  0
 13 14  2  0
 14 15  1  0
 15 16  2  0
  2 17  1  0
 17 18  2  0
 17 19  1  0
  9  4  2  0
 16 11  1  0
M  END
>  <rName>  (3137) 
Phe_Bn

>  <PQ_SYMBOL>  (3137) 
Phe_Bn

>  <FULL_NAME>  (3137) 
4-Benzyl-L-phenylalanine

>  <IUPAC_CONDENSED>  (3137) 
Phe(Bn)

>  <IUPAC>  (3137) 
(2S)-2-amino-3-(4-benzylphenyl)propanoic acid

>  <TYPE>  (3137) 
Backbone

>  <CLASS>  (3137) 
alpha

>  <ANALOG>  (3137) 
Phe

>  <MOL_WT>  (3137) 
255.31699999999998

>  <LOGP>  (3137) 
2.2318000000000002

>  <TPSA>  (3137) 
63.32000000000001

>  <POPULARITY>  (3137) 
11.7

>  <PROTECTED>  (3137) 
TRUE

>  <SMILES>  (3137) 
N[C@@H](Cc1(ccc(cc1)Cc2(ccccc2)))C(=O)O

>  <INCHIKEY>  (3137) 
FLAYVDDDWHBOIP-HNNXBMFYSA-N

$$$$
Phe_CF2PO3
     RDKit          2D

 19 19  0  0  0  0  0  0  0  0999 V2000
   -3.3479    1.6744    0.0000 N   0  0  0  0  0  0  0  0  0  0  0  0
   -3.7159    0.2202    0.0000 C   0  0  0  0  0  0  0  0  0  0  0  0
   -2.6405   -0.8255    0.0000 C   0  0  0  0  0  0  0  0  0  0  0  0
   -1.1972   -0.4171    0.0000 C   0  0  0  0  0  0  0  0  0  0  0  0
   -0.8292    1.0371    0.0000 C   0  0  0  0  0  0  0  0  0  0  0  0
    0.6141    1.4455    0.0000 C   0  0  0  0  0  0  0  0  0  0  0  0
    1.6895    0.3998    0.0000 C   0  0  0  0  0  0  0  0  0  0  0  0
    1.3215   -1.0544    0.0000 C   0  0  0  0  0  0  0  0  0  0  0  0
   -0.1218   -1.4628    0.0000 C   0  0  0  0  0  0  0  0  0  0  0  0
    3.1328    0.8083    0.0000 C   0  0  0  0  0  0  0  0  0  0  0  0
    4.5761    1.2167    0.0000 F   0  0  0  0  0  0  0  0  0  0  0  0
    2.7243    2.2516    0.0000 F   0  0  0  0  0  0  0  0  0  0  0  0
    3.5412   -0.6351    0.0000 P   0  0  0  0  0  0  0  0  0  0  0  0
    3.9497   -2.0784    0.0000 O   0  0  0  0  0  0  0  0  0  0  0  0
    4.9846   -0.2266    0.0000 O   0  0  0  0  0  0  0  0  0  0  0  0
    2.2396   -1.3806    0.0000 O   0  0  0  0  0  0  0  0  0  0  0  0
   -5.1592   -0.1882    0.0000 C   0  0  0  0  0  0  0  0  0  0  0  0
   -5.5271   -1.6424    0.0000 O   0  0  0  0  0  0  0  0  0  0  0  0
   -6.2346    0.8575    0.0000 O   0  0  0  0  0  0  0  0  0  0  0  0
  2  1  1  1
  2  3  1  0
  3  4  1  0
  4  5  1  0
  5  6  2  0
  6  7  1  0
  7  8  2  0
  8  9  1  0
  7 10  1  0
 10 11  1  0
 10 12  1  0
 10 13  1  0
 13 14  2  0
 13 15  1  0
 13 16  1  0
  2 17  1  0
 17 18  2  0
 17 19  1  0
  9  4  2  0
M  END
>  <rName>  (3138) 
Phe_CF2PO3

>  <PQ_SYMBOL>  (3138) 
Phe_CF2PO3

>  <FULL_NAME>  (3138) 
(2S)-2-amino-3-[4-[difluoro(phosphono)methyl]phenyl]propanoic acid

>  <IUPAC_CONDENSED>  (3138) 
Phe(CF2PO3)

>  <IUPAC>  (3138) 
(2S)-2-amino-3-(4-(dihydroxyphosphoryldifluoromethyl)phenyl)propanoic acid

>  <TYPE>  (3138) 
Backbone

>  <CLASS>  (3138) 
alpha

>  <ANALOG>  (3138) 
Phe

>  <MOL_WT>  (3138) 
295.178

>  <LOGP>  (3138) 
0.8679999999999999

>  <TPSA>  (3138) 
120.85000000000001

>  <POPULARITY>  (3138) 
22.0

>  <PROTECTED>  (3138) 
TRUE

>  <SMILES>  (3138) 
N[C@@H](Cc1(ccc(cc1)C(F)(F)P(=O)(O)O))C(=O)O

>  <INCHIKEY>  (3138) 
HRDUMKHDIFUQGB-QMMMGPOBSA-N

$$$$
Phe_CHF2
     RDKit          2D

 15 15  0  0  0  0  0  0  0  0999 V2000
   -2.2547    1.6872    0.0000 N   0  0  0  0  0  0  0  0  0  0  0  0
   -2.7489    0.2709    0.0000 C   0  0  0  0  0  0  0  0  0  0  0  0
   -1.7696   -0.8652    0.0000 C   0  0  0  0  0  0  0  0  0  0  0  0
   -0.2959   -0.5852    0.0000 C   0  0  0  0  0  0  0  0  0  0  0  0
    0.1983    0.8311    0.0000 C   0  0  0  0  0  0  0  0  0  0  0  0
    1.6719    1.1111    0.0000 C   0  0  0  0  0  0  0  0  0  0  0  0
    2.6513   -0.0250    0.0000 C   0  0  0  0  0  0  0  0  0  0  0  0
    2.1570   -1.4413    0.0000 C   0  0  0  0  0  0  0  0  0  0  0  0
    0.6834   -1.7213    0.0000 C   0  0  0  0  0  0  0  0  0  0  0  0
    4.1249    0.2550    0.0000 C   0  0  0  0  0  0  0  0  0  0  0  0
    5.1043   -0.8811    0.0000 F   0  0  0  0  0  0  0  0  0  0  0  0
    4.6192    1.6713    0.0000 F   0  0  0  0  0  0  0  0  0  0  0  0
   -4.2225   -0.0091    0.0000 C   0  0  0  0  0  0  0  0  0  0  0  0
   -4.7168   -1.4254    0.0000 O   0  0  0  0  0  0  0  0  0  0  0  0
   -5.2019    1.1270    0.0000 O   0  0  0  0  0  0  0  0  0  0  0  0
  2  1  1  1
  2  3  1  0
  3  4  1  0
  4  5  1  0
  5  6  2  0
  6  7  1  0
  7  8  2  0
  8  9  1  0
  7 10  1  0
 10 11  1  0
 10 12  1  0
  2 13  1  0
 13 14  2  0
 13 15  1  0
  9  4  2  0
M  END
>  <rName>  (3139) 
Phe_CHF2

>  <PQ_SYMBOL>  (3139) 
Phe_CHF2

>  <FULL_NAME>  (3139) 
4-(difluoromethyl)-L-phenylalanine

>  <IUPAC_CONDENSED>  (3139) 
Phe(CHF2)

>  <IUPAC>  (3139) 
(2S)-2-amino-3-(4-(difluoromethyl)phenyl)propanoic acid

>  <TYPE>  (3139) 
Backbone

>  <CLASS>  (3139) 
alpha

>  <ANALOG>  (3139) 
Phe

>  <MOL_WT>  (3139) 
215.19899999999996

>  <LOGP>  (3139) 
1.5786000000000002

>  <TPSA>  (3139) 
63.32000000000001

>  <POPULARITY>  (3139) 
8.5

>  <PROTECTED>  (3139) 
TRUE

>  <SMILES>  (3139) 
N[C@@H](Cc1(ccc(cc1)C(F)F))C(=O)O

>  <INCHIKEY>  (3139) 
WAAULDXYXPJAKD-QMMMGPOBSA-N

$$$$
Phe_EtOH
     RDKit          2D

 15 15  0  0  0  0  0  0  0  0999 V2000
   -2.5029    1.6750    0.0000 N   0  0  0  0  0  0  0  0  0  0  0  0
   -2.9013    0.2288    0.0000 C   0  0  0  0  0  0  0  0  0  0  0  0
   -1.8481   -0.8393    0.0000 C   0  0  0  0  0  0  0  0  0  0  0  0
   -0.3966   -0.4612    0.0000 C   0  0  0  0  0  0  0  0  0  0  0  0
    0.0019    0.9849    0.0000 C   0  0  0  0  0  0  0  0  0  0  0  0
    1.4534    1.3629    0.0000 C   0  0  0  0  0  0  0  0  0  0  0  0
    2.5066    0.2948    0.0000 C   0  0  0  0  0  0  0  0  0  0  0  0
    2.1082   -1.1513    0.0000 C   0  0  0  0  0  0  0  0  0  0  0  0
    0.6566   -1.5293    0.0000 C   0  0  0  0  0  0  0  0  0  0  0  0
    3.9582    0.6728    0.0000 C   0  0  0  0  0  0  0  0  0  0  0  0
    5.0114   -0.3953    0.0000 C   0  0  0  0  0  0  0  0  0  0  0  0
    6.4629   -0.0173    0.0000 O   0  0  0  0  0  0  0  0  0  0  0  0
   -4.3529   -0.1492    0.0000 C   0  0  0  0  0  0  0  0  0  0  0  0
   -4.7513   -1.5953    0.0000 O   0  0  0  0  0  0  0  0  0  0  0  0
   -5.4061    0.9189    0.0000 O   0  0  0  0  0  0  0  0  0  0  0  0
  2  1  1  1
  2  3  1  0
  3  4  1  0
  4  5  1  0
  5  6  2  0
  6  7  1  0
  7  8  2  0
  8  9  1  0
  7 10  1  0
 10 11  1  0
 11 12  1  0
  2 13  1  0
 13 14  2  0
 13 15  1  0
  9  4  2  0
M  END
>  <rName>  (3140) 
Phe_EtOH

>  <PQ_SYMBOL>  (3140) 
Phe_EtOH

>  <FULL_NAME>  (3140) 
(S)-2-amino-3-(4-(2-hydroxyethyl)phenyl)propanoic acid

>  <IUPAC_CONDENSED>  (3140) 
Phe(EtOH)

>  <IUPAC>  (3140) 
(2S)-2-amino-3-(4-(2-hydroxyethyl)phenyl)propanoic acid

>  <TYPE>  (3140) 
Backbone

>  <CLASS>  (3140) 
alpha

>  <ANALOG>  (3140) 
Phe

>  <MOL_WT>  (3140) 
209.24499999999995

>  <LOGP>  (3140) 
0.17579999999999996

>  <TPSA>  (3140) 
83.55

>  <POPULARITY>  (3140) 
5.7

>  <PROTECTED>  (3140) 
TRUE

>  <SMILES>  (3140) 
N[C@@H](Cc1(ccc(cc1)CCO))C(=O)O

>  <INCHIKEY>  (3140) 
PHTSEYXRINISNN-JTQLQIEISA-N

$$$$
Phe_F5
     RDKit          2D

 17 17  0  0  0  0  0  0  0  0999 V2000
   -2.1241    1.6089    0.0000 N   0  0  0  0  0  0  0  0  0  0  0  0
   -2.4801    0.1517    0.0000 C   0  0  0  0  0  0  0  0  0  0  0  0
   -1.3962   -0.8851    0.0000 C   0  0  0  0  0  0  0  0  0  0  0  0
    0.0438   -0.4648    0.0000 C   0  0  0  0  0  0  0  0  0  0  0  0
    0.3997    0.9923    0.0000 C   0  0  0  0  0  0  0  0  0  0  0  0
   -0.6842    2.0292    0.0000 F   0  0  0  0  0  0  0  0  0  0  0  0
    1.8397    1.4126    0.0000 C   0  0  0  0  0  0  0  0  0  0  0  0
    2.1956    2.8697    0.0000 F   0  0  0  0  0  0  0  0  0  0  0  0
    2.9236    0.3757    0.0000 C   0  0  0  0  0  0  0  0  0  0  0  0
    4.3635    0.7960    0.0000 F   0  0  0  0  0  0  0  0  0  0  0  0
    2.5676   -1.0814    0.0000 C   0  0  0  0  0  0  0  0  0  0  0  0
    3.6515   -2.1183    0.0000 F   0  0  0  0  0  0  0  0  0  0  0  0
    1.1277   -1.5017    0.0000 C   0  0  0  0  0  0  0  0  0  0  0  0
    0.7717   -2.9589    0.0000 F   0  0  0  0  0  0  0  0  0  0  0  0
   -3.9200   -0.2685    0.0000 C   0  0  0  0  0  0  0  0  0  0  0  0
   -4.2760   -1.7257    0.0000 O   0  0  0  0  0  0  0  0  0  0  0  0
   -5.0039    0.7683    0.0000 O   0  0  0  0  0  0  0  0  0  0  0  0
  2  1  1  1
  2  3  1  0
  3  4  1  0
  4  5  2  0
  5  6  1  0
  5  7  1  0
  7  8  1  0
  7  9  2  0
  9 10  1  0
  9 11  1  0
 11 12  1  0
 11 13  2  0
 13 14  1  0
  2 15  1  0
 15 16  2  0
 15 17  1  0
 13  4  1  0
M  END
>  <rName>  (3141) 
Phe_F5

>  <PQ_SYMBOL>  (3141) 
Phe_F5

>  <FULL_NAME>  (3141) 
2,3,4,5,6-pentafluoro-L-phenylalanine

>  <IUPAC_CONDENSED>  (3141) 
Phe(F5)

>  <IUPAC>  (3141) 
(2S)-2-amino-3-(2,3,4,5,6-pentafluorophenyl)propanoic acid

>  <TYPE>  (3141) 
Backbone

>  <CLASS>  (3141) 
alpha

>  <ANALOG>  (3141) 
Phe

>  <MOL_WT>  (3141) 
255.14199999999997

>  <LOGP>  (3141) 
1.3365000000000002

>  <TPSA>  (3141) 
63.32000000000001

>  <POPULARITY>  (3141) 
26.7

>  <PROTECTED>  (3141) 
TRUE

>  <SMILES>  (3141) 
N[C@@H](Cc1(c(F)c(F)c(F)c(F)c1F))C(=O)O

>  <INCHIKEY>  (3141) 
YYTDJPUFAVPHQA-VKHMYHEASA-N

$$$$
Phe_NHMe
     RDKit          2D

 14 14  0  0  0  0  0  0  0  0999 V2000
   -2.0397    1.6757    0.0000 N   0  0  0  0  0  0  0  0  0  0  0  0
   -2.4395    0.2299    0.0000 C   0  0  0  0  0  0  0  0  0  0  0  0
   -1.3873   -0.8392    0.0000 C   0  0  0  0  0  0  0  0  0  0  0  0
    0.0646   -0.4625    0.0000 C   0  0  0  0  0  0  0  0  0  0  0  0
    0.4644    0.9832    0.0000 C   0  0  0  0  0  0  0  0  0  0  0  0
    1.9164    1.3598    0.0000 C   0  0  0  0  0  0  0  0  0  0  0  0
    2.9685    0.2907    0.0000 C   0  0  0  0  0  0  0  0  0  0  0  0
    2.5687   -1.1550    0.0000 C   0  0  0  0  0  0  0  0  0  0  0  0
    1.1168   -1.5316    0.0000 C   0  0  0  0  0  0  0  0  0  0  0  0
    4.4205    0.6674    0.0000 N   0  0  0  0  0  0  0  0  0  0  0  0
    5.4726   -0.4017    0.0000 C   0  0  0  0  0  0  0  0  0  0  0  0
   -3.8914   -0.1467    0.0000 C   0  0  0  0  0  0  0  0  0  0  0  0
   -4.2912   -1.5924    0.0000 O   0  0  0  0  0  0  0  0  0  0  0  0
   -4.9436    0.9224    0.0000 O   0  0  0  0  0  0  0  0  0  0  0  0
  2  1  1  1
  2  3  1  0
  3  4  1  0
  4  5  1  0
  5  6  2  0
  6  7  1  0
  7  8  2  0
  8  9  1  0
  7 10  1  0
 10 11  1  0
  2 12  1  0
 12 13  2  0
 12 14  1  0
  9  4  2  0
M  END
>  <rName>  (3142) 
Phe_NHMe

>  <PQ_SYMBOL>  (3142) 
Phe_NHMe

>  <FULL_NAME>  (3142) 
(2S)-2-amino-3-[4-(methylamino)phenyl]propanoic acid

>  <IUPAC_CONDENSED>  (3142) 
Phe(NHMe)

>  <IUPAC>  (3142) 
(2S)-2-amino-3-(4-(methylamino)phenyl)propanoic acid

>  <TYPE>  (3142) 
Backbone

>  <CLASS>  (3142) 
alpha

>  <ANALOG>  (3142) 
Phe

>  <MOL_WT>  (3142) 
194.23399999999995

>  <LOGP>  (3142) 
0.6826999999999996

>  <TPSA>  (3142) 
75.35

>  <POPULARITY>  (3142) 
14.2

>  <PROTECTED>  (3142) 
TRUE

>  <SMILES>  (3142) 
N[C@@H](Cc1(ccc(cc1)NC))C(=O)O

>  <INCHIKEY>  (3142) 
XWDFHSRKLQGCDB-VIFPVBQESA-N

$$$$
Phe_SMe
     RDKit          2D

 14 14  0  0  0  0  0  0  0  0999 V2000
   -2.0397    1.6757    0.0000 N   0  0  0  0  0  0  0  0  0  0  0  0
   -2.4395    0.2299    0.0000 C   0  0  0  0  0  0  0  0  0  0  0  0
   -1.3873   -0.8392    0.0000 C   0  0  0  0  0  0  0  0  0  0  0  0
    0.0646   -0.4625    0.0000 C   0  0  0  0  0  0  0  0  0  0  0  0
    0.4644    0.9832    0.0000 C   0  0  0  0  0  0  0  0  0  0  0  0
    1.9164    1.3598    0.0000 C   0  0  0  0  0  0  0  0  0  0  0  0
    2.9685    0.2907    0.0000 C   0  0  0  0  0  0  0  0  0  0  0  0
    2.5687   -1.1550    0.0000 C   0  0  0  0  0  0  0  0  0  0  0  0
    1.1168   -1.5316    0.0000 C   0  0  0  0  0  0  0  0  0  0  0  0
    4.4205    0.6674    0.0000 S   0  0  0  0  0  0  0  0  0  0  0  0
    5.4726   -0.4017    0.0000 C   0  0  0  0  0  0  0  0  0  0  0  0
   -3.8914   -0.1467    0.0000 C   0  0  0  0  0  0  0  0  0  0  0  0
   -4.2912   -1.5924    0.0000 O   0  0  0  0  0  0  0  0  0  0  0  0
   -4.9436    0.9224    0.0000 O   0  0  0  0  0  0  0  0  0  0  0  0
  2  1  1  1
  2  3  1  0
  3  4  1  0
  4  5  1  0
  5  6  2  0
  6  7  1  0
  7  8  2  0
  8  9  1  0
  7 10  1  0
 10 11  1  0
  2 12  1  0
 12 13  2  0
 12 14  1  0
  9  4  2  0
M  END
>  <rName>  (3143) 
Phe_SMe

>  <PQ_SYMBOL>  (3143) 
Phe_SMe

>  <FULL_NAME>  (3143) 
(S)-2-amino-3-(4-(methylthio)phenyl)propanoic acid

>  <IUPAC_CONDENSED>  (3143) 
Phe(SMe)

>  <IUPAC>  (3143) 
(2S)-2-amino-3-(4-(methylsulfanyl)phenyl)propanoic acid

>  <TYPE>  (3143) 
Backbone

>  <CLASS>  (3143) 
alpha

>  <ANALOG>  (3143) 
Phe

>  <MOL_WT>  (3143) 
211.28599999999994

>  <LOGP>  (3143) 
1.3629000000000002

>  <TPSA>  (3143) 
63.32000000000001

>  <POPULARITY>  (3143) 
4.6

>  <PROTECTED>  (3143) 
TRUE

>  <SMILES>  (3143) 
N[C@@H](Cc1(ccc(cc1)SC))C(=O)O

>  <INCHIKEY>  (3143) 
CYPJHFKIGWANKM-VIFPVBQESA-N

$$$$
Phe_SO3H
     RDKit          2D

 16 16  0  0  0  0  0  0  0  0999 V2000
   -2.5021    1.6866    0.0000 N   0  0  0  0  0  0  0  0  0  0  0  0
   -3.0051    0.2735    0.0000 C   0  0  0  0  0  0  0  0  0  0  0  0
   -2.0328   -0.8687    0.0000 C   0  0  0  0  0  0  0  0  0  0  0  0
   -0.5574   -0.5977    0.0000 C   0  0  0  0  0  0  0  0  0  0  0  0
   -0.0545    0.8155    0.0000 C   0  0  0  0  0  0  0  0  0  0  0  0
    1.4208    1.0865    0.0000 C   0  0  0  0  0  0  0  0  0  0  0  0
    2.3932   -0.0557    0.0000 C   0  0  0  0  0  0  0  0  0  0  0  0
    1.8902   -1.4688    0.0000 C   0  0  0  0  0  0  0  0  0  0  0  0
    0.4149   -1.7398    0.0000 C   0  0  0  0  0  0  0  0  0  0  0  0
    3.8685    0.2153    0.0000 S   0  0  0  0  0  0  0  0  0  0  0  0
    4.1395   -1.2600    0.0000 O   0  0  0  0  0  0  0  0  0  0  0  0
    3.5975    1.6906    0.0000 O   0  0  0  0  0  0  0  0  0  0  0  0
    5.3438    0.4863    0.0000 O   0  0  0  0  0  0  0  0  0  0  0  0
   -4.4804    0.0025    0.0000 C   0  0  0  0  0  0  0  0  0  0  0  0
   -4.9834   -1.4107    0.0000 O   0  0  0  0  0  0  0  0  0  0  0  0
   -5.4528    1.1446    0.0000 O   0  0  0  0  0  0  0  0  0  0  0  0
  2  1  1  1
  2  3  1  0
  3  4  1  0
  4  5  1  0
  5  6  2  0
  6  7  1  0
  7  8  2  0
  8  9  1  0
  7 10  1  0
 10 11  2  0
 10 12  2  0
 10 13  1  0
  2 14  1  0
 14 15  2  0
 14 16  1  0
  9  4  2  0
M  END
>  <rName>  (3144) 
Phe_SO3H

>  <PQ_SYMBOL>  (3144) 
Phe_SO3H

>  <FULL_NAME>  (3144) 
(2S)-2-amino-3-(4-sulfophenyl)propanoic acid

>  <IUPAC_CONDENSED>  (3144) 
Phe(SO3H)

>  <IUPAC>  (3144) 
(2S)-2-amino-3-(4-sulfophenyl)propanoic acid

>  <TYPE>  (3144) 
Backbone

>  <CLASS>  (3144) 
alpha

>  <ANALOG>  (3144) 
Phe

>  <MOL_WT>  (3144) 
245.25599999999994

>  <LOGP>  (3144) 
-0.11230000000000018

>  <TPSA>  (3144) 
117.69000000000001

>  <POPULARITY>  (3144) 
14.1

>  <PROTECTED>  (3144) 
TRUE

>  <SMILES>  (3144) 
N[C@@H](Cc1(ccc(cc1)S(=O)(=O)O))C(=O)O

>  <INCHIKEY>  (3144) 
ALQIUGWFHKQQHV-QMMMGPOBSA-N

$$$$
Phe_a_bdehydro_E
     RDKit          2D

 12 12  0  0  0  0  0  0  0  0999 V2000
   -3.2476   -1.5000    0.0000 N   0  0  0  0  0  0  0  0  0  0  0  0
   -1.9486   -0.7500    0.0000 C   0  0  0  0  0  0  0  0  0  0  0  0
   -0.6495   -1.5000    0.0000 C   0  0  0  0  0  0  0  0  0  0  0  0
    0.6495   -0.7500    0.0000 C   0  0  0  0  0  0  0  0  0  0  0  0
    0.6495    0.7500    0.0000 C   0  0  0  0  0  0  0  0  0  0  0  0
    1.9486    1.5000    0.0000 C   0  0  0  0  0  0  0  0  0  0  0  0
    3.2476    0.7500    0.0000 C   0  0  0  0  0  0  0  0  0  0  0  0
    3.2476   -0.7500    0.0000 C   0  0  0  0  0  0  0  0  0  0  0  0
    1.9486   -1.5000    0.0000 C   0  0  0  0  0  0  0  0  0  0  0  0
   -1.9486    0.7500    0.0000 C   0  0  0  0  0  0  0  0  0  0  0  0
   -0.6495    1.5000    0.0000 O   0  0  0  0  0  0  0  0  0  0  0  0
   -3.2476    1.5000    0.0000 O   0  0  0  0  0  0  0  0  0  0  0  0
  1  2  1  0
  2  3  2  0
  3  4  1  0
  4  5  2  0
  5  6  1  0
  6  7  2  0
  7  8  1  0
  8  9  2  0
  2 10  1  0
 10 11  2  0
 10 12  1  0
  9  4  1  0
M  END
>  <rName>  (3145) 
Phe_a_bdehydro_E

>  <PQ_SYMBOL>  (3145) 
Phe_a_bdehydro_E

>  <FULL_NAME>  (3145) 
(E)-2-amino-3-phenylacrylic acid

>  <IUPAC_CONDENSED>  (3145) 
Phe(a,b-dehydro,E)

>  <IUPAC>  (3145) 
(2E)-2-amino-3-phenylprop-2-enoic acid

>  <TYPE>  (3145) 
Backbone

>  <CLASS>  (3145) 
alpha

>  <ANALOG>  (3145) 
Phe

>  <MOL_WT>  (3145) 
163.17599999999996

>  <LOGP>  (3145) 
1.0708000000000002

>  <TPSA>  (3145) 
63.32000000000001

>  <POPULARITY>  (3145) 
6.6

>  <PROTECTED>  (3145) 
TRUE

>  <SMILES>  (3145) 
N/C(=C/c1ccccc1)C(=O)O

>  <INCHIKEY>  (3145) 
YWIQQKOKNPPGDO-SOFGYWHQSA-N

$$$$
Phe_bOH_3Br
     RDKit          2D

 14 14  0  0  0  0  0  0  0  0999 V2000
   -1.6438    1.8731    0.0000 N   0  0  0  0  0  0  0  0  0  0  0  0
   -1.9085    0.3966    0.0000 C   0  0  0  0  0  0  0  0  0  0  0  0
   -0.7622   -0.5709    0.0000 C   0  0  0  0  0  0  0  0  0  0  0  0
   -1.0270   -2.0473    0.0000 O   0  0  0  0  0  0  0  0  0  0  0  0
    0.6488   -0.0619    0.0000 C   0  0  0  0  0  0  0  0  0  0  0  0
    0.9135    1.4146    0.0000 C   0  0  0  0  0  0  0  0  0  0  0  0
    2.3245    1.9235    0.0000 C   0  0  0  0  0  0  0  0  0  0  0  0
    3.4708    0.9560    0.0000 C   0  0  0  0  0  0  0  0  0  0  0  0
    3.2061   -0.5204    0.0000 C   0  0  0  0  0  0  0  0  0  0  0  0
    4.3524   -1.4879    0.0000 Br  0  0  0  0  0  0  0  0  0  0  0  0
    1.7951   -1.0294    0.0000 C   0  0  0  0  0  0  0  0  0  0  0  0
   -3.3195   -0.1124    0.0000 C   0  0  0  0  0  0  0  0  0  0  0  0
   -3.5842   -1.5888    0.0000 O   0  0  0  0  0  0  0  0  0  0  0  0
   -4.4658    0.8551    0.0000 O   0  0  0  0  0  0  0  0  0  0  0  0
  2  1  1  1
  2  3  1  0
  3  4  1  0
  3  5  1  0
  5  6  2  0
  6  7  1  0
  7  8  2  0
  8  9  1  0
  9 10  1  0
  9 11  2  0
  2 12  1  0
 12 13  2  0
 12 14  1  0
 11  5  1  0
M  END
>  <rName>  (3146) 
Phe_bOH_3Br

>  <PQ_SYMBOL>  (3146) 
Phe_bOH_3Br

>  <FULL_NAME>  (3146) 
3-bromo-β-hydroxy-L-phenylalanine

>  <IUPAC_CONDENSED>  (3146) 
Phe(b-OH,3-Br)

>  <IUPAC>  (3146) 
(2S)-2-amino-3-(3-bromophenyl)-3-hydroxypropanoic acid

>  <TYPE>  (3146) 
Backbone

>  <CLASS>  (3146) 
alpha

>  <ANALOG>  (3146) 
Phe

>  <MOL_WT>  (3146) 
260.087

>  <LOGP>  (3146) 
0.8944000000000001

>  <TPSA>  (3146) 
83.55

>  <POPULARITY>  (3146) 
3.3

>  <PROTECTED>  (3146) 
TRUE

>  <SMILES>  (3146) 
N[C@@H](C(O)c1(cccc(Br)c1))C(=O)O

>  <INCHIKEY>  (3146) 
JOQQRBIWDXNLFR-JAMMHHFISA-N

$$$$
Phe_bOH_3Cl
     RDKit          2D

 14 14  0  0  0  0  0  0  0  0999 V2000
   -1.6438    1.8731    0.0000 N   0  0  0  0  0  0  0  0  0  0  0  0
   -1.9085    0.3966    0.0000 C   0  0  0  0  0  0  0  0  0  0  0  0
   -0.7622   -0.5709    0.0000 C   0  0  0  0  0  0  0  0  0  0  0  0
   -1.0270   -2.0473    0.0000 O   0  0  0  0  0  0  0  0  0  0  0  0
    0.6488   -0.0619    0.0000 C   0  0  0  0  0  0  0  0  0  0  0  0
    0.9135    1.4146    0.0000 C   0  0  0  0  0  0  0  0  0  0  0  0
    2.3245    1.9235    0.0000 C   0  0  0  0  0  0  0  0  0  0  0  0
    3.4708    0.9560    0.0000 C   0  0  0  0  0  0  0  0  0  0  0  0
    3.2061   -0.5204    0.0000 C   0  0  0  0  0  0  0  0  0  0  0  0
    4.3524   -1.4879    0.0000 Cl  0  0  0  0  0  0  0  0  0  0  0  0
    1.7951   -1.0294    0.0000 C   0  0  0  0  0  0  0  0  0  0  0  0
   -3.3195   -0.1124    0.0000 C   0  0  0  0  0  0  0  0  0  0  0  0
   -3.5842   -1.5888    0.0000 O   0  0  0  0  0  0  0  0  0  0  0  0
   -4.4658    0.8551    0.0000 O   0  0  0  0  0  0  0  0  0  0  0  0
  2  1  1  1
  2  3  1  0
  3  4  1  0
  3  5  1  0
  5  6  2  0
  6  7  1  0
  7  8  2  0
  8  9  1  0
  9 10  1  0
  9 11  2  0
  2 12  1  0
 12 13  2  0
 12 14  1  0
 11  5  1  0
M  END
>  <rName>  (3147) 
Phe_bOH_3Cl

>  <PQ_SYMBOL>  (3147) 
Phe_bOH_3Cl

>  <FULL_NAME>  (3147) 
3-chloro-β-hydroxy-L-phenylalanine

>  <IUPAC_CONDENSED>  (3147) 
Phe(b-OH,3-Cl)

>  <IUPAC>  (3147) 
(2S)-2-amino-3-(3-chlorophenyl)-3-hydroxypropanoic acid

>  <TYPE>  (3147) 
Backbone

>  <CLASS>  (3147) 
alpha

>  <ANALOG>  (3147) 
Phe

>  <MOL_WT>  (3147) 
215.63599999999997

>  <LOGP>  (3147) 
0.7853000000000001

>  <TPSA>  (3147) 
83.55

>  <POPULARITY>  (3147) 
2.6

>  <PROTECTED>  (3147) 
TRUE

>  <SMILES>  (3147) 
N[C@@H](C(O)c1(cccc(Cl)c1))C(=O)O

>  <INCHIKEY>  (3147) 
JOOVSQZNSMBBEV-JAMMHHFISA-N

$$$$
Phe_bOH_3For
     RDKit          2D

 15 15  0  0  0  0  0  0  0  0999 V2000
   -2.1592    1.8160    0.0000 N   0  0  0  0  0  0  0  0  0  0  0  0
   -2.2380    0.3181    0.0000 C   0  0  0  0  0  0  0  0  0  0  0  0
   -0.9802   -0.4992    0.0000 C   0  0  0  0  0  0  0  0  0  0  0  0
   -1.0591   -1.9971    0.0000 O   0  0  0  0  0  0  0  0  0  0  0  0
    0.3564    0.1815    0.0000 C   0  0  0  0  0  0  0  0  0  0  0  0
    0.4353    1.6794    0.0000 C   0  0  0  0  0  0  0  0  0  0  0  0
    1.7720    2.3601    0.0000 C   0  0  0  0  0  0  0  0  0  0  0  0
    3.0298    1.5429    0.0000 C   0  0  0  0  0  0  0  0  0  0  0  0
    2.9509    0.0449    0.0000 C   0  0  0  0  0  0  0  0  0  0  0  0
    4.2087   -0.7723    0.0000 C   0  0  0  0  0  0  0  0  0  0  0  0
    4.1299   -2.2702    0.0000 O   0  0  0  0  0  0  0  0  0  0  0  0
    1.6143   -0.6357    0.0000 C   0  0  0  0  0  0  0  0  0  0  0  0
   -3.5747   -0.3626    0.0000 C   0  0  0  0  0  0  0  0  0  0  0  0
   -3.6536   -1.8605    0.0000 O   0  0  0  0  0  0  0  0  0  0  0  0
   -4.8325    0.4547    0.0000 O   0  0  0  0  0  0  0  0  0  0  0  0
  2  1  1  1
  2  3  1  0
  3  4  1  0
  3  5  1  0
  5  6  2  0
  6  7  1  0
  7  8  2  0
  8  9  1  0
  9 10  1  0
 10 11  2  0
  9 12  2  0
  2 13  1  0
 13 14  2  0
 13 15  1  0
 12  5  1  0
M  END
>  <rName>  (3148) 
Phe_bOH_3For

>  <PQ_SYMBOL>  (3148) 
Phe_bOH_3For

>  <FULL_NAME>  (3148) 
3-formyl-β-hydroxy-L-phenylalanine

>  <IUPAC_CONDENSED>  (3148) 
Phe(b-OH,3-For)

>  <IUPAC>  (3148) 
(2S)-2-amino-3-(3-(formyl)phenyl)-3-hydroxypropanoic acid

>  <TYPE>  (3148) 
Backbone

>  <CLASS>  (3148) 
alpha

>  <ANALOG>  (3148) 
Phe

>  <MOL_WT>  (3148) 
209.201

>  <LOGP>  (3148) 
-0.05559999999999993

>  <TPSA>  (3148) 
100.62

>  <POPULARITY>  (3148) 
2.6

>  <PROTECTED>  (3148) 
TRUE

>  <SMILES>  (3148) 
N[C@@H](C(O)c1(cccc(C=O)c1))C(=O)O

>  <INCHIKEY>  (3148) 
AAXZSAOKSAGQRU-IENPIDJESA-N

$$$$
Phe_bOH_4Br
     RDKit          2D

 14 14  0  0  0  0  0  0  0  0999 V2000
   -1.4128    1.8959    0.0000 N   0  0  0  0  0  0  0  0  0  0  0  0
   -1.8963    0.4760    0.0000 C   0  0  0  0  0  0  0  0  0  0  0  0
   -0.9084   -0.6527    0.0000 C   0  0  0  0  0  0  0  0  0  0  0  0
   -1.3920   -2.0726    0.0000 O   0  0  0  0  0  0  0  0  0  0  0  0
    0.5630   -0.3615    0.0000 C   0  0  0  0  0  0  0  0  0  0  0  0
    1.0466    1.0584    0.0000 C   0  0  0  0  0  0  0  0  0  0  0  0
    2.5180    1.3496    0.0000 C   0  0  0  0  0  0  0  0  0  0  0  0
    3.5060    0.2209    0.0000 C   0  0  0  0  0  0  0  0  0  0  0  0
    4.9774    0.5121    0.0000 Br  0  0  0  0  0  0  0  0  0  0  0  0
    3.0224   -1.1991    0.0000 C   0  0  0  0  0  0  0  0  0  0  0  0
    1.5509   -1.4902    0.0000 C   0  0  0  0  0  0  0  0  0  0  0  0
   -3.3678    0.1848    0.0000 C   0  0  0  0  0  0  0  0  0  0  0  0
   -3.8514   -1.2351    0.0000 O   0  0  0  0  0  0  0  0  0  0  0  0
   -4.3557    1.3135    0.0000 O   0  0  0  0  0  0  0  0  0  0  0  0
  2  1  1  1
  2  3  1  0
  3  4  1  0
  3  5  1  0
  5  6  1  0
  6  7  2  0
  7  8  1  0
  8  9  1  0
  8 10  2  0
 10 11  1  0
  2 12  1  0
 12 13  2  0
 12 14  1  0
 11  5  2  0
M  END
>  <rName>  (3149) 
Phe_bOH_4Br

>  <PQ_SYMBOL>  (3149) 
Phe_bOH_4Br

>  <FULL_NAME>  (3149) 
4-bromo-β-hydroxy-L-phenylalanine

>  <IUPAC_CONDENSED>  (3149) 
Phe(b-OH,4-Br)

>  <IUPAC>  (3149) 
(2S)-2-amino-3-(4-bromophenyl)-3-hydroxypropanoic acid

>  <TYPE>  (3149) 
Backbone

>  <CLASS>  (3149) 
alpha

>  <ANALOG>  (3149) 
Phe

>  <MOL_WT>  (3149) 
260.087

>  <LOGP>  (3149) 
0.8944000000000003

>  <TPSA>  (3149) 
83.55

>  <POPULARITY>  (3149) 
4.3

>  <PROTECTED>  (3149) 
TRUE

>  <SMILES>  (3149) 
N[C@@H](C(O)c1(ccc(Br)cc1))C(=O)O

>  <INCHIKEY>  (3149) 
KCLZGAAUWWGOBN-JAMMHHFISA-N

$$$$
Phe_bOH_4Cl
     RDKit          2D

 14 14  0  0  0  0  0  0  0  0999 V2000
   -1.4128    1.8959    0.0000 N   0  0  0  0  0  0  0  0  0  0  0  0
   -1.8963    0.4760    0.0000 C   0  0  0  0  0  0  0  0  0  0  0  0
   -0.9084   -0.6527    0.0000 C   0  0  0  0  0  0  0  0  0  0  0  0
   -1.3920   -2.0726    0.0000 O   0  0  0  0  0  0  0  0  0  0  0  0
    0.5630   -0.3615    0.0000 C   0  0  0  0  0  0  0  0  0  0  0  0
    1.0466    1.0584    0.0000 C   0  0  0  0  0  0  0  0  0  0  0  0
    2.5180    1.3496    0.0000 C   0  0  0  0  0  0  0  0  0  0  0  0
    3.5060    0.2209    0.0000 C   0  0  0  0  0  0  0  0  0  0  0  0
    4.9774    0.5121    0.0000 Cl  0  0  0  0  0  0  0  0  0  0  0  0
    3.0224   -1.1991    0.0000 C   0  0  0  0  0  0  0  0  0  0  0  0
    1.5509   -1.4902    0.0000 C   0  0  0  0  0  0  0  0  0  0  0  0
   -3.3678    0.1848    0.0000 C   0  0  0  0  0  0  0  0  0  0  0  0
   -3.8514   -1.2351    0.0000 O   0  0  0  0  0  0  0  0  0  0  0  0
   -4.3557    1.3135    0.0000 O   0  0  0  0  0  0  0  0  0  0  0  0
  2  1  1  1
  2  3  1  0
  3  4  1  0
  3  5  1  0
  5  6  1  0
  6  7  2  0
  7  8  1  0
  8  9  1  0
  8 10  2  0
 10 11  1  0
  2 12  1  0
 12 13  2  0
 12 14  1  0
 11  5  2  0
M  END
>  <rName>  (3150) 
Phe_bOH_4Cl

>  <PQ_SYMBOL>  (3150) 
Phe_bOH_4Cl

>  <FULL_NAME>  (3150) 
4-chloro-β-hydroxy-L-phenylalanine

>  <IUPAC_CONDENSED>  (3150) 
Phe(b-OH,4-Cl)

>  <IUPAC>  (3150) 
(2S)-2-amino-3-(4-chlorophenyl)-3-hydroxypropanoic acid

>  <TYPE>  (3150) 
Backbone

>  <CLASS>  (3150) 
alpha

>  <ANALOG>  (3150) 
Phe

>  <MOL_WT>  (3150) 
215.636

>  <LOGP>  (3150) 
0.7853000000000001

>  <TPSA>  (3150) 
83.55

>  <POPULARITY>  (3150) 
4.3

>  <PROTECTED>  (3150) 
TRUE

>  <SMILES>  (3150) 
N[C@@H](C(O)c1(ccc(Cl)cc1))C(=O)O

>  <INCHIKEY>  (3150) 
MDXJWNHZBCAKNQ-JAMMHHFISA-N

$$$$
Phe_bOH_4For
     RDKit          2D

 15 15  0  0  0  0  0  0  0  0999 V2000
   -1.8634    1.8862    0.0000 N   0  0  0  0  0  0  0  0  0  0  0  0
   -2.3075    0.4534    0.0000 C   0  0  0  0  0  0  0  0  0  0  0  0
   -1.2887   -0.6475    0.0000 C   0  0  0  0  0  0  0  0  0  0  0  0
   -1.7327   -2.0803    0.0000 O   0  0  0  0  0  0  0  0  0  0  0  0
    0.1742   -0.3157    0.0000 C   0  0  0  0  0  0  0  0  0  0  0  0
    0.6182    1.1171    0.0000 C   0  0  0  0  0  0  0  0  0  0  0  0
    2.0810    1.4489    0.0000 C   0  0  0  0  0  0  0  0  0  0  0  0
    3.0998    0.3479    0.0000 C   0  0  0  0  0  0  0  0  0  0  0  0
    4.5627    0.6798    0.0000 C   0  0  0  0  0  0  0  0  0  0  0  0
    5.5815   -0.4212    0.0000 O   0  0  0  0  0  0  0  0  0  0  0  0
    2.6558   -1.0848    0.0000 C   0  0  0  0  0  0  0  0  0  0  0  0
    1.1929   -1.4166    0.0000 C   0  0  0  0  0  0  0  0  0  0  0  0
   -3.7703    0.1216    0.0000 C   0  0  0  0  0  0  0  0  0  0  0  0
   -4.2144   -1.3112    0.0000 O   0  0  0  0  0  0  0  0  0  0  0  0
   -4.7891    1.2225    0.0000 O   0  0  0  0  0  0  0  0  0  0  0  0
  2  1  1  1
  2  3  1  0
  3  4  1  0
  3  5  1  0
  5  6  1  0
  6  7  2  0
  7  8  1  0
  8  9  1  0
  9 10  2  0
  8 11  2  0
 11 12  1  0
  2 13  1  0
 13 14  2  0
 13 15  1  0
 12  5  2  0
M  END
>  <rName>  (3151) 
Phe_bOH_4For

>  <PQ_SYMBOL>  (3151) 
Phe_bOH_4For

>  <FULL_NAME>  (3151) 
4-formyl-β-hydroxy-L-phenylalanine

>  <IUPAC_CONDENSED>  (3151) 
Phe(b-OH,4-For)

>  <IUPAC>  (3151) 
(2S)-2-amino-3-(4-(formyl)phenyl)-3-hydroxypropanoic acid

>  <TYPE>  (3151) 
Backbone

>  <CLASS>  (3151) 
alpha

>  <ANALOG>  (3151) 
Phe

>  <MOL_WT>  (3151) 
209.201

>  <LOGP>  (3151) 
-0.05559999999999993

>  <TPSA>  (3151) 
100.62

>  <POPULARITY>  (3151) 
3.2

>  <PROTECTED>  (3151) 
TRUE

>  <SMILES>  (3151) 
N[C@@H](C(O)c1(ccc(C=O)cc1))C(=O)O

>  <INCHIKEY>  (3151) 
YAJNBFUOBAEKMV-IENPIDJESA-N

$$$$
Phe_bOH_4NO2
     RDKit          2D

 16 16  0  0  0  0  0  0  0  0999 V2000
   -2.0507    1.8995    0.0000 N   0  0  0  0  0  0  0  0  0  0  0  0
   -2.5921    0.5006    0.0000 C   0  0  0  0  0  0  0  0  0  0  0  0
   -1.6514   -0.6677    0.0000 C   0  0  0  0  0  0  0  0  0  0  0  0
   -2.1928   -2.0666    0.0000 O   0  0  0  0  0  0  0  0  0  0  0  0
   -0.1692   -0.4372    0.0000 C   0  0  0  0  0  0  0  0  0  0  0  0
    0.3722    0.9617    0.0000 C   0  0  0  0  0  0  0  0  0  0  0  0
    1.8544    1.1923    0.0000 C   0  0  0  0  0  0  0  0  0  0  0  0
    2.7952    0.0240    0.0000 C   0  0  0  0  0  0  0  0  0  0  0  0
    2.2538   -1.3749    0.0000 C   0  0  0  0  0  0  0  0  0  0  0  0
    0.7716   -1.6055    0.0000 C   0  0  0  0  0  0  0  0  0  0  0  0
    4.2773    0.2546    0.0000 N   0  0  0  0  0  0  0  0  0  0  0  0
    4.8187    1.6535    0.0000 O   0  0  0  0  0  0  0  0  0  0  0  0
    5.2181   -0.9137    0.0000 O   0  0  0  0  0  0  0  0  0  0  0  0
   -4.0743    0.2700    0.0000 C   0  0  0  0  0  0  0  0  0  0  0  0
   -4.6157   -1.1289    0.0000 O   0  0  0  0  0  0  0  0  0  0  0  0
   -5.0151    1.4383    0.0000 O   0  0  0  0  0  0  0  0  0  0  0  0
  2  1  1  1
  2  3  1  0
  3  4  1  0
  3  5  1  0
  5  6  1  0
  6  7  2  0
  7  8  1  0
  8  9  2  0
  9 10  1  0
  8 11  1  0
 11 12  2  0
 11 13  1  0
  2 14  1  0
 14 15  2  0
 14 16  1  0
 10  5  2  0
M  CHG  2  11   1  13  -1
M  END
>  <rName>  (3152) 
Phe_bOH_4NO2

>  <PQ_SYMBOL>  (3152) 
Phe_bOH_4NO2

>  <FULL_NAME>  (3152) 
β-hydroxy-4-nitro-L-phenylalanine

>  <IUPAC_CONDENSED>  (3152) 
Phe(b-OH,4-NO2)

>  <IUPAC>  (3152) 
(2S)-2-amino-3-hydroxy-3-(4-nitrophenyl)propanoic acid

>  <TYPE>  (3152) 
Backbone

>  <CLASS>  (3152) 
alpha

>  <ANALOG>  (3152) 
Phe

>  <MOL_WT>  (3152) 
226.188

>  <LOGP>  (3152) 
0.04009999999999975

>  <TPSA>  (3152) 
126.69000000000001

>  <POPULARITY>  (3152) 
2.6

>  <PROTECTED>  (3152) 
TRUE

>  <SMILES>  (3152) 
N[C@@H](C(O)c1(ccc(cc1)[N+](=O)[O-]))C(=O)O

>  <INCHIKEY>  (3152) 
MDMLHLZJIBYSKV-JAMMHHFISA-N

$$$$
Phe_bRF
     RDKit          2D

 13 13  0  0  0  0  0  0  0  0999 V2000
   -1.1110    1.8899    0.0000 N   0  0  0  0  0  0  0  0  0  0  0  0
   -1.5339    0.4508    0.0000 C   0  0  0  0  0  0  0  0  0  0  0  0
   -0.4991   -0.6350    0.0000 C   0  0  0  0  0  0  0  0  0  0  0  0
   -0.9220   -2.0742    0.0000 F   0  0  0  0  0  0  0  0  0  0  0  0
    0.9587   -0.2818    0.0000 C   0  0  0  0  0  0  0  0  0  0  0  0
    1.3817    1.1574    0.0000 C   0  0  0  0  0  0  0  0  0  0  0  0
    2.8395    1.5107    0.0000 C   0  0  0  0  0  0  0  0  0  0  0  0
    3.8743    0.4248    0.0000 C   0  0  0  0  0  0  0  0  0  0  0  0
    3.4514   -1.0143    0.0000 C   0  0  0  0  0  0  0  0  0  0  0  0
    1.9936   -1.3676    0.0000 C   0  0  0  0  0  0  0  0  0  0  0  0
   -2.9917    0.0975    0.0000 C   0  0  0  0  0  0  0  0  0  0  0  0
   -3.4147   -1.3416    0.0000 O   0  0  0  0  0  0  0  0  0  0  0  0
   -4.0266    1.1834    0.0000 O   0  0  0  0  0  0  0  0  0  0  0  0
  2  1  1  1
  2  3  1  0
  3  4  1  1
  3  5  1  0
  5  6  2  0
  6  7  1  0
  7  8  2  0
  8  9  1  0
  9 10  2  0
  2 11  1  0
 11 12  2  0
 11 13  1  0
 10  5  1  0
M  END
>  <rName>  (3153) 
Phe_bRF

>  <PQ_SYMBOL>  (3153) 
Phe_bRF

>  <FULL_NAME>  (3153) 
(2R,3R)-2-amino-3-fluoro-3-phenylpropanoic acid

>  <IUPAC_CONDENSED>  (3153) 
Phe(bR-F)

>  <IUPAC>  (3153) 
(2R,3R)-2-amino-3-fluoro-3-phenylpropanoic acid

>  <TYPE>  (3153) 
Backbone

>  <CLASS>  (3153) 
alpha

>  <ANALOG>  (3153) 
Phe

>  <MOL_WT>  (3153) 
183.18199999999996

>  <LOGP>  (3153) 
1.1091

>  <TPSA>  (3153) 
63.32000000000001

>  <POPULARITY>  (3153) 
2.2

>  <PROTECTED>  (3153) 
TRUE

>  <SMILES>  (3153) 
N[C@@H]([C@H](F)c1(ccccc1))C(=O)O

>  <INCHIKEY>  (3153) 
HECUEIAXNNOLLY-SFYZADRCSA-N

$$$$
Phe_bRMe
     RDKit          2D

 13 13  0  0  0  0  0  0  0  0999 V2000
    1.1110    1.8899    0.0000 N   0  0  0  0  0  0  0  0  0  0  0  0
    1.5339    0.4508    0.0000 C   0  0  0  0  0  0  0  0  0  0  0  0
    0.4991   -0.6350    0.0000 C   0  0  0  0  0  0  0  0  0  0  0  0
    0.9220   -2.0742    0.0000 C   0  0  0  0  0  0  0  0  0  0  0  0
   -0.9587   -0.2818    0.0000 C   0  0  0  0  0  0  0  0  0  0  0  0
   -1.9936   -1.3676    0.0000 C   0  0  0  0  0  0  0  0  0  0  0  0
   -3.4514   -1.0143    0.0000 C   0  0  0  0  0  0  0  0  0  0  0  0
   -3.8743    0.4248    0.0000 C   0  0  0  0  0  0  0  0  0  0  0  0
   -2.8395    1.5107    0.0000 C   0  0  0  0  0  0  0  0  0  0  0  0
   -1.3817    1.1574    0.0000 C   0  0  0  0  0  0  0  0  0  0  0  0
    2.9917    0.0975    0.0000 C   0  0  0  0  0  0  0  0  0  0  0  0
    3.4147   -1.3416    0.0000 O   0  0  0  0  0  0  0  0  0  0  0  0
    4.0266    1.1834    0.0000 O   0  0  0  0  0  0  0  0  0  0  0  0
  2  1  1  6
  2  3  1  0
  3  4  1  6
  3  5  1  0
  5  6  2  0
  6  7  1  0
  7  8  2  0
  8  9  1  0
  9 10  2  0
  2 11  1  0
 11 12  2  0
 11 13  1  0
 10  5  1  0
M  END
>  <rName>  (3154) 
Phe_bRMe

>  <PQ_SYMBOL>  (3154) 
Phe_bRMe

>  <FULL_NAME>  (3154) 
(2S,3R)-2-amino-3-phenylbutanoic acid

>  <IUPAC_CONDENSED>  (3154) 
Phe(bR-Me)

>  <IUPAC>  (3154) 
(2S,3R)-2-amino-3-phenylbutanoic acid

>  <TYPE>  (3154) 
Backbone

>  <CLASS>  (3154) 
alpha

>  <ANALOG>  (3154) 
Phe

>  <MOL_WT>  (3154) 
179.21899999999997

>  <LOGP>  (3154) 
1.202

>  <TPSA>  (3154) 
63.32000000000001

>  <POPULARITY>  (3154) 
17.3

>  <PROTECTED>  (3154) 
TRUE

>  <SMILES>  (3154) 
N[C@@H]([C@H](C)c1(ccccc1))C(=O)O

>  <INCHIKEY>  (3154) 
IRZQDMYEJPNDEN-APPZFPTMSA-N

$$$$
Phe_bROH
     RDKit          2D

 13 13  0  0  0  0  0  0  0  0999 V2000
   -1.1110    1.8899    0.0000 N   0  0  0  0  0  0  0  0  0  0  0  0
   -1.5339    0.4508    0.0000 C   0  0  0  0  0  0  0  0  0  0  0  0
   -0.4991   -0.6350    0.0000 C   0  0  0  0  0  0  0  0  0  0  0  0
   -0.9220   -2.0742    0.0000 O   0  0  0  0  0  0  0  0  0  0  0  0
    0.9587   -0.2818    0.0000 C   0  0  0  0  0  0  0  0  0  0  0  0
    1.3817    1.1574    0.0000 C   0  0  0  0  0  0  0  0  0  0  0  0
    2.8395    1.5107    0.0000 C   0  0  0  0  0  0  0  0  0  0  0  0
    3.8743    0.4248    0.0000 C   0  0  0  0  0  0  0  0  0  0  0  0
    3.4514   -1.0143    0.0000 C   0  0  0  0  0  0  0  0  0  0  0  0
    1.9936   -1.3676    0.0000 C   0  0  0  0  0  0  0  0  0  0  0  0
   -2.9917    0.0975    0.0000 C   0  0  0  0  0  0  0  0  0  0  0  0
   -3.4147   -1.3416    0.0000 O   0  0  0  0  0  0  0  0  0  0  0  0
   -4.0266    1.1834    0.0000 O   0  0  0  0  0  0  0  0  0  0  0  0
  2  1  1  1
  2  3  1  0
  3  4  1  1
  3  5  1  0
  5  6  2  0
  6  7  1  0
  7  8  2  0
  8  9  1  0
  9 10  2  0
  2 11  1  0
 11 12  2  0
 11 13  1  0
 10  5  1  0
M  END
>  <rName>  (3155) 
Phe_bROH

>  <PQ_SYMBOL>  (3155) 
Phe_bROH

>  <FULL_NAME>  (3155) 
L-threo-3-Phenylserine

>  <IUPAC_CONDENSED>  (3155) 
Phe(bR-OH)

>  <IUPAC>  (3155) 
(2S,3R)-2-amino-3-hydroxy-3-phenylpropanoic acid

>  <TYPE>  (3155) 
Backbone

>  <CLASS>  (3155) 
alpha

>  <ANALOG>  (3155) 
Phe

>  <MOL_WT>  (3155) 
181.19099999999997

>  <LOGP>  (3155) 
0.13190000000000007

>  <TPSA>  (3155) 
83.55

>  <POPULARITY>  (3155) 
18.7

>  <PROTECTED>  (3155) 
TRUE

>  <SMILES>  (3155) 
N[C@@H]([C@H](O)c1(ccccc1))C(=O)O

>  <INCHIKEY>  (3155) 
VHVGNTVUSQUXPS-JGVFFNPUSA-N

$$$$
Phe_bSMe
     RDKit          2D

 13 13  0  0  0  0  0  0  0  0999 V2000
    1.1110    1.8899    0.0000 N   0  0  0  0  0  0  0  0  0  0  0  0
    1.5339    0.4508    0.0000 C   0  0  0  0  0  0  0  0  0  0  0  0
    0.4991   -0.6350    0.0000 C   0  0  0  0  0  0  0  0  0  0  0  0
    0.9220   -2.0742    0.0000 C   0  0  0  0  0  0  0  0  0  0  0  0
   -0.9587   -0.2818    0.0000 C   0  0  0  0  0  0  0  0  0  0  0  0
   -1.9936   -1.3676    0.0000 C   0  0  0  0  0  0  0  0  0  0  0  0
   -3.4514   -1.0143    0.0000 C   0  0  0  0  0  0  0  0  0  0  0  0
   -3.8743    0.4248    0.0000 C   0  0  0  0  0  0  0  0  0  0  0  0
   -2.8395    1.5107    0.0000 C   0  0  0  0  0  0  0  0  0  0  0  0
   -1.3817    1.1574    0.0000 C   0  0  0  0  0  0  0  0  0  0  0  0
    2.9917    0.0975    0.0000 C   0  0  0  0  0  0  0  0  0  0  0  0
    3.4147   -1.3416    0.0000 O   0  0  0  0  0  0  0  0  0  0  0  0
    4.0266    1.1834    0.0000 O   0  0  0  0  0  0  0  0  0  0  0  0
  2  1  1  6
  2  3  1  0
  3  4  1  1
  3  5  1  0
  5  6  2  0
  6  7  1  0
  7  8  2  0
  8  9  1  0
  9 10  2  0
  2 11  1  0
 11 12  2  0
 11 13  1  0
 10  5  1  0
M  END
>  <rName>  (3156) 
Phe_bSMe

>  <PQ_SYMBOL>  (3156) 
Phe_bSMe

>  <FULL_NAME>  (3156) 
(2S,3S)-2-amino-3-phenylbutanoic acid

>  <IUPAC_CONDENSED>  (3156) 
Phe(bS-Me)

>  <IUPAC>  (3156) 
(2S,3S)-2-amino-3-phenylbutanoic acid

>  <TYPE>  (3156) 
Backbone

>  <CLASS>  (3156) 
alpha

>  <ANALOG>  (3156) 
Phe

>  <MOL_WT>  (3156) 
179.21899999999997

>  <LOGP>  (3156) 
1.202

>  <TPSA>  (3156) 
63.32000000000001

>  <POPULARITY>  (3156) 
23.2

>  <PROTECTED>  (3156) 
TRUE

>  <SMILES>  (3156) 
N[C@@H]([C@@H](C)c1(ccccc1))C(=O)O

>  <INCHIKEY>  (3156) 
IRZQDMYEJPNDEN-CBAPKCEASA-N

$$$$
Phe_bSOH
     RDKit          2D

 13 13  0  0  0  0  0  0  0  0999 V2000
   -1.1110    1.8899    0.0000 N   0  0  0  0  0  0  0  0  0  0  0  0
   -1.5339    0.4508    0.0000 C   0  0  0  0  0  0  0  0  0  0  0  0
   -0.4991   -0.6350    0.0000 C   0  0  0  0  0  0  0  0  0  0  0  0
   -0.9220   -2.0742    0.0000 O   0  0  0  0  0  0  0  0  0  0  0  0
    0.9587   -0.2818    0.0000 C   0  0  0  0  0  0  0  0  0  0  0  0
    1.3817    1.1574    0.0000 C   0  0  0  0  0  0  0  0  0  0  0  0
    2.8395    1.5107    0.0000 C   0  0  0  0  0  0  0  0  0  0  0  0
    3.8743    0.4248    0.0000 C   0  0  0  0  0  0  0  0  0  0  0  0
    3.4514   -1.0143    0.0000 C   0  0  0  0  0  0  0  0  0  0  0  0
    1.9936   -1.3676    0.0000 C   0  0  0  0  0  0  0  0  0  0  0  0
   -2.9917    0.0975    0.0000 C   0  0  0  0  0  0  0  0  0  0  0  0
   -3.4147   -1.3416    0.0000 O   0  0  0  0  0  0  0  0  0  0  0  0
   -4.0266    1.1834    0.0000 O   0  0  0  0  0  0  0  0  0  0  0  0
  2  1  1  1
  2  3  1  0
  3  4  1  6
  3  5  1  0
  5  6  2  0
  6  7  1  0
  7  8  2  0
  8  9  1  0
  9 10  2  0
  2 11  1  0
 11 12  2  0
 11 13  1  0
 10  5  1  0
M  END
>  <rName>  (3157) 
Phe_bSOH

>  <PQ_SYMBOL>  (3157) 
Phe_bSOH

>  <FULL_NAME>  (3157) 
(2S,3S)-BETA-HYDROXY-PHENYLALANINE

>  <IUPAC_CONDENSED>  (3157) 
Phe(bS-OH)

>  <IUPAC>  (3157) 
(2S,3S)-2-amino-3-hydroxy-3-phenylpropanoic acid

>  <TYPE>  (3157) 
Backbone

>  <CLASS>  (3157) 
alpha

>  <ANALOG>  (3157) 
Phe

>  <MOL_WT>  (3157) 
181.19099999999997

>  <LOGP>  (3157) 
0.13190000000000007

>  <TPSA>  (3157) 
83.55

>  <POPULARITY>  (3157) 
14.9

>  <PROTECTED>  (3157) 
TRUE

>  <SMILES>  (3157) 
N[C@@H]([C@@H](O)c1(ccccc1))C(=O)O

>  <INCHIKEY>  (3157) 
VHVGNTVUSQUXPS-YUMQZZPRSA-N

$$$$
Phe_b_bdiMe
     RDKit          2D

 14 14  0  0  0  0  0  0  0  0999 V2000
    2.4457   -1.9928    0.0000 N   0  0  0  0  0  0  0  0  0  0  0  0
    1.9124   -0.5908    0.0000 C   0  0  0  0  0  0  0  0  0  0  0  0
    0.4316   -0.3517    0.0000 C   0  0  0  0  0  0  0  0  0  0  0  0
    0.6708    1.1291    0.0000 C   0  0  0  0  0  0  0  0  0  0  0  0
    0.1924   -1.8325    0.0000 C   0  0  0  0  0  0  0  0  0  0  0  0
   -1.0492   -0.1125    0.0000 C   0  0  0  0  0  0  0  0  0  0  0  0
   -1.9967   -1.2754    0.0000 C   0  0  0  0  0  0  0  0  0  0  0  0
   -3.4776   -1.0362    0.0000 C   0  0  0  0  0  0  0  0  0  0  0  0
   -4.0108    0.3658    0.0000 C   0  0  0  0  0  0  0  0  0  0  0  0
   -3.0633    1.5287    0.0000 C   0  0  0  0  0  0  0  0  0  0  0  0
   -1.5825    1.2895    0.0000 C   0  0  0  0  0  0  0  0  0  0  0  0
    2.8599    0.5720    0.0000 C   0  0  0  0  0  0  0  0  0  0  0  0
    2.3266    1.9740    0.0000 O   0  0  0  0  0  0  0  0  0  0  0  0
    4.3407    0.3328    0.0000 O   0  0  0  0  0  0  0  0  0  0  0  0
  2  1  1  1
  2  3  1  0
  3  4  1  0
  3  5  1  0
  3  6  1  0
  6  7  2  0
  7  8  1  0
  8  9  2  0
  9 10  1  0
 10 11  2  0
  2 12  1  0
 12 13  2  0
 12 14  1  0
 11  6  1  0
M  END
>  <rName>  (3158) 
Phe_b_bdiMe

>  <PQ_SYMBOL>  (3158) 
Phe_b_bdiMe

>  <FULL_NAME>  (3158) 
(2S)-2-amino-3-methyl-3-phenylbutanoic acid

>  <IUPAC_CONDENSED>  (3158) 
Phe(b,b-diMe)

>  <IUPAC>  (3158) 
(2S)-2-amino-3-methyl-3-phenylbutanoic acid

>  <TYPE>  (3158) 
Backbone

>  <CLASS>  (3158) 
alpha

>  <ANALOG>  (3158) 
Phe

>  <MOL_WT>  (3158) 
193.24599999999998

>  <LOGP>  (3158) 
1.3761

>  <TPSA>  (3158) 
63.32000000000001

>  <POPULARITY>  (3158) 
5.3

>  <PROTECTED>  (3158) 
FALSE

>  <SMILES>  (3158) 
N[C@@H](C(C)(C)c1(ccccc1))C(=O)O

>  <INCHIKEY>  (3158) 
OSRAZODPBFLQJP-SECBINFHSA-N

$$$$
Phe_dodecyl
     RDKit          2D

 24 24  0  0  0  0  0  0  0  0999 V2000
   -7.5265    1.3480    0.0000 N   0  0  0  0  0  0  0  0  0  0  0  0
   -7.6999   -0.1420    0.0000 C   0  0  0  0  0  0  0  0  0  0  0  0
   -6.4963   -1.0371    0.0000 C   0  0  0  0  0  0  0  0  0  0  0  0
   -5.1192   -0.4424    0.0000 C   0  0  0  0  0  0  0  0  0  0  0  0
   -4.9458    1.0476    0.0000 C   0  0  0  0  0  0  0  0  0  0  0  0
   -3.5688    1.6424    0.0000 C   0  0  0  0  0  0  0  0  0  0  0  0
   -2.3652    0.7472    0.0000 C   0  0  0  0  0  0  0  0  0  0  0  0
   -2.5386   -0.7427    0.0000 C   0  0  0  0  0  0  0  0  0  0  0  0
   -3.9156   -1.3375    0.0000 C   0  0  0  0  0  0  0  0  0  0  0  0
   -0.9881    1.3420    0.0000 C   0  0  0  0  0  0  0  0  0  0  0  0
    0.2155    0.4468    0.0000 C   0  0  0  0  0  0  0  0  0  0  0  0
    1.5925    1.0416    0.0000 C   0  0  0  0  0  0  0  0  0  0  0  0
    2.7961    0.1465    0.0000 C   0  0  0  0  0  0  0  0  0  0  0  0
    4.1732    0.7412    0.0000 C   0  0  0  0  0  0  0  0  0  0  0  0
    5.3768   -0.1539    0.0000 C   0  0  0  0  0  0  0  0  0  0  0  0
    6.7538    0.4409    0.0000 C   0  0  0  0  0  0  0  0  0  0  0  0
    7.9574   -0.4543    0.0000 C   0  0  0  0  0  0  0  0  0  0  0  0
    9.3345    0.1405    0.0000 C   0  0  0  0  0  0  0  0  0  0  0  0
   10.5381   -0.7547    0.0000 C   0  0  0  0  0  0  0  0  0  0  0  0
   11.9151   -0.1599    0.0000 C   0  0  0  0  0  0  0  0  0  0  0  0
   13.1188   -1.0550    0.0000 C   0  0  0  0  0  0  0  0  0  0  0  0
   -9.0769   -0.7368    0.0000 C   0  0  0  0  0  0  0  0  0  0  0  0
   -9.2504   -2.2267    0.0000 O   0  0  0  0  0  0  0  0  0  0  0  0
  -10.2806    0.1584    0.0000 O   0  0  0  0  0  0  0  0  0  0  0  0
  2  1  1  1
  2  3  1  0
  3  4  1  0
  4  5  1  0
  5  6  2  0
  6  7  1  0
  7  8  2  0
  8  9  1  0
  7 10  1  0
 10 11  1  0
 11 12  1  0
 12 13  1  0
 13 14  1  0
 14 15  1  0
 15 16  1  0
 16 17  1  0
 17 18  1  0
 18 19  1  0
 19 20  1  0
 20 21  1  0
  2 22  1  0
 22 23  2  0
 22 24  1  0
  9  4  2  0
M  END
>  <rName>  (3159) 
Phe_dodecyl

>  <PQ_SYMBOL>  (3159) 
Phe_dodecyl

>  <FULL_NAME>  (3159) 
(S)-2-amino-3-(4-dodecylphenyl)propanoic acid

>  <IUPAC_CONDENSED>  (3159) 
Phe(dodecyl)

>  <IUPAC>  (3159) 
(2S)-2-amino-3-(4-dodecylphenyl)propanoic acid

>  <TYPE>  (3159) 
Backbone

>  <CLASS>  (3159) 
alpha

>  <ANALOG>  (3159) 
Phe

>  <MOL_WT>  (3159) 
333.516

>  <LOGP>  (3159) 
5.104400000000005

>  <TPSA>  (3159) 
63.32000000000001

>  <POPULARITY>  (3159) 
3.1

>  <PROTECTED>  (3159) 
TRUE

>  <SMILES>  (3159) 
N[C@@H](Cc1(ccc(cc1)CCCCCCCCCCCC))C(=O)O

>  <INCHIKEY>  (3159) 
CQDWPJORSILBRL-FQEVSTJZSA-N

$$$$
Phe_morpholino
     RDKit          2D

 18 19  0  0  0  0  0  0  0  0999 V2000
   -3.2769    1.7174    0.0000 N   0  0  0  0  0  0  0  0  0  0  0  0
   -3.8349    0.3251    0.0000 C   0  0  0  0  0  0  0  0  0  0  0  0
   -2.9082   -0.8544    0.0000 C   0  0  0  0  0  0  0  0  0  0  0  0
   -1.4234   -0.6415    0.0000 C   0  0  0  0  0  0  0  0  0  0  0  0
   -0.8653    0.7508    0.0000 C   0  0  0  0  0  0  0  0  0  0  0  0
    0.6195    0.9637    0.0000 C   0  0  0  0  0  0  0  0  0  0  0  0
    1.5463   -0.2158    0.0000 C   0  0  0  0  0  0  0  0  0  0  0  0
    0.9882   -1.6081    0.0000 C   0  0  0  0  0  0  0  0  0  0  0  0
   -0.4966   -1.8210    0.0000 C   0  0  0  0  0  0  0  0  0  0  0  0
    3.0311   -0.0029    0.0000 N   0  0  0  0  0  0  0  0  0  0  0  0
    3.9578   -1.1824    0.0000 C   0  0  0  0  0  0  0  0  0  0  0  0
    5.4427   -0.9695    0.0000 C   0  0  0  0  0  0  0  0  0  0  0  0
    6.0007    0.4228    0.0000 O   0  0  0  0  0  0  0  0  0  0  0  0
    5.0740    1.6023    0.0000 C   0  0  0  0  0  0  0  0  0  0  0  0
    3.5891    1.3894    0.0000 C   0  0  0  0  0  0  0  0  0  0  0  0
   -5.3198    0.1122    0.0000 C   0  0  0  0  0  0  0  0  0  0  0  0
   -5.8778   -1.2801    0.0000 O   0  0  0  0  0  0  0  0  0  0  0  0
   -6.2465    1.2917    0.0000 O   0  0  0  0  0  0  0  0  0  0  0  0
  2  1  1  1
  2  3  1  0
  3  4  1  0
  4  5  1  0
  5  6  2  0
  6  7  1  0
  7  8  2  0
  8  9  1  0
  7 10  1  0
 10 11  1  0
 11 12  1  0
 12 13  1  0
 13 14  1  0
 14 15  1  0
  2 16  1  0
 16 17  2  0
 16 18  1  0
  9  4  2  0
 15 10  1  0
M  END
>  <rName>  (3160) 
Phe_morpholino

>  <PQ_SYMBOL>  (3160) 
Phe_morpholino

>  <FULL_NAME>  (3160) 
4-Morpholino-L-phenylalanine

>  <IUPAC_CONDENSED>  (3160) 
Phe(morpholino)

>  <IUPAC>  (3160) 
(2S)-2-amino-3-(4-(morpholin-4-yl)phenyl)propanoic acid

>  <TYPE>  (3160) 
Backbone

>  <CLASS>  (3160) 
alpha

>  <ANALOG>  (3160) 
Phe

>  <MOL_WT>  (3160) 
250.2979999999999

>  <LOGP>  (3160) 
0.47759999999999997

>  <TPSA>  (3160) 
75.78999999999999

>  <POPULARITY>  (3160) 
4.3

>  <PROTECTED>  (3160) 
TRUE

>  <SMILES>  (3160) 
N[C@@H](Cc1(ccc(cc1)N2(CCOCC2)))C(=O)O

>  <INCHIKEY>  (3160) 
BKFTZFXJLYAYLN-LBPRGKRZSA-N

$$$$
Phe_pyrid3yl
     RDKit          2D

 18 19  0  0  0  0  0  0  0  0999 V2000
   -3.2769    1.7174    0.0000 N   0  0  0  0  0  0  0  0  0  0  0  0
   -3.8349    0.3251    0.0000 C   0  0  0  0  0  0  0  0  0  0  0  0
   -2.9082   -0.8544    0.0000 C   0  0  0  0  0  0  0  0  0  0  0  0
   -1.4234   -0.6415    0.0000 C   0  0  0  0  0  0  0  0  0  0  0  0
   -0.8653    0.7508    0.0000 C   0  0  0  0  0  0  0  0  0  0  0  0
    0.6195    0.9637    0.0000 C   0  0  0  0  0  0  0  0  0  0  0  0
    1.5463   -0.2158    0.0000 C   0  0  0  0  0  0  0  0  0  0  0  0
    0.9882   -1.6081    0.0000 C   0  0  0  0  0  0  0  0  0  0  0  0
   -0.4966   -1.8210    0.0000 C   0  0  0  0  0  0  0  0  0  0  0  0
    3.0311   -0.0029    0.0000 C   0  0  0  0  0  0  0  0  0  0  0  0
    3.9578   -1.1824    0.0000 C   0  0  0  0  0  0  0  0  0  0  0  0
    5.4427   -0.9695    0.0000 C   0  0  0  0  0  0  0  0  0  0  0  0
    6.0007    0.4228    0.0000 C   0  0  0  0  0  0  0  0  0  0  0  0
    5.0740    1.6023    0.0000 N   0  0  0  0  0  0  0  0  0  0  0  0
    3.5891    1.3894    0.0000 C   0  0  0  0  0  0  0  0  0  0  0  0
   -5.3198    0.1122    0.0000 C   0  0  0  0  0  0  0  0  0  0  0  0
   -5.8778   -1.2801    0.0000 O   0  0  0  0  0  0  0  0  0  0  0  0
   -6.2465    1.2917    0.0000 O   0  0  0  0  0  0  0  0  0  0  0  0
  2  1  1  1
  2  3  1  0
  3  4  1  0
  4  5  1  0
  5  6  2  0
  6  7  1  0
  7  8  2  0
  8  9  1  0
  7 10  1  0
 10 11  2  0
 11 12  1  0
 12 13  2  0
 13 14  1  0
 14 15  2  0
  2 16  1  0
 16 17  2  0
 16 18  1  0
  9  4  2  0
 15 10  1  0
M  END
>  <rName>  (3161) 
Phe_pyrid3yl

>  <PQ_SYMBOL>  (3161) 
Phe_pyrid3yl

>  <FULL_NAME>  (3161) 
(S)-2-amino-3-(4-(pyridin-3-yl)phenyl)propanoic acid

>  <IUPAC_CONDENSED>  (3161) 
Phe(pyrid-3-yl)

>  <IUPAC>  (3161) 
(2S)-2-amino-3-(4-(pyridin-3-yl)phenyl)propanoic acid

>  <TYPE>  (3161) 
Backbone

>  <CLASS>  (3161) 
alpha

>  <ANALOG>  (3161) 
Phe

>  <MOL_WT>  (3161) 
242.278

>  <LOGP>  (3161) 
1.703

>  <TPSA>  (3161) 
76.21

>  <POPULARITY>  (3161) 
8.3

>  <PROTECTED>  (3161) 
TRUE

>  <SMILES>  (3161) 
N[C@@H](Cc1(ccc(cc1)c2(cccnc2)))C(=O)O

>  <INCHIKEY>  (3161) 
HWAKOCNTLFYOFR-ZDUSSCGKSA-N

$$$$
Phg
     RDKit          2D

 11 11  0  0  0  0  0  0  0  0999 V2000
   -1.6031   -2.0851    0.0000 N   0  0  0  0  0  0  0  0  0  0  0  0
   -1.1770   -0.6469    0.0000 C   0  0  0  0  0  0  0  0  0  0  0  0
    0.2816   -0.2968    0.0000 C   0  0  0  0  0  0  0  0  0  0  0  0
    0.7077    1.1415    0.0000 C   0  0  0  0  0  0  0  0  0  0  0  0
    2.1662    1.4916    0.0000 C   0  0  0  0  0  0  0  0  0  0  0  0
    3.1987    0.4035    0.0000 C   0  0  0  0  0  0  0  0  0  0  0  0
    2.7726   -1.0347    0.0000 C   0  0  0  0  0  0  0  0  0  0  0  0
    1.3141   -1.3849    0.0000 C   0  0  0  0  0  0  0  0  0  0  0  0
   -2.2095    0.4412    0.0000 C   0  0  0  0  0  0  0  0  0  0  0  0
   -1.7834    1.8794    0.0000 O   0  0  0  0  0  0  0  0  0  0  0  0
   -3.6680    0.0911    0.0000 O   0  0  0  0  0  0  0  0  0  0  0  0
  2  1  1  6
  2  3  1  0
  3  4  2  0
  4  5  1  0
  5  6  2  0
  6  7  1  0
  7  8  2  0
  2  9  1  0
  9 10  2  0
  9 11  1  0
  8  3  1  0
M  END
>  <rName>  (3162) 
Phg

>  <PQ_SYMBOL>  (3162) 
Phg

>  <FULL_NAME>  (3162) 
L-Phenylglycine

>  <IUPAC_CONDENSED>  (3162) 
Phg

>  <IUPAC>  (3162) 
(2S)-2-amino-2-phenylacetic acid

>  <TYPE>  (3162) 
Backbone

>  <CLASS>  (3162) 
alpha

>  <ANALOG>  (3162) 
X

>  <MOL_WT>  (3162) 
151.16499999999996

>  <LOGP>  (3162) 
0.7710000000000001

>  <TPSA>  (3162) 
63.32000000000001

>  <POPULARITY>  (3162) 
41.8

>  <PROTECTED>  (3162) 
TRUE

>  <SMILES>  (3162) 
N[C@@H](c1(ccccc1))C(=O)O

>  <INCHIKEY>  (3162) 
ZGUNAGUHMKGQNY-ZETCQYMHSA-N

$$$$
Phg-ol
     RDKit          2D

 10 10  0  0  0  0  0  0  0  0999 V2000
   -1.9660   -1.7051    0.0000 N   0  0  0  0  0  0  0  0  0  0  0  0
   -1.3951   -0.3180    0.0000 C   0  0  0  0  0  0  0  0  0  0  0  0
   -2.3110    0.8699    0.0000 C   0  0  0  0  0  0  0  0  0  0  0  0
   -3.7977    0.6707    0.0000 O   0  0  0  0  0  0  0  0  0  0  0  0
    0.0916   -0.1188    0.0000 C   0  0  0  0  0  0  0  0  0  0  0  0
    0.6624    1.2683    0.0000 C   0  0  0  0  0  0  0  0  0  0  0  0
    2.1491    1.4676    0.0000 C   0  0  0  0  0  0  0  0  0  0  0  0
    3.0650    0.2796    0.0000 C   0  0  0  0  0  0  0  0  0  0  0  0
    2.4942   -1.1075    0.0000 C   0  0  0  0  0  0  0  0  0  0  0  0
    1.0075   -1.3067    0.0000 C   0  0  0  0  0  0  0  0  0  0  0  0
  2  1  1  6
  2  3  1  0
  3  4  1  0
  2  5  1  0
  5  6  2  0
  6  7  1  0
  7  8  2  0
  8  9  1  0
  9 10  2  0
 10  5  1  0
M  END
>  <rName>  (3163) 
Phg-ol

>  <PQ_SYMBOL>  (3163) 
Phg-ol

>  <FULL_NAME>  (3163) 
(2S)-2-amino-2-phenylethan-1-ol

>  <IUPAC_CONDENSED>  (3163) 
Phg-ol

>  <IUPAC>  (3163) 
(2S)-2-amino-2-phenylethan-1-ol

>  <TYPE>  (3163) 
C-term cap

>  <CLASS>  (3163) 
c_cap

>  <ANALOG>  (3163) 
X

>  <MOL_WT>  (3163) 
137.182

>  <LOGP>  (3163) 
0.6787000000000001

>  <TPSA>  (3163) 
46.25

>  <POPULARITY>  (3163) 
11.7

>  <PROTECTED>  (3163) 
FALSE

>  <SMILES>  (3163) 
N[C@H](CO)c1ccccc1

>  <INCHIKEY>  (3163) 
IJXJGQCXFSSHNL-MRVPVSSYSA-N

$$$$
Phg35-diOH-OMe
     RDKit          2D

 14 14  0  0  0  0  0  0  0  0999 V2000
   -1.5013   -2.3830    0.0000 N   0  0  0  0  0  0  0  0  0  0  0  0
   -1.2160   -0.9104    0.0000 C   0  0  0  0  0  0  0  0  0  0  0  0
   -2.3487    0.0730    0.0000 C   0  0  0  0  0  0  0  0  0  0  0  0
   -2.0634    1.5456    0.0000 O   0  0  0  0  0  0  0  0  0  0  0  0
   -3.7667   -0.4163    0.0000 O   0  0  0  0  0  0  0  0  0  0  0  0
   -4.8994    0.5671    0.0000 C   0  0  0  0  0  0  0  0  0  0  0  0
    0.2020   -0.4211    0.0000 C   0  0  0  0  0  0  0  0  0  0  0  0
    0.4872    1.0515    0.0000 C   0  0  0  0  0  0  0  0  0  0  0  0
    1.9052    1.5408    0.0000 C   0  0  0  0  0  0  0  0  0  0  0  0
    2.1905    3.0134    0.0000 O   0  0  0  0  0  0  0  0  0  0  0  0
    3.0379    0.5574    0.0000 C   0  0  0  0  0  0  0  0  0  0  0  0
    2.7526   -0.9152    0.0000 C   0  0  0  0  0  0  0  0  0  0  0  0
    3.8853   -1.8986    0.0000 O   0  0  0  0  0  0  0  0  0  0  0  0
    1.3347   -1.4045    0.0000 C   0  0  0  0  0  0  0  0  0  0  0  0
  2  1  1  6
  2  3  1  0
  3  4  2  0
  3  5  1  0
  5  6  1  0
  2  7  1  0
  7  8  2  0
  8  9  1  0
  9 10  1  0
  9 11  2  0
 11 12  1  0
 12 13  1  0
 12 14  2  0
 14  7  1  0
M  END
>  <rName>  (3164) 
Phg35-diOH-OMe

>  <PQ_SYMBOL>  (3164) 
Phg35-diOH-OMe

>  <FULL_NAME>  (3164) 
META, META'-DI-HYDROXY-PHENYLALANINE

>  <IUPAC_CONDENSED>  (3164) 
Phg(3,5-diOH)-OMe

>  <IUPAC>  (3164) 
methyl (2S)-2-amino-2-(3,5-dihydroxyphenyl)acetate

>  <TYPE>  (3164) 
C-term cap

>  <CLASS>  (3164) 
c_cap

>  <ANALOG>  (3164) 
X

>  <MOL_WT>  (3164) 
197.19

>  <LOGP>  (3164) 
0.27059999999999995

>  <TPSA>  (3164) 
92.78000000000002

>  <POPULARITY>  (3164) 
4.1

>  <PROTECTED>  (3164) 
FALSE

>  <SMILES>  (3164) 
N[C@H](C(=O)OC)c1cc(O)cc(O)c1

>  <INCHIKEY>  (3164) 
RPSOEOPINVKYBT-QMMMGPOBSA-N

$$$$
Phg_2Cl
     RDKit          2D

 12 12  0  0  0  0  0  0  0  0999 V2000
   -1.5242   -1.9777    0.0000 N   0  0  0  0  0  0  0  0  0  0  0  0
   -1.2142   -0.5101    0.0000 C   0  0  0  0  0  0  0  0  0  0  0  0
    0.2118   -0.0447    0.0000 C   0  0  0  0  0  0  0  0  0  0  0  0
    0.5219    1.4229    0.0000 C   0  0  0  0  0  0  0  0  0  0  0  0
    1.9479    1.8882    0.0000 C   0  0  0  0  0  0  0  0  0  0  0  0
    3.0638    0.8859    0.0000 C   0  0  0  0  0  0  0  0  0  0  0  0
    2.7538   -0.5817    0.0000 C   0  0  0  0  0  0  0  0  0  0  0  0
    1.3278   -1.0470    0.0000 C   0  0  0  0  0  0  0  0  0  0  0  0
    1.0178   -2.5147    0.0000 Cl  0  0  0  0  0  0  0  0  0  0  0  0
   -2.3301    0.4922    0.0000 C   0  0  0  0  0  0  0  0  0  0  0  0
   -2.0201    1.9598    0.0000 O   0  0  0  0  0  0  0  0  0  0  0  0
   -3.7561    0.0269    0.0000 O   0  0  0  0  0  0  0  0  0  0  0  0
  2  1  1  6
  2  3  1  0
  3  4  2  0
  4  5  1  0
  5  6  2  0
  6  7  1  0
  7  8  2  0
  8  9  1  0
  2 10  1  0
 10 11  2  0
 10 12  1  0
  8  3  1  0
M  END
>  <rName>  (3165) 
Phg_2Cl

>  <PQ_SYMBOL>  (3165) 
Phg_2Cl

>  <FULL_NAME>  (3165) 
(2S)-2-amino-2-(2-chlorophenyl)acetic acid

>  <IUPAC_CONDENSED>  (3165) 
Phg(2-Cl)

>  <IUPAC>  (3165) 
(2S)-2-amino-2-(2-chlorophenyl)acetic acid

>  <TYPE>  (3165) 
Backbone

>  <CLASS>  (3165) 
alpha

>  <ANALOG>  (3165) 
X

>  <MOL_WT>  (3165) 
185.60999999999996

>  <LOGP>  (3165) 
1.4244

>  <TPSA>  (3165) 
63.32000000000001

>  <POPULARITY>  (3165) 
14.1

>  <PROTECTED>  (3165) 
TRUE

>  <SMILES>  (3165) 
N[C@@H](c1(ccccc1Cl))C(=O)O

>  <INCHIKEY>  (3165) 
LMIZLNPFTRQPSF-ZETCQYMHSA-N

$$$$
Phg_2F
     RDKit          2D

 12 12  0  0  0  0  0  0  0  0999 V2000
   -1.5242   -1.9777    0.0000 N   0  0  0  0  0  0  0  0  0  0  0  0
   -1.2142   -0.5101    0.0000 C   0  0  0  0  0  0  0  0  0  0  0  0
    0.2118   -0.0447    0.0000 C   0  0  0  0  0  0  0  0  0  0  0  0
    0.5219    1.4229    0.0000 C   0  0  0  0  0  0  0  0  0  0  0  0
    1.9479    1.8882    0.0000 C   0  0  0  0  0  0  0  0  0  0  0  0
    3.0638    0.8859    0.0000 C   0  0  0  0  0  0  0  0  0  0  0  0
    2.7538   -0.5817    0.0000 C   0  0  0  0  0  0  0  0  0  0  0  0
    1.3278   -1.0470    0.0000 C   0  0  0  0  0  0  0  0  0  0  0  0
    1.0178   -2.5147    0.0000 F   0  0  0  0  0  0  0  0  0  0  0  0
   -2.3301    0.4922    0.0000 C   0  0  0  0  0  0  0  0  0  0  0  0
   -2.0201    1.9598    0.0000 O   0  0  0  0  0  0  0  0  0  0  0  0
   -3.7561    0.0269    0.0000 O   0  0  0  0  0  0  0  0  0  0  0  0
  2  1  1  6
  2  3  1  0
  3  4  2  0
  4  5  1  0
  5  6  2  0
  6  7  1  0
  7  8  2  0
  8  9  1  0
  2 10  1  0
 10 11  2  0
 10 12  1  0
  8  3  1  0
M  END
>  <rName>  (3166) 
Phg_2F

>  <PQ_SYMBOL>  (3166) 
Phg_2F

>  <FULL_NAME>  (3166) 
(2S)-2-amino-2-(2-fluorophenyl)acetic acid

>  <IUPAC_CONDENSED>  (3166) 
Phg(2-F)

>  <IUPAC>  (3166) 
(2S)-2-amino-2-(2-fluorophenyl)acetic acid

>  <TYPE>  (3166) 
Backbone

>  <CLASS>  (3166) 
alpha

>  <ANALOG>  (3166) 
X

>  <MOL_WT>  (3166) 
169.15499999999997

>  <LOGP>  (3166) 
0.9101000000000001

>  <TPSA>  (3166) 
63.32000000000001

>  <POPULARITY>  (3166) 
8.8

>  <PROTECTED>  (3166) 
TRUE

>  <SMILES>  (3166) 
N[C@@H](c1(ccccc1F))C(=O)O

>  <INCHIKEY>  (3166) 
CGNMJIBUVDGMIY-ZETCQYMHSA-N

$$$$
Phg_2OMe
     RDKit          2D

 13 13  0  0  0  0  0  0  0  0999 V2000
   -1.1420   -2.1120    0.0000 N   0  0  0  0  0  0  0  0  0  0  0  0
   -1.2559   -0.6164    0.0000 C   0  0  0  0  0  0  0  0  0  0  0  0
   -0.0175    0.2301    0.0000 C   0  0  0  0  0  0  0  0  0  0  0  0
   -0.1314    1.7258    0.0000 C   0  0  0  0  0  0  0  0  0  0  0  0
    1.1069    2.5722    0.0000 C   0  0  0  0  0  0  0  0  0  0  0  0
    2.4592    1.9230    0.0000 C   0  0  0  0  0  0  0  0  0  0  0  0
    2.5731    0.4274    0.0000 C   0  0  0  0  0  0  0  0  0  0  0  0
    1.3347   -0.4191    0.0000 C   0  0  0  0  0  0  0  0  0  0  0  0
    1.4486   -1.9148    0.0000 O   0  0  0  0  0  0  0  0  0  0  0  0
    2.8008   -2.5640    0.0000 C   0  0  0  0  0  0  0  0  0  0  0  0
   -2.6081    0.0328    0.0000 C   0  0  0  0  0  0  0  0  0  0  0  0
   -2.7220    1.5285    0.0000 O   0  0  0  0  0  0  0  0  0  0  0  0
   -3.8464   -0.8136    0.0000 O   0  0  0  0  0  0  0  0  0  0  0  0
  2  1  1  6
  2  3  1  0
  3  4  2  0
  4  5  1  0
  5  6  2  0
  6  7  1  0
  7  8  2  0
  8  9  1  0
  9 10  1  0
  2 11  1  0
 11 12  2  0
 11 13  1  0
  8  3  1  0
M  END
>  <rName>  (3167) 
Phg_2OMe

>  <PQ_SYMBOL>  (3167) 
Phg_2OMe

>  <FULL_NAME>  (3167) 
(S)-2-amino-2-(2-methoxyphenyl)acetic acid

>  <IUPAC_CONDENSED>  (3167) 
Phg(2-OMe)

>  <IUPAC>  (3167) 
(2S)-2-amino-2-(2-methoxyphenyl)acetic acid

>  <TYPE>  (3167) 
Backbone

>  <CLASS>  (3167) 
alpha

>  <ANALOG>  (3167) 
X

>  <MOL_WT>  (3167) 
181.19099999999997

>  <LOGP>  (3167) 
0.7796000000000001

>  <TPSA>  (3167) 
72.55

>  <POPULARITY>  (3167) 
8.8

>  <PROTECTED>  (3167) 
TRUE

>  <SMILES>  (3167) 
N[C@@H](c1(ccccc1OC))C(=O)O

>  <INCHIKEY>  (3167) 
DQSACLYOIBPCJU-QMMMGPOBSA-N

$$$$
Phg_3Br
     RDKit          2D

 12 12  0  0  0  0  0  0  0  0999 V2000
   -1.5885   -2.1920    0.0000 N   0  0  0  0  0  0  0  0  0  0  0  0
   -1.3991   -0.7040    0.0000 C   0  0  0  0  0  0  0  0  0  0  0  0
   -0.0158   -0.1240    0.0000 C   0  0  0  0  0  0  0  0  0  0  0  0
    0.1736    1.3640    0.0000 C   0  0  0  0  0  0  0  0  0  0  0  0
    1.5569    1.9440    0.0000 C   0  0  0  0  0  0  0  0  0  0  0  0
    2.7509    1.0360    0.0000 C   0  0  0  0  0  0  0  0  0  0  0  0
    2.5615   -0.4520    0.0000 C   0  0  0  0  0  0  0  0  0  0  0  0
    3.7555   -1.3600    0.0000 Br  0  0  0  0  0  0  0  0  0  0  0  0
    1.1782   -1.0320    0.0000 C   0  0  0  0  0  0  0  0  0  0  0  0
   -2.5931    0.2040    0.0000 C   0  0  0  0  0  0  0  0  0  0  0  0
   -2.4037    1.6920    0.0000 O   0  0  0  0  0  0  0  0  0  0  0  0
   -3.9764   -0.3760    0.0000 O   0  0  0  0  0  0  0  0  0  0  0  0
  2  1  1  6
  2  3  1  0
  3  4  2  0
  4  5  1  0
  5  6  2  0
  6  7  1  0
  7  8  1  0
  7  9  2  0
  2 10  1  0
 10 11  2  0
 10 12  1  0
  9  3  1  0
M  END
>  <rName>  (3168) 
Phg_3Br

>  <PQ_SYMBOL>  (3168) 
Phg_3Br

>  <FULL_NAME>  (3168) 
(S)-2-Amino-2-(3-bromophenyl)acetic acid

>  <IUPAC_CONDENSED>  (3168) 
Phg(3-Br)

>  <IUPAC>  (3168) 
(2S)-2-amino-2-(3-bromophenyl)acetic acid

>  <TYPE>  (3168) 
Backbone

>  <CLASS>  (3168) 
alpha

>  <ANALOG>  (3168) 
X

>  <MOL_WT>  (3168) 
230.06099999999998

>  <LOGP>  (3168) 
1.5335000000000003

>  <TPSA>  (3168) 
63.32000000000001

>  <POPULARITY>  (3168) 
6.9

>  <PROTECTED>  (3168) 
TRUE

>  <SMILES>  (3168) 
N[C@@H](c1(cccc(Br)c1))C(=O)O

>  <INCHIKEY>  (3168) 
MJPMYLPJAVQUQA-ZETCQYMHSA-N

$$$$
Phg_3Cl
     RDKit          2D

 12 12  0  0  0  0  0  0  0  0999 V2000
   -1.5885   -2.1920    0.0000 N   0  0  0  0  0  0  0  0  0  0  0  0
   -1.3991   -0.7040    0.0000 C   0  0  0  0  0  0  0  0  0  0  0  0
   -0.0158   -0.1240    0.0000 C   0  0  0  0  0  0  0  0  0  0  0  0
    0.1736    1.3640    0.0000 C   0  0  0  0  0  0  0  0  0  0  0  0
    1.5569    1.9440    0.0000 C   0  0  0  0  0  0  0  0  0  0  0  0
    2.7509    1.0360    0.0000 C   0  0  0  0  0  0  0  0  0  0  0  0
    2.5615   -0.4520    0.0000 C   0  0  0  0  0  0  0  0  0  0  0  0
    3.7555   -1.3600    0.0000 Cl  0  0  0  0  0  0  0  0  0  0  0  0
    1.1782   -1.0320    0.0000 C   0  0  0  0  0  0  0  0  0  0  0  0
   -2.5931    0.2040    0.0000 C   0  0  0  0  0  0  0  0  0  0  0  0
   -2.4037    1.6920    0.0000 O   0  0  0  0  0  0  0  0  0  0  0  0
   -3.9764   -0.3760    0.0000 O   0  0  0  0  0  0  0  0  0  0  0  0
  2  1  1  6
  2  3  1  0
  3  4  2  0
  4  5  1  0
  5  6  2  0
  6  7  1  0
  7  8  1  0
  7  9  2  0
  2 10  1  0
 10 11  2  0
 10 12  1  0
  9  3  1  0
M  END
>  <rName>  (3169) 
Phg_3Cl

>  <PQ_SYMBOL>  (3169) 
Phg_3Cl

>  <FULL_NAME>  (3169) 
(S)-2-amino-2-(3-chlorophenyl)acetic acid

>  <IUPAC_CONDENSED>  (3169) 
Phg(3-Cl)

>  <IUPAC>  (3169) 
(2S)-2-amino-2-(3-chlorophenyl)acetic acid

>  <TYPE>  (3169) 
Backbone

>  <CLASS>  (3169) 
alpha

>  <ANALOG>  (3169) 
X

>  <MOL_WT>  (3169) 
185.60999999999999

>  <LOGP>  (3169) 
1.4244

>  <TPSA>  (3169) 
63.32000000000001

>  <POPULARITY>  (3169) 
10.5

>  <PROTECTED>  (3169) 
TRUE

>  <SMILES>  (3169) 
N[C@@H](c1(cccc(Cl)c1))C(=O)O

>  <INCHIKEY>  (3169) 
MGOUENCSVMAGSE-ZETCQYMHSA-N

$$$$
Phg_3Cl-
     RDKit          2D

 12 12  0  0  0  0  0  0  0  0999 V2000
   -1.5885   -2.1920    0.0000 N   0  0  0  0  0  0  0  0  0  0  0  0
   -1.3991   -0.7040    0.0000 C   0  0  0  0  0  0  0  0  0  0  0  0
   -0.0158   -0.1240    0.0000 C   0  0  0  0  0  0  0  0  0  0  0  0
    0.1736    1.3640    0.0000 C   0  0  0  0  0  0  0  0  0  0  0  0
    1.5569    1.9440    0.0000 C   0  0  0  0  0  0  0  0  0  0  0  0
    2.7509    1.0360    0.0000 C   0  0  0  0  0  0  0  0  0  0  0  0
    2.5615   -0.4520    0.0000 C   0  0  0  0  0  0  0  0  0  0  0  0
    3.7555   -1.3600    0.0000 Cl  0  0  0  0  0  0  0  0  0  0  0  0
    1.1782   -1.0320    0.0000 C   0  0  0  0  0  0  0  0  0  0  0  0
   -2.5931    0.2040    0.0000 C   0  0  0  0  0  0  0  0  0  0  0  0
   -2.4037    1.6920    0.0000 O   0  0  0  0  0  0  0  0  0  0  0  0
   -3.9764   -0.3760    0.0000 O   0  0  0  0  0  0  0  0  0  0  0  0
  2  1  1  6
  2  3  1  0
  3  4  2  0
  4  5  1  0
  5  6  2  0
  6  7  1  0
  7  8  1  0
  7  9  2  0
  2 10  1  0
 10 11  2  0
 10 12  1  0
  9  3  1  0
M  END
>  <rName>  (3170) 
Phg_3Cl-

>  <PQ_SYMBOL>  (3170) 
Phg_3Cl-

>  <FULL_NAME>  (3170) 
3-Chlorophenylglycine

>  <IUPAC_CONDENSED>  (3170) 
Phg(3-Cl)-

>  <IUPAC>  (3170) 
(2S)-2-amino-2-(3-chlorophenyl)acetic acid

>  <TYPE>  (3170) 
N-term cap

>  <CLASS>  (3170) 
n_cap

>  <ANALOG>  (3170) 
X

>  <MOL_WT>  (3170) 
185.60999999999999

>  <LOGP>  (3170) 
1.4244

>  <TPSA>  (3170) 
63.32000000000001

>  <POPULARITY>  (3170) 
10.1

>  <PROTECTED>  (3170) 
TRUE

>  <SMILES>  (3170) 
N[C@@H](c1(cccc(Cl)c1))C(=O)O

>  <INCHIKEY>  (3170) 
MGOUENCSVMAGSE-ZETCQYMHSA-N

$$$$
Phg_3F
     RDKit          2D

 12 12  0  0  0  0  0  0  0  0999 V2000
   -1.5885   -2.1920    0.0000 N   0  0  0  0  0  0  0  0  0  0  0  0
   -1.3991   -0.7040    0.0000 C   0  0  0  0  0  0  0  0  0  0  0  0
   -0.0158   -0.1240    0.0000 C   0  0  0  0  0  0  0  0  0  0  0  0
    0.1736    1.3640    0.0000 C   0  0  0  0  0  0  0  0  0  0  0  0
    1.5569    1.9440    0.0000 C   0  0  0  0  0  0  0  0  0  0  0  0
    2.7509    1.0360    0.0000 C   0  0  0  0  0  0  0  0  0  0  0  0
    2.5615   -0.4520    0.0000 C   0  0  0  0  0  0  0  0  0  0  0  0
    3.7555   -1.3600    0.0000 F   0  0  0  0  0  0  0  0  0  0  0  0
    1.1782   -1.0320    0.0000 C   0  0  0  0  0  0  0  0  0  0  0  0
   -2.5931    0.2040    0.0000 C   0  0  0  0  0  0  0  0  0  0  0  0
   -2.4037    1.6920    0.0000 O   0  0  0  0  0  0  0  0  0  0  0  0
   -3.9764   -0.3760    0.0000 O   0  0  0  0  0  0  0  0  0  0  0  0
  2  1  1  6
  2  3  1  0
  3  4  2  0
  4  5  1  0
  5  6  2  0
  6  7  1  0
  7  8  1  0
  7  9  2  0
  2 10  1  0
 10 11  2  0
 10 12  1  0
  9  3  1  0
M  END
>  <rName>  (3171) 
Phg_3F

>  <PQ_SYMBOL>  (3171) 
Phg_3F

>  <FULL_NAME>  (3171) 
(2S)-2-amino-2-(3-fluorophenyl)acetic acid

>  <IUPAC_CONDENSED>  (3171) 
Phg(3-F)

>  <IUPAC>  (3171) 
(2S)-2-amino-2-(3-fluorophenyl)acetic acid

>  <TYPE>  (3171) 
Backbone

>  <CLASS>  (3171) 
alpha

>  <ANALOG>  (3171) 
X

>  <MOL_WT>  (3171) 
169.15499999999997

>  <LOGP>  (3171) 
0.9101000000000001

>  <TPSA>  (3171) 
63.32000000000001

>  <POPULARITY>  (3171) 
10.8

>  <PROTECTED>  (3171) 
TRUE

>  <SMILES>  (3171) 
N[C@@H](c1(cccc(F)c1))C(=O)O

>  <INCHIKEY>  (3171) 
LVYBCZIDQKJNFP-ZETCQYMHSA-N

$$$$
Phg_3Me
     RDKit          2D

 12 12  0  0  0  0  0  0  0  0999 V2000
   -1.5885   -2.1920    0.0000 N   0  0  0  0  0  0  0  0  0  0  0  0
   -1.3991   -0.7040    0.0000 C   0  0  0  0  0  0  0  0  0  0  0  0
   -0.0158   -0.1240    0.0000 C   0  0  0  0  0  0  0  0  0  0  0  0
    0.1736    1.3640    0.0000 C   0  0  0  0  0  0  0  0  0  0  0  0
    1.5569    1.9440    0.0000 C   0  0  0  0  0  0  0  0  0  0  0  0
    2.7509    1.0360    0.0000 C   0  0  0  0  0  0  0  0  0  0  0  0
    2.5615   -0.4520    0.0000 C   0  0  0  0  0  0  0  0  0  0  0  0
    3.7555   -1.3600    0.0000 C   0  0  0  0  0  0  0  0  0  0  0  0
    1.1782   -1.0320    0.0000 C   0  0  0  0  0  0  0  0  0  0  0  0
   -2.5931    0.2040    0.0000 C   0  0  0  0  0  0  0  0  0  0  0  0
   -2.4037    1.6920    0.0000 O   0  0  0  0  0  0  0  0  0  0  0  0
   -3.9764   -0.3760    0.0000 O   0  0  0  0  0  0  0  0  0  0  0  0
  2  1  1  6
  2  3  1  0
  3  4  2  0
  4  5  1  0
  5  6  2  0
  6  7  1  0
  7  8  1  0
  7  9  2  0
  2 10  1  0
 10 11  2  0
 10 12  1  0
  9  3  1  0
M  END
>  <rName>  (3172) 
Phg_3Me

>  <PQ_SYMBOL>  (3172) 
Phg_3Me

>  <FULL_NAME>  (3172) 
(2S)-2-amino-2-(3-methylphenyl)acetic acid

>  <IUPAC_CONDENSED>  (3172) 
Phg(3-Me)

>  <IUPAC>  (3172) 
(2S)-2-amino-2-(3-methylphenyl)acetic acid

>  <TYPE>  (3172) 
Backbone

>  <CLASS>  (3172) 
alpha

>  <ANALOG>  (3172) 
X

>  <MOL_WT>  (3172) 
165.19199999999998

>  <LOGP>  (3172) 
1.07942

>  <TPSA>  (3172) 
63.32000000000001

>  <POPULARITY>  (3172) 
2.2

>  <PROTECTED>  (3172) 
TRUE

>  <SMILES>  (3172) 
N[C@@H](c1(cccc(C)c1))C(=O)O

>  <INCHIKEY>  (3172) 
LUSUJXIQPCPYCT-QMMMGPOBSA-N

$$$$
Phg_3OH
     RDKit          2D

 12 12  0  0  0  0  0  0  0  0999 V2000
   -1.5885   -2.1920    0.0000 N   0  0  0  0  0  0  0  0  0  0  0  0
   -1.3991   -0.7040    0.0000 C   0  0  0  0  0  0  0  0  0  0  0  0
   -0.0158   -0.1240    0.0000 C   0  0  0  0  0  0  0  0  0  0  0  0
    0.1736    1.3640    0.0000 C   0  0  0  0  0  0  0  0  0  0  0  0
    1.5569    1.9440    0.0000 C   0  0  0  0  0  0  0  0  0  0  0  0
    2.7509    1.0360    0.0000 C   0  0  0  0  0  0  0  0  0  0  0  0
    2.5615   -0.4520    0.0000 C   0  0  0  0  0  0  0  0  0  0  0  0
    3.7555   -1.3600    0.0000 O   0  0  0  0  0  0  0  0  0  0  0  0
    1.1782   -1.0320    0.0000 C   0  0  0  0  0  0  0  0  0  0  0  0
   -2.5931    0.2040    0.0000 C   0  0  0  0  0  0  0  0  0  0  0  0
   -2.4037    1.6920    0.0000 O   0  0  0  0  0  0  0  0  0  0  0  0
   -3.9764   -0.3760    0.0000 O   0  0  0  0  0  0  0  0  0  0  0  0
  2  1  1  6
  2  3  1  0
  3  4  2  0
  4  5  1  0
  5  6  2  0
  6  7  1  0
  7  8  1  0
  7  9  2  0
  2 10  1  0
 10 11  2  0
 10 12  1  0
  9  3  1  0
M  END
>  <rName>  (3173) 
Phg_3OH

>  <PQ_SYMBOL>  (3173) 
Phg_3OH

>  <FULL_NAME>  (3173) 
(S)-3-Hydroxyphenylglycine

>  <IUPAC_CONDENSED>  (3173) 
Phg(3-OH)

>  <IUPAC>  (3173) 
(2S)-2-amino-2-(3-hydroxyphenyl)acetic acid

>  <TYPE>  (3173) 
Backbone

>  <CLASS>  (3173) 
alpha

>  <ANALOG>  (3173) 
X

>  <MOL_WT>  (3173) 
167.16399999999996

>  <LOGP>  (3173) 
0.4766

>  <TPSA>  (3173) 
83.55

>  <POPULARITY>  (3173) 
8.8

>  <PROTECTED>  (3173) 
TRUE

>  <SMILES>  (3173) 
N[C@@H](c1(cccc(O)c1))C(=O)O

>  <INCHIKEY>  (3173) 
DQLYTFPAEVJTFM-ZETCQYMHSA-N

$$$$
Phg_3OMe
     RDKit          2D

 13 13  0  0  0  0  0  0  0  0999 V2000
   -1.4877   -2.2692    0.0000 N   0  0  0  0  0  0  0  0  0  0  0  0
   -1.5624   -0.7710    0.0000 C   0  0  0  0  0  0  0  0  0  0  0  0
   -0.3023    0.0427    0.0000 C   0  0  0  0  0  0  0  0  0  0  0  0
   -0.3769    1.5408    0.0000 C   0  0  0  0  0  0  0  0  0  0  0  0
    0.8832    2.3546    0.0000 C   0  0  0  0  0  0  0  0  0  0  0  0
    2.2179    1.6702    0.0000 C   0  0  0  0  0  0  0  0  0  0  0  0
    2.2926    0.1720    0.0000 C   0  0  0  0  0  0  0  0  0  0  0  0
    3.6273   -0.5124    0.0000 O   0  0  0  0  0  0  0  0  0  0  0  0
    3.7020   -2.0105    0.0000 C   0  0  0  0  0  0  0  0  0  0  0  0
    1.0325   -0.6417    0.0000 C   0  0  0  0  0  0  0  0  0  0  0  0
   -2.8971   -0.0866    0.0000 C   0  0  0  0  0  0  0  0  0  0  0  0
   -2.9718    1.4115    0.0000 O   0  0  0  0  0  0  0  0  0  0  0  0
   -4.1572   -0.9004    0.0000 O   0  0  0  0  0  0  0  0  0  0  0  0
  2  1  1  6
  2  3  1  0
  3  4  2  0
  4  5  1  0
  5  6  2  0
  6  7  1  0
  7  8  1  0
  8  9  1  0
  7 10  2  0
  2 11  1  0
 11 12  2  0
 11 13  1  0
 10  3  1  0
M  END
>  <rName>  (3174) 
Phg_3OMe

>  <PQ_SYMBOL>  (3174) 
Phg_3OMe

>  <FULL_NAME>  (3174) 
3-Methoxy-L-Phenylglycine

>  <IUPAC_CONDENSED>  (3174) 
Phg(3-OMe)

>  <IUPAC>  (3174) 
(2S)-2-amino-2-(3-methoxyphenyl)acetic acid

>  <TYPE>  (3174) 
Backbone

>  <CLASS>  (3174) 
alpha

>  <ANALOG>  (3174) 
X

>  <MOL_WT>  (3174) 
181.19099999999997

>  <LOGP>  (3174) 
0.7796000000000001

>  <TPSA>  (3174) 
72.55

>  <POPULARITY>  (3174) 
7.7

>  <PROTECTED>  (3174) 
TRUE

>  <SMILES>  (3174) 
N[C@@H](c1(cccc(OC)c1))C(=O)O

>  <INCHIKEY>  (3174) 
UMKVNPOZWRHJPM-QMMMGPOBSA-N

$$$$
Phg_4Br
     RDKit          2D

 12 12  0  0  0  0  0  0  0  0999 V2000
   -2.1139   -2.0272    0.0000 N   0  0  0  0  0  0  0  0  0  0  0  0
   -1.6041   -0.6165    0.0000 C   0  0  0  0  0  0  0  0  0  0  0  0
   -0.1275   -0.3527    0.0000 C   0  0  0  0  0  0  0  0  0  0  0  0
    0.3824    1.0580    0.0000 C   0  0  0  0  0  0  0  0  0  0  0  0
    1.8590    1.3219    0.0000 C   0  0  0  0  0  0  0  0  0  0  0  0
    2.8258    0.1750    0.0000 C   0  0  0  0  0  0  0  0  0  0  0  0
    4.3024    0.4388    0.0000 Br  0  0  0  0  0  0  0  0  0  0  0  0
    2.3159   -1.2357    0.0000 C   0  0  0  0  0  0  0  0  0  0  0  0
    0.8393   -1.4995    0.0000 C   0  0  0  0  0  0  0  0  0  0  0  0
   -2.5709    0.5304    0.0000 C   0  0  0  0  0  0  0  0  0  0  0  0
   -2.0610    1.9411    0.0000 O   0  0  0  0  0  0  0  0  0  0  0  0
   -4.0475    0.2665    0.0000 O   0  0  0  0  0  0  0  0  0  0  0  0
  2  1  1  6
  2  3  1  0
  3  4  1  0
  4  5  2  0
  5  6  1  0
  6  7  1  0
  6  8  2  0
  8  9  1  0
  2 10  1  0
 10 11  2  0
 10 12  1  0
  9  3  2  0
M  END
>  <rName>  (3175) 
Phg_4Br

>  <PQ_SYMBOL>  (3175) 
Phg_4Br

>  <FULL_NAME>  (3175) 
(S)-2-amino-2-(4-bromophenyl)acetic acid

>  <IUPAC_CONDENSED>  (3175) 
Phg(4-Br)

>  <IUPAC>  (3175) 
(2S)-2-amino-2-(4-bromophenyl)acetic acid

>  <TYPE>  (3175) 
Backbone

>  <CLASS>  (3175) 
alpha

>  <ANALOG>  (3175) 
X

>  <MOL_WT>  (3175) 
230.06099999999998

>  <LOGP>  (3175) 
1.5335

>  <TPSA>  (3175) 
63.32000000000001

>  <POPULARITY>  (3175) 
6.5

>  <PROTECTED>  (3175) 
TRUE

>  <SMILES>  (3175) 
N[C@@H](c1(ccc(Br)cc1))C(=O)O

>  <INCHIKEY>  (3175) 
APLQICUORRMFHY-ZETCQYMHSA-N

$$$$
Phg_4Cl
     RDKit          2D

 12 12  0  0  0  0  0  0  0  0999 V2000
   -2.1139   -2.0272    0.0000 N   0  0  0  0  0  0  0  0  0  0  0  0
   -1.6041   -0.6165    0.0000 C   0  0  0  0  0  0  0  0  0  0  0  0
   -0.1275   -0.3527    0.0000 C   0  0  0  0  0  0  0  0  0  0  0  0
    0.3824    1.0580    0.0000 C   0  0  0  0  0  0  0  0  0  0  0  0
    1.8590    1.3219    0.0000 C   0  0  0  0  0  0  0  0  0  0  0  0
    2.8258    0.1750    0.0000 C   0  0  0  0  0  0  0  0  0  0  0  0
    4.3024    0.4388    0.0000 Cl  0  0  0  0  0  0  0  0  0  0  0  0
    2.3159   -1.2357    0.0000 C   0  0  0  0  0  0  0  0  0  0  0  0
    0.8393   -1.4995    0.0000 C   0  0  0  0  0  0  0  0  0  0  0  0
   -2.5709    0.5304    0.0000 C   0  0  0  0  0  0  0  0  0  0  0  0
   -2.0610    1.9411    0.0000 O   0  0  0  0  0  0  0  0  0  0  0  0
   -4.0475    0.2665    0.0000 O   0  0  0  0  0  0  0  0  0  0  0  0
  2  1  1  6
  2  3  1  0
  3  4  1  0
  4  5  2  0
  5  6  1  0
  6  7  1  0
  6  8  2  0
  8  9  1  0
  2 10  1  0
 10 11  2  0
 10 12  1  0
  9  3  2  0
M  END
>  <rName>  (3176) 
Phg_4Cl

>  <PQ_SYMBOL>  (3176) 
Phg_4Cl

>  <FULL_NAME>  (3176) 
L-4-Chlorophenylglycine

>  <IUPAC_CONDENSED>  (3176) 
Phg(4-Cl)

>  <IUPAC>  (3176) 
(2S)-2-amino-2-(4-chlorophenyl)acetic acid

>  <TYPE>  (3176) 
Backbone

>  <CLASS>  (3176) 
alpha

>  <ANALOG>  (3176) 
X

>  <MOL_WT>  (3176) 
185.60999999999999

>  <LOGP>  (3176) 
1.4244

>  <TPSA>  (3176) 
63.32000000000001

>  <POPULARITY>  (3176) 
13.8

>  <PROTECTED>  (3176) 
TRUE

>  <SMILES>  (3176) 
N[C@@H](c1(ccc(Cl)cc1))C(=O)O

>  <INCHIKEY>  (3176) 
QGJGBYXRJVIYGA-ZETCQYMHSA-N

$$$$
Phg_4F
     RDKit          2D

 12 12  0  0  0  0  0  0  0  0999 V2000
   -2.1139   -2.0272    0.0000 N   0  0  0  0  0  0  0  0  0  0  0  0
   -1.6041   -0.6165    0.0000 C   0  0  0  0  0  0  0  0  0  0  0  0
   -0.1275   -0.3527    0.0000 C   0  0  0  0  0  0  0  0  0  0  0  0
    0.3824    1.0580    0.0000 C   0  0  0  0  0  0  0  0  0  0  0  0
    1.8590    1.3219    0.0000 C   0  0  0  0  0  0  0  0  0  0  0  0
    2.8258    0.1750    0.0000 C   0  0  0  0  0  0  0  0  0  0  0  0
    4.3024    0.4388    0.0000 F   0  0  0  0  0  0  0  0  0  0  0  0
    2.3159   -1.2357    0.0000 C   0  0  0  0  0  0  0  0  0  0  0  0
    0.8393   -1.4995    0.0000 C   0  0  0  0  0  0  0  0  0  0  0  0
   -2.5709    0.5304    0.0000 C   0  0  0  0  0  0  0  0  0  0  0  0
   -2.0610    1.9411    0.0000 O   0  0  0  0  0  0  0  0  0  0  0  0
   -4.0475    0.2665    0.0000 O   0  0  0  0  0  0  0  0  0  0  0  0
  2  1  1  6
  2  3  1  0
  3  4  1  0
  4  5  2  0
  5  6  1  0
  6  7  1  0
  6  8  2  0
  8  9  1  0
  2 10  1  0
 10 11  2  0
 10 12  1  0
  9  3  2  0
M  END
>  <rName>  (3177) 
Phg_4F

>  <PQ_SYMBOL>  (3177) 
Phg_4F

>  <FULL_NAME>  (3177) 
(2S)-2-amino-2-(4-fluorophenyl)acetic acid

>  <IUPAC_CONDENSED>  (3177) 
Phg(4-F)

>  <IUPAC>  (3177) 
(2S)-2-amino-2-(4-fluorophenyl)acetic acid

>  <TYPE>  (3177) 
Backbone

>  <CLASS>  (3177) 
alpha

>  <ANALOG>  (3177) 
X

>  <MOL_WT>  (3177) 
169.15499999999997

>  <LOGP>  (3177) 
0.9101000000000001

>  <TPSA>  (3177) 
63.32000000000001

>  <POPULARITY>  (3177) 
10.5

>  <PROTECTED>  (3177) 
TRUE

>  <SMILES>  (3177) 
N[C@@H](c1(ccc(F)cc1))C(=O)O

>  <INCHIKEY>  (3177) 
JKFYKCYQEWQPTM-ZETCQYMHSA-N

$$$$
Phg_4OMe
     RDKit          2D

 13 13  0  0  0  0  0  0  0  0999 V2000
   -2.4322   -2.0790    0.0000 N   0  0  0  0  0  0  0  0  0  0  0  0
   -1.9834   -0.6478    0.0000 C   0  0  0  0  0  0  0  0  0  0  0  0
   -0.5195   -0.3208    0.0000 C   0  0  0  0  0  0  0  0  0  0  0  0
   -0.0707    1.1105    0.0000 C   0  0  0  0  0  0  0  0  0  0  0  0
    1.3933    1.4374    0.0000 C   0  0  0  0  0  0  0  0  0  0  0  0
    2.4084    0.3331    0.0000 C   0  0  0  0  0  0  0  0  0  0  0  0
    3.8723    0.6601    0.0000 O   0  0  0  0  0  0  0  0  0  0  0  0
    4.8874   -0.4443    0.0000 C   0  0  0  0  0  0  0  0  0  0  0  0
    1.9596   -1.0982    0.0000 C   0  0  0  0  0  0  0  0  0  0  0  0
    0.4956   -1.4251    0.0000 C   0  0  0  0  0  0  0  0  0  0  0  0
   -2.9985    0.4566    0.0000 C   0  0  0  0  0  0  0  0  0  0  0  0
   -2.5497    1.8879    0.0000 O   0  0  0  0  0  0  0  0  0  0  0  0
   -4.4625    0.1296    0.0000 O   0  0  0  0  0  0  0  0  0  0  0  0
  2  1  1  6
  2  3  1  0
  3  4  1  0
  4  5  2  0
  5  6  1  0
  6  7  1  0
  7  8  1  0
  6  9  2  0
  9 10  1  0
  2 11  1  0
 11 12  2  0
 11 13  1  0
 10  3  2  0
M  END
>  <rName>  (3178) 
Phg_4OMe

>  <PQ_SYMBOL>  (3178) 
Phg_4OMe

>  <FULL_NAME>  (3178) 
4-Methoxy-L-Phenylglycine

>  <IUPAC_CONDENSED>  (3178) 
nTyr(Me)

>  <IUPAC>  (3178) 
(2S)-2-amino-2-(4-methoxyphenyl)acetic acid

>  <TYPE>  (3178) 
Backbone

>  <CLASS>  (3178) 
alpha

>  <ANALOG>  (3178) 
X

>  <MOL_WT>  (3178) 
181.19099999999997

>  <LOGP>  (3178) 
0.7796000000000001

>  <TPSA>  (3178) 
72.55

>  <POPULARITY>  (3178) 
10.2

>  <PROTECTED>  (3178) 
TRUE

>  <SMILES>  (3178) 
N[C@@H](c1(ccc(OC)cc1))C(=O)O

>  <INCHIKEY>  (3178) 
GXUAKXUIILGDKW-QMMMGPOBSA-N

$$$$
Pht-Phe
     RDKit          2D

 22 24  0  0  0  0  0  0  0  0999 V2000
    5.8189   -0.1850    0.0000 C   0  0  0  0  0  0  0  0  0  0  0  0
    4.6264   -1.0949    0.0000 C   0  0  0  0  0  0  0  0  0  0  0  0
    3.2421   -0.5170    0.0000 C   0  0  0  0  0  0  0  0  0  0  0  0
    1.8865   -1.1591    0.0000 C   0  0  0  0  0  0  0  0  0  0  0  0
    1.6091   -2.6332    0.0000 O   0  0  0  0  0  0  0  0  0  0  0  0
    0.8569   -0.0682    0.0000 N   0  0  0  0  0  0  0  0  0  0  0  0
    1.5763    1.2481    0.0000 C   0  0  0  0  0  0  0  0  0  0  0  0
    0.9343    2.6037    0.0000 O   0  0  0  0  0  0  0  0  0  0  0  0
    3.0504    0.9707    0.0000 C   0  0  0  0  0  0  0  0  0  0  0  0
    4.2430    1.8805    0.0000 C   0  0  0  0  0  0  0  0  0  0  0  0
    5.6272    1.3027    0.0000 C   0  0  0  0  0  0  0  0  0  0  0  0
   -0.6308   -0.2599    0.0000 C   0  0  0  0  0  0  0  0  0  0  0  0
   -1.5406    0.9326    0.0000 C   0  0  0  0  0  0  0  0  0  0  0  0
   -3.0283    0.7409    0.0000 C   0  0  0  0  0  0  0  0  0  0  0  0
   -3.9382    1.9335    0.0000 C   0  0  0  0  0  0  0  0  0  0  0  0
   -5.4259    1.7418    0.0000 C   0  0  0  0  0  0  0  0  0  0  0  0
   -6.0037    0.3575    0.0000 C   0  0  0  0  0  0  0  0  0  0  0  0
   -5.0938   -0.8350    0.0000 C   0  0  0  0  0  0  0  0  0  0  0  0
   -3.6062   -0.6433    0.0000 C   0  0  0  0  0  0  0  0  0  0  0  0
   -1.2086   -1.6441    0.0000 C   0  0  0  0  0  0  0  0  0  0  0  0
   -0.2987   -2.8367    0.0000 O   0  0  0  0  0  0  0  0  0  0  0  0
   -2.6963   -1.8358    0.0000 O   0  0  0  0  0  0  0  0  0  0  0  0
  1  2  1  0
  2  3  2  0
  3  4  1  0
  4  5  2  0
  4  6  1  0
  6  7  1  0
  7  8  2  0
  7  9  1  0
  9 10  2  0
 10 11  1  0
  6 12  1  0
 12 13  1  6
 13 14  1  0
 14 15  2  0
 15 16  1  0
 16 17  2  0
 17 18  1  0
 18 19  2  0
 12 20  1  0
 20 21  2  0
 20 22  1  0
 19 14  1  0
  9  3  1  0
 11  1  2  0
M  END
>  <rName>  (3179) 
Pht-Phe

>  <PQ_SYMBOL>  (3179) 
Pht-Phe

>  <FULL_NAME>  (3179) 
(2S)-2-(1,3-dioxoisoindol-2-yl)-3-phenylpropanoic acid

>  <IUPAC_CONDENSED>  (3179) 
Pht-Phe

>  <IUPAC>  (3179) 
(2S)-2-(7,9-dioxo-8-azabicyclo[4.3.0]nona-1(6),2,4-trien-8-yl)-3-phenylpropanoic acid

>  <TYPE>  (3179) 
N-term cap

>  <CLASS>  (3179) 
n_cap

>  <ANALOG>  (3179) 
X

>  <MOL_WT>  (3179) 
295.29400000000004

>  <LOGP>  (3179) 
1.9785000000000001

>  <TPSA>  (3179) 
74.68

>  <POPULARITY>  (3179) 
7.5

>  <PROTECTED>  (3179) 
TRUE

>  <SMILES>  (3179) 
c3cc2C(=O)N(C(=O)c2cc3)[C@@H](Cc1(ccccc1))C(=O)O

>  <INCHIKEY>  (3179) 
VAYRSTHMTWUHGE-AWEZNQCLSA-N

$$$$
Pip
     RDKit          2D

  9  9  0  0  0  0  0  0  0  0999 V2000
    0.4167   -1.2990    0.0000 N   0  0  0  0  0  0  0  0  0  0  0  0
   -0.3333    0.0000    0.0000 C   0  0  0  0  0  0  0  0  0  0  0  0
    0.4167    1.2990    0.0000 C   0  0  0  0  0  0  0  0  0  0  0  0
    1.9167    1.2990    0.0000 C   0  0  0  0  0  0  0  0  0  0  0  0
    2.6667    0.0000    0.0000 C   0  0  0  0  0  0  0  0  0  0  0  0
    1.9167   -1.2990    0.0000 C   0  0  0  0  0  0  0  0  0  0  0  0
   -1.8333   -0.0000    0.0000 C   0  0  0  0  0  0  0  0  0  0  0  0
   -2.5833   -1.2990    0.0000 O   0  0  0  0  0  0  0  0  0  0  0  0
   -2.5833    1.2990    0.0000 O   0  0  0  0  0  0  0  0  0  0  0  0
  1  2  1  0
  2  3  1  0
  3  4  1  0
  4  5  1  0
  5  6  1  0
  2  7  1  6
  7  8  2  0
  7  9  1  0
  6  1  1  0
M  END
>  <rName>  (3180) 
Pip

>  <PQ_SYMBOL>  (3180) 
Pip

>  <FULL_NAME>  (3180) 
L-Pipecolic acid, L-Homoproline

>  <IUPAC_CONDENSED>  (3180) 
Pip

>  <IUPAC>  (3180) 
(2S)-piperidine-2-carboxylic acid

>  <TYPE>  (3180) 
Backbone

>  <CLASS>  (3180) 
alpha

>  <ANALOG>  (3180) 
Pro

>  <MOL_WT>  (3180) 
129.15900000000002

>  <LOGP>  (3180) 
0.2131

>  <TPSA>  (3180) 
49.33

>  <POPULARITY>  (3180) 
45.3

>  <PROTECTED>  (3180) 
TRUE

>  <SMILES>  (3180) 
N1[C@@H](CCCC1)C(=O)O

>  <INCHIKEY>  (3180) 
HXEACLLIILLPRG-YFKPBYRVSA-N

$$$$
Pip-OMe
     RDKit          2D

 10 10  0  0  0  0  0  0  0  0999 V2000
    1.0075   -1.3067    0.0000 N   0  0  0  0  0  0  0  0  0  0  0  0
    0.0916   -0.1188    0.0000 C   0  0  0  0  0  0  0  0  0  0  0  0
    0.6624    1.2683    0.0000 C   0  0  0  0  0  0  0  0  0  0  0  0
    2.1491    1.4676    0.0000 C   0  0  0  0  0  0  0  0  0  0  0  0
    3.0650    0.2796    0.0000 C   0  0  0  0  0  0  0  0  0  0  0  0
    2.4942   -1.1075    0.0000 C   0  0  0  0  0  0  0  0  0  0  0  0
   -1.3951   -0.3180    0.0000 C   0  0  0  0  0  0  0  0  0  0  0  0
   -1.9660   -1.7051    0.0000 O   0  0  0  0  0  0  0  0  0  0  0  0
   -2.3110    0.8699    0.0000 O   0  0  0  0  0  0  0  0  0  0  0  0
   -3.7977    0.6707    0.0000 C   0  0  0  0  0  0  0  0  0  0  0  0
  1  2  1  0
  2  3  1  0
  3  4  1  0
  4  5  1  0
  5  6  1  0
  2  7  1  6
  7  8  2  0
  7  9  1  0
  9 10  1  0
  6  1  1  0
M  END
>  <rName>  (3181) 
Pip-OMe

>  <PQ_SYMBOL>  (3181) 
Pip-OMe

>  <FULL_NAME>  (3181) 
D-Pipecolic acid methyl ester

>  <IUPAC_CONDENSED>  (3181) 
Pip-OMe

>  <IUPAC>  (3181) 
methyl (2S)-piperidine-2-carboxylate

>  <TYPE>  (3181) 
C-term cap

>  <CLASS>  (3181) 
c_cap

>  <ANALOG>  (3181) 
X

>  <MOL_WT>  (3181) 
143.186

>  <LOGP>  (3181) 
0.3014999999999999

>  <TPSA>  (3181) 
38.33

>  <POPULARITY>  (3181) 
11.1

>  <PROTECTED>  (3181) 
TRUE

>  <SMILES>  (3181) 
N1[C@@H](CCCC1)C(=O)OC

>  <INCHIKEY>  (3181) 
CXQTTWVBUDFUNO-LURJTMIESA-N

$$$$
Pip_3ROH
     RDKit          2D

 10 10  0  0  0  0  0  0  0  0999 V2000
    0.5274   -1.5344    0.0000 N   0  0  0  0  0  0  0  0  0  0  0  0
   -0.2866   -0.2745    0.0000 C   0  0  0  0  0  0  0  0  0  0  0  0
    0.3975    1.0604    0.0000 C   0  0  0  0  0  0  0  0  0  0  0  0
   -0.4166    2.3203    0.0000 O   0  0  0  0  0  0  0  0  0  0  0  0
    1.8956    1.1355    0.0000 C   0  0  0  0  0  0  0  0  0  0  0  0
    2.7096   -0.1244    0.0000 C   0  0  0  0  0  0  0  0  0  0  0  0
    2.0255   -1.4594    0.0000 C   0  0  0  0  0  0  0  0  0  0  0  0
   -1.7848   -0.3495    0.0000 C   0  0  0  0  0  0  0  0  0  0  0  0
   -2.4688   -1.6844    0.0000 O   0  0  0  0  0  0  0  0  0  0  0  0
   -2.5988    0.9104    0.0000 O   0  0  0  0  0  0  0  0  0  0  0  0
  1  2  1  0
  2  3  1  0
  3  4  1  6
  3  5  1  0
  5  6  1  0
  6  7  1  0
  2  8  1  6
  8  9  2  0
  8 10  1  0
  7  1  1  0
M  END
>  <rName>  (3182) 
Pip_3ROH

>  <PQ_SYMBOL>  (3182) 
Pip_3ROH

>  <FULL_NAME>  (3182) 
(2S,3R)-3-hydroxypiperidine-2-carboxylic acid

>  <IUPAC_CONDENSED>  (3182) 
Pip(3R-OH)

>  <IUPAC>  (3182) 
(2S,3R)-3-hydroxypiperidine-2-carboxylic acid

>  <TYPE>  (3182) 
Backbone

>  <CLASS>  (3182) 
alpha

>  <ANALOG>  (3182) 
Pro

>  <MOL_WT>  (3182) 
145.15800000000002

>  <LOGP>  (3182) 
-0.8161000000000005

>  <TPSA>  (3182) 
69.56

>  <POPULARITY>  (3182) 
2.2

>  <PROTECTED>  (3182) 
TRUE

>  <SMILES>  (3182) 
N1[C@@H]([C@H](O)CCC1)C(=O)O

>  <INCHIKEY>  (3182) 
FDMYUQHVJYNDLI-UHNVWZDZSA-N

$$$$
Pip_3SOH_4ROH
     RDKit          2D

 11 11  0  0  0  0  0  0  0  0999 V2000
   -0.2609   -1.7640    0.0000 N   0  0  0  0  0  0  0  0  0  0  0  0
   -0.6491   -0.3151    0.0000 C   0  0  0  0  0  0  0  0  0  0  0  0
    0.4115    0.7456    0.0000 C   0  0  0  0  0  0  0  0  0  0  0  0
    0.0233    2.1944    0.0000 O   0  0  0  0  0  0  0  0  0  0  0  0
    1.8604    0.3573    0.0000 C   0  0  0  0  0  0  0  0  0  0  0  0
    2.9211    1.4180    0.0000 O   0  0  0  0  0  0  0  0  0  0  0  0
    2.2486   -1.0916    0.0000 C   0  0  0  0  0  0  0  0  0  0  0  0
    1.1880   -2.1522    0.0000 C   0  0  0  0  0  0  0  0  0  0  0  0
   -2.0980    0.0731    0.0000 C   0  0  0  0  0  0  0  0  0  0  0  0
   -3.1587   -0.9875    0.0000 O   0  0  0  0  0  0  0  0  0  0  0  0
   -2.4862    1.5220    0.0000 O   0  0  0  0  0  0  0  0  0  0  0  0
  1  2  1  0
  2  3  1  0
  3  4  1  6
  3  5  1  0
  5  6  1  6
  5  7  1  0
  7  8  1  0
  2  9  1  6
  9 10  2  0
  9 11  1  0
  8  1  1  0
M  END
>  <rName>  (3183) 
Pip_3SOH_4ROH

>  <PQ_SYMBOL>  (3183) 
Pip_3SOH_4ROH

>  <FULL_NAME>  (3183) 
rac-(2R,3R,4S)-3,4-dihydroxypiperidine-2-carboxylic acid

>  <IUPAC_CONDENSED>  (3183) 
Pip(3S-OH,4R-OH)

>  <IUPAC>  (3183) 
(2S,3S,4R)-3,4-dihydroxypiperidine-2-carboxylic acid

>  <TYPE>  (3183) 
Backbone

>  <CLASS>  (3183) 
alpha

>  <ANALOG>  (3183) 
Pro

>  <MOL_WT>  (3183) 
161.157

>  <LOGP>  (3183) 
-1.8453

>  <TPSA>  (3183) 
89.79

>  <POPULARITY>  (3183) 
4.0

>  <PROTECTED>  (3183) 
TRUE

>  <SMILES>  (3183) 
N1[C@@H]([C@H](O)[C@H](O)CC1)C(=O)O

>  <INCHIKEY>  (3183) 
SUCGXPHEYBRFIL-MROZADKFSA-N

$$$$
Pip_4ROH
     RDKit          2D

 10 10  0  0  0  0  0  0  0  0999 V2000
   -0.2551   -1.5451    0.0000 N   0  0  0  0  0  0  0  0  0  0  0  0
   -0.6466   -0.0971    0.0000 C   0  0  0  0  0  0  0  0  0  0  0  0
    0.4117    0.9659    0.0000 C   0  0  0  0  0  0  0  0  0  0  0  0
    1.8615    0.5809    0.0000 C   0  0  0  0  0  0  0  0  0  0  0  0
    2.9197    1.6440    0.0000 O   0  0  0  0  0  0  0  0  0  0  0  0
    2.2529   -0.8671    0.0000 C   0  0  0  0  0  0  0  0  0  0  0  0
    1.1946   -1.9301    0.0000 C   0  0  0  0  0  0  0  0  0  0  0  0
   -2.0963    0.2879    0.0000 C   0  0  0  0  0  0  0  0  0  0  0  0
   -3.1546   -0.7752    0.0000 O   0  0  0  0  0  0  0  0  0  0  0  0
   -2.4878    1.7359    0.0000 O   0  0  0  0  0  0  0  0  0  0  0  0
  1  2  1  0
  2  3  1  0
  3  4  1  0
  4  5  1  6
  4  6  1  0
  6  7  1  0
  2  8  1  6
  8  9  2  0
  8 10  1  0
  7  1  1  0
M  END
>  <rName>  (3184) 
Pip_4ROH

>  <PQ_SYMBOL>  (3184) 
Pip_4ROH

>  <FULL_NAME>  (3184) 
(2S,4R)-4-hydroxypiperidine-2-carboxylic acid

>  <IUPAC_CONDENSED>  (3184) 
Pip(4R-OH)

>  <IUPAC>  (3184) 
(2S,4R)-4-hydroxypiperidine-2-carboxylic acid

>  <TYPE>  (3184) 
Backbone

>  <CLASS>  (3184) 
alpha

>  <ANALOG>  (3184) 
Pro

>  <MOL_WT>  (3184) 
145.15800000000002

>  <LOGP>  (3184) 
-0.8161000000000005

>  <TPSA>  (3184) 
69.56

>  <POPULARITY>  (3184) 
9.3

>  <PROTECTED>  (3184) 
TRUE

>  <SMILES>  (3184) 
N1[C@@H](C[C@H](O)CC1)C(=O)O

>  <INCHIKEY>  (3184) 
KRHNXNZBLHHEIU-UHNVWZDZSA-N

$$$$
Pip_4SMe
     RDKit          2D

 10 10  0  0  0  0  0  0  0  0999 V2000
   -0.2551   -1.5451    0.0000 N   0  0  0  0  0  0  0  0  0  0  0  0
   -0.6466   -0.0971    0.0000 C   0  0  0  0  0  0  0  0  0  0  0  0
    0.4117    0.9659    0.0000 C   0  0  0  0  0  0  0  0  0  0  0  0
    1.8615    0.5809    0.0000 C   0  0  0  0  0  0  0  0  0  0  0  0
    2.9197    1.6440    0.0000 C   0  0  0  0  0  0  0  0  0  0  0  0
    2.2529   -0.8671    0.0000 C   0  0  0  0  0  0  0  0  0  0  0  0
    1.1946   -1.9301    0.0000 C   0  0  0  0  0  0  0  0  0  0  0  0
   -2.0963    0.2879    0.0000 C   0  0  0  0  0  0  0  0  0  0  0  0
   -3.1546   -0.7752    0.0000 O   0  0  0  0  0  0  0  0  0  0  0  0
   -2.4878    1.7359    0.0000 O   0  0  0  0  0  0  0  0  0  0  0  0
  1  2  1  0
  2  3  1  0
  3  4  1  0
  4  5  1  1
  4  6  1  0
  6  7  1  0
  2  8  1  6
  8  9  2  0
  8 10  1  0
  7  1  1  0
M  END
>  <rName>  (3185) 
Pip_4SMe

>  <PQ_SYMBOL>  (3185) 
Pip_4SMe

>  <FULL_NAME>  (3185) 
(2S,4S)-4-Methylpiperidine-2-carboxylic acid

>  <IUPAC_CONDENSED>  (3185) 
Pip(4S-Me)

>  <IUPAC>  (3185) 
(2S,4S)-4-methylpiperidine-2-carboxylic acid

>  <TYPE>  (3185) 
Backbone

>  <CLASS>  (3185) 
alpha

>  <ANALOG>  (3185) 
Pro

>  <MOL_WT>  (3185) 
143.186

>  <LOGP>  (3185) 
0.4591

>  <TPSA>  (3185) 
49.33

>  <POPULARITY>  (3185) 
2.2

>  <PROTECTED>  (3185) 
TRUE

>  <SMILES>  (3185) 
N1[C@@H](C[C@@H](C)CC1)C(=O)O

>  <INCHIKEY>  (3185) 
UQHCHLWYGMSPJC-WDSKDSINSA-N

$$$$
Pip_4SMe_5SMe
     RDKit          2D

 11 11  0  0  0  0  0  0  0  0999 V2000
   -0.4244   -1.4895    0.0000 N   0  0  0  0  0  0  0  0  0  0  0  0
   -0.9787   -0.0957    0.0000 C   0  0  0  0  0  0  0  0  0  0  0  0
   -0.0487    1.0813    0.0000 C   0  0  0  0  0  0  0  0  0  0  0  0
    1.4355    0.8644    0.0000 C   0  0  0  0  0  0  0  0  0  0  0  0
    2.3655    2.0413    0.0000 C   0  0  0  0  0  0  0  0  0  0  0  0
    1.9898   -0.5295    0.0000 C   0  0  0  0  0  0  0  0  0  0  0  0
    3.4740   -0.7463    0.0000 C   0  0  0  0  0  0  0  0  0  0  0  0
    1.0599   -1.7064    0.0000 C   0  0  0  0  0  0  0  0  0  0  0  0
   -2.4629    0.1212    0.0000 C   0  0  0  0  0  0  0  0  0  0  0  0
   -3.3929   -1.0557    0.0000 O   0  0  0  0  0  0  0  0  0  0  0  0
   -3.0172    1.5150    0.0000 O   0  0  0  0  0  0  0  0  0  0  0  0
  1  2  1  0
  2  3  1  0
  3  4  1  0
  4  5  1  6
  4  6  1  0
  6  7  1  6
  6  8  1  0
  2  9  1  6
  9 10  2  0
  9 11  1  0
  8  1  1  0
M  END
>  <rName>  (3186) 
Pip_4SMe_5SMe

>  <PQ_SYMBOL>  (3186) 
Pip_4SMe_5SMe

>  <FULL_NAME>  (3186) 
rac-(2R,4R,5R)-4,5-dimethylpiperidine-2-carboxylic acid

>  <IUPAC_CONDENSED>  (3186) 
Pip(4S-Me,5S-Me)

>  <IUPAC>  (3186) 
(2S,4S,5S)-4,5-dimethylpiperidine-2-carboxylic acid

>  <TYPE>  (3186) 
Backbone

>  <CLASS>  (3186) 
alpha

>  <ANALOG>  (3186) 
Pro

>  <MOL_WT>  (3186) 
157.213

>  <LOGP>  (3186) 
0.7051000000000001

>  <TPSA>  (3186) 
49.33

>  <POPULARITY>  (3186) 
8.7

>  <PROTECTED>  (3186) 
TRUE

>  <SMILES>  (3186) 
N1[C@@H](C[C@H](C)[C@H](C)C1)C(=O)O

>  <INCHIKEY>  (3186) 
VZXBDUPJXSQPSB-XVMARJQXSA-N

$$$$
Pip_4SOH
     RDKit          2D

 10 10  0  0  0  0  0  0  0  0999 V2000
   -0.2551   -1.5451    0.0000 N   0  0  0  0  0  0  0  0  0  0  0  0
   -0.6466   -0.0971    0.0000 C   0  0  0  0  0  0  0  0  0  0  0  0
    0.4117    0.9659    0.0000 C   0  0  0  0  0  0  0  0  0  0  0  0
    1.8615    0.5809    0.0000 C   0  0  0  0  0  0  0  0  0  0  0  0
    2.9197    1.6440    0.0000 O   0  0  0  0  0  0  0  0  0  0  0  0
    2.2529   -0.8671    0.0000 C   0  0  0  0  0  0  0  0  0  0  0  0
    1.1946   -1.9301    0.0000 C   0  0  0  0  0  0  0  0  0  0  0  0
   -2.0963    0.2879    0.0000 C   0  0  0  0  0  0  0  0  0  0  0  0
   -3.1546   -0.7752    0.0000 O   0  0  0  0  0  0  0  0  0  0  0  0
   -2.4878    1.7359    0.0000 O   0  0  0  0  0  0  0  0  0  0  0  0
  1  2  1  0
  2  3  1  0
  3  4  1  0
  4  5  1  1
  4  6  1  0
  6  7  1  0
  2  8  1  6
  8  9  2  0
  8 10  1  0
  7  1  1  0
M  END
>  <rName>  (3187) 
Pip_4SOH

>  <PQ_SYMBOL>  (3187) 
Pip_4SOH

>  <FULL_NAME>  (3187) 
(2S,4S)-4-Hydroxypiperidine-2-carboxylic acid

>  <IUPAC_CONDENSED>  (3187) 
Pip(4S-OH)

>  <IUPAC>  (3187) 
(2S,4S)-4-hydroxypiperidine-2-carboxylic acid

>  <TYPE>  (3187) 
Backbone

>  <CLASS>  (3187) 
alpha

>  <ANALOG>  (3187) 
Pro

>  <MOL_WT>  (3187) 
145.15800000000002

>  <LOGP>  (3187) 
-0.8161000000000005

>  <TPSA>  (3187) 
69.56

>  <POPULARITY>  (3187) 
2.2

>  <PROTECTED>  (3187) 
TRUE

>  <SMILES>  (3187) 
N1[C@@H](C[C@@H](O)CC1)C(=O)O

>  <INCHIKEY>  (3187) 
KRHNXNZBLHHEIU-WHFBIAKZSA-N

$$$$
Pip_4carbonyl
     RDKit          2D

 10 10  0  0  0  0  0  0  0  0999 V2000
   -0.2551   -1.5451    0.0000 N   0  0  0  0  0  0  0  0  0  0  0  0
   -0.6466   -0.0971    0.0000 C   0  0  0  0  0  0  0  0  0  0  0  0
    0.4117    0.9659    0.0000 C   0  0  0  0  0  0  0  0  0  0  0  0
    1.8615    0.5809    0.0000 C   0  0  0  0  0  0  0  0  0  0  0  0
    2.9197    1.6440    0.0000 O   0  0  0  0  0  0  0  0  0  0  0  0
    2.2529   -0.8671    0.0000 C   0  0  0  0  0  0  0  0  0  0  0  0
    1.1946   -1.9301    0.0000 C   0  0  0  0  0  0  0  0  0  0  0  0
   -2.0963    0.2879    0.0000 C   0  0  0  0  0  0  0  0  0  0  0  0
   -3.1546   -0.7752    0.0000 O   0  0  0  0  0  0  0  0  0  0  0  0
   -2.4878    1.7359    0.0000 O   0  0  0  0  0  0  0  0  0  0  0  0
  1  2  1  0
  2  3  1  0
  3  4  1  0
  4  5  2  0
  4  6  1  0
  6  7  1  0
  2  8  1  6
  8  9  2  0
  8 10  1  0
  7  1  1  0
M  END
>  <rName>  (3188) 
Pip_4carbonyl

>  <PQ_SYMBOL>  (3188) 
Pip_4carbonyl

>  <FULL_NAME>  (3188) 
4-OXO-L-PIPECOLIC ACID

>  <IUPAC_CONDENSED>  (3188) 
Pip(4-carbonyl)

>  <IUPAC>  (3188) 
(2S)-4-oxopiperidine-2-carboxylic acid

>  <TYPE>  (3188) 
Backbone

>  <CLASS>  (3188) 
alpha

>  <ANALOG>  (3188) 
Pro

>  <MOL_WT>  (3188) 
143.142

>  <LOGP>  (3188) 
-0.6079000000000006

>  <TPSA>  (3188) 
66.4

>  <POPULARITY>  (3188) 
20.9

>  <PROTECTED>  (3188) 
TRUE

>  <SMILES>  (3188) 
N1[C@@H](CC(=O)CC1)C(=O)O

>  <INCHIKEY>  (3188) 
UAISREBYDOFHJY-YFKPBYRVSA-N

$$$$
Pip_5RMe
     RDKit          2D

 10 10  0  0  0  0  0  0  0  0999 V2000
    0.0000   -1.2990    0.0000 N   0  0  0  0  0  0  0  0  0  0  0  0
   -0.7500    0.0000    0.0000 C   0  0  0  0  0  0  0  0  0  0  0  0
    0.0000    1.2990    0.0000 C   0  0  0  0  0  0  0  0  0  0  0  0
    1.5000    1.2990    0.0000 C   0  0  0  0  0  0  0  0  0  0  0  0
    2.2500   -0.0000    0.0000 C   0  0  0  0  0  0  0  0  0  0  0  0
    3.7500    0.0000    0.0000 C   0  0  0  0  0  0  0  0  0  0  0  0
    1.5000   -1.2990    0.0000 C   0  0  0  0  0  0  0  0  0  0  0  0
   -2.2500    0.0000    0.0000 C   0  0  0  0  0  0  0  0  0  0  0  0
   -3.0000   -1.2990    0.0000 O   0  0  0  0  0  0  0  0  0  0  0  0
   -3.0000    1.2990    0.0000 O   0  0  0  0  0  0  0  0  0  0  0  0
  1  2  1  0
  2  3  1  0
  3  4  1  0
  4  5  1  0
  5  6  1  1
  5  7  1  0
  2  8  1  6
  8  9  2  0
  8 10  1  0
  7  1  1  0
M  END
>  <rName>  (3189) 
Pip_5RMe

>  <PQ_SYMBOL>  (3189) 
Pip_5RMe

>  <FULL_NAME>  (3189) 
rac-(2R,5S)-5-methylpiperidine-2-carboxylic acid

>  <IUPAC_CONDENSED>  (3189) 
Pip(5R-Me)

>  <IUPAC>  (3189) 
(2S,5R)-5-methylpiperidine-2-carboxylic acid

>  <TYPE>  (3189) 
Backbone

>  <CLASS>  (3189) 
alpha

>  <ANALOG>  (3189) 
Pro

>  <MOL_WT>  (3189) 
143.186

>  <LOGP>  (3189) 
0.4591

>  <TPSA>  (3189) 
49.33

>  <POPULARITY>  (3189) 
2.2

>  <PROTECTED>  (3189) 
TRUE

>  <SMILES>  (3189) 
N1[C@@H](CC[C@@H](C)C1)C(=O)O

>  <INCHIKEY>  (3189) 
JYWQLXDCNQQXGO-RITPCOANSA-N

$$$$
Pip_5ROH
     RDKit          2D

 10 10  0  0  0  0  0  0  0  0999 V2000
    0.0000   -1.2990    0.0000 N   0  0  0  0  0  0  0  0  0  0  0  0
   -0.7500    0.0000    0.0000 C   0  0  0  0  0  0  0  0  0  0  0  0
    0.0000    1.2990    0.0000 C   0  0  0  0  0  0  0  0  0  0  0  0
    1.5000    1.2990    0.0000 C   0  0  0  0  0  0  0  0  0  0  0  0
    2.2500   -0.0000    0.0000 C   0  0  0  0  0  0  0  0  0  0  0  0
    3.7500    0.0000    0.0000 O   0  0  0  0  0  0  0  0  0  0  0  0
    1.5000   -1.2990    0.0000 C   0  0  0  0  0  0  0  0  0  0  0  0
   -2.2500    0.0000    0.0000 C   0  0  0  0  0  0  0  0  0  0  0  0
   -3.0000   -1.2990    0.0000 O   0  0  0  0  0  0  0  0  0  0  0  0
   -3.0000    1.2990    0.0000 O   0  0  0  0  0  0  0  0  0  0  0  0
  1  2  1  0
  2  3  1  0
  3  4  1  0
  4  5  1  0
  5  6  1  1
  5  7  1  0
  2  8  1  6
  8  9  2  0
  8 10  1  0
  7  1  1  0
M  END
>  <rName>  (3190) 
Pip_5ROH

>  <PQ_SYMBOL>  (3190) 
Pip_5ROH

>  <FULL_NAME>  (3190) 
trans-5-Hydroxy-L-pipecolic acid

>  <IUPAC_CONDENSED>  (3190) 
Pip(5R-OH)

>  <IUPAC>  (3190) 
(2S,5R)-5-hydroxypiperidine-2-carboxylic acid

>  <TYPE>  (3190) 
Backbone

>  <CLASS>  (3190) 
alpha

>  <ANALOG>  (3190) 
Pro

>  <MOL_WT>  (3190) 
145.158

>  <LOGP>  (3190) 
-0.8161000000000005

>  <TPSA>  (3190) 
69.56

>  <POPULARITY>  (3190) 
3.5

>  <PROTECTED>  (3190) 
TRUE

>  <SMILES>  (3190) 
N1[C@@H](CC[C@@H](O)C1)C(=O)O

>  <INCHIKEY>  (3190) 
RKEYKDXXZCICFZ-UHNVWZDZSA-N

$$$$
Pip_5SOH
     RDKit          2D

 10 10  0  0  0  0  0  0  0  0999 V2000
    0.0000   -1.2990    0.0000 N   0  0  0  0  0  0  0  0  0  0  0  0
   -0.7500    0.0000    0.0000 C   0  0  0  0  0  0  0  0  0  0  0  0
    0.0000    1.2990    0.0000 C   0  0  0  0  0  0  0  0  0  0  0  0
    1.5000    1.2990    0.0000 C   0  0  0  0  0  0  0  0  0  0  0  0
    2.2500   -0.0000    0.0000 C   0  0  0  0  0  0  0  0  0  0  0  0
    3.7500    0.0000    0.0000 O   0  0  0  0  0  0  0  0  0  0  0  0
    1.5000   -1.2990    0.0000 C   0  0  0  0  0  0  0  0  0  0  0  0
   -2.2500    0.0000    0.0000 C   0  0  0  0  0  0  0  0  0  0  0  0
   -3.0000   -1.2990    0.0000 O   0  0  0  0  0  0  0  0  0  0  0  0
   -3.0000    1.2990    0.0000 O   0  0  0  0  0  0  0  0  0  0  0  0
  1  2  1  0
  2  3  1  0
  3  4  1  0
  4  5  1  0
  5  6  1  6
  5  7  1  0
  2  8  1  6
  8  9  2  0
  8 10  1  0
  7  1  1  0
M  END
>  <rName>  (3191) 
Pip_5SOH

>  <PQ_SYMBOL>  (3191) 
Pip_5SOH

>  <FULL_NAME>  (3191) 
(2S,5S)-5-Hydroxypiperidine-2-carboxylic Acid

>  <IUPAC_CONDENSED>  (3191) 
Pip(5S-OH)

>  <IUPAC>  (3191) 
(2S,5S)-5-hydroxypiperidine-2-carboxylic acid

>  <TYPE>  (3191) 
Backbone

>  <CLASS>  (3191) 
alpha

>  <ANALOG>  (3191) 
Pro

>  <MOL_WT>  (3191) 
145.158

>  <LOGP>  (3191) 
-0.8161000000000005

>  <TPSA>  (3191) 
69.56

>  <POPULARITY>  (3191) 
3.5

>  <PROTECTED>  (3191) 
TRUE

>  <SMILES>  (3191) 
N1[C@@H](CC[C@H](O)C1)C(=O)O

>  <INCHIKEY>  (3191) 
RKEYKDXXZCICFZ-WHFBIAKZSA-N

$$$$
Pip_6carbonyl
     RDKit          2D

 10 10  0  0  0  0  0  0  0  0999 V2000
   -2.2529   -0.8671    0.0000 C   0  0  0  0  0  0  0  0  0  0  0  0
   -1.8615    0.5809    0.0000 C   0  0  0  0  0  0  0  0  0  0  0  0
   -2.9197    1.6440    0.0000 O   0  0  0  0  0  0  0  0  0  0  0  0
   -0.4117    0.9659    0.0000 N   0  0  0  0  0  0  0  0  0  0  0  0
    0.6466   -0.0971    0.0000 C   0  0  0  0  0  0  0  0  0  0  0  0
    0.2551   -1.5451    0.0000 C   0  0  0  0  0  0  0  0  0  0  0  0
   -1.1946   -1.9301    0.0000 C   0  0  0  0  0  0  0  0  0  0  0  0
    2.0963    0.2879    0.0000 C   0  0  0  0  0  0  0  0  0  0  0  0
    2.4878    1.7359    0.0000 O   0  0  0  0  0  0  0  0  0  0  0  0
    3.1546   -0.7752    0.0000 O   0  0  0  0  0  0  0  0  0  0  0  0
  1  2  1  0
  2  3  2  0
  2  4  1  0
  4  5  1  0
  5  6  1  0
  6  7  1  0
  5  8  1  6
  8  9  2  0
  8 10  1  0
  7  1  1  0
M  END
>  <rName>  (3192) 
Pip_6carbonyl

>  <PQ_SYMBOL>  (3192) 
Pip_6carbonyl

>  <FULL_NAME>  (3192) 
(2S)-6-oxopiperidine-2-carboxylic acid

>  <IUPAC_CONDENSED>  (3192) 
Pip(6-carbonyl)

>  <IUPAC>  (3192) 
(2S)-6-oxopiperidine-2-carboxylic acid

>  <TYPE>  (3192) 
N-term cap

>  <CLASS>  (3192) 
n_cap

>  <ANALOG>  (3192) 
X

>  <MOL_WT>  (3192) 
143.142

>  <LOGP>  (3192) 
-0.2602999999999998

>  <TPSA>  (3192) 
66.4

>  <POPULARITY>  (3192) 
14.7

>  <PROTECTED>  (3192) 
TRUE

>  <SMILES>  (3192) 
C1C(=O)N[C@@H](CC1)C(=O)O

>  <INCHIKEY>  (3192) 
FZXCPFJMYOQZCA-BYPYZUCNSA-N

$$$$
Pip_g_gdiF
     RDKit          2D

 11 11  0  0  0  0  0  0  0  0999 V2000
   -0.5576   -1.6234    0.0000 N   0  0  0  0  0  0  0  0  0  0  0  0
   -0.8760   -0.1576    0.0000 C   0  0  0  0  0  0  0  0  0  0  0  0
    0.2343    0.8510    0.0000 C   0  0  0  0  0  0  0  0  0  0  0  0
    1.6629    0.3938    0.0000 C   0  0  0  0  0  0  0  0  0  0  0  0
    1.8650    1.8801    0.0000 F   0  0  0  0  0  0  0  0  0  0  0  0
    3.1617    0.4528    0.0000 F   0  0  0  0  0  0  0  0  0  0  0  0
    1.9813   -1.0720    0.0000 C   0  0  0  0  0  0  0  0  0  0  0  0
    0.8710   -2.0806    0.0000 C   0  0  0  0  0  0  0  0  0  0  0  0
   -2.3046    0.2996    0.0000 C   0  0  0  0  0  0  0  0  0  0  0  0
   -3.4149   -0.7091    0.0000 O   0  0  0  0  0  0  0  0  0  0  0  0
   -2.6230    1.7654    0.0000 O   0  0  0  0  0  0  0  0  0  0  0  0
  1  2  1  0
  2  3  1  0
  3  4  1  0
  4  5  1  0
  4  6  1  0
  4  7  1  0
  7  8  1  0
  2  9  1  6
  9 10  2  0
  9 11  1  0
  8  1  1  0
M  END
>  <rName>  (3193) 
Pip_g_gdiF

>  <PQ_SYMBOL>  (3193) 
Pip_g_gdiF

>  <FULL_NAME>  (3193) 
(2S)-4,4-difluoropiperidine-2-carboxylic acid

>  <IUPAC_CONDENSED>  (3193) 
Pip(g,g-diF)

>  <IUPAC>  (3193) 
(2S)-4,4-difluoropiperidine-2-carboxylic acid

>  <TYPE>  (3193) 
Backbone

>  <CLASS>  (3193) 
alpha

>  <ANALOG>  (3193) 
Pro

>  <MOL_WT>  (3193) 
165.139

>  <LOGP>  (3193) 
0.4583000000000001

>  <TPSA>  (3193) 
49.33

>  <POPULARITY>  (3193) 
2.2

>  <PROTECTED>  (3193) 
TRUE

>  <SMILES>  (3193) 
N1[C@@H](CC(F)(F)CC1)C(=O)O

>  <INCHIKEY>  (3193) 
GEKRVNGNCNQGJM-BYPYZUCNSA-N

$$$$
Piv
     RDKit          2D

  7  6  0  0  0  0  0  0  0  0999 V2000
   -0.6429    1.5000    0.0000 C   0  0  0  0  0  0  0  0  0  0  0  0
   -0.6429   -0.0000    0.0000 C   0  0  0  0  0  0  0  0  0  0  0  0
   -0.6429   -1.5000    0.0000 C   0  0  0  0  0  0  0  0  0  0  0  0
   -2.1429   -0.0000    0.0000 C   0  0  0  0  0  0  0  0  0  0  0  0
    0.8571    0.0000    0.0000 C   0  0  0  0  0  0  0  0  0  0  0  0
    1.6071    1.2990    0.0000 O   0  0  0  0  0  0  0  0  0  0  0  0
    1.6071   -1.2990    0.0000 O   0  0  0  0  0  0  0  0  0  0  0  0
  1  2  1  0
  2  3  1  0
  2  4  1  0
  2  5  1  0
  5  6  2  0
  5  7  1  0
M  END
>  <rName>  (3194) 
Piv

>  <PQ_SYMBOL>  (3194) 
Piv

>  <FULL_NAME>  (3194) 
PIVALIC ACID

>  <IUPAC_CONDENSED>  (3194) 
Piv

>  <IUPAC>  (3194) 
2,2-dimethylpropanoic acid

>  <TYPE>  (3194) 
N-term cap

>  <CLASS>  (3194) 
n_cap

>  <ANALOG>  (3194) 
X

>  <MOL_WT>  (3194) 
102.13299999999998

>  <LOGP>  (3194) 
1.1171

>  <TPSA>  (3194) 
37.3

>  <POPULARITY>  (3194) 
24.2

>  <PROTECTED>  (3194) 
FALSE

>  <SMILES>  (3194) 
CC(C)(C)C(=O)O

>  <INCHIKEY>  (3194) 
IUGYQRQAERSCNH-UHFFFAOYSA-N

$$$$
PrSO2-D-Thr
     RDKit          2D

 14 13  0  0  0  0  0  0  0  0999 V2000
   -4.5827    0.8542    0.0000 C   0  0  0  0  0  0  0  0  0  0  0  0
   -3.1029    0.6087    0.0000 C   0  0  0  0  0  0  0  0  0  0  0  0
   -2.5756   -0.7955    0.0000 C   0  0  0  0  0  0  0  0  0  0  0  0
   -1.0958   -1.0410    0.0000 S   0  0  0  0  0  0  0  0  0  0  0  0
   -1.3413   -2.5208    0.0000 O   0  0  0  0  0  0  0  0  0  0  0  0
   -0.8504    0.4388    0.0000 O   0  0  0  0  0  0  0  0  0  0  0  0
    0.3840   -1.2864    0.0000 N   0  0  0  0  0  0  0  0  0  0  0  0
    1.3364   -0.1276    0.0000 C   0  0  0  0  0  0  0  0  0  0  0  0
    2.8162   -0.3731    0.0000 C   0  0  0  0  0  0  0  0  0  0  0  0
    3.3435   -1.7773    0.0000 O   0  0  0  0  0  0  0  0  0  0  0  0
    3.7687    0.7857    0.0000 C   0  0  0  0  0  0  0  0  0  0  0  0
    0.8091    1.2766    0.0000 C   0  0  0  0  0  0  0  0  0  0  0  0
   -0.6707    1.5221    0.0000 O   0  0  0  0  0  0  0  0  0  0  0  0
    1.7615    2.4354    0.0000 O   0  0  0  0  0  0  0  0  0  0  0  0
  1  2  1  0
  2  3  1  0
  3  4  1  0
  4  5  2  0
  4  6  2  0
  4  7  1  0
  8  7  1  1
  8  9  1  0
  9 10  1  0
  9 11  1  6
  8 12  1  0
 12 13  2  0
 12 14  1  0
M  END
>  <rName>  (3195) 
PrSO2-D-Thr

>  <PQ_SYMBOL>  (3195) 
PrSO2-D-Thr

>  <FULL_NAME>  (3195) 
N-(propylsulfonyl)-D-threonine

>  <IUPAC_CONDENSED>  (3195) 
PrSO2-D-Thr

>  <IUPAC>  (3195) 
(2R,3S)-3-hydroxy-2-propylsulfonylaminobutanoic acid

>  <TYPE>  (3195) 
N-term cap

>  <CLASS>  (3195) 
n_cap

>  <ANALOG>  (3195) 
X

>  <MOL_WT>  (3195) 
225.266

>  <LOGP>  (3195) 
-0.8501999999999996

>  <TPSA>  (3195) 
103.7

>  <POPULARITY>  (3195) 
1.6

>  <PROTECTED>  (3195) 
FALSE

>  <SMILES>  (3195) 
CCCS(=O)(=O)N[C@H]([C@@H](O)C)C(=O)O

>  <INCHIKEY>  (3195) 
ZTJRRQPXOMIKLP-NTSWFWBYSA-N

$$$$
Pra
     RDKit          2D

  8  7  0  0  0  0  0  0  0  0999 V2000
    0.0877   -1.7162    0.0000 N   0  0  0  0  0  0  0  0  0  0  0  0
   -0.2706   -0.2596    0.0000 C   0  0  0  0  0  0  0  0  0  0  0  0
    0.8117    0.7789    0.0000 C   0  0  0  0  0  0  0  0  0  0  0  0
    2.2523    0.3609    0.0000 C   0  0  0  0  0  0  0  0  0  0  0  0
    3.6929   -0.0571    0.0000 C   0  0  0  0  0  0  0  0  0  0  0  0
   -1.7112    0.1584    0.0000 C   0  0  0  0  0  0  0  0  0  0  0  0
   -2.0694    1.6149    0.0000 O   0  0  0  0  0  0  0  0  0  0  0  0
   -2.7934   -0.8802    0.0000 O   0  0  0  0  0  0  0  0  0  0  0  0
  2  1  1  6
  2  3  1  0
  3  4  1  0
  4  5  3  0
  2  6  1  0
  6  7  2  0
  6  8  1  0
M  END
>  <rName>  (3196) 
Pra

>  <PQ_SYMBOL>  (3196) 
Pra

>  <FULL_NAME>  (3196) 
propargylglycine

>  <IUPAC_CONDENSED>  (3196) 
Pra

>  <IUPAC>  (3196) 
(2S)-2-aminopent-4-ynoic acid

>  <TYPE>  (3196) 
Backbone

>  <CLASS>  (3196) 
alpha

>  <ANALOG>  (3196) 
Val

>  <MOL_WT>  (3196) 
113.11599999999997

>  <LOGP>  (3196) 
-0.5784000000000002

>  <TPSA>  (3196) 
63.32000000000001

>  <POPULARITY>  (3196) 
23.2

>  <PROTECTED>  (3196) 
TRUE

>  <SMILES>  (3196) 
N[C@@H](CC#C)C(=O)O

>  <INCHIKEY>  (3196) 
DGYHPLMPMRKMPD-BYPYZUCNSA-N

$$$$
Pra_Me
     RDKit          2D

  9  8  0  0  0  0  0  0  0  0999 V2000
    0.4111   -1.6826    0.0000 N   0  0  0  0  0  0  0  0  0  0  0  0
    0.8313   -0.2427    0.0000 C   0  0  0  0  0  0  0  0  0  0  0  0
   -0.2055    0.8413    0.0000 C   0  0  0  0  0  0  0  0  0  0  0  0
   -1.6627    0.4853    0.0000 C   0  0  0  0  0  0  0  0  0  0  0  0
   -3.1198    0.1293    0.0000 C   0  0  0  0  0  0  0  0  0  0  0  0
   -4.5770   -0.2267    0.0000 C   0  0  0  0  0  0  0  0  0  0  0  0
    2.2885    0.1133    0.0000 C   0  0  0  0  0  0  0  0  0  0  0  0
    2.7088    1.5533    0.0000 O   0  0  0  0  0  0  0  0  0  0  0  0
    3.3253   -0.9706    0.0000 O   0  0  0  0  0  0  0  0  0  0  0  0
  2  1  1  1
  2  3  1  0
  3  4  1  0
  4  5  3  0
  5  6  1  0
  2  7  1  0
  7  8  2  0
  7  9  1  0
M  END
>  <rName>  (3197) 
Pra_Me

>  <PQ_SYMBOL>  (3197) 
Pra_Me

>  <FULL_NAME>  (3197) 
(2S)-2-azanylhex-4-ynoic acid

>  <IUPAC_CONDENSED>  (3197) 
Pra(Me)

>  <IUPAC>  (3197) 
(2S)-2-aminohex-4-ynoic acid

>  <TYPE>  (3197) 
Backbone

>  <CLASS>  (3197) 
alpha

>  <ANALOG>  (3197) 
Leu

>  <MOL_WT>  (3197) 
127.14299999999997

>  <LOGP>  (3197) 
-0.18829999999999997

>  <TPSA>  (3197) 
63.32000000000001

>  <POPULARITY>  (3197) 
10.2

>  <PROTECTED>  (3197) 
TRUE

>  <SMILES>  (3197) 
N[C@@H](CC#CC)C(=O)O

>  <INCHIKEY>  (3197) 
VDWGCMRALYSYJV-YFKPBYRVSA-N

$$$$
Pra_tBu
     RDKit          2D

 12 11  0  0  0  0  0  0  0  0999 V2000
    1.6269   -1.6470    0.0000 N   0  0  0  0  0  0  0  0  0  0  0  0
    2.0912   -0.2206    0.0000 C   0  0  0  0  0  0  0  0  0  0  0  0
    1.0881    0.8946    0.0000 C   0  0  0  0  0  0  0  0  0  0  0  0
   -0.3793    0.5836    0.0000 C   0  0  0  0  0  0  0  0  0  0  0  0
   -1.8467    0.2725    0.0000 C   0  0  0  0  0  0  0  0  0  0  0  0
   -3.3140   -0.0386    0.0000 C   0  0  0  0  0  0  0  0  0  0  0  0
   -3.6251    1.4288    0.0000 C   0  0  0  0  0  0  0  0  0  0  0  0
   -3.0030   -1.5060    0.0000 C   0  0  0  0  0  0  0  0  0  0  0  0
   -4.7814   -0.3497    0.0000 C   0  0  0  0  0  0  0  0  0  0  0  0
    3.5586    0.0905    0.0000 C   0  0  0  0  0  0  0  0  0  0  0  0
    4.0229    1.5168    0.0000 O   0  0  0  0  0  0  0  0  0  0  0  0
    4.5617   -1.0248    0.0000 O   0  0  0  0  0  0  0  0  0  0  0  0
  2  1  1  1
  2  3  1  0
  3  4  1  0
  4  5  3  0
  5  6  1  0
  6  7  1  0
  6  8  1  0
  6  9  1  0
  2 10  1  0
 10 11  2  0
 10 12  1  0
M  END
>  <rName>  (3198) 
Pra_tBu

>  <PQ_SYMBOL>  (3198) 
Pra_tBu

>  <FULL_NAME>  (3198) 
(2S)-2-amino-6,6-dimethylhept-4-ynoic acid

>  <IUPAC_CONDENSED>  (3198) 
Pra(tBu)

>  <IUPAC>  (3198) 
(2S)-2-amino-6,6-dimethylhept-4-ynoic acid

>  <TYPE>  (3198) 
Backbone

>  <CLASS>  (3198) 
alpha

>  <ANALOG>  (3198) 
X

>  <MOL_WT>  (3198) 
169.224

>  <LOGP>  (3198) 
0.8378999999999999

>  <TPSA>  (3198) 
63.32000000000001

>  <POPULARITY>  (3198) 
2.7

>  <PROTECTED>  (3198) 
TRUE

>  <SMILES>  (3198) 
N[C@@H](CC#CC(C)(C)C)C(=O)O

>  <INCHIKEY>  (3198) 
OURDSQVJLLVWCA-ZETCQYMHSA-N

$$$$
Pro-Gly
     RDKit          2D

 12 12  0  0  0  0  0  0  0  0999 V2000
   -0.8910    0.0678    0.0000 N   0  0  0  0  0  0  0  0  0  0  0  0
    0.3322   -0.8004    0.0000 C   0  0  0  0  0  0  0  0  0  0  0  0
    0.1918   -2.2938    0.0000 O   0  0  0  0  0  0  0  0  0  0  0  0
    1.6957   -0.1752    0.0000 C   0  0  0  0  0  0  0  0  0  0  0  0
    3.0029   -0.9109    0.0000 C   0  0  0  0  0  0  0  0  0  0  0  0
    4.1065    0.1051    0.0000 C   0  0  0  0  0  0  0  0  0  0  0  0
    3.4813    1.4686    0.0000 C   0  0  0  0  0  0  0  0  0  0  0  0
    1.9913    1.2953    0.0000 N   0  0  0  0  0  0  0  0  0  0  0  0
   -2.2545   -0.5574    0.0000 C   0  0  0  0  0  0  0  0  0  0  0  0
   -3.4777    0.3109    0.0000 C   0  0  0  0  0  0  0  0  0  0  0  0
   -3.3374    1.8043    0.0000 O   0  0  0  0  0  0  0  0  0  0  0  0
   -4.8412   -0.3143    0.0000 O   0  0  0  0  0  0  0  0  0  0  0  0
  1  2  1  0
  2  3  2  0
  4  2  1  1
  4  5  1  0
  5  6  1  0
  6  7  1  0
  7  8  1  0
  1  9  1  0
  9 10  1  0
 10 11  2  0
 10 12  1  0
  8  4  1  0
M  END
>  <rName>  (3199) 
Pro-Gly

>  <PQ_SYMBOL>  (3199) 
Pro-Gly

>  <FULL_NAME>  (3199) 
(S)-prolylglycine

>  <IUPAC_CONDENSED>  (3199) 
Pro-Gly

>  <IUPAC>  (3199) 
2-((2S)-pyrrolidin-2-ylcarbonylamino)acetic acid

>  <TYPE>  (3199) 
Backbone

>  <CLASS>  (3199) 
alpha

>  <ANALOG>  (3199) 
Gly

>  <MOL_WT>  (3199) 
172.18400000000003

>  <LOGP>  (3199) 
-1.0607999999999995

>  <TPSA>  (3199) 
78.43

>  <POPULARITY>  (3199) 
17.3

>  <PROTECTED>  (3199) 
TRUE

>  <SMILES>  (3199) 
N(C(=O)[C@@H]1(CCCN1))CC(=O)O

>  <INCHIKEY>  (3199) 
RNKSNIBMTUYWSH-YFKPBYRVSA-N

$$$$
Pro-NH2
     RDKit          2D

  8  8  0  0  0  0  0  0  0  0999 V2000
   -0.8342   -1.2135    0.0000 N   0  0  0  0  0  0  0  0  0  0  0  0
    0.0475   -0.0000    0.0000 C   0  0  0  0  0  0  0  0  0  0  0  0
   -0.8342    1.2135    0.0000 C   0  0  0  0  0  0  0  0  0  0  0  0
   -2.2608    0.7500    0.0000 C   0  0  0  0  0  0  0  0  0  0  0  0
   -2.2608   -0.7500    0.0000 C   0  0  0  0  0  0  0  0  0  0  0  0
    1.5475    0.0000    0.0000 C   0  0  0  0  0  0  0  0  0  0  0  0
    2.2975   -1.2990    0.0000 N   0  0  0  0  0  0  0  0  0  0  0  0
    2.2975    1.2990    0.0000 O   0  0  0  0  0  0  0  0  0  0  0  0
  1  2  1  0
  2  3  1  0
  3  4  1  0
  4  5  1  0
  2  6  1  1
  6  7  1  0
  6  8  2  0
  5  1  1  0
M  END
>  <rName>  (3200) 
Pro-NH2

>  <PQ_SYMBOL>  (3200) 
Pro-NH2

>  <FULL_NAME>  (3200) 
L-PROLINAMIDE

>  <IUPAC_CONDENSED>  (3200) 
Pro-NH2

>  <IUPAC>  (3200) 
(2S)-pyrrolidine-2-carboxamide

>  <TYPE>  (3200) 
C-term cap

>  <CLASS>  (3200) 
c_cap

>  <ANALOG>  (3200) 
X

>  <MOL_WT>  (3200) 
114.14800000000001

>  <LOGP>  (3200) 
-0.7763000000000002

>  <TPSA>  (3200) 
55.12

>  <POPULARITY>  (3200) 
26.6

>  <PROTECTED>  (3200) 
FALSE

>  <SMILES>  (3200) 
N1[C@@H](CCC1)C(N)=O

>  <INCHIKEY>  (3200) 
VLJNHYLEOZPXFW-BYPYZUCNSA-N

$$$$
Pro-OBn
     RDKit          2D

 15 16  0  0  0  0  0  0  0  0999 V2000
   -4.2447   -0.6610    0.0000 N   0  0  0  0  0  0  0  0  0  0  0  0
   -2.8455   -0.1203    0.0000 C   0  0  0  0  0  0  0  0  0  0  0  0
   -2.9274    1.3775    0.0000 C   0  0  0  0  0  0  0  0  0  0  0  0
   -4.3772    1.7625    0.0000 C   0  0  0  0  0  0  0  0  0  0  0  0
   -5.1913    0.5026    0.0000 C   0  0  0  0  0  0  0  0  0  0  0  0
   -1.5857   -0.9344    0.0000 C   0  0  0  0  0  0  0  0  0  0  0  0
   -1.6608   -2.4325    0.0000 O   0  0  0  0  0  0  0  0  0  0  0  0
   -0.2507   -0.2504    0.0000 O   0  0  0  0  0  0  0  0  0  0  0  0
    1.0091   -1.0645    0.0000 C   0  0  0  0  0  0  0  0  0  0  0  0
    2.3441   -0.3806    0.0000 C   0  0  0  0  0  0  0  0  0  0  0  0
    3.6039   -1.1947    0.0000 C   0  0  0  0  0  0  0  0  0  0  0  0
    4.9389   -0.5107    0.0000 C   0  0  0  0  0  0  0  0  0  0  0  0
    5.0140    0.9874    0.0000 C   0  0  0  0  0  0  0  0  0  0  0  0
    3.7542    1.8015    0.0000 C   0  0  0  0  0  0  0  0  0  0  0  0
    2.4192    1.1176    0.0000 C   0  0  0  0  0  0  0  0  0  0  0  0
  1  2  1  0
  2  3  1  0
  3  4  1  0
  4  5  1  0
  2  6  1  1
  6  7  2  0
  6  8  1  0
  8  9  1  0
  9 10  1  0
 10 11  2  0
 11 12  1  0
 12 13  2  0
 13 14  1  0
 14 15  2  0
 15 10  1  0
  5  1  1  0
M  END
>  <rName>  (3201) 
Pro-OBn

>  <PQ_SYMBOL>  (3201) 
Pro-OBn

>  <FULL_NAME>  (3201) 
L-Proline benzyl ester

>  <IUPAC_CONDENSED>  (3201) 
Pro-OBn

>  <IUPAC>  (3201) 
benzyl (2S)-pyrrolidine-2-carboxylate

>  <TYPE>  (3201) 
C-term cap

>  <CLASS>  (3201) 
c_cap

>  <ANALOG>  (3201) 
X

>  <MOL_WT>  (3201) 
205.257

>  <LOGP>  (3201) 
1.4817999999999996

>  <TPSA>  (3201) 
38.33

>  <POPULARITY>  (3201) 
14.1

>  <PROTECTED>  (3201) 
TRUE

>  <SMILES>  (3201) 
N2[C@@H](CCC2)C(=O)OCc1ccccc1

>  <INCHIKEY>  (3201) 
VVCLBQFBKZQOAF-NSHDSACASA-N

$$$$
Pro-OMe
     RDKit          2D

  9  9  0  0  0  0  0  0  0  0999 V2000
   -1.0828   -1.2444    0.0000 N   0  0  0  0  0  0  0  0  0  0  0  0
   -0.3918    0.0869    0.0000 C   0  0  0  0  0  0  0  0  0  0  0  0
   -1.4444    1.1555    0.0000 C   0  0  0  0  0  0  0  0  0  0  0  0
   -2.7860    0.4846    0.0000 C   0  0  0  0  0  0  0  0  0  0  0  0
   -2.5625   -0.9986    0.0000 C   0  0  0  0  0  0  0  0  0  0  0  0
    1.0915    0.3104    0.0000 C   0  0  0  0  0  0  0  0  0  0  0  0
    1.6396    1.7067    0.0000 O   0  0  0  0  0  0  0  0  0  0  0  0
    2.0267   -0.8624    0.0000 O   0  0  0  0  0  0  0  0  0  0  0  0
    3.5099   -0.6389    0.0000 C   0  0  0  0  0  0  0  0  0  0  0  0
  1  2  1  0
  2  3  1  0
  3  4  1  0
  4  5  1  0
  2  6  1  1
  6  7  2  0
  6  8  1  0
  8  9  1  0
  5  1  1  0
M  END
>  <rName>  (3202) 
Pro-OMe

>  <PQ_SYMBOL>  (3202) 
Pro-OMe

>  <FULL_NAME>  (3202) 
L-Proline methyl ester

>  <IUPAC_CONDENSED>  (3202) 
Pro-OMe

>  <IUPAC>  (3202) 
methyl (2S)-pyrrolidine-2-carboxylate

>  <TYPE>  (3202) 
C-term cap

>  <CLASS>  (3202) 
c_cap

>  <ANALOG>  (3202) 
X

>  <MOL_WT>  (3202) 
129.159

>  <LOGP>  (3202) 
-0.08860000000000023

>  <TPSA>  (3202) 
38.33

>  <POPULARITY>  (3202) 
18.6

>  <PROTECTED>  (3202) 
TRUE

>  <SMILES>  (3202) 
N1[C@@H](CCC1)C(=O)OC

>  <INCHIKEY>  (3202) 
BLWYXBNNBYXPPL-YFKPBYRVSA-N

$$$$
Pro-al
     RDKit          2D

  7  7  0  0  0  0  0  0  0  0999 V2000
   -0.2456   -1.1191    0.0000 N   0  0  0  0  0  0  0  0  0  0  0  0
    0.3205    0.2700    0.0000 C   0  0  0  0  0  0  0  0  0  0  0  0
   -0.8257    1.2376    0.0000 C   0  0  0  0  0  0  0  0  0  0  0  0
   -2.1002    0.4466    0.0000 C   0  0  0  0  0  0  0  0  0  0  0  0
   -1.7417   -1.0099    0.0000 C   0  0  0  0  0  0  0  0  0  0  0  0
    1.7770    0.6285    0.0000 C   0  0  0  0  0  0  0  0  0  0  0  0
    2.8157   -0.4537    0.0000 O   0  0  0  0  0  0  0  0  0  0  0  0
  1  2  1  0
  2  3  1  0
  3  4  1  0
  4  5  1  0
  2  6  1  1
  6  7  2  0
  5  1  1  0
M  END
>  <rName>  (3203) 
Pro-al

>  <PQ_SYMBOL>  (3203) 
Pro-al

>  <FULL_NAME>  (3203) 
(2S)-pyrrolidine-2-carbaldehyde

>  <IUPAC_CONDENSED>  (3203) 
Pro-al

>  <IUPAC>  (3203) 
(2S)-pyrrolidine-2-carbaldehyde

>  <TYPE>  (3203) 
C-term cap

>  <CLASS>  (3203) 
c_cap

>  <ANALOG>  (3203) 
X

>  <MOL_WT>  (3203) 
99.133

>  <LOGP>  (3203) 
-0.0627000000000002

>  <TPSA>  (3203) 
29.1

>  <POPULARITY>  (3203) 
14.2

>  <PROTECTED>  (3203) 
FALSE

>  <SMILES>  (3203) 
N1[C@@H](CCC1)C=O

>  <INCHIKEY>  (3203) 
JIDDDPVQQUHACU-YFKPBYRVSA-N

$$$$
Pro-ol
     RDKit          2D

  7  7  0  0  0  0  0  0  0  0999 V2000
   -0.2456   -1.1191    0.0000 N   0  0  0  0  0  0  0  0  0  0  0  0
    0.3205    0.2700    0.0000 C   0  0  0  0  0  0  0  0  0  0  0  0
   -0.8257    1.2376    0.0000 C   0  0  0  0  0  0  0  0  0  0  0  0
   -2.1002    0.4466    0.0000 C   0  0  0  0  0  0  0  0  0  0  0  0
   -1.7417   -1.0099    0.0000 C   0  0  0  0  0  0  0  0  0  0  0  0
    1.7770    0.6285    0.0000 C   0  0  0  0  0  0  0  0  0  0  0  0
    2.8157   -0.4537    0.0000 O   0  0  0  0  0  0  0  0  0  0  0  0
  1  2  1  0
  2  3  1  0
  3  4  1  0
  4  5  1  0
  2  6  1  1
  6  7  1  0
  5  1  1  0
M  END
>  <rName>  (3204) 
Pro-ol

>  <PQ_SYMBOL>  (3204) 
Pro-ol

>  <FULL_NAME>  (3204) 
[(2S)-pyrrolidin-2-yl]methanol

>  <IUPAC_CONDENSED>  (3204) 
Pro-ol

>  <IUPAC>  (3204) 
1-((2S)-pyrrolidin-2-yl)methanol

>  <TYPE>  (3204) 
C-term cap

>  <CLASS>  (3204) 
c_cap

>  <ANALOG>  (3204) 
X

>  <MOL_WT>  (3204) 
101.149

>  <LOGP>  (3204) 
-0.26930000000000004

>  <TPSA>  (3204) 
32.26

>  <POPULARITY>  (3204) 
12.7

>  <PROTECTED>  (3204) 
FALSE

>  <SMILES>  (3204) 
N1[C@@H](CCC1)CO

>  <INCHIKEY>  (3204) 
HVVNJUAVDAZWCB-YFKPBYRVSA-N

$$$$
ProM-17
     RDKit          2D

 19 20  0  0  0  0  0  0  0  0999 V2000
   -3.2781   -1.4265    0.0000 N   0  0  0  0  0  0  0  0  0  0  0  0
   -2.1692   -0.4163    0.0000 C   0  0  0  0  0  0  0  0  0  0  0  0
   -0.7153   -0.7852    0.0000 C   0  0  0  0  0  0  0  0  0  0  0  0
   -0.4168   -2.2552    0.0000 O   0  0  0  0  0  0  0  0  0  0  0  0
    0.4797    0.1215    0.0000 N   0  0  0  0  0  0  0  0  0  0  0  0
    0.5158    1.6211    0.0000 C   0  0  0  0  0  0  0  0  0  0  0  0
   -0.6341    2.5843    0.0000 C   0  0  0  0  0  0  0  0  0  0  0  0
   -2.1041    2.2858    0.0000 C   0  0  0  0  0  0  0  0  0  0  0  0
   -2.7873    0.9504    0.0000 C   0  0  0  0  0  0  0  0  0  0  0  0
   -4.2781    0.7850    0.0000 C   0  0  0  0  0  0  0  0  0  0  0  0
   -4.5814   -0.6841    0.0000 C   0  0  0  0  0  0  0  0  0  0  0  0
    1.8825    2.2392    0.0000 C   0  0  0  0  0  0  0  0  0  0  0  0
    3.1012    1.3646    0.0000 C   0  0  0  0  0  0  0  0  0  0  0  0
    4.4679    1.9826    0.0000 C   0  0  0  0  0  0  0  0  0  0  0  0
    2.9531   -0.1281    0.0000 C   0  0  0  0  0  0  0  0  0  0  0  0
    1.8150   -0.5617    0.0000 C   0  0  0  0  0  0  0  0  0  0  0  0
    1.8911   -2.0598    0.0000 C   0  0  0  0  0  0  0  0  0  0  0  0
    0.6317   -2.8746    0.0000 O   0  0  0  0  0  0  0  0  0  0  0  0
    3.2265   -2.7429    0.0000 O   0  0  0  0  0  0  0  0  0  0  0  0
  2  1  1  1
  2  3  1  0
  3  4  2  0
  3  5  1  0
  5  6  1  0
  6  7  1  0
  7  8  2  0
  8  9  1  0
  9 10  1  6
 10 11  1  0
  6 12  1  1
 12 13  1  0
 13 14  1  0
 13 15  1  0
  5 16  1  0
 16 17  1  0
 17 18  2  0
 17 19  1  0
  9  2  1  0
 11  1  1  0
M  END
>  <rName>  (3205) 
ProM-17

>  <PQ_SYMBOL>  (3205) 
ProM-17

>  <FULL_NAME>  (3205) 
ProM-17

>  <IUPAC_CONDENSED>  (3205) 
ProM-17

>  <IUPAC>  (3205) 
2-((1S,4R,7R)-4-(2-methylpropyl)-2-oxo-3,10-diazabicyclo[5.3.0]dec-5-en-3-yl)acetic acid

>  <TYPE>  (3205) 
N-term cap

>  <CLASS>  (3205) 
n_cap

>  <ANALOG>  (3205) 
X

>  <MOL_WT>  (3205) 
266.3409999999999

>  <LOGP>  (3205) 
0.8621999999999992

>  <TPSA>  (3205) 
69.64

>  <POPULARITY>  (3205) 
0.3

>  <PROTECTED>  (3205) 
FALSE

>  <SMILES>  (3205) 
N2[C@@H]1C(=O)N([C@@H](C=C[C@H]1CC2)CC(C)C)CC(=O)O

>  <INCHIKEY>  (3205) 
NOUQCZCUPJZTJH-GVXVVHGQSA-N

$$$$
Pro_2E2Me4carboxy4oxobutenoyl
     RDKit          2D

 16 16  0  0  0  0  0  0  0  0999 V2000
    5.2785   -0.5765    0.0000 O   0  0  0  0  0  0  0  0  0  0  0  0
    4.0456    0.2779    0.0000 C   0  0  0  0  0  0  0  0  0  0  0  0
    4.1691    1.7728    0.0000 O   0  0  0  0  0  0  0  0  0  0  0  0
    2.6892   -0.3626    0.0000 C   0  0  0  0  0  0  0  0  0  0  0  0
    2.5658   -1.8576    0.0000 O   0  0  0  0  0  0  0  0  0  0  0  0
    1.4564    0.4917    0.0000 C   0  0  0  0  0  0  0  0  0  0  0  0
    0.1000   -0.1488    0.0000 C   0  0  0  0  0  0  0  0  0  0  0  0
   -0.0235   -1.6437    0.0000 C   0  0  0  0  0  0  0  0  0  0  0  0
   -1.1329    0.7056    0.0000 N   0  0  0  0  0  0  0  0  0  0  0  0
   -1.1664    2.2052    0.0000 C   0  0  0  0  0  0  0  0  0  0  0  0
   -2.6029    2.6368    0.0000 C   0  0  0  0  0  0  0  0  0  0  0  0
   -3.4573    1.4039    0.0000 C   0  0  0  0  0  0  0  0  0  0  0  0
   -2.5488    0.2104    0.0000 C   0  0  0  0  0  0  0  0  0  0  0  0
   -2.9804   -1.2262    0.0000 C   0  0  0  0  0  0  0  0  0  0  0  0
   -1.9521   -2.3183    0.0000 O   0  0  0  0  0  0  0  0  0  0  0  0
   -4.4403   -1.5707    0.0000 O   0  0  0  0  0  0  0  0  0  0  0  0
  1  2  1  0
  2  3  2  0
  2  4  1  0
  4  5  2  0
  4  6  1  0
  6  7  2  0
  7  8  1  0
  7  9  1  0
  9 10  1  0
 10 11  1  0
 11 12  1  0
 12 13  1  0
 13 14  1  6
 14 15  2  0
 14 16  1  0
 13  9  1  0
M  END
>  <rName>  (3206) 
Pro_2E2Me4carboxy4oxobutenoyl

>  <PQ_SYMBOL>  (3206) 
Pro_2E2Me4carboxy4oxobutenoyl

>  <FULL_NAME>  (3206) 
1-[(2E)-4-carboxy-4-oxobut-2-en-2-yl]-L-proline

>  <IUPAC_CONDENSED>  (3206) 
Pro(2E-2Me-4-carboxy-4-oxobutenoyl)

>  <IUPAC>  (3206) 
(3E)-4-((2S)-2-((hydroxy)carbonyl)pyrrolidin-1-yl)-2-oxopent-3-enoic acid

>  <TYPE>  (3206) 
N-term cap

>  <CLASS>  (3206) 
n_cap

>  <ANALOG>  (3206) 
X

>  <MOL_WT>  (3206) 
227.21599999999995

>  <LOGP>  (3206) 
0.09289999999999993

>  <TPSA>  (3206) 
94.91000000000001

>  <POPULARITY>  (3206) 
3.3

>  <PROTECTED>  (3206) 
FALSE

>  <SMILES>  (3206) 
OC(=O)C(=O)/C=C(\C)N1CCC[C@H]1C(=O)O

>  <INCHIKEY>  (3206) 
BJLIRDLXPUFPLT-XPPMVYLVSA-N

$$$$
Pro_34dehydro
     RDKit          2D

  8  8  0  0  0  0  0  0  0  0999 V2000
   -0.8342   -1.2135    0.0000 N   0  0  0  0  0  0  0  0  0  0  0  0
    0.0475   -0.0000    0.0000 C   0  0  0  0  0  0  0  0  0  0  0  0
   -0.8342    1.2135    0.0000 C   0  0  0  0  0  0  0  0  0  0  0  0
   -2.2608    0.7500    0.0000 C   0  0  0  0  0  0  0  0  0  0  0  0
   -2.2608   -0.7500    0.0000 C   0  0  0  0  0  0  0  0  0  0  0  0
    1.5475    0.0000    0.0000 C   0  0  0  0  0  0  0  0  0  0  0  0
    2.2975    1.2990    0.0000 O   0  0  0  0  0  0  0  0  0  0  0  0
    2.2975   -1.2990    0.0000 O   0  0  0  0  0  0  0  0  0  0  0  0
  1  2  1  0
  2  3  1  0
  3  4  2  0
  4  5  1  0
  2  6  1  1
  6  7  2  0
  6  8  1  0
  5  1  1  0
M  END
>  <rName>  (3207) 
Pro_34dehydro

>  <PQ_SYMBOL>  (3207) 
Pro_34dehydro

>  <FULL_NAME>  (3207) 
(3,4)-Dehydro-L-Proline

>  <IUPAC_CONDENSED>  (3207) 
Pro(3,4-dehydro)

>  <IUPAC>  (3207) 
(2S)-2,5-dihydro-1H-pyrrole-2-carboxylic acid

>  <TYPE>  (3207) 
Backbone

>  <CLASS>  (3207) 
alpha

>  <ANALOG>  (3207) 
Pro

>  <MOL_WT>  (3207) 
113.116

>  <LOGP>  (3207) 
-0.4010000000000001

>  <TPSA>  (3207) 
49.33

>  <POPULARITY>  (3207) 
15.9

>  <PROTECTED>  (3207) 
TRUE

>  <SMILES>  (3207) 
N1[C@@H](C=CC1)C(=O)O

>  <INCHIKEY>  (3207) 
OMGHIGVFLOPEHJ-BYPYZUCNSA-N

$$$$
Pro_3OH_4Me
     RDKit          2D

 10 10  0  0  0  0  0  0  0  0999 V2000
   -0.0611   -1.7001    0.0000 N   0  0  0  0  0  0  0  0  0  0  0  0
    0.5185   -0.3166    0.0000 C   0  0  0  0  0  0  0  0  0  0  0  0
   -0.6182    0.6621    0.0000 C   0  0  0  0  0  0  0  0  0  0  0  0
   -0.4944    2.1570    0.0000 O   0  0  0  0  0  0  0  0  0  0  0  0
   -1.9003   -0.1164    0.0000 C   0  0  0  0  0  0  0  0  0  0  0  0
   -3.2838    0.4632    0.0000 C   0  0  0  0  0  0  0  0  0  0  0  0
   -1.5560   -1.5764    0.0000 C   0  0  0  0  0  0  0  0  0  0  0  0
    1.9785    0.0276    0.0000 C   0  0  0  0  0  0  0  0  0  0  0  0
    2.4103    1.4641    0.0000 O   0  0  0  0  0  0  0  0  0  0  0  0
    3.0066   -1.0646    0.0000 O   0  0  0  0  0  0  0  0  0  0  0  0
  1  2  1  0
  2  3  1  0
  3  4  1  0
  3  5  1  0
  5  6  1  0
  5  7  1  0
  2  8  1  1
  8  9  2  0
  8 10  1  0
  7  1  1  0
M  END
>  <rName>  (3208) 
Pro_3OH_4Me

>  <PQ_SYMBOL>  (3208) 
Pro_3OH_4Me

>  <FULL_NAME>  (3208) 
(2S)-3-hydroxy-4-methylpyrrolidine-2-carboxylic acid

>  <IUPAC_CONDENSED>  (3208) 
Pro(3-OH,4-Me)

>  <IUPAC>  (3208) 
(2S)-3-hydroxy-4-methylpyrrolidine-2-carboxylic acid

>  <TYPE>  (3208) 
Backbone

>  <CLASS>  (3208) 
alpha

>  <ANALOG>  (3208) 
Pro

>  <MOL_WT>  (3208) 
145.15800000000002

>  <LOGP>  (3208) 
-0.9602000000000004

>  <TPSA>  (3208) 
69.56

>  <POPULARITY>  (3208) 
5.2

>  <PROTECTED>  (3208) 
FALSE

>  <SMILES>  (3208) 
N1[C@@H](C(O)C(C)C1)C(=O)O

>  <INCHIKEY>  (3208) 
COHFSKKGVFGDFH-QHWRUIEBSA-N

$$$$
Pro_3RMe
     RDKit          2D

  9  9  0  0  0  0  0  0  0  0999 V2000
   -0.6730   -1.5641    0.0000 N   0  0  0  0  0  0  0  0  0  0  0  0
    0.1113   -0.2855    0.0000 C   0  0  0  0  0  0  0  0  0  0  0  0
   -0.8624    0.8555    0.0000 C   0  0  0  0  0  0  0  0  0  0  0  0
   -0.5115    2.3139    0.0000 C   0  0  0  0  0  0  0  0  0  0  0  0
   -2.2485    0.2821    0.0000 C   0  0  0  0  0  0  0  0  0  0  0  0
   -2.1314   -1.2133    0.0000 C   0  0  0  0  0  0  0  0  0  0  0  0
    1.6067   -0.1685    0.0000 C   0  0  0  0  0  0  0  0  0  0  0  0
    2.2531    1.1851    0.0000 O   0  0  0  0  0  0  0  0  0  0  0  0
    2.4558   -1.4051    0.0000 O   0  0  0  0  0  0  0  0  0  0  0  0
  1  2  1  0
  2  3  1  0
  3  4  1  1
  3  5  1  0
  5  6  1  0
  2  7  1  1
  7  8  2  0
  7  9  1  0
  6  1  1  0
M  END
>  <rName>  (3209) 
Pro_3RMe

>  <PQ_SYMBOL>  (3209) 
Pro_3RMe

>  <FULL_NAME>  (3209) 
cis-3-Methyl-L-Proline

>  <IUPAC_CONDENSED>  (3209) 
Pro(3R-Me)

>  <IUPAC>  (3209) 
(2S,3R)-3-methylpyrrolidine-2-carboxylic acid

>  <TYPE>  (3209) 
Backbone

>  <CLASS>  (3209) 
alpha

>  <ANALOG>  (3209) 
Pro

>  <MOL_WT>  (3209) 
129.15900000000002

>  <LOGP>  (3209) 
0.06899999999999967

>  <TPSA>  (3209) 
49.33

>  <POPULARITY>  (3209) 
12.1

>  <PROTECTED>  (3209) 
TRUE

>  <SMILES>  (3209) 
N1[C@@H]([C@H](C)CC1)C(=O)O

>  <INCHIKEY>  (3209) 
CNPSFBUUYIVHAP-UHNVWZDZSA-N

$$$$
Pro_3ROH
     RDKit          2D

  9  9  0  0  0  0  0  0  0  0999 V2000
   -0.6730   -1.5641    0.0000 N   0  0  0  0  0  0  0  0  0  0  0  0
    0.1113   -0.2855    0.0000 C   0  0  0  0  0  0  0  0  0  0  0  0
   -0.8624    0.8555    0.0000 C   0  0  0  0  0  0  0  0  0  0  0  0
   -0.5115    2.3139    0.0000 O   0  0  0  0  0  0  0  0  0  0  0  0
   -2.2485    0.2821    0.0000 C   0  0  0  0  0  0  0  0  0  0  0  0
   -2.1314   -1.2133    0.0000 C   0  0  0  0  0  0  0  0  0  0  0  0
    1.6067   -0.1685    0.0000 C   0  0  0  0  0  0  0  0  0  0  0  0
    2.2531    1.1851    0.0000 O   0  0  0  0  0  0  0  0  0  0  0  0
    2.4558   -1.4051    0.0000 O   0  0  0  0  0  0  0  0  0  0  0  0
  1  2  1  0
  2  3  1  0
  3  4  1  1
  3  5  1  0
  5  6  1  0
  2  7  1  1
  7  8  2  0
  7  9  1  0
  6  1  1  0
M  END
>  <rName>  (3210) 
Pro_3ROH

>  <PQ_SYMBOL>  (3210) 
Pro_3ROH

>  <FULL_NAME>  (3210) 
(2S,3R)-3-hydroxypyrrolidine-2-carboxylic acid

>  <IUPAC_CONDENSED>  (3210) 
Pro(3R-OH)

>  <IUPAC>  (3210) 
(2S,3R)-3-hydroxypyrrolidine-2-carboxylic acid

>  <TYPE>  (3210) 
Backbone

>  <CLASS>  (3210) 
alpha

>  <ANALOG>  (3210) 
Pro

>  <MOL_WT>  (3210) 
131.13100000000003

>  <LOGP>  (3210) 
-1.2062000000000004

>  <TPSA>  (3210) 
69.56

>  <POPULARITY>  (3210) 
10.2

>  <PROTECTED>  (3210) 
TRUE

>  <SMILES>  (3210) 
N1[C@@H]([C@H](O)CC1)C(=O)O

>  <INCHIKEY>  (3210) 
BJBUEDPLEOHJGE-DMTCNVIQSA-N

$$$$
Pro_3RPh
     RDKit          2D

 14 15  0  0  0  0  0  0  0  0999 V2000
   -2.9834    0.7769    0.0000 N   0  0  0  0  0  0  0  0  0  0  0  0
   -1.7417   -0.0646    0.0000 C   0  0  0  0  0  0  0  0  0  0  0  0
   -0.5576    0.8562    0.0000 C   0  0  0  0  0  0  0  0  0  0  0  0
   -1.0675    2.2669    0.0000 C   0  0  0  0  0  0  0  0  0  0  0  0
   -2.5667    2.2179    0.0000 C   0  0  0  0  0  0  0  0  0  0  0  0
    0.8833    0.4396    0.0000 C   0  0  0  0  0  0  0  0  0  0  0  0
    1.2430   -1.0167    0.0000 C   0  0  0  0  0  0  0  0  0  0  0  0
    2.6840   -1.4333    0.0000 C   0  0  0  0  0  0  0  0  0  0  0  0
    3.7653   -0.3937    0.0000 C   0  0  0  0  0  0  0  0  0  0  0  0
    3.4056    1.0625    0.0000 C   0  0  0  0  0  0  0  0  0  0  0  0
    1.9647    1.4792    0.0000 C   0  0  0  0  0  0  0  0  0  0  0  0
   -1.6927   -1.5638    0.0000 C   0  0  0  0  0  0  0  0  0  0  0  0
   -0.3698   -2.2710    0.0000 O   0  0  0  0  0  0  0  0  0  0  0  0
   -2.9665   -2.3559    0.0000 O   0  0  0  0  0  0  0  0  0  0  0  0
  1  2  1  0
  2  3  1  0
  3  4  1  0
  4  5  1  0
  3  6  1  6
  6  7  2  0
  7  8  1  0
  8  9  2  0
  9 10  1  0
 10 11  2  0
  2 12  1  1
 12 13  2  0
 12 14  1  0
  5  1  1  0
 11  6  1  0
M  END
>  <rName>  (3211) 
Pro_3RPh

>  <PQ_SYMBOL>  (3211) 
Pro_3RPh

>  <FULL_NAME>  (3211) 
(2S,3R)-3-phenylpyrrolidine-2-carboxylic acid

>  <IUPAC_CONDENSED>  (3211) 
Pro(3R-Ph)

>  <IUPAC>  (3211) 
(2S,3R)-3-phenylpyrrolidine-2-carboxylic acid

>  <TYPE>  (3211) 
Backbone

>  <CLASS>  (3211) 
alpha

>  <ANALOG>  (3211) 
Pro

>  <MOL_WT>  (3211) 
191.23

>  <LOGP>  (3211) 
1.2167

>  <TPSA>  (3211) 
49.33

>  <POPULARITY>  (3211) 
8.8

>  <PROTECTED>  (3211) 
TRUE

>  <SMILES>  (3211) 
N1[C@@H]([C@H](CC1)c2(ccccc2))C(=O)O

>  <INCHIKEY>  (3211) 
VDEMEKSASUGYHM-ZJUUUORDSA-N

$$$$
Pro_3RPh_4Br
     RDKit          2D

 15 16  0  0  0  0  0  0  0  0999 V2000
   -3.3749    0.6266    0.0000 N   0  0  0  0  0  0  0  0  0  0  0  0
   -2.0842   -0.1378    0.0000 C   0  0  0  0  0  0  0  0  0  0  0  0
   -0.9584    0.8535    0.0000 C   0  0  0  0  0  0  0  0  0  0  0  0
   -1.5533    2.2305    0.0000 C   0  0  0  0  0  0  0  0  0  0  0  0
   -3.0467    2.0903    0.0000 C   0  0  0  0  0  0  0  0  0  0  0  0
    0.5052    0.5253    0.0000 C   0  0  0  0  0  0  0  0  0  0  0  0
    0.9529   -0.9063    0.0000 C   0  0  0  0  0  0  0  0  0  0  0  0
    2.4165   -1.2345    0.0000 C   0  0  0  0  0  0  0  0  0  0  0  0
    3.4325   -0.1310    0.0000 C   0  0  0  0  0  0  0  0  0  0  0  0
    4.8962   -0.4591    0.0000 Br  0  0  0  0  0  0  0  0  0  0  0  0
    2.9849    1.3007    0.0000 C   0  0  0  0  0  0  0  0  0  0  0  0
    1.5212    1.6288    0.0000 C   0  0  0  0  0  0  0  0  0  0  0  0
   -1.9440   -1.6312    0.0000 C   0  0  0  0  0  0  0  0  0  0  0  0
   -0.5806   -2.2565    0.0000 O   0  0  0  0  0  0  0  0  0  0  0  0
   -3.1673   -2.4993    0.0000 O   0  0  0  0  0  0  0  0  0  0  0  0
  1  2  1  0
  2  3  1  0
  3  4  1  0
  4  5  1  0
  3  6  1  6
  6  7  1  0
  7  8  2  0
  8  9  1  0
  9 10  1  0
  9 11  2  0
 11 12  1  0
  2 13  1  1
 13 14  2  0
 13 15  1  0
  5  1  1  0
 12  6  2  0
M  END
>  <rName>  (3212) 
Pro_3RPh_4Br

>  <PQ_SYMBOL>  (3212) 
Pro_3RPh_4Br

>  <FULL_NAME>  (3212) 
(2S,3R)-3-(4-Bromophenyl)pyrrolidine-2-carboxylic acid

>  <IUPAC_CONDENSED>  (3212) 
Pro(3R-Ph(4-Br))

>  <IUPAC>  (3212) 
(2S,3R)-3-(4-bromophenyl)pyrrolidine-2-carboxylic acid

>  <TYPE>  (3212) 
Backbone

>  <CLASS>  (3212) 
alpha

>  <ANALOG>  (3212) 
Pro

>  <MOL_WT>  (3212) 
270.126

>  <LOGP>  (3212) 
1.9792

>  <TPSA>  (3212) 
49.33

>  <POPULARITY>  (3212) 
4.3

>  <PROTECTED>  (3212) 
TRUE

>  <SMILES>  (3212) 
N1[C@@H]([C@H](CC1)c2(ccc(Br)cc2))C(=O)O

>  <INCHIKEY>  (3212) 
HKTPZQQFRAKQTF-ZJUUUORDSA-N

$$$$
Pro_3SMe
     RDKit          2D

  9  9  0  0  0  0  0  0  0  0999 V2000
   -0.6730   -1.5641    0.0000 N   0  0  0  0  0  0  0  0  0  0  0  0
    0.1113   -0.2855    0.0000 C   0  0  0  0  0  0  0  0  0  0  0  0
   -0.8624    0.8555    0.0000 C   0  0  0  0  0  0  0  0  0  0  0  0
   -0.5115    2.3139    0.0000 C   0  0  0  0  0  0  0  0  0  0  0  0
   -2.2485    0.2821    0.0000 C   0  0  0  0  0  0  0  0  0  0  0  0
   -2.1314   -1.2133    0.0000 C   0  0  0  0  0  0  0  0  0  0  0  0
    1.6067   -0.1685    0.0000 C   0  0  0  0  0  0  0  0  0  0  0  0
    2.2531    1.1851    0.0000 O   0  0  0  0  0  0  0  0  0  0  0  0
    2.4558   -1.4051    0.0000 O   0  0  0  0  0  0  0  0  0  0  0  0
  1  2  1  0
  2  3  1  0
  3  4  1  6
  3  5  1  0
  5  6  1  0
  2  7  1  1
  7  8  2  0
  7  9  1  0
  6  1  1  0
M  END
>  <rName>  (3213) 
Pro_3SMe

>  <PQ_SYMBOL>  (3213) 
Pro_3SMe

>  <FULL_NAME>  (3213) 
Trans-3-Methyl-L-proline, 3beta-methyl-L-proline

>  <IUPAC_CONDENSED>  (3213) 
Pro(3S-Me)

>  <IUPAC>  (3213) 
(2S,3S)-3-methylpyrrolidine-2-carboxylic acid

>  <TYPE>  (3213) 
Backbone

>  <CLASS>  (3213) 
alpha

>  <ANALOG>  (3213) 
Pro

>  <MOL_WT>  (3213) 
129.15900000000002

>  <LOGP>  (3213) 
0.06899999999999967

>  <TPSA>  (3213) 
49.33

>  <POPULARITY>  (3213) 
13.9

>  <PROTECTED>  (3213) 
TRUE

>  <SMILES>  (3213) 
N1[C@@H]([C@@H](C)CC1)C(=O)O

>  <INCHIKEY>  (3213) 
CNPSFBUUYIVHAP-WHFBIAKZSA-N

$$$$
Pro_3SOH
     RDKit          2D

  9  9  0  0  0  0  0  0  0  0999 V2000
   -0.6730   -1.5641    0.0000 N   0  0  0  0  0  0  0  0  0  0  0  0
    0.1113   -0.2855    0.0000 C   0  0  0  0  0  0  0  0  0  0  0  0
   -0.8624    0.8555    0.0000 C   0  0  0  0  0  0  0  0  0  0  0  0
   -0.5115    2.3139    0.0000 O   0  0  0  0  0  0  0  0  0  0  0  0
   -2.2485    0.2821    0.0000 C   0  0  0  0  0  0  0  0  0  0  0  0
   -2.1314   -1.2133    0.0000 C   0  0  0  0  0  0  0  0  0  0  0  0
    1.6067   -0.1685    0.0000 C   0  0  0  0  0  0  0  0  0  0  0  0
    2.2531    1.1851    0.0000 O   0  0  0  0  0  0  0  0  0  0  0  0
    2.4558   -1.4051    0.0000 O   0  0  0  0  0  0  0  0  0  0  0  0
  1  2  1  0
  2  3  1  0
  3  4  1  6
  3  5  1  0
  5  6  1  0
  2  7  1  1
  7  8  2  0
  7  9  1  0
  6  1  1  0
M  END
>  <rName>  (3214) 
Pro_3SOH

>  <PQ_SYMBOL>  (3214) 
Pro_3SOH

>  <FULL_NAME>  (3214) 
(2S,3S)-3-hydroxypyrrolidine-2-carboxylic acid

>  <IUPAC_CONDENSED>  (3214) 
Pro(3S-OH)

>  <IUPAC>  (3214) 
(2S,3S)-3-hydroxypyrrolidine-2-carboxylic acid

>  <TYPE>  (3214) 
Backbone

>  <CLASS>  (3214) 
alpha

>  <ANALOG>  (3214) 
Pro

>  <MOL_WT>  (3214) 
131.13100000000003

>  <LOGP>  (3214) 
-1.2062000000000004

>  <TPSA>  (3214) 
69.56

>  <POPULARITY>  (3214) 
36.4

>  <PROTECTED>  (3214) 
TRUE

>  <SMILES>  (3214) 
N1[C@@H]([C@@H](O)CC1)C(=O)O

>  <INCHIKEY>  (3214) 
BJBUEDPLEOHJGE-IMJSIDKUSA-N

$$$$
Pro_3SOMe
     RDKit          2D

 10 10  0  0  0  0  0  0  0  0999 V2000
    0.6774   -1.8466    0.0000 N   0  0  0  0  0  0  0  0  0  0  0  0
    0.5795   -0.3498    0.0000 C   0  0  0  0  0  0  0  0  0  0  0  0
   -0.8743    0.0196    0.0000 C   0  0  0  0  0  0  0  0  0  0  0  0
   -1.4299    1.4129    0.0000 O   0  0  0  0  0  0  0  0  0  0  0  0
   -2.9143    1.6284    0.0000 C   0  0  0  0  0  0  0  0  0  0  0  0
   -1.6749   -1.2488    0.0000 C   0  0  0  0  0  0  0  0  0  0  0  0
   -0.7159   -2.4022    0.0000 C   0  0  0  0  0  0  0  0  0  0  0  0
    1.7329    0.6092    0.0000 C   0  0  0  0  0  0  0  0  0  0  0  0
    1.4791    2.0876    0.0000 O   0  0  0  0  0  0  0  0  0  0  0  0
    3.1402    0.0898    0.0000 O   0  0  0  0  0  0  0  0  0  0  0  0
  1  2  1  0
  2  3  1  0
  3  4  1  6
  4  5  1  0
  3  6  1  0
  6  7  1  0
  2  8  1  1
  8  9  2  0
  8 10  1  0
  7  1  1  0
M  END
>  <rName>  (3215) 
Pro_3SOMe

>  <PQ_SYMBOL>  (3215) 
Pro_3SOMe

>  <FULL_NAME>  (3215) 
(2S,3S)-3-Methoxypyrrolidine-2-carboxylic acid

>  <IUPAC_CONDENSED>  (3215) 
Pro(3S-OMe)

>  <IUPAC>  (3215) 
(2S,3S)-3-methoxypyrrolidine-2-carboxylic acid

>  <TYPE>  (3215) 
Backbone

>  <CLASS>  (3215) 
alpha

>  <ANALOG>  (3215) 
Pro

>  <MOL_WT>  (3215) 
145.15800000000002

>  <LOGP>  (3215) 
-0.5521000000000005

>  <TPSA>  (3215) 
58.56

>  <POPULARITY>  (3215) 
2.2

>  <PROTECTED>  (3215) 
TRUE

>  <SMILES>  (3215) 
N1[C@@H]([C@@H](OC)CC1)C(=O)O

>  <INCHIKEY>  (3215) 
NIKRPQUOBKTPNA-WHFBIAKZSA-N

$$$$
Pro_3SPh
     RDKit          2D

 14 15  0  0  0  0  0  0  0  0999 V2000
   -2.9834    0.7769    0.0000 N   0  0  0  0  0  0  0  0  0  0  0  0
   -1.7417   -0.0646    0.0000 C   0  0  0  0  0  0  0  0  0  0  0  0
   -0.5576    0.8562    0.0000 C   0  0  0  0  0  0  0  0  0  0  0  0
   -1.0675    2.2669    0.0000 C   0  0  0  0  0  0  0  0  0  0  0  0
   -2.5667    2.2179    0.0000 C   0  0  0  0  0  0  0  0  0  0  0  0
    0.8833    0.4396    0.0000 C   0  0  0  0  0  0  0  0  0  0  0  0
    1.2430   -1.0167    0.0000 C   0  0  0  0  0  0  0  0  0  0  0  0
    2.6840   -1.4333    0.0000 C   0  0  0  0  0  0  0  0  0  0  0  0
    3.7653   -0.3937    0.0000 C   0  0  0  0  0  0  0  0  0  0  0  0
    3.4056    1.0625    0.0000 C   0  0  0  0  0  0  0  0  0  0  0  0
    1.9647    1.4792    0.0000 C   0  0  0  0  0  0  0  0  0  0  0  0
   -1.6927   -1.5638    0.0000 C   0  0  0  0  0  0  0  0  0  0  0  0
   -0.3698   -2.2710    0.0000 O   0  0  0  0  0  0  0  0  0  0  0  0
   -2.9665   -2.3559    0.0000 O   0  0  0  0  0  0  0  0  0  0  0  0
  1  2  1  0
  2  3  1  0
  3  4  1  0
  4  5  1  0
  3  6  1  1
  6  7  2  0
  7  8  1  0
  8  9  2  0
  9 10  1  0
 10 11  2  0
  2 12  1  1
 12 13  2  0
 12 14  1  0
  5  1  1  0
 11  6  1  0
M  END
>  <rName>  (3216) 
Pro_3SPh

>  <PQ_SYMBOL>  (3216) 
Pro_3SPh

>  <FULL_NAME>  (3216) 
(2S,3S)-3-phenylpyrrolidine-2-carboxylic acid

>  <IUPAC_CONDENSED>  (3216) 
Pro(3S-Ph)

>  <IUPAC>  (3216) 
(2S,3S)-3-phenylpyrrolidine-2-carboxylic acid

>  <TYPE>  (3216) 
Backbone

>  <CLASS>  (3216) 
alpha

>  <ANALOG>  (3216) 
Pro

>  <MOL_WT>  (3216) 
191.23

>  <LOGP>  (3216) 
1.2167

>  <TPSA>  (3216) 
49.33

>  <POPULARITY>  (3216) 
8.9

>  <PROTECTED>  (3216) 
TRUE

>  <SMILES>  (3216) 
N1[C@@H]([C@@H](CC1)c2(ccccc2))C(=O)O

>  <INCHIKEY>  (3216) 
VDEMEKSASUGYHM-UWVGGRQHSA-N

$$$$
Pro_3StBu
     RDKit          2D

 13 13  0  0  0  0  0  0  0  0999 V2000
   -2.6344   -0.3936    0.0000 N   0  0  0  0  0  0  0  0  0  0  0  0
   -1.1344   -0.3771    0.0000 C   0  0  0  0  0  0  0  0  0  0  0  0
   -0.6867    1.0545    0.0000 C   0  0  0  0  0  0  0  0  0  0  0  0
   -1.9098    1.9228    0.0000 C   0  0  0  0  0  0  0  0  0  0  0  0
   -3.1136    1.0278    0.0000 C   0  0  0  0  0  0  0  0  0  0  0  0
    0.7347    1.5337    0.0000 C   0  0  0  0  0  0  0  0  0  0  0  0
    1.8604    0.5424    0.0000 C   0  0  0  0  0  0  0  0  0  0  0  0
    2.8518    1.6681    0.0000 C   0  0  0  0  0  0  0  0  0  0  0  0
    0.8691   -0.5833    0.0000 C   0  0  0  0  0  0  0  0  0  0  0  0
    2.9861   -0.4490    0.0000 C   0  0  0  0  0  0  0  0  0  0  0  0
   -0.2394   -1.5808    0.0000 C   0  0  0  0  0  0  0  0  0  0  0  0
    1.2505   -1.4076    0.0000 O   0  0  0  0  0  0  0  0  0  0  0  0
   -0.8344   -2.9578    0.0000 O   0  0  0  0  0  0  0  0  0  0  0  0
  1  2  1  0
  2  3  1  0
  3  4  1  0
  4  5  1  0
  3  6  1  6
  6  7  1  0
  7  8  1  0
  7  9  1  0
  7 10  1  0
  2 11  1  1
 11 12  2  0
 11 13  1  0
  5  1  1  0
M  END
>  <rName>  (3217) 
Pro_3StBu

>  <PQ_SYMBOL>  (3217) 
Pro_3StBu

>  <FULL_NAME>  (3217) 
(2S,3S)-3-(2,2-Dimethylpropyl)pyrrolidine-2-carboxylic acid

>  <IUPAC_CONDENSED>  (3217) 
Pro(3S-tBu)

>  <IUPAC>  (3217) 
(2S,3S)-3-(2,2-dimethylpropyl)pyrrolidine-2-carboxylic acid

>  <TYPE>  (3217) 
Backbone

>  <CLASS>  (3217) 
alpha

>  <ANALOG>  (3217) 
Pro

>  <MOL_WT>  (3217) 
185.267

>  <LOGP>  (3217) 
1.4852999999999998

>  <TPSA>  (3217) 
49.33

>  <POPULARITY>  (3217) 
3.8

>  <PROTECTED>  (3217) 
TRUE

>  <SMILES>  (3217) 
N1[C@@H]([C@H](CC1)CC(C)(C)C)C(=O)O

>  <INCHIKEY>  (3217) 
VAFYEERAXDEFTA-SFYZADRCSA-N

$$$$
Pro_44diF
     RDKit          2D

 10 10  0  0  0  0  0  0  0  0999 V2000
    0.0971   -1.5050    0.0000 N   0  0  0  0  0  0  0  0  0  0  0  0
    0.7221   -0.1414    0.0000 C   0  0  0  0  0  0  0  0  0  0  0  0
   -0.3816    0.8744    0.0000 C   0  0  0  0  0  0  0  0  0  0  0  0
   -1.6888    0.1386    0.0000 C   0  0  0  0  0  0  0  0  0  0  0  0
   -3.1203   -0.3093    0.0000 F   0  0  0  0  0  0  0  0  0  0  0  0
   -2.2839    1.5155    0.0000 F   0  0  0  0  0  0  0  0  0  0  0  0
   -1.3929   -1.3319    0.0000 C   0  0  0  0  0  0  0  0  0  0  0  0
    2.1926    0.1544    0.0000 C   0  0  0  0  0  0  0  0  0  0  0  0
    2.6717    1.5759    0.0000 O   0  0  0  0  0  0  0  0  0  0  0  0
    3.1841   -0.9712    0.0000 O   0  0  0  0  0  0  0  0  0  0  0  0
  1  2  1  0
  2  3  1  0
  3  4  1  0
  4  5  1  0
  4  6  1  0
  4  7  1  0
  2  8  1  1
  8  9  2  0
  8 10  1  0
  7  1  1  0
M  END
>  <rName>  (3218) 
Pro_44diF

>  <PQ_SYMBOL>  (3218) 
Pro_44diF

>  <FULL_NAME>  (3218) 
4,4-difluoro-L-Proline

>  <IUPAC_CONDENSED>  (3218) 
Pro(4,4-diF)

>  <IUPAC>  (3218) 
(2S)-4,4-difluoropyrrolidine-2-carboxylic acid

>  <TYPE>  (3218) 
Backbone

>  <CLASS>  (3218) 
alpha

>  <ANALOG>  (3218) 
Pro

>  <MOL_WT>  (3218) 
151.11200000000002

>  <LOGP>  (3218) 
0.06819999999999976

>  <TPSA>  (3218) 
49.33

>  <POPULARITY>  (3218) 
8.7

>  <PROTECTED>  (3218) 
TRUE

>  <SMILES>  (3218) 
N1[C@@H](CC(F)(F)C1)C(=O)O

>  <INCHIKEY>  (3218) 
ZPBIYZHGBPBZCK-VKHMYHEASA-N

$$$$
Pro_44diMe
     RDKit          2D

 10 10  0  0  0  0  0  0  0  0999 V2000
    0.0971   -1.5050    0.0000 N   0  0  0  0  0  0  0  0  0  0  0  0
    0.7221   -0.1414    0.0000 C   0  0  0  0  0  0  0  0  0  0  0  0
   -0.3816    0.8744    0.0000 C   0  0  0  0  0  0  0  0  0  0  0  0
   -1.6888    0.1386    0.0000 C   0  0  0  0  0  0  0  0  0  0  0  0
   -3.1203   -0.3093    0.0000 C   0  0  0  0  0  0  0  0  0  0  0  0
   -2.2839    1.5155    0.0000 C   0  0  0  0  0  0  0  0  0  0  0  0
   -1.3929   -1.3319    0.0000 C   0  0  0  0  0  0  0  0  0  0  0  0
    2.1926    0.1544    0.0000 C   0  0  0  0  0  0  0  0  0  0  0  0
    2.6717    1.5759    0.0000 O   0  0  0  0  0  0  0  0  0  0  0  0
    3.1841   -0.9712    0.0000 O   0  0  0  0  0  0  0  0  0  0  0  0
  1  2  1  0
  2  3  1  0
  3  4  1  0
  4  5  1  0
  4  6  1  0
  4  7  1  0
  2  8  1  1
  8  9  2  0
  8 10  1  0
  7  1  1  0
M  END
>  <rName>  (3219) 
Pro_44diMe

>  <PQ_SYMBOL>  (3219) 
Pro_44diMe

>  <FULL_NAME>  (3219) 
(2S)-4,4-dimethylpyrrolidine-2-carboxylic acid

>  <IUPAC_CONDENSED>  (3219) 
Pro(4,4-diMe)

>  <IUPAC>  (3219) 
(2S)-4,4-dimethylpyrrolidine-2-carboxylic acid

>  <TYPE>  (3219) 
Backbone

>  <CLASS>  (3219) 
alpha

>  <ANALOG>  (3219) 
Pro

>  <MOL_WT>  (3219) 
143.186

>  <LOGP>  (3219) 
0.4591

>  <TPSA>  (3219) 
49.33

>  <POPULARITY>  (3219) 
14.3

>  <PROTECTED>  (3219) 
TRUE

>  <SMILES>  (3219) 
N1[C@@H](CC(C)(C)C1)C(=O)O

>  <INCHIKEY>  (3219) 
BDNWSJQJILLEBS-YFKPBYRVSA-N

$$$$
Pro_4RCO2H
     RDKit          2D

 11 11  0  0  0  0  0  0  0  0999 V2000
    0.7500   -1.5845    0.0000 N   0  0  0  0  0  0  0  0  0  0  0  0
    1.2135   -0.1579    0.0000 C   0  0  0  0  0  0  0  0  0  0  0  0
    0.0000    0.7238    0.0000 C   0  0  0  0  0  0  0  0  0  0  0  0
   -1.2135   -0.1579    0.0000 C   0  0  0  0  0  0  0  0  0  0  0  0
   -0.7500   -1.5845    0.0000 C   0  0  0  0  0  0  0  0  0  0  0  0
   -2.6401    0.3056    0.0000 C   0  0  0  0  0  0  0  0  0  0  0  0
   -3.7548   -0.6981    0.0000 O   0  0  0  0  0  0  0  0  0  0  0  0
   -2.9520    1.7729    0.0000 O   0  0  0  0  0  0  0  0  0  0  0  0
    2.6401    0.3056    0.0000 C   0  0  0  0  0  0  0  0  0  0  0  0
    2.9520    1.7729    0.0000 O   0  0  0  0  0  0  0  0  0  0  0  0
    3.7548   -0.6981    0.0000 O   0  0  0  0  0  0  0  0  0  0  0  0
  1  2  1  0
  2  3  1  0
  3  4  1  0
  4  5  1  0
  4  6  1  6
  6  7  2  0
  6  8  1  0
  2  9  1  1
  9 10  2  0
  9 11  1  0
  5  1  1  0
M  END
>  <rName>  (3220) 
Pro_4RCO2H

>  <PQ_SYMBOL>  (3220) 
Pro_4RCO2H

>  <FULL_NAME>  (3220) 
L-trans-Pyrrolidine-2,4-dicarboxylic acid

>  <IUPAC_CONDENSED>  (3220) 
Pro(4R-CO2H)

>  <IUPAC>  (3220) 
(2S,4R)-pyrrolidine-2,4-dicarboxylic acid

>  <TYPE>  (3220) 
Backbone

>  <CLASS>  (3220) 
alpha

>  <ANALOG>  (3220) 
Pro

>  <MOL_WT>  (3220) 
159.141

>  <LOGP>  (3220) 
-0.8663000000000001

>  <TPSA>  (3220) 
86.63000000000001

>  <POPULARITY>  (3220) 
2.2

>  <PROTECTED>  (3220) 
TRUE

>  <SMILES>  (3220) 
N1[C@@H](C[C@H](C1)C(=O)O)C(=O)O

>  <INCHIKEY>  (3220) 
NRSBQSJHFYZIPH-DMTCNVIQSA-N

$$$$
Pro_4RF
     RDKit          2D

  9  9  0  0  0  0  0  0  0  0999 V2000
   -0.1792   -1.4541    0.0000 N   0  0  0  0  0  0  0  0  0  0  0  0
    0.4598   -0.0969    0.0000 C   0  0  0  0  0  0  0  0  0  0  0  0
   -0.6334    0.9301    0.0000 C   0  0  0  0  0  0  0  0  0  0  0  0
   -1.9481    0.2077    0.0000 C   0  0  0  0  0  0  0  0  0  0  0  0
   -3.3052    0.8467    0.0000 F   0  0  0  0  0  0  0  0  0  0  0  0
   -1.6673   -1.2657    0.0000 C   0  0  0  0  0  0  0  0  0  0  0  0
    1.9333    0.1838    0.0000 C   0  0  0  0  0  0  0  0  0  0  0  0
    2.4269    1.6003    0.0000 O   0  0  0  0  0  0  0  0  0  0  0  0
    2.9132   -0.9519    0.0000 O   0  0  0  0  0  0  0  0  0  0  0  0
  1  2  1  0
  2  3  1  0
  3  4  1  0
  4  5  1  6
  4  6  1  0
  2  7  1  1
  7  8  2  0
  7  9  1  0
  6  1  1  0
M  END
>  <rName>  (3221) 
Pro_4RF

>  <PQ_SYMBOL>  (3221) 
Pro_4RF

>  <FULL_NAME>  (3221) 
trans-4-Fluoro-L-Proline

>  <IUPAC_CONDENSED>  (3221) 
Pro(4R-F)

>  <IUPAC>  (3221) 
(2S,4R)-4-fluoropyrrolidine-2-carboxylic acid

>  <TYPE>  (3221) 
Backbone

>  <CLASS>  (3221) 
alpha

>  <ANALOG>  (3221) 
Pro

>  <MOL_WT>  (3221) 
133.122

>  <LOGP>  (3221) 
-0.22900000000000015

>  <TPSA>  (3221) 
49.33

>  <POPULARITY>  (3221) 
23.7

>  <PROTECTED>  (3221) 
TRUE

>  <SMILES>  (3221) 
N1[C@@H](C[C@@H](F)C1)C(=O)O

>  <INCHIKEY>  (3221) 
ZIWHMENIDGOELV-DMTCNVIQSA-N

$$$$
Pro_4RMe
     RDKit          2D

  9  9  0  0  0  0  0  0  0  0999 V2000
   -0.1792   -1.4541    0.0000 N   0  0  0  0  0  0  0  0  0  0  0  0
    0.4598   -0.0969    0.0000 C   0  0  0  0  0  0  0  0  0  0  0  0
   -0.6334    0.9301    0.0000 C   0  0  0  0  0  0  0  0  0  0  0  0
   -1.9481    0.2077    0.0000 C   0  0  0  0  0  0  0  0  0  0  0  0
   -3.3052    0.8467    0.0000 C   0  0  0  0  0  0  0  0  0  0  0  0
   -1.6673   -1.2657    0.0000 C   0  0  0  0  0  0  0  0  0  0  0  0
    1.9333    0.1838    0.0000 C   0  0  0  0  0  0  0  0  0  0  0  0
    2.4269    1.6003    0.0000 O   0  0  0  0  0  0  0  0  0  0  0  0
    2.9132   -0.9519    0.0000 O   0  0  0  0  0  0  0  0  0  0  0  0
  1  2  1  0
  2  3  1  0
  3  4  1  0
  4  5  1  6
  4  6  1  0
  2  7  1  1
  7  8  2  0
  7  9  1  0
  6  1  1  0
M  END
>  <rName>  (3222) 
Pro_4RMe

>  <PQ_SYMBOL>  (3222) 
Pro_4RMe

>  <FULL_NAME>  (3222) 
(4R)-4-methyl-L-proline

>  <IUPAC_CONDENSED>  (3222) 
Pro(4R-Me)

>  <IUPAC>  (3222) 
(2S,4R)-4-methylpyrrolidine-2-carboxylic acid

>  <TYPE>  (3222) 
Backbone

>  <CLASS>  (3222) 
alpha

>  <ANALOG>  (3222) 
Pro

>  <MOL_WT>  (3222) 
129.15900000000002

>  <LOGP>  (3222) 
0.06899999999999967

>  <TPSA>  (3222) 
49.33

>  <POPULARITY>  (3222) 
29.5

>  <PROTECTED>  (3222) 
TRUE

>  <SMILES>  (3222) 
N1[C@@H](C[C@@H](C)C1)C(=O)O

>  <INCHIKEY>  (3222) 
KKJQZEWNZXRJFG-UHNVWZDZSA-N

$$$$
Pro_4RMeNH2
     RDKit          2D

 10 10  0  0  0  0  0  0  0  0999 V2000
    0.5059   -1.6189    0.0000 N   0  0  0  0  0  0  0  0  0  0  0  0
    0.8536   -0.1598    0.0000 C   0  0  0  0  0  0  0  0  0  0  0  0
   -0.4267    0.6218    0.0000 C   0  0  0  0  0  0  0  0  0  0  0  0
   -1.5656   -0.3543    0.0000 C   0  0  0  0  0  0  0  0  0  0  0  0
   -3.0248   -0.0066    0.0000 C   0  0  0  0  0  0  0  0  0  0  0  0
   -3.4533    1.4309    0.0000 N   0  0  0  0  0  0  0  0  0  0  0  0
   -0.9893   -1.7392    0.0000 C   0  0  0  0  0  0  0  0  0  0  0  0
    2.2384    0.4166    0.0000 C   0  0  0  0  0  0  0  0  0  0  0  0
    2.4317    1.9041    0.0000 O   0  0  0  0  0  0  0  0  0  0  0  0
    3.4300   -0.4945    0.0000 O   0  0  0  0  0  0  0  0  0  0  0  0
  1  2  1  0
  2  3  1  0
  3  4  1  0
  4  5  1  1
  5  6  1  0
  4  7  1  0
  2  8  1  1
  8  9  2  0
  8 10  1  0
  7  1  1  0
M  END
>  <rName>  (3223) 
Pro_4RMeNH2

>  <PQ_SYMBOL>  (3223) 
Pro_4RMeNH2

>  <FULL_NAME>  (3223) 
cis-4-Aminomethyl-L-proline

>  <IUPAC_CONDENSED>  (3223) 
Pro(4R-MeNH2)

>  <IUPAC>  (3223) 
(2S,4R)-4-(aminomethyl)pyrrolidine-2-carboxylic acid

>  <TYPE>  (3223) 
Backbone

>  <CLASS>  (3223) 
alpha

>  <ANALOG>  (3223) 
Pro

>  <MOL_WT>  (3223) 
144.17400000000004

>  <LOGP>  (3223) 
-0.9921999999999993

>  <TPSA>  (3223) 
75.35

>  <POPULARITY>  (3223) 
2.2

>  <PROTECTED>  (3223) 
TRUE

>  <SMILES>  (3223) 
N1[C@@H](C[C@H](CN)C1)C(=O)O

>  <INCHIKEY>  (3223) 
XKVIHRYANZKLQC-UHNVWZDZSA-N

$$$$
Pro_4RMeOH
     RDKit          2D

 10 10  0  0  0  0  0  0  0  0999 V2000
    0.5059   -1.6189    0.0000 N   0  0  0  0  0  0  0  0  0  0  0  0
    0.8536   -0.1598    0.0000 C   0  0  0  0  0  0  0  0  0  0  0  0
   -0.4267    0.6218    0.0000 C   0  0  0  0  0  0  0  0  0  0  0  0
   -1.5656   -0.3543    0.0000 C   0  0  0  0  0  0  0  0  0  0  0  0
   -3.0248   -0.0066    0.0000 C   0  0  0  0  0  0  0  0  0  0  0  0
   -3.4533    1.4309    0.0000 O   0  0  0  0  0  0  0  0  0  0  0  0
   -0.9893   -1.7392    0.0000 C   0  0  0  0  0  0  0  0  0  0  0  0
    2.2384    0.4166    0.0000 C   0  0  0  0  0  0  0  0  0  0  0  0
    2.4317    1.9041    0.0000 O   0  0  0  0  0  0  0  0  0  0  0  0
    3.4300   -0.4945    0.0000 O   0  0  0  0  0  0  0  0  0  0  0  0
  1  2  1  0
  2  3  1  0
  3  4  1  0
  4  5  1  6
  5  6  1  0
  4  7  1  0
  2  8  1  1
  8  9  2  0
  8 10  1  0
  7  1  1  0
M  END
>  <rName>  (3224) 
Pro_4RMeOH

>  <PQ_SYMBOL>  (3224) 
Pro_4RMeOH

>  <FULL_NAME>  (3224) 
(2S,4R)-4-(Hydroxymethyl)pyrrolidine-2-carboxylic acid

>  <IUPAC_CONDENSED>  (3224) 
Pro(4R-MeOH)

>  <IUPAC>  (3224) 
(2S,4R)-4-(hydroxymethyl)pyrrolidine-2-carboxylic acid

>  <TYPE>  (3224) 
Backbone

>  <CLASS>  (3224) 
alpha

>  <ANALOG>  (3224) 
Pro

>  <MOL_WT>  (3224) 
145.15800000000002

>  <LOGP>  (3224) 
-0.9586000000000001

>  <TPSA>  (3224) 
69.56

>  <POPULARITY>  (3224) 
2.2

>  <PROTECTED>  (3224) 
TRUE

>  <SMILES>  (3224) 
N1[C@@H](C[C@@H](CO)C1)C(=O)O

>  <INCHIKEY>  (3224) 
CISMGNUPDUKNQK-UHNVWZDZSA-N

$$$$
Pro_4RN3
     RDKit          2D

 11 11  0  0  0  0  0  0  0  0999 V2000
    1.2535   -1.6430    0.0000 N   0  0  0  0  0  0  0  0  0  0  0  0
    1.2696   -0.1431    0.0000 C   0  0  0  0  0  0  0  0  0  0  0  0
   -0.1519    0.3357    0.0000 C   0  0  0  0  0  0  0  0  0  0  0  0
   -1.0466   -0.8682    0.0000 C   0  0  0  0  0  0  0  0  0  0  0  0
   -0.1780   -2.0912    0.0000 C   0  0  0  0  0  0  0  0  0  0  0  0
   -2.5465   -0.8521    0.0000 N   0  0  0  0  0  0  0  0  0  0  0  0
   -3.2825    0.4549    0.0000 N   0  0  0  0  0  0  0  0  0  0  0  0
   -4.0185    1.7619    0.0000 N   0  0  0  0  0  0  0  0  0  0  0  0
    2.4926    0.7255    0.0000 C   0  0  0  0  0  0  0  0  0  0  0  0
    2.3518    2.2189    0.0000 O   0  0  0  0  0  0  0  0  0  0  0  0
    3.8563    0.1007    0.0000 O   0  0  0  0  0  0  0  0  0  0  0  0
  1  2  1  0
  2  3  1  0
  3  4  1  0
  4  5  1  0
  4  6  1  6
  6  7  1  0
  7  8  3  0
  2  9  1  1
  9 10  2  0
  9 11  1  0
  5  1  1  0
M  CHG  2   6  -1   7   1
M  END
>  <rName>  (3225) 
Pro_4RN3

>  <PQ_SYMBOL>  (3225) 
Pro_4RN3

>  <FULL_NAME>  (3225) 
(2S,4R)-4-azidopyrrolidine-2-carboxylic acid

>  <IUPAC_CONDENSED>  (3225) 
Pro(4R-N3)

>  <IUPAC>  (3225) 
(2S,4R)-4-azidopyrrolidine-2-carboxylic acid

>  <TYPE>  (3225) 
Backbone

>  <CLASS>  (3225) 
alpha

>  <ANALOG>  (3225) 
Pro

>  <MOL_WT>  (3225) 
156.14500000000004

>  <LOGP>  (3225) 
-0.05672000000000038

>  <TPSA>  (3225) 
91.58

>  <POPULARITY>  (3225) 
8.2

>  <PROTECTED>  (3225) 
TRUE

>  <SMILES>  (3225) 
N1[C@@H](C[C@H](C1)[N-][N+]#N)C(=O)O

>  <INCHIKEY>  (3225) 
PPRFZPZRQYPCER-DMTCNVIQSA-N

$$$$
Pro_4RNHAc
     RDKit          2D

 12 12  0  0  0  0  0  0  0  0999 V2000
    1.5111   -1.6952    0.0000 N   0  0  0  0  0  0  0  0  0  0  0  0
    1.5414   -0.1955    0.0000 C   0  0  0  0  0  0  0  0  0  0  0  0
    0.1245    0.2967    0.0000 C   0  0  0  0  0  0  0  0  0  0  0  0
   -0.7815   -0.8988    0.0000 C   0  0  0  0  0  0  0  0  0  0  0  0
    0.0755   -2.1299    0.0000 C   0  0  0  0  0  0  0  0  0  0  0  0
   -2.2812   -0.8686    0.0000 N   0  0  0  0  0  0  0  0  0  0  0  0
   -3.0049    0.4453    0.0000 C   0  0  0  0  0  0  0  0  0  0  0  0
   -2.2288    1.7290    0.0000 O   0  0  0  0  0  0  0  0  0  0  0  0
   -4.5046    0.4756    0.0000 C   0  0  0  0  0  0  0  0  0  0  0  0
    2.7725    0.6615    0.0000 C   0  0  0  0  0  0  0  0  0  0  0  0
    2.6458    2.1561    0.0000 O   0  0  0  0  0  0  0  0  0  0  0  0
    4.1302    0.0239    0.0000 O   0  0  0  0  0  0  0  0  0  0  0  0
  1  2  1  0
  2  3  1  0
  3  4  1  0
  4  5  1  0
  4  6  1  6
  6  7  1  0
  7  8  2  0
  7  9  1  0
  2 10  1  1
 10 11  2  0
 10 12  1  0
  5  1  1  0
M  END
>  <rName>  (3226) 
Pro_4RNHAc

>  <PQ_SYMBOL>  (3226) 
Pro_4RNHAc

>  <FULL_NAME>  (3226) 
(2S,4R)-4-acetamidopyrrolidine-2-carboxylic acid

>  <IUPAC_CONDENSED>  (3226) 
Pro(4R-NHAc)

>  <IUPAC>  (3226) 
(2S,4R)-4-acetamidopyrrolidine-2-carboxylic acid

>  <TYPE>  (3226) 
Backbone

>  <CLASS>  (3226) 
alpha

>  <ANALOG>  (3226) 
Pro

>  <MOL_WT>  (3226) 
172.184

>  <LOGP>  (3226) 
-1.0623999999999993

>  <TPSA>  (3226) 
78.42999999999999

>  <POPULARITY>  (3226) 
2.2

>  <PROTECTED>  (3226) 
TRUE

>  <SMILES>  (3226) 
N1[C@@H](C[C@H](C1)NC(=O)C)C(=O)O

>  <INCHIKEY>  (3226) 
VPBHJVNVTZAFLN-RITPCOANSA-N

$$$$
Pro_4RNHMe
     RDKit          2D

 10 10  0  0  0  0  0  0  0  0999 V2000
    0.5059   -1.6189    0.0000 N   0  0  0  0  0  0  0  0  0  0  0  0
    0.8536   -0.1598    0.0000 C   0  0  0  0  0  0  0  0  0  0  0  0
   -0.4267    0.6218    0.0000 C   0  0  0  0  0  0  0  0  0  0  0  0
   -1.5656   -0.3543    0.0000 C   0  0  0  0  0  0  0  0  0  0  0  0
   -0.9893   -1.7392    0.0000 C   0  0  0  0  0  0  0  0  0  0  0  0
   -3.0248   -0.0066    0.0000 N   0  0  0  0  0  0  0  0  0  0  0  0
   -3.4533    1.4309    0.0000 C   0  0  0  0  0  0  0  0  0  0  0  0
    2.2384    0.4166    0.0000 C   0  0  0  0  0  0  0  0  0  0  0  0
    2.4317    1.9041    0.0000 O   0  0  0  0  0  0  0  0  0  0  0  0
    3.4300   -0.4945    0.0000 O   0  0  0  0  0  0  0  0  0  0  0  0
  1  2  1  0
  2  3  1  0
  3  4  1  0
  4  5  1  0
  4  6  1  6
  6  7  1  0
  2  8  1  1
  8  9  2  0
  8 10  1  0
  5  1  1  0
M  END
>  <rName>  (3227) 
Pro_4RNHMe

>  <PQ_SYMBOL>  (3227) 
Pro_4RNHMe

>  <FULL_NAME>  (3227) 
(2S,4R)-4-(methylamino)pyrrolidine-2-carboxylic acid

>  <IUPAC_CONDENSED>  (3227) 
Pro(4R-NHMe)

>  <IUPAC>  (3227) 
(2S,4R)-4-(methylamino)pyrrolidine-2-carboxylic acid

>  <TYPE>  (3227) 
Backbone

>  <CLASS>  (3227) 
alpha

>  <ANALOG>  (3227) 
Pro

>  <MOL_WT>  (3227) 
144.174

>  <LOGP>  (3227) 
-0.9790999999999992

>  <TPSA>  (3227) 
61.36

>  <POPULARITY>  (3227) 
2.2

>  <PROTECTED>  (3227) 
TRUE

>  <SMILES>  (3227) 
N1[C@@H](C[C@H](C1)NC)C(=O)O

>  <INCHIKEY>  (3227) 
QUIYGOLXUFVTHU-UHNVWZDZSA-N

$$$$
Pro_4RNMe2
     RDKit          2D

 11 11  0  0  0  0  0  0  0  0999 V2000
    0.7500   -1.5845    0.0000 N   0  0  0  0  0  0  0  0  0  0  0  0
    1.2135   -0.1579    0.0000 C   0  0  0  0  0  0  0  0  0  0  0  0
    0.0000    0.7238    0.0000 C   0  0  0  0  0  0  0  0  0  0  0  0
   -1.2135   -0.1579    0.0000 C   0  0  0  0  0  0  0  0  0  0  0  0
   -0.7500   -1.5845    0.0000 C   0  0  0  0  0  0  0  0  0  0  0  0
   -2.6401    0.3056    0.0000 N   0  0  0  0  0  0  0  0  0  0  0  0
   -2.9520    1.7729    0.0000 C   0  0  0  0  0  0  0  0  0  0  0  0
   -3.7548   -0.6981    0.0000 C   0  0  0  0  0  0  0  0  0  0  0  0
    2.6401    0.3056    0.0000 C   0  0  0  0  0  0  0  0  0  0  0  0
    2.9520    1.7729    0.0000 O   0  0  0  0  0  0  0  0  0  0  0  0
    3.7548   -0.6981    0.0000 O   0  0  0  0  0  0  0  0  0  0  0  0
  1  2  1  0
  2  3  1  0
  3  4  1  0
  4  5  1  0
  4  6  1  6
  6  7  1  0
  6  8  1  0
  2  9  1  1
  9 10  2  0
  9 11  1  0
  5  1  1  0
M  END
>  <rName>  (3228) 
Pro_4RNMe2

>  <PQ_SYMBOL>  (3228) 
Pro_4RNMe2

>  <FULL_NAME>  (3228) 
(2S,4R)-4-(Dimethylamino)pyrrolidine-2-carboxylic acid

>  <IUPAC_CONDENSED>  (3228) 
Pro(4R-NMe2)

>  <IUPAC>  (3228) 
(2S,4R)-4-(dimethylamino)pyrrolidine-2-carboxylic acid

>  <TYPE>  (3228) 
Backbone

>  <CLASS>  (3228) 
alpha

>  <ANALOG>  (3228) 
Pro

>  <MOL_WT>  (3228) 
158.20100000000002

>  <LOGP>  (3228) 
-0.6369

>  <TPSA>  (3228) 
52.57000000000001

>  <POPULARITY>  (3228) 
2.2

>  <PROTECTED>  (3228) 
TRUE

>  <SMILES>  (3228) 
N1[C@@H](C[C@H](C1)N(C)C)C(=O)O

>  <INCHIKEY>  (3228) 
TYSMGLNAVKBLPB-RITPCOANSA-N

$$$$
Pro_4RNMe3
     RDKit          2D

 12 12  0  0  0  0  0  0  0  0999 V2000
    0.9909   -1.5972    0.0000 N   0  0  0  0  0  0  0  0  0  0  0  0
    1.4358   -0.1647    0.0000 C   0  0  0  0  0  0  0  0  0  0  0  0
    0.2109    0.7011    0.0000 C   0  0  0  0  0  0  0  0  0  0  0  0
   -0.9910   -0.1963    0.0000 C   0  0  0  0  0  0  0  0  0  0  0  0
   -0.5090   -1.6167    0.0000 C   0  0  0  0  0  0  0  0  0  0  0  0
   -2.4235    0.2487    0.0000 N   0  0  0  0  0  0  0  0  0  0  0  0
   -1.9786    1.6812    0.0000 C   0  0  0  0  0  0  0  0  0  0  0  0
   -2.8685   -1.1838    0.0000 C   0  0  0  0  0  0  0  0  0  0  0  0
   -3.8560    0.6936    0.0000 C   0  0  0  0  0  0  0  0  0  0  0  0
    2.8562    0.3173    0.0000 C   0  0  0  0  0  0  0  0  0  0  0  0
    3.1490    1.7885    0.0000 O   0  0  0  0  0  0  0  0  0  0  0  0
    3.9839   -0.6718    0.0000 O   0  0  0  0  0  0  0  0  0  0  0  0
  1  2  1  0
  2  3  1  0
  3  4  1  0
  4  5  1  0
  4  6  1  6
  6  7  1  0
  6  8  1  0
  6  9  1  0
  2 10  1  1
 10 11  2  0
 10 12  1  0
  5  1  1  0
M  CHG  1   6   1
M  END
>  <rName>  (3229) 
Pro_4RNMe3

>  <PQ_SYMBOL>  (3229) 
Pro_4RNMe3

>  <FULL_NAME>  (3229) 
Pro(4R-NMe3+)

>  <IUPAC_CONDENSED>  (3229) 
Pro(4R-NMe3+)

>  <IUPAC>  (3229) 
(2S,4R)-4-(trimethylammonio)pyrrolidine-2-carboxylic acid

>  <TYPE>  (3229) 
Backbone

>  <CLASS>  (3229) 
alpha

>  <ANALOG>  (3229) 
Pro

>  <MOL_WT>  (3229) 
173.236

>  <LOGP>  (3229) 
-0.4922999999999998

>  <TPSA>  (3229) 
49.33

>  <POPULARITY>  (3229) 
2.2

>  <PROTECTED>  (3229) 
TRUE

>  <SMILES>  (3229) 
N1[C@@H](C[C@H](C1)[N+](C)(C)C)C(=O)O

>  <INCHIKEY>  (3229) 
MCFWAXADWAVOAQ-RQJHMYQMSA-O

$$$$
Pro_4RPh
     RDKit          2D

 14 15  0  0  0  0  0  0  0  0999 V2000
   -2.0158    1.6013    0.0000 N   0  0  0  0  0  0  0  0  0  0  0  0
   -2.3178    0.1320    0.0000 C   0  0  0  0  0  0  0  0  0  0  0  0
   -1.0138   -0.6092    0.0000 C   0  0  0  0  0  0  0  0  0  0  0  0
    0.0942    0.4019    0.0000 C   0  0  0  0  0  0  0  0  0  0  0  0
   -0.5251    1.7681    0.0000 C   0  0  0  0  0  0  0  0  0  0  0  0
    1.5635    0.0999    0.0000 C   0  0  0  0  0  0  0  0  0  0  0  0
    2.0365   -1.3236    0.0000 C   0  0  0  0  0  0  0  0  0  0  0  0
    3.5058   -1.6256    0.0000 C   0  0  0  0  0  0  0  0  0  0  0  0
    4.5020   -0.5042    0.0000 C   0  0  0  0  0  0  0  0  0  0  0  0
    4.0290    0.9192    0.0000 C   0  0  0  0  0  0  0  0  0  0  0  0
    2.5597    1.2213    0.0000 C   0  0  0  0  0  0  0  0  0  0  0  0
   -3.6840   -0.4872    0.0000 C   0  0  0  0  0  0  0  0  0  0  0  0
   -3.8308   -1.9800    0.0000 O   0  0  0  0  0  0  0  0  0  0  0  0
   -4.9034    0.3863    0.0000 O   0  0  0  0  0  0  0  0  0  0  0  0
  1  2  1  0
  2  3  1  0
  3  4  1  0
  4  5  1  0
  4  6  1  1
  6  7  2  0
  7  8  1  0
  8  9  2  0
  9 10  1  0
 10 11  2  0
  2 12  1  1
 12 13  2  0
 12 14  1  0
  5  1  1  0
 11  6  1  0
M  END
>  <rName>  (3230) 
Pro_4RPh

>  <PQ_SYMBOL>  (3230) 
Pro_4RPh

>  <FULL_NAME>  (3230) 
(4R)-4-Phenyl-L-proline

>  <IUPAC_CONDENSED>  (3230) 
Pro(4R-Ph)

>  <IUPAC>  (3230) 
(2S,4R)-4-phenylpyrrolidine-2-carboxylic acid

>  <TYPE>  (3230) 
Backbone

>  <CLASS>  (3230) 
alpha

>  <ANALOG>  (3230) 
Pro

>  <MOL_WT>  (3230) 
191.23

>  <LOGP>  (3230) 
1.2167

>  <TPSA>  (3230) 
49.33

>  <POPULARITY>  (3230) 
9.2

>  <PROTECTED>  (3230) 
TRUE

>  <SMILES>  (3230) 
N1[C@@H](C[C@@H](C1)c2(ccccc2))C(=O)O

>  <INCHIKEY>  (3230) 
JHHOFXBPLJDHOR-UWVGGRQHSA-N

$$$$
Pro_4RSH
     RDKit          2D

  9  9  0  0  0  0  0  0  0  0999 V2000
   -0.1792   -1.4541    0.0000 N   0  0  0  0  0  0  0  0  0  0  0  0
    0.4598   -0.0969    0.0000 C   0  0  0  0  0  0  0  0  0  0  0  0
   -0.6334    0.9301    0.0000 C   0  0  0  0  0  0  0  0  0  0  0  0
   -1.9481    0.2077    0.0000 C   0  0  0  0  0  0  0  0  0  0  0  0
   -3.3052    0.8467    0.0000 S   0  0  0  0  0  0  0  0  0  0  0  0
   -1.6673   -1.2657    0.0000 C   0  0  0  0  0  0  0  0  0  0  0  0
    1.9333    0.1838    0.0000 C   0  0  0  0  0  0  0  0  0  0  0  0
    2.4269    1.6003    0.0000 O   0  0  0  0  0  0  0  0  0  0  0  0
    2.9132   -0.9519    0.0000 O   0  0  0  0  0  0  0  0  0  0  0  0
  1  2  1  0
  2  3  1  0
  3  4  1  0
  4  5  1  6
  4  6  1  0
  2  7  1  1
  7  8  2  0
  7  9  1  0
  6  1  1  0
M  END
>  <rName>  (3231) 
Pro_4RSH

>  <PQ_SYMBOL>  (3231) 
Pro_4RSH

>  <FULL_NAME>  (3231) 
(2S,4R)-4-sulfanylpyrrolidine-2-carboxylic acid

>  <IUPAC_CONDENSED>  (3231) 
Pro(4R-SH)

>  <IUPAC>  (3231) 
(2S,4R)-4-sulfanylpyrrolidine-2-carboxylic acid

>  <TYPE>  (3231) 
Backbone

>  <CLASS>  (3231) 
alpha

>  <ANALOG>  (3231) 
Pro

>  <MOL_WT>  (3231) 
147.199

>  <LOGP>  (3231) 
-0.2687

>  <TPSA>  (3231) 
49.33

>  <POPULARITY>  (3231) 
14.6

>  <PROTECTED>  (3231) 
TRUE

>  <SMILES>  (3231) 
N1[C@@H](C[C@@H](S)C1)C(=O)O

>  <INCHIKEY>  (3231) 
OYNANFOWNSGDJL-DMTCNVIQSA-N

$$$$
Pro_4RSMe
     RDKit          2D

 10 10  0  0  0  0  0  0  0  0999 V2000
    0.5059   -1.6189    0.0000 N   0  0  0  0  0  0  0  0  0  0  0  0
    0.8536   -0.1598    0.0000 C   0  0  0  0  0  0  0  0  0  0  0  0
   -0.4267    0.6218    0.0000 C   0  0  0  0  0  0  0  0  0  0  0  0
   -1.5656   -0.3543    0.0000 C   0  0  0  0  0  0  0  0  0  0  0  0
   -0.9893   -1.7392    0.0000 C   0  0  0  0  0  0  0  0  0  0  0  0
   -3.0248   -0.0066    0.0000 S   0  0  0  0  0  0  0  0  0  0  0  0
   -3.4533    1.4309    0.0000 C   0  0  0  0  0  0  0  0  0  0  0  0
    2.2384    0.4166    0.0000 C   0  0  0  0  0  0  0  0  0  0  0  0
    2.4317    1.9041    0.0000 O   0  0  0  0  0  0  0  0  0  0  0  0
    3.4300   -0.4945    0.0000 O   0  0  0  0  0  0  0  0  0  0  0  0
  1  2  1  0
  2  3  1  0
  3  4  1  0
  4  5  1  0
  4  6  1  6
  6  7  1  0
  2  8  1  1
  8  9  2  0
  8 10  1  0
  5  1  1  0
M  END
>  <rName>  (3232) 
Pro_4RSMe

>  <PQ_SYMBOL>  (3232) 
Pro_4RSMe

>  <FULL_NAME>  (3232) 
(2S,4R)-4-(Methylthio)pyrrolidine-2-carboxylic acid

>  <IUPAC_CONDENSED>  (3232) 
Pro(4R-SMe)

>  <IUPAC>  (3232) 
(2S,4R)-4-(methylsulfanyl)pyrrolidine-2-carboxylic acid

>  <TYPE>  (3232) 
Backbone

>  <CLASS>  (3232) 
alpha

>  <ANALOG>  (3232) 
Pro

>  <MOL_WT>  (3232) 
161.226

>  <LOGP>  (3232) 
0.16450000000000004

>  <TPSA>  (3232) 
49.33

>  <POPULARITY>  (3232) 
10.2

>  <PROTECTED>  (3232) 
TRUE

>  <SMILES>  (3232) 
N1[C@@H](C[C@H](C1)SC)C(=O)O

>  <INCHIKEY>  (3232) 
KZLPQCNSZCKHAI-UHNVWZDZSA-N

$$$$
Pro_4RSO2Me
     RDKit          2D

 12 12  0  0  0  0  0  0  0  0999 V2000
    0.9909   -1.5972    0.0000 N   0  0  0  0  0  0  0  0  0  0  0  0
    1.4358   -0.1647    0.0000 C   0  0  0  0  0  0  0  0  0  0  0  0
    0.2109    0.7011    0.0000 C   0  0  0  0  0  0  0  0  0  0  0  0
   -0.9910   -0.1963    0.0000 C   0  0  0  0  0  0  0  0  0  0  0  0
   -0.5090   -1.6167    0.0000 C   0  0  0  0  0  0  0  0  0  0  0  0
   -2.4235    0.2487    0.0000 S   0  0  0  0  0  0  0  0  0  0  0  0
   -2.8685   -1.1838    0.0000 O   0  0  0  0  0  0  0  0  0  0  0  0
   -1.9786    1.6812    0.0000 O   0  0  0  0  0  0  0  0  0  0  0  0
   -3.8560    0.6936    0.0000 C   0  0  0  0  0  0  0  0  0  0  0  0
    2.8562    0.3173    0.0000 C   0  0  0  0  0  0  0  0  0  0  0  0
    3.1490    1.7885    0.0000 O   0  0  0  0  0  0  0  0  0  0  0  0
    3.9839   -0.6718    0.0000 O   0  0  0  0  0  0  0  0  0  0  0  0
  1  2  1  0
  2  3  1  0
  3  4  1  0
  4  5  1  0
  4  6  1  6
  6  7  2  0
  6  8  2  0
  6  9  1  0
  2 10  1  1
 10 11  2  0
 10 12  1  0
  5  1  1  0
M  END
>  <rName>  (3233) 
Pro_4RSO2Me

>  <PQ_SYMBOL>  (3233) 
Pro_4RSO2Me

>  <FULL_NAME>  (3233) 
(2S,4R)-4-methanesulfonylpyrrolidine-2-carboxylic acid

>  <IUPAC_CONDENSED>  (3233) 
Pro(4R-SO2Me)

>  <IUPAC>  (3233) 
(2S,4R)-4-(methylsulfonyl)pyrrolidine-2-carboxylic acid

>  <TYPE>  (3233) 
Backbone

>  <CLASS>  (3233) 
alpha

>  <ANALOG>  (3233) 
Pro

>  <MOL_WT>  (3233) 
193.224

>  <LOGP>  (3233) 
-1.1538999999999995

>  <TPSA>  (3233) 
83.47

>  <POPULARITY>  (3233) 
7.7

>  <PROTECTED>  (3233) 
TRUE

>  <SMILES>  (3233) 
N1[C@@H](C[C@H](C1)S(=O)(=O)C)C(=O)O

>  <INCHIKEY>  (3233) 
ACFIWZSICYETQK-UHNVWZDZSA-N

$$$$
Pro_4Rallyl
     RDKit          2D

 11 11  0  0  0  0  0  0  0  0999 V2000
    1.1920   -1.6300    0.0000 N   0  0  0  0  0  0  0  0  0  0  0  0
    1.3323   -0.1366    0.0000 C   0  0  0  0  0  0  0  0  0  0  0  0
   -0.0446    0.4584    0.0000 C   0  0  0  0  0  0  0  0  0  0  0  0
   -1.0360   -0.6674    0.0000 C   0  0  0  0  0  0  0  0  0  0  0  0
   -2.5294   -0.5270    0.0000 C   0  0  0  0  0  0  0  0  0  0  0  0
   -3.1546    0.8365    0.0000 C   0  0  0  0  0  0  0  0  0  0  0  0
   -4.6480    0.9768    0.0000 C   0  0  0  0  0  0  0  0  0  0  0  0
   -0.2717   -1.9580    0.0000 C   0  0  0  0  0  0  0  0  0  0  0  0
    2.6230    0.6277    0.0000 C   0  0  0  0  0  0  0  0  0  0  0  0
    2.6065    2.1276    0.0000 O   0  0  0  0  0  0  0  0  0  0  0  0
    3.9303   -0.1079    0.0000 O   0  0  0  0  0  0  0  0  0  0  0  0
  1  2  1  0
  2  3  1  0
  3  4  1  0
  4  5  1  6
  5  6  1  0
  6  7  2  0
  4  8  1  0
  2  9  1  1
  9 10  2  0
  9 11  1  0
  8  1  1  0
M  END
>  <rName>  (3234) 
Pro_4Rallyl

>  <PQ_SYMBOL>  (3234) 
Pro_4Rallyl

>  <FULL_NAME>  (3234) 
(2S,4R)-4-allylpyrrolidine-2-carboxylic acid

>  <IUPAC_CONDENSED>  (3234) 
Pro(4R-allyl)

>  <IUPAC>  (3234) 
(2S,4R)-4-(prop-2-en-1-yl)pyrrolidine-2-carboxylic acid

>  <TYPE>  (3234) 
Backbone

>  <CLASS>  (3234) 
alpha

>  <ANALOG>  (3234) 
Pro

>  <MOL_WT>  (3234) 
155.197

>  <LOGP>  (3234) 
0.6251999999999998

>  <TPSA>  (3234) 
49.33

>  <POPULARITY>  (3234) 
7.1

>  <PROTECTED>  (3234) 
TRUE

>  <SMILES>  (3234) 
N1[C@@H](C[C@@H](CC=C)C1)C(=O)O

>  <INCHIKEY>  (3234) 
JMWRIQIIDLNILM-RQJHMYQMSA-N

$$$$
Pro_4Ramino
     RDKit          2D

  9  9  0  0  0  0  0  0  0  0999 V2000
   -0.1792   -1.4541    0.0000 N   0  0  0  0  0  0  0  0  0  0  0  0
    0.4598   -0.0969    0.0000 C   0  0  0  0  0  0  0  0  0  0  0  0
   -0.6334    0.9301    0.0000 C   0  0  0  0  0  0  0  0  0  0  0  0
   -1.9481    0.2077    0.0000 C   0  0  0  0  0  0  0  0  0  0  0  0
   -3.3052    0.8467    0.0000 N   0  0  0  0  0  0  0  0  0  0  0  0
   -1.6673   -1.2657    0.0000 C   0  0  0  0  0  0  0  0  0  0  0  0
    1.9333    0.1838    0.0000 C   0  0  0  0  0  0  0  0  0  0  0  0
    2.4269    1.6003    0.0000 O   0  0  0  0  0  0  0  0  0  0  0  0
    2.9132   -0.9519    0.0000 O   0  0  0  0  0  0  0  0  0  0  0  0
  1  2  1  0
  2  3  1  0
  3  4  1  0
  4  5  1  6
  4  6  1  0
  2  7  1  1
  7  8  2  0
  7  9  1  0
  6  1  1  0
M  END
>  <rName>  (3235) 
Pro_4Ramino

>  <PQ_SYMBOL>  (3235) 
Pro_4Ramino

>  <FULL_NAME>  (3235) 
(4R)-4-Amino-L-Proline

>  <IUPAC_CONDENSED>  (3235) 
Pro(4R-amino)

>  <IUPAC>  (3235) 
(2S,4R)-4-aminopyrrolidine-2-carboxylic acid

>  <TYPE>  (3235) 
Backbone

>  <CLASS>  (3235) 
alpha

>  <ANALOG>  (3235) 
Pro

>  <MOL_WT>  (3235) 
130.14700000000002

>  <LOGP>  (3235) 
-1.2397999999999993

>  <TPSA>  (3235) 
75.35

>  <POPULARITY>  (3235) 
15.1

>  <PROTECTED>  (3235) 
TRUE

>  <SMILES>  (3235) 
N1[C@@H](C[C@@H](N)C1)C(=O)O

>  <INCHIKEY>  (3235) 
SHINASQYHDCLEU-DMTCNVIQSA-N

$$$$
Pro_4RcHex
     RDKit          2D

 14 15  0  0  0  0  0  0  0  0999 V2000
   -2.0158    1.6013    0.0000 N   0  0  0  0  0  0  0  0  0  0  0  0
   -2.3178    0.1320    0.0000 C   0  0  0  0  0  0  0  0  0  0  0  0
   -1.0138   -0.6092    0.0000 C   0  0  0  0  0  0  0  0  0  0  0  0
    0.0942    0.4019    0.0000 C   0  0  0  0  0  0  0  0  0  0  0  0
   -0.5251    1.7681    0.0000 C   0  0  0  0  0  0  0  0  0  0  0  0
    1.5635    0.0999    0.0000 C   0  0  0  0  0  0  0  0  0  0  0  0
    2.0365   -1.3236    0.0000 C   0  0  0  0  0  0  0  0  0  0  0  0
    3.5058   -1.6256    0.0000 C   0  0  0  0  0  0  0  0  0  0  0  0
    4.5020   -0.5042    0.0000 C   0  0  0  0  0  0  0  0  0  0  0  0
    4.0290    0.9192    0.0000 C   0  0  0  0  0  0  0  0  0  0  0  0
    2.5597    1.2213    0.0000 C   0  0  0  0  0  0  0  0  0  0  0  0
   -3.6840   -0.4872    0.0000 C   0  0  0  0  0  0  0  0  0  0  0  0
   -3.8308   -1.9800    0.0000 O   0  0  0  0  0  0  0  0  0  0  0  0
   -4.9034    0.3863    0.0000 O   0  0  0  0  0  0  0  0  0  0  0  0
  1  2  1  0
  2  3  1  0
  3  4  1  0
  4  5  1  0
  4  6  1  1
  6  7  1  0
  7  8  1  0
  8  9  1  0
  9 10  1  0
 10 11  1  0
  2 12  1  1
 12 13  2  0
 12 14  1  0
  5  1  1  0
 11  6  1  0
M  END
>  <rName>  (3236) 
Pro_4RcHex

>  <PQ_SYMBOL>  (3236) 
Pro_4RcHex

>  <FULL_NAME>  (3236) 
(2S,4R)-4-Cyclohexylpyrrolidine-2-carboxylic acid

>  <IUPAC_CONDENSED>  (3236) 
Pro(4R-cHex)

>  <IUPAC>  (3236) 
(2S,4R)-4-cyclohexylpyrrolidine-2-carboxylic acid

>  <TYPE>  (3236) 
Backbone

>  <CLASS>  (3236) 
alpha

>  <ANALOG>  (3236) 
Pro

>  <MOL_WT>  (3236) 
197.278

>  <LOGP>  (3236) 
1.6294

>  <TPSA>  (3236) 
49.33

>  <POPULARITY>  (3236) 
2.2

>  <PROTECTED>  (3236) 
TRUE

>  <SMILES>  (3236) 
N1[C@@H](C[C@@H](C1)C2(CCCCC2))C(=O)O

>  <INCHIKEY>  (3236) 
XRZWVSXEDRYQGC-UWVGGRQHSA-N

$$$$
Pro_4Rnaphth2ylmethyl
     RDKit          2D

 19 21  0  0  0  0  0  0  0  0999 V2000
   -2.8639    1.3619    0.0000 N   0  0  0  0  0  0  0  0  0  0  0  0
   -3.9013    0.2785    0.0000 C   0  0  0  0  0  0  0  0  0  0  0  0
   -3.1916   -1.0429    0.0000 C   0  0  0  0  0  0  0  0  0  0  0  0
   -1.7155   -0.7762    0.0000 C   0  0  0  0  0  0  0  0  0  0  0  0
   -1.5130    0.7101    0.0000 C   0  0  0  0  0  0  0  0  0  0  0  0
   -0.6321   -1.8136    0.0000 C   0  0  0  0  0  0  0  0  0  0  0  0
    0.8081   -1.3941    0.0000 C   0  0  0  0  0  0  0  0  0  0  0  0
    1.8915   -2.4315    0.0000 C   0  0  0  0  0  0  0  0  0  0  0  0
    3.3316   -2.0120    0.0000 C   0  0  0  0  0  0  0  0  0  0  0  0
    3.6883   -0.5550    0.0000 C   0  0  0  0  0  0  0  0  0  0  0  0
    5.1285   -0.1355    0.0000 C   0  0  0  0  0  0  0  0  0  0  0  0
    5.4852    1.3215    0.0000 C   0  0  0  0  0  0  0  0  0  0  0  0
    4.4018    2.3589    0.0000 C   0  0  0  0  0  0  0  0  0  0  0  0
    2.9617    1.9393    0.0000 C   0  0  0  0  0  0  0  0  0  0  0  0
    2.6049    0.4824    0.0000 C   0  0  0  0  0  0  0  0  0  0  0  0
    1.1648    0.0629    0.0000 C   0  0  0  0  0  0  0  0  0  0  0  0
   -5.3876    0.4810    0.0000 C   0  0  0  0  0  0  0  0  0  0  0  0
   -6.3061   -0.7049    0.0000 O   0  0  0  0  0  0  0  0  0  0  0  0
   -5.9554    1.8694    0.0000 O   0  0  0  0  0  0  0  0  0  0  0  0
  1  2  1  0
  2  3  1  0
  3  4  1  0
  4  5  1  0
  4  6  1  6
  6  7  1  0
  7  8  1  0
  8  9  2  0
  9 10  1  0
 10 11  2  0
 11 12  1  0
 12 13  2  0
 13 14  1  0
 14 15  2  0
 15 16  1  0
  2 17  1  1
 17 18  2  0
 17 19  1  0
  5  1  1  0
 15 10  1  0
 16  7  2  0
M  END
>  <rName>  (3237) 
Pro_4Rnaphth2ylmethyl

>  <PQ_SYMBOL>  (3237) 
Pro_4Rnaphth2ylmethyl

>  <FULL_NAME>  (3237) 
(2S,4R)-4-(naphthalen-2-ylmethyl)pyrrolidine-2-carboxylic acid

>  <IUPAC_CONDENSED>  (3237) 
Pro(4R-naphth-2-ylmethyl)

>  <IUPAC>  (3237) 
(2S,4R)-4-(naphthalen-2-ylmethyl)pyrrolidine-2-carboxylic acid

>  <TYPE>  (3237) 
Backbone

>  <CLASS>  (3237) 
alpha

>  <ANALOG>  (3237) 
Pro

>  <MOL_WT>  (3237) 
255.317

>  <LOGP>  (3237) 
2.4450000000000003

>  <TPSA>  (3237) 
49.33

>  <POPULARITY>  (3237) 
2.2

>  <PROTECTED>  (3237) 
TRUE

>  <SMILES>  (3237) 
N1[C@@H](C[C@H](C1)Cc3(ccc2(ccccc2c3)))C(=O)O

>  <INCHIKEY>  (3237) 
ZZHAJMVCKZUYEK-DOMZBBRYSA-N

$$$$
Pro_4Rphenylmethyl
     RDKit          2D

 15 16  0  0  0  0  0  0  0  0999 V2000
   -1.9780    1.3585    0.0000 N   0  0  0  0  0  0  0  0  0  0  0  0
   -2.7771    0.0891    0.0000 C   0  0  0  0  0  0  0  0  0  0  0  0
   -1.8168   -1.0632    0.0000 C   0  0  0  0  0  0  0  0  0  0  0  0
   -0.4242   -0.5059    0.0000 C   0  0  0  0  0  0  0  0  0  0  0  0
   -0.5238    0.9908    0.0000 C   0  0  0  0  0  0  0  0  0  0  0  0
    0.8452   -1.3051    0.0000 C   0  0  0  0  0  0  0  0  0  0  0  0
    2.1720   -0.6053    0.0000 C   0  0  0  0  0  0  0  0  0  0  0  0
    3.4414   -1.4044    0.0000 C   0  0  0  0  0  0  0  0  0  0  0  0
    4.7682   -0.7047    0.0000 C   0  0  0  0  0  0  0  0  0  0  0  0
    4.8256    0.7942    0.0000 C   0  0  0  0  0  0  0  0  0  0  0  0
    3.5562    1.5934    0.0000 C   0  0  0  0  0  0  0  0  0  0  0  0
    2.2294    0.8936    0.0000 C   0  0  0  0  0  0  0  0  0  0  0  0
   -4.2738   -0.0105    0.0000 C   0  0  0  0  0  0  0  0  0  0  0  0
   -4.9359   -1.3565    0.0000 O   0  0  0  0  0  0  0  0  0  0  0  0
   -5.1084    1.2359    0.0000 O   0  0  0  0  0  0  0  0  0  0  0  0
  1  2  1  0
  2  3  1  0
  3  4  1  0
  4  5  1  0
  4  6  1  6
  6  7  1  0
  7  8  2  0
  8  9  1  0
  9 10  2  0
 10 11  1  0
 11 12  2  0
  2 13  1  1
 13 14  2  0
 13 15  1  0
  5  1  1  0
 12  7  1  0
M  END
>  <rName>  (3238) 
Pro_4Rphenylmethyl

>  <PQ_SYMBOL>  (3238) 
Pro_4Rphenylmethyl

>  <FULL_NAME>  (3238) 
4-benzyl-pyrrolidine-2-carboxylic acid

>  <IUPAC_CONDENSED>  (3238) 
Pro(4R-phenylmethyl)

>  <IUPAC>  (3238) 
(2S,4R)-4-benzylpyrrolidine-2-carboxylic acid

>  <TYPE>  (3238) 
Backbone

>  <CLASS>  (3238) 
alpha

>  <ANALOG>  (3238) 
Pro

>  <MOL_WT>  (3238) 
205.257

>  <LOGP>  (3238) 
1.2918

>  <TPSA>  (3238) 
49.33

>  <POPULARITY>  (3238) 
12.0

>  <PROTECTED>  (3238) 
TRUE

>  <SMILES>  (3238) 
N1[C@@H](C[C@H](C1)Cc2(ccccc2))C(=O)O

>  <INCHIKEY>  (3238) 
JQVMMZMKXGQVGQ-MNOVXSKESA-N

$$$$
Pro_4Rpiperidino_2oxo
     RDKit          2D

 15 16  0  0  0  0  0  0  0  0999 V2000
   -2.0826    1.5287    0.0000 N   0  0  0  0  0  0  0  0  0  0  0  0
   -2.4561    0.0759    0.0000 C   0  0  0  0  0  0  0  0  0  0  0  0
   -1.1899   -0.7283    0.0000 C   0  0  0  0  0  0  0  0  0  0  0  0
   -0.0338    0.2275    0.0000 C   0  0  0  0  0  0  0  0  0  0  0  0
   -0.5856    1.6223    0.0000 C   0  0  0  0  0  0  0  0  0  0  0  0
    1.4189   -0.1460    0.0000 N   0  0  0  0  0  0  0  0  0  0  0  0
    1.8218   -1.5909    0.0000 C   0  0  0  0  0  0  0  0  0  0  0  0
    3.2746   -1.9644    0.0000 C   0  0  0  0  0  0  0  0  0  0  0  0
    4.3244   -0.8930    0.0000 C   0  0  0  0  0  0  0  0  0  0  0  0
    3.9215    0.5518    0.0000 C   0  0  0  0  0  0  0  0  0  0  0  0
    2.4688    0.9254    0.0000 C   0  0  0  0  0  0  0  0  0  0  0  0
    2.0659    2.3702    0.0000 O   0  0  0  0  0  0  0  0  0  0  0  0
   -3.8510   -0.4758    0.0000 C   0  0  0  0  0  0  0  0  0  0  0  0
   -4.0706   -1.9597    0.0000 O   0  0  0  0  0  0  0  0  0  0  0  0
   -5.0262    0.4563    0.0000 O   0  0  0  0  0  0  0  0  0  0  0  0
  1  2  1  0
  2  3  1  0
  3  4  1  0
  4  5  1  0
  4  6  1  6
  6  7  1  0
  7  8  1  0
  8  9  1  0
  9 10  1  0
 10 11  1  0
 11 12  2  0
  2 13  1  1
 13 14  2  0
 13 15  1  0
  5  1  1  0
 11  6  1  0
M  END
>  <rName>  (3239) 
Pro_4Rpiperidino_2oxo

>  <PQ_SYMBOL>  (3239) 
Pro_4Rpiperidino_2oxo

>  <FULL_NAME>  (3239) 
Pro(4R-piperidino(2-oxo))

>  <IUPAC_CONDENSED>  (3239) 
Pro(4R-piperidino(2-oxo))

>  <IUPAC>  (3239) 
(2S,4R)-4-(2-oxopiperidin-1-yl)pyrrolidine-2-carboxylic acid

>  <TYPE>  (3239) 
Backbone

>  <CLASS>  (3239) 
alpha

>  <ANALOG>  (3239) 
Pro

>  <MOL_WT>  (3239) 
212.249

>  <LOGP>  (3239) 
-0.18600000000000022

>  <TPSA>  (3239) 
69.64

>  <POPULARITY>  (3239) 
2.2

>  <PROTECTED>  (3239) 
TRUE

>  <SMILES>  (3239) 
N1[C@@H](C[C@H](C1)N2(CCCCC2=O))C(=O)O

>  <INCHIKEY>  (3239) 
DQVSPKKOAQEXRU-SFYZADRCSA-N

$$$$
Pro_4Rtriazol1yl
     RDKit          2D

 13 14  0  0  0  0  0  0  0  0999 V2000
    1.6701   -1.5982    0.0000 N   0  0  0  0  0  0  0  0  0  0  0  0
    1.9981   -0.1345    0.0000 C   0  0  0  0  0  0  0  0  0  0  0  0
    0.7074    0.6297    0.0000 C   0  0  0  0  0  0  0  0  0  0  0  0
   -0.4183   -0.3616    0.0000 C   0  0  0  0  0  0  0  0  0  0  0  0
    0.1766   -1.7386    0.0000 C   0  0  0  0  0  0  0  0  0  0  0  0
   -1.8820   -0.0336    0.0000 N   0  0  0  0  0  0  0  0  0  0  0  0
   -3.0077   -1.0250    0.0000 C   0  0  0  0  0  0  0  0  0  0  0  0
   -4.2984   -0.2607    0.0000 C   0  0  0  0  0  0  0  0  0  0  0  0
   -3.9704    1.2030    0.0000 N   0  0  0  0  0  0  0  0  0  0  0  0
   -2.4770    1.3433    0.0000 N   0  0  0  0  0  0  0  0  0  0  0  0
    3.3750    0.4605    0.0000 C   0  0  0  0  0  0  0  0  0  0  0  0
    3.5482    1.9504    0.0000 O   0  0  0  0  0  0  0  0  0  0  0  0
    4.5788   -0.4345    0.0000 O   0  0  0  0  0  0  0  0  0  0  0  0
  1  2  1  0
  2  3  1  0
  3  4  1  0
  4  5  1  0
  4  6  1  6
  6  7  1  0
  7  8  2  0
  8  9  1  0
  9 10  2  0
  2 11  1  1
 11 12  2  0
 11 13  1  0
  5  1  1  0
 10  6  1  0
M  END
>  <rName>  (3240) 
Pro_4Rtriazol1yl

>  <PQ_SYMBOL>  (3240) 
Pro_4Rtriazol1yl

>  <FULL_NAME>  (3240) 
(2S,4R)-4-(triazol-1-yl)pyrrolidine-2-carboxylic acid

>  <IUPAC_CONDENSED>  (3240) 
Pro(4R-triazol-1-yl)

>  <IUPAC>  (3240) 
(2S,4R)-4-(1H-1,2,3-triazol-1-yl)pyrrolidine-2-carboxylic acid

>  <TYPE>  (3240) 
Backbone

>  <CLASS>  (3240) 
alpha

>  <ANALOG>  (3240) 
Pro

>  <MOL_WT>  (3240) 
182.183

>  <LOGP>  (3240) 
-0.7343000000000002

>  <TPSA>  (3240) 
80.04

>  <POPULARITY>  (3240) 
8.0

>  <PROTECTED>  (3240) 
TRUE

>  <SMILES>  (3240) 
N1[C@@H](C[C@H](C1)n2(ccnn2))C(=O)O

>  <INCHIKEY>  (3240) 
KCLIAYMWAUHSKI-RITPCOANSA-N

$$$$
Pro_4SCF3
     RDKit          2D

 12 12  0  0  0  0  0  0  0  0999 V2000
    0.9909   -1.5972    0.0000 N   0  0  0  0  0  0  0  0  0  0  0  0
    1.4358   -0.1647    0.0000 C   0  0  0  0  0  0  0  0  0  0  0  0
    0.2109    0.7011    0.0000 C   0  0  0  0  0  0  0  0  0  0  0  0
   -0.9910   -0.1963    0.0000 C   0  0  0  0  0  0  0  0  0  0  0  0
   -0.5090   -1.6167    0.0000 C   0  0  0  0  0  0  0  0  0  0  0  0
   -2.4235    0.2487    0.0000 C   0  0  0  0  0  0  0  0  0  0  0  0
   -3.8560    0.6936    0.0000 F   0  0  0  0  0  0  0  0  0  0  0  0
   -1.9786    1.6812    0.0000 F   0  0  0  0  0  0  0  0  0  0  0  0
   -2.8685   -1.1838    0.0000 F   0  0  0  0  0  0  0  0  0  0  0  0
    2.8562    0.3173    0.0000 C   0  0  0  0  0  0  0  0  0  0  0  0
    3.1490    1.7885    0.0000 O   0  0  0  0  0  0  0  0  0  0  0  0
    3.9839   -0.6718    0.0000 O   0  0  0  0  0  0  0  0  0  0  0  0
  1  2  1  0
  2  3  1  0
  3  4  1  0
  4  5  1  0
  4  6  1  1
  6  7  1  0
  6  8  1  0
  6  9  1  0
  2 10  1  1
 10 11  2  0
 10 12  1  0
  5  1  1  0
M  END
>  <rName>  (3241) 
Pro_4SCF3

>  <PQ_SYMBOL>  (3241) 
Pro_4SCF3

>  <FULL_NAME>  (3241) 
(2S,4S)-4-(trifluoromethyl)pyrrolidine-2-carboxylic acid

>  <IUPAC_CONDENSED>  (3241) 
Pro(4S-CF3)

>  <IUPAC>  (3241) 
(2S,4S)-4-(trifluoromethyl)pyrrolidine-2-carboxylic acid

>  <TYPE>  (3241) 
Backbone

>  <CLASS>  (3241) 
alpha

>  <ANALOG>  (3241) 
Pro

>  <MOL_WT>  (3241) 
183.12900000000002

>  <LOGP>  (3241) 
0.6113999999999999

>  <TPSA>  (3241) 
49.33

>  <POPULARITY>  (3241) 
6.6

>  <PROTECTED>  (3241) 
TRUE

>  <SMILES>  (3241) 
N1[C@@H](C[C@@H](C1)C(F)(F)F)C(=O)O

>  <INCHIKEY>  (3241) 
GBECQKOJMXNJCV-IMJSIDKUSA-N

$$$$
Pro_4SCHF2
     RDKit          2D

 11 11  0  0  0  0  0  0  0  0999 V2000
    0.7500   -1.5845    0.0000 N   0  0  0  0  0  0  0  0  0  0  0  0
    1.2135   -0.1579    0.0000 C   0  0  0  0  0  0  0  0  0  0  0  0
    0.0000    0.7238    0.0000 C   0  0  0  0  0  0  0  0  0  0  0  0
   -1.2135   -0.1579    0.0000 C   0  0  0  0  0  0  0  0  0  0  0  0
   -0.7500   -1.5845    0.0000 C   0  0  0  0  0  0  0  0  0  0  0  0
   -2.6401    0.3056    0.0000 C   0  0  0  0  0  0  0  0  0  0  0  0
   -2.9520    1.7729    0.0000 F   0  0  0  0  0  0  0  0  0  0  0  0
   -3.7548   -0.6981    0.0000 F   0  0  0  0  0  0  0  0  0  0  0  0
    2.6401    0.3056    0.0000 C   0  0  0  0  0  0  0  0  0  0  0  0
    2.9520    1.7729    0.0000 O   0  0  0  0  0  0  0  0  0  0  0  0
    3.7548   -0.6981    0.0000 O   0  0  0  0  0  0  0  0  0  0  0  0
  1  2  1  0
  2  3  1  0
  3  4  1  0
  4  5  1  0
  4  6  1  1
  6  7  1  0
  6  8  1  0
  2  9  1  1
  9 10  2  0
  9 11  1  0
  5  1  1  0
M  END
>  <rName>  (3242) 
Pro_4SCHF2

>  <PQ_SYMBOL>  (3242) 
Pro_4SCHF2

>  <FULL_NAME>  (3242) 
(2S,4S)-4-(Difluoromethyl)pyrrolidine-2-carboxylic acid

>  <IUPAC_CONDENSED>  (3242) 
Pro(4S-CHF2)

>  <IUPAC>  (3242) 
(2S,4S)-4-(difluoromethyl)pyrrolidine-2-carboxylic acid

>  <TYPE>  (3242) 
Backbone

>  <CLASS>  (3242) 
alpha

>  <ANALOG>  (3242) 
Pro

>  <MOL_WT>  (3242) 
165.139

>  <LOGP>  (3242) 
0.31419999999999976

>  <TPSA>  (3242) 
49.33

>  <POPULARITY>  (3242) 
2.2

>  <PROTECTED>  (3242) 
TRUE

>  <SMILES>  (3242) 
N1[C@@H](C[C@@H](C1)C(F)F)C(=O)O

>  <INCHIKEY>  (3242) 
BOBHSOVLPJOVJG-IMJSIDKUSA-N

$$$$
Pro_4SCN
     RDKit          2D

 10 10  0  0  0  0  0  0  0  0999 V2000
    0.5004   -1.5493    0.0000 N   0  0  0  0  0  0  0  0  0  0  0  0
    0.9507   -0.1185    0.0000 C   0  0  0  0  0  0  0  0  0  0  0  0
   -0.2710    0.7519    0.0000 C   0  0  0  0  0  0  0  0  0  0  0  0
   -1.4763   -0.1411    0.0000 C   0  0  0  0  0  0  0  0  0  0  0  0
   -2.9071    0.3091    0.0000 C   0  0  0  0  0  0  0  0  0  0  0  0
   -4.3380    0.7593    0.0000 N   0  0  0  0  0  0  0  0  0  0  0  0
   -0.9995   -1.5633    0.0000 C   0  0  0  0  0  0  0  0  0  0  0  0
    2.3729    0.3583    0.0000 C   0  0  0  0  0  0  0  0  0  0  0  0
    2.6710    1.8284    0.0000 O   0  0  0  0  0  0  0  0  0  0  0  0
    3.4969   -0.6349    0.0000 O   0  0  0  0  0  0  0  0  0  0  0  0
  1  2  1  0
  2  3  1  0
  3  4  1  0
  4  5  1  1
  5  6  3  0
  4  7  1  0
  2  8  1  1
  8  9  2  0
  8 10  1  0
  7  1  1  0
M  END
>  <rName>  (3243) 
Pro_4SCN

>  <PQ_SYMBOL>  (3243) 
Pro_4SCN

>  <FULL_NAME>  (3243) 
(2S,4S)-4-Cyanopyrrolidine-2-carboxylic acid

>  <IUPAC_CONDENSED>  (3243) 
Pro(4S-CN)

>  <IUPAC>  (3243) 
(2S,4S)-4-cyanopyrrolidine-2-carboxylic acid

>  <TYPE>  (3243) 
Backbone

>  <CLASS>  (3243) 
alpha

>  <ANALOG>  (3243) 
Pro

>  <MOL_WT>  (3243) 
140.14200000000002

>  <LOGP>  (3243) 
-0.42732

>  <TPSA>  (3243) 
73.12

>  <POPULARITY>  (3243) 
5.7

>  <PROTECTED>  (3243) 
TRUE

>  <SMILES>  (3243) 
N1[C@@H](C[C@H](C#N)C1)C(=O)O

>  <INCHIKEY>  (3243) 
ZMDXRGOZLRLRQN-UHNVWZDZSA-N

$$$$
Pro_4SCO2H
     RDKit          2D

 11 11  0  0  0  0  0  0  0  0999 V2000
    0.7500   -1.5845    0.0000 N   0  0  0  0  0  0  0  0  0  0  0  0
    1.2135   -0.1579    0.0000 C   0  0  0  0  0  0  0  0  0  0  0  0
    0.0000    0.7238    0.0000 C   0  0  0  0  0  0  0  0  0  0  0  0
   -1.2135   -0.1579    0.0000 C   0  0  0  0  0  0  0  0  0  0  0  0
   -0.7500   -1.5845    0.0000 C   0  0  0  0  0  0  0  0  0  0  0  0
   -2.6401    0.3056    0.0000 C   0  0  0  0  0  0  0  0  0  0  0  0
   -3.7548   -0.6981    0.0000 O   0  0  0  0  0  0  0  0  0  0  0  0
   -2.9520    1.7729    0.0000 O   0  0  0  0  0  0  0  0  0  0  0  0
    2.6401    0.3056    0.0000 C   0  0  0  0  0  0  0  0  0  0  0  0
    2.9520    1.7729    0.0000 O   0  0  0  0  0  0  0  0  0  0  0  0
    3.7548   -0.6981    0.0000 O   0  0  0  0  0  0  0  0  0  0  0  0
  1  2  1  0
  2  3  1  0
  3  4  1  0
  4  5  1  0
  4  6  1  1
  6  7  2  0
  6  8  1  0
  2  9  1  1
  9 10  2  0
  9 11  1  0
  5  1  1  0
M  END
>  <rName>  (3244) 
Pro_4SCO2H

>  <PQ_SYMBOL>  (3244) 
Pro_4SCO2H

>  <FULL_NAME>  (3244) 
L-cis-Pyrrolidine-2,4-dicarboxylic acid

>  <IUPAC_CONDENSED>  (3244) 
Pro(4S-CO2H)

>  <IUPAC>  (3244) 
(2S,4S)-pyrrolidine-2,4-dicarboxylic acid

>  <TYPE>  (3244) 
Backbone

>  <CLASS>  (3244) 
alpha

>  <ANALOG>  (3244) 
Pro

>  <MOL_WT>  (3244) 
159.141

>  <LOGP>  (3244) 
-0.8663000000000001

>  <TPSA>  (3244) 
86.63000000000001

>  <POPULARITY>  (3244) 
2.2

>  <PROTECTED>  (3244) 
TRUE

>  <SMILES>  (3244) 
N1[C@@H](C[C@@H](C1)C(=O)O)C(=O)O

>  <INCHIKEY>  (3244) 
NRSBQSJHFYZIPH-IMJSIDKUSA-N

$$$$
Pro_4SF
     RDKit          2D

  9  9  0  0  0  0  0  0  0  0999 V2000
   -0.1792   -1.4541    0.0000 N   0  0  0  0  0  0  0  0  0  0  0  0
    0.4598   -0.0969    0.0000 C   0  0  0  0  0  0  0  0  0  0  0  0
   -0.6334    0.9301    0.0000 C   0  0  0  0  0  0  0  0  0  0  0  0
   -1.9481    0.2077    0.0000 C   0  0  0  0  0  0  0  0  0  0  0  0
   -3.3052    0.8467    0.0000 F   0  0  0  0  0  0  0  0  0  0  0  0
   -1.6673   -1.2657    0.0000 C   0  0  0  0  0  0  0  0  0  0  0  0
    1.9333    0.1838    0.0000 C   0  0  0  0  0  0  0  0  0  0  0  0
    2.4269    1.6003    0.0000 O   0  0  0  0  0  0  0  0  0  0  0  0
    2.9132   -0.9519    0.0000 O   0  0  0  0  0  0  0  0  0  0  0  0
  1  2  1  0
  2  3  1  0
  3  4  1  0
  4  5  1  1
  4  6  1  0
  2  7  1  1
  7  8  2  0
  7  9  1  0
  6  1  1  0
M  END
>  <rName>  (3245) 
Pro_4SF

>  <PQ_SYMBOL>  (3245) 
Pro_4SF

>  <FULL_NAME>  (3245) 
cis-4-Fluoro-L-Proline

>  <IUPAC_CONDENSED>  (3245) 
Pro(4S-F)

>  <IUPAC>  (3245) 
(2S,4S)-4-fluoropyrrolidine-2-carboxylic acid

>  <TYPE>  (3245) 
Backbone

>  <CLASS>  (3245) 
alpha

>  <ANALOG>  (3245) 
Pro

>  <MOL_WT>  (3245) 
133.122

>  <LOGP>  (3245) 
-0.22900000000000015

>  <TPSA>  (3245) 
49.33

>  <POPULARITY>  (3245) 
17.0

>  <PROTECTED>  (3245) 
TRUE

>  <SMILES>  (3245) 
N1[C@@H](C[C@H](F)C1)C(=O)O

>  <INCHIKEY>  (3245) 
ZIWHMENIDGOELV-IMJSIDKUSA-N

$$$$
Pro_4SMe
     RDKit          2D

  9  9  0  0  0  0  0  0  0  0999 V2000
   -0.1792   -1.4541    0.0000 N   0  0  0  0  0  0  0  0  0  0  0  0
    0.4598   -0.0969    0.0000 C   0  0  0  0  0  0  0  0  0  0  0  0
   -0.6334    0.9301    0.0000 C   0  0  0  0  0  0  0  0  0  0  0  0
   -1.9481    0.2077    0.0000 C   0  0  0  0  0  0  0  0  0  0  0  0
   -3.3052    0.8467    0.0000 C   0  0  0  0  0  0  0  0  0  0  0  0
   -1.6673   -1.2657    0.0000 C   0  0  0  0  0  0  0  0  0  0  0  0
    1.9333    0.1838    0.0000 C   0  0  0  0  0  0  0  0  0  0  0  0
    2.4269    1.6003    0.0000 O   0  0  0  0  0  0  0  0  0  0  0  0
    2.9132   -0.9519    0.0000 O   0  0  0  0  0  0  0  0  0  0  0  0
  1  2  1  0
  2  3  1  0
  3  4  1  0
  4  5  1  1
  4  6  1  0
  2  7  1  1
  7  8  2  0
  7  9  1  0
  6  1  1  0
M  END
>  <rName>  (3246) 
Pro_4SMe

>  <PQ_SYMBOL>  (3246) 
Pro_4SMe

>  <FULL_NAME>  (3246) 
(2S,4S)-4-methylpyrrolidine-2-carboxylic acid

>  <IUPAC_CONDENSED>  (3246) 
Pro(4S-Me)

>  <IUPAC>  (3246) 
(2S,4S)-4-methylpyrrolidine-2-carboxylic acid

>  <TYPE>  (3246) 
Backbone

>  <CLASS>  (3246) 
alpha

>  <ANALOG>  (3246) 
Pro

>  <MOL_WT>  (3246) 
129.15900000000002

>  <LOGP>  (3246) 
0.06899999999999967

>  <TPSA>  (3246) 
49.33

>  <POPULARITY>  (3246) 
15.6

>  <PROTECTED>  (3246) 
TRUE

>  <SMILES>  (3246) 
N1[C@@H](C[C@H](C)C1)C(=O)O

>  <INCHIKEY>  (3246) 
KKJQZEWNZXRJFG-WHFBIAKZSA-N

$$$$
Pro_4SMeNH2
     RDKit          2D

 10 10  0  0  0  0  0  0  0  0999 V2000
    0.5059   -1.6189    0.0000 N   0  0  0  0  0  0  0  0  0  0  0  0
    0.8536   -0.1598    0.0000 C   0  0  0  0  0  0  0  0  0  0  0  0
   -0.4267    0.6218    0.0000 C   0  0  0  0  0  0  0  0  0  0  0  0
   -1.5656   -0.3543    0.0000 C   0  0  0  0  0  0  0  0  0  0  0  0
   -3.0248   -0.0066    0.0000 C   0  0  0  0  0  0  0  0  0  0  0  0
   -3.4533    1.4309    0.0000 N   0  0  0  0  0  0  0  0  0  0  0  0
   -0.9893   -1.7392    0.0000 C   0  0  0  0  0  0  0  0  0  0  0  0
    2.2384    0.4166    0.0000 C   0  0  0  0  0  0  0  0  0  0  0  0
    2.4317    1.9041    0.0000 O   0  0  0  0  0  0  0  0  0  0  0  0
    3.4300   -0.4945    0.0000 O   0  0  0  0  0  0  0  0  0  0  0  0
  1  2  1  0
  2  3  1  0
  3  4  1  0
  4  5  1  6
  5  6  1  0
  4  7  1  0
  2  8  1  1
  8  9  2  0
  8 10  1  0
  7  1  1  0
M  END
>  <rName>  (3247) 
Pro_4SMeNH2

>  <PQ_SYMBOL>  (3247) 
Pro_4SMeNH2

>  <FULL_NAME>  (3247) 
trans-4-Aminomethyl-L-proline

>  <IUPAC_CONDENSED>  (3247) 
Pro(4S-MeNH2)

>  <IUPAC>  (3247) 
(2S,4S)-4-(aminomethyl)pyrrolidine-2-carboxylic acid

>  <TYPE>  (3247) 
Backbone

>  <CLASS>  (3247) 
alpha

>  <ANALOG>  (3247) 
Pro

>  <MOL_WT>  (3247) 
144.17400000000004

>  <LOGP>  (3247) 
-0.9921999999999993

>  <TPSA>  (3247) 
75.35

>  <POPULARITY>  (3247) 
2.2

>  <PROTECTED>  (3247) 
TRUE

>  <SMILES>  (3247) 
N1[C@@H](C[C@@H](CN)C1)C(=O)O

>  <INCHIKEY>  (3247) 
XKVIHRYANZKLQC-WHFBIAKZSA-N

$$$$
Pro_4SMeOH
     RDKit          2D

 10 10  0  0  0  0  0  0  0  0999 V2000
    0.5059   -1.6189    0.0000 N   0  0  0  0  0  0  0  0  0  0  0  0
    0.8536   -0.1598    0.0000 C   0  0  0  0  0  0  0  0  0  0  0  0
   -0.4267    0.6218    0.0000 C   0  0  0  0  0  0  0  0  0  0  0  0
   -1.5656   -0.3543    0.0000 C   0  0  0  0  0  0  0  0  0  0  0  0
   -3.0248   -0.0066    0.0000 C   0  0  0  0  0  0  0  0  0  0  0  0
   -3.4533    1.4309    0.0000 O   0  0  0  0  0  0  0  0  0  0  0  0
   -0.9893   -1.7392    0.0000 C   0  0  0  0  0  0  0  0  0  0  0  0
    2.2384    0.4166    0.0000 C   0  0  0  0  0  0  0  0  0  0  0  0
    2.4317    1.9041    0.0000 O   0  0  0  0  0  0  0  0  0  0  0  0
    3.4300   -0.4945    0.0000 O   0  0  0  0  0  0  0  0  0  0  0  0
  1  2  1  0
  2  3  1  0
  3  4  1  0
  4  5  1  1
  5  6  1  0
  4  7  1  0
  2  8  1  1
  8  9  2  0
  8 10  1  0
  7  1  1  0
M  END
>  <rName>  (3248) 
Pro_4SMeOH

>  <PQ_SYMBOL>  (3248) 
Pro_4SMeOH

>  <FULL_NAME>  (3248) 
L-Proline, 4-(hydroxymethyl)-, cis-

>  <IUPAC_CONDENSED>  (3248) 
Pro(4S-MeOH)

>  <IUPAC>  (3248) 
(2S,4S)-4-(hydroxymethyl)pyrrolidine-2-carboxylic acid

>  <TYPE>  (3248) 
Backbone

>  <CLASS>  (3248) 
alpha

>  <ANALOG>  (3248) 
Pro

>  <MOL_WT>  (3248) 
145.15800000000002

>  <LOGP>  (3248) 
-0.9586000000000001

>  <TPSA>  (3248) 
69.56

>  <POPULARITY>  (3248) 
2.2

>  <PROTECTED>  (3248) 
TRUE

>  <SMILES>  (3248) 
N1[C@@H](C[C@H](CO)C1)C(=O)O

>  <INCHIKEY>  (3248) 
CISMGNUPDUKNQK-WHFBIAKZSA-N

$$$$
Pro_4SN3
     RDKit          2D

 11 11  0  0  0  0  0  0  0  0999 V2000
    1.2535   -1.6430    0.0000 N   0  0  0  0  0  0  0  0  0  0  0  0
    1.2696   -0.1431    0.0000 C   0  0  0  0  0  0  0  0  0  0  0  0
   -0.1519    0.3357    0.0000 C   0  0  0  0  0  0  0  0  0  0  0  0
   -1.0466   -0.8682    0.0000 C   0  0  0  0  0  0  0  0  0  0  0  0
   -0.1780   -2.0912    0.0000 C   0  0  0  0  0  0  0  0  0  0  0  0
   -2.5465   -0.8521    0.0000 N   0  0  0  0  0  0  0  0  0  0  0  0
   -3.2825    0.4549    0.0000 N   0  0  0  0  0  0  0  0  0  0  0  0
   -4.0185    1.7619    0.0000 N   0  0  0  0  0  0  0  0  0  0  0  0
    2.4926    0.7255    0.0000 C   0  0  0  0  0  0  0  0  0  0  0  0
    2.3518    2.2189    0.0000 O   0  0  0  0  0  0  0  0  0  0  0  0
    3.8563    0.1007    0.0000 O   0  0  0  0  0  0  0  0  0  0  0  0
  1  2  1  0
  2  3  1  0
  3  4  1  0
  4  5  1  0
  4  6  1  1
  6  7  1  0
  7  8  3  0
  2  9  1  1
  9 10  2  0
  9 11  1  0
  5  1  1  0
M  CHG  2   6  -1   7   1
M  END
>  <rName>  (3249) 
Pro_4SN3

>  <PQ_SYMBOL>  (3249) 
Pro_4SN3

>  <FULL_NAME>  (3249) 
(2S,4S)-4-azidopyrrolidine-2-carboxylic acid

>  <IUPAC_CONDENSED>  (3249) 
Pro(4S-N3)

>  <IUPAC>  (3249) 
(2S,4S)-4-azidopyrrolidine-2-carboxylic acid

>  <TYPE>  (3249) 
Backbone

>  <CLASS>  (3249) 
alpha

>  <ANALOG>  (3249) 
Pro

>  <MOL_WT>  (3249) 
156.14500000000004

>  <LOGP>  (3249) 
-0.05672000000000038

>  <TPSA>  (3249) 
91.58

>  <POPULARITY>  (3249) 
10.6

>  <PROTECTED>  (3249) 
TRUE

>  <SMILES>  (3249) 
N1[C@@H](C[C@@H](C1)[N-][N+]#N)C(=O)O

>  <INCHIKEY>  (3249) 
PPRFZPZRQYPCER-IMJSIDKUSA-N

$$$$
Pro_4SNHAc
     RDKit          2D

 12 12  0  0  0  0  0  0  0  0999 V2000
    1.5111   -1.6952    0.0000 N   0  0  0  0  0  0  0  0  0  0  0  0
    1.5414   -0.1955    0.0000 C   0  0  0  0  0  0  0  0  0  0  0  0
    0.1245    0.2967    0.0000 C   0  0  0  0  0  0  0  0  0  0  0  0
   -0.7815   -0.8988    0.0000 C   0  0  0  0  0  0  0  0  0  0  0  0
    0.0755   -2.1299    0.0000 C   0  0  0  0  0  0  0  0  0  0  0  0
   -2.2812   -0.8686    0.0000 N   0  0  0  0  0  0  0  0  0  0  0  0
   -3.0049    0.4453    0.0000 C   0  0  0  0  0  0  0  0  0  0  0  0
   -2.2288    1.7290    0.0000 O   0  0  0  0  0  0  0  0  0  0  0  0
   -4.5046    0.4756    0.0000 C   0  0  0  0  0  0  0  0  0  0  0  0
    2.7725    0.6615    0.0000 C   0  0  0  0  0  0  0  0  0  0  0  0
    2.6458    2.1561    0.0000 O   0  0  0  0  0  0  0  0  0  0  0  0
    4.1302    0.0239    0.0000 O   0  0  0  0  0  0  0  0  0  0  0  0
  1  2  1  0
  2  3  1  0
  3  4  1  0
  4  5  1  0
  4  6  1  1
  6  7  1  0
  7  8  2  0
  7  9  1  0
  2 10  1  1
 10 11  2  0
 10 12  1  0
  5  1  1  0
M  END
>  <rName>  (3250) 
Pro_4SNHAc

>  <PQ_SYMBOL>  (3250) 
Pro_4SNHAc

>  <FULL_NAME>  (3250) 
(2S,4S)-4-acetamidopyrrolidine-2-carboxylic acid

>  <IUPAC_CONDENSED>  (3250) 
Pro(4S-NHAc)

>  <IUPAC>  (3250) 
(2S,4S)-4-acetamidopyrrolidine-2-carboxylic acid

>  <TYPE>  (3250) 
Backbone

>  <CLASS>  (3250) 
alpha

>  <ANALOG>  (3250) 
Pro

>  <MOL_WT>  (3250) 
172.184

>  <LOGP>  (3250) 
-1.0623999999999993

>  <TPSA>  (3250) 
78.42999999999999

>  <POPULARITY>  (3250) 
2.2

>  <PROTECTED>  (3250) 
TRUE

>  <SMILES>  (3250) 
N1[C@@H](C[C@@H](C1)NC(=O)C)C(=O)O

>  <INCHIKEY>  (3250) 
VPBHJVNVTZAFLN-WDSKDSINSA-N

$$$$
Pro_4SNHMe
     RDKit          2D

 10 10  0  0  0  0  0  0  0  0999 V2000
    0.5059   -1.6189    0.0000 N   0  0  0  0  0  0  0  0  0  0  0  0
    0.8536   -0.1598    0.0000 C   0  0  0  0  0  0  0  0  0  0  0  0
   -0.4267    0.6218    0.0000 C   0  0  0  0  0  0  0  0  0  0  0  0
   -1.5656   -0.3543    0.0000 C   0  0  0  0  0  0  0  0  0  0  0  0
   -0.9893   -1.7392    0.0000 C   0  0  0  0  0  0  0  0  0  0  0  0
   -3.0248   -0.0066    0.0000 N   0  0  0  0  0  0  0  0  0  0  0  0
   -3.4533    1.4309    0.0000 C   0  0  0  0  0  0  0  0  0  0  0  0
    2.2384    0.4166    0.0000 C   0  0  0  0  0  0  0  0  0  0  0  0
    2.4317    1.9041    0.0000 O   0  0  0  0  0  0  0  0  0  0  0  0
    3.4300   -0.4945    0.0000 O   0  0  0  0  0  0  0  0  0  0  0  0
  1  2  1  0
  2  3  1  0
  3  4  1  0
  4  5  1  0
  4  6  1  1
  6  7  1  0
  2  8  1  1
  8  9  2  0
  8 10  1  0
  5  1  1  0
M  END
>  <rName>  (3251) 
Pro_4SNHMe

>  <PQ_SYMBOL>  (3251) 
Pro_4SNHMe

>  <FULL_NAME>  (3251) 
(2S,4S)-4-(methylamino)pyrrolidine-2-carboxylic acid

>  <IUPAC_CONDENSED>  (3251) 
Pro(4S-NHMe)

>  <IUPAC>  (3251) 
(2S,4S)-4-(methylamino)pyrrolidine-2-carboxylic acid

>  <TYPE>  (3251) 
Backbone

>  <CLASS>  (3251) 
alpha

>  <ANALOG>  (3251) 
Pro

>  <MOL_WT>  (3251) 
144.174

>  <LOGP>  (3251) 
-0.9790999999999992

>  <TPSA>  (3251) 
61.36

>  <POPULARITY>  (3251) 
2.2

>  <PROTECTED>  (3251) 
TRUE

>  <SMILES>  (3251) 
N1[C@@H](C[C@@H](C1)NC)C(=O)O

>  <INCHIKEY>  (3251) 
QUIYGOLXUFVTHU-WHFBIAKZSA-N

$$$$
Pro_4SNMe2
     RDKit          2D

 11 11  0  0  0  0  0  0  0  0999 V2000
    0.7500   -1.5845    0.0000 N   0  0  0  0  0  0  0  0  0  0  0  0
    1.2135   -0.1579    0.0000 C   0  0  0  0  0  0  0  0  0  0  0  0
    0.0000    0.7238    0.0000 C   0  0  0  0  0  0  0  0  0  0  0  0
   -1.2135   -0.1579    0.0000 C   0  0  0  0  0  0  0  0  0  0  0  0
   -0.7500   -1.5845    0.0000 C   0  0  0  0  0  0  0  0  0  0  0  0
   -2.6401    0.3056    0.0000 N   0  0  0  0  0  0  0  0  0  0  0  0
   -2.9520    1.7729    0.0000 C   0  0  0  0  0  0  0  0  0  0  0  0
   -3.7548   -0.6981    0.0000 C   0  0  0  0  0  0  0  0  0  0  0  0
    2.6401    0.3056    0.0000 C   0  0  0  0  0  0  0  0  0  0  0  0
    2.9520    1.7729    0.0000 O   0  0  0  0  0  0  0  0  0  0  0  0
    3.7548   -0.6981    0.0000 O   0  0  0  0  0  0  0  0  0  0  0  0
  1  2  1  0
  2  3  1  0
  3  4  1  0
  4  5  1  0
  4  6  1  1
  6  7  1  0
  6  8  1  0
  2  9  1  1
  9 10  2  0
  9 11  1  0
  5  1  1  0
M  END
>  <rName>  (3252) 
Pro_4SNMe2

>  <PQ_SYMBOL>  (3252) 
Pro_4SNMe2

>  <FULL_NAME>  (3252) 
(2s,4s)-4-(Dimethylamino)pyrrolidine-2-carboxylic acid

>  <IUPAC_CONDENSED>  (3252) 
Pro(4S-NMe2)

>  <IUPAC>  (3252) 
(2S,4S)-4-(dimethylamino)pyrrolidine-2-carboxylic acid

>  <TYPE>  (3252) 
Backbone

>  <CLASS>  (3252) 
alpha

>  <ANALOG>  (3252) 
Pro

>  <MOL_WT>  (3252) 
158.20100000000002

>  <LOGP>  (3252) 
-0.6369

>  <TPSA>  (3252) 
52.57000000000001

>  <POPULARITY>  (3252) 
2.2

>  <PROTECTED>  (3252) 
TRUE

>  <SMILES>  (3252) 
N1[C@@H](C[C@@H](C1)N(C)C)C(=O)O

>  <INCHIKEY>  (3252) 
TYSMGLNAVKBLPB-WDSKDSINSA-N

$$$$
Pro_4SNMe3
     RDKit          2D

 12 12  0  0  0  0  0  0  0  0999 V2000
    0.9909   -1.5972    0.0000 N   0  0  0  0  0  0  0  0  0  0  0  0
    1.4358   -0.1647    0.0000 C   0  0  0  0  0  0  0  0  0  0  0  0
    0.2109    0.7011    0.0000 C   0  0  0  0  0  0  0  0  0  0  0  0
   -0.9910   -0.1963    0.0000 C   0  0  0  0  0  0  0  0  0  0  0  0
   -0.5090   -1.6167    0.0000 C   0  0  0  0  0  0  0  0  0  0  0  0
   -2.4235    0.2487    0.0000 N   0  0  0  0  0  0  0  0  0  0  0  0
   -1.9786    1.6812    0.0000 C   0  0  0  0  0  0  0  0  0  0  0  0
   -2.8685   -1.1838    0.0000 C   0  0  0  0  0  0  0  0  0  0  0  0
   -3.8560    0.6936    0.0000 C   0  0  0  0  0  0  0  0  0  0  0  0
    2.8562    0.3173    0.0000 C   0  0  0  0  0  0  0  0  0  0  0  0
    3.1490    1.7885    0.0000 O   0  0  0  0  0  0  0  0  0  0  0  0
    3.9839   -0.6718    0.0000 O   0  0  0  0  0  0  0  0  0  0  0  0
  1  2  1  0
  2  3  1  0
  3  4  1  0
  4  5  1  0
  4  6  1  1
  6  7  1  0
  6  8  1  0
  6  9  1  0
  2 10  1  1
 10 11  2  0
 10 12  1  0
  5  1  1  0
M  CHG  1   6   1
M  END
>  <rName>  (3253) 
Pro_4SNMe3

>  <PQ_SYMBOL>  (3253) 
Pro_4SNMe3

>  <FULL_NAME>  (3253) 
Pro(4S-NMe3+)

>  <IUPAC_CONDENSED>  (3253) 
Pro(4S-NMe3+)

>  <IUPAC>  (3253) 
(2S,4S)-4-(trimethylammonio)pyrrolidine-2-carboxylic acid

>  <TYPE>  (3253) 
Backbone

>  <CLASS>  (3253) 
alpha

>  <ANALOG>  (3253) 
Pro

>  <MOL_WT>  (3253) 
173.236

>  <LOGP>  (3253) 
-0.4922999999999998

>  <TPSA>  (3253) 
49.33

>  <POPULARITY>  (3253) 
2.2

>  <PROTECTED>  (3253) 
TRUE

>  <SMILES>  (3253) 
N1[C@@H](C[C@@H](C1)[N+](C)(C)C)C(=O)O

>  <INCHIKEY>  (3253) 
MCFWAXADWAVOAQ-BQBZGAKWSA-O

$$$$
Pro_4SOMe
     RDKit          2D

 11 11  0  0  0  0  0  0  0  0999 V2000
    1.1920   -1.6300    0.0000 N   0  0  0  0  0  0  0  0  0  0  0  0
    1.3323   -0.1366    0.0000 C   0  0  0  0  0  0  0  0  0  0  0  0
   -0.0446    0.4584    0.0000 C   0  0  0  0  0  0  0  0  0  0  0  0
   -1.0360   -0.6674    0.0000 C   0  0  0  0  0  0  0  0  0  0  0  0
   -0.2717   -1.9580    0.0000 C   0  0  0  0  0  0  0  0  0  0  0  0
   -2.5294   -0.5270    0.0000 C   0  0  0  0  0  0  0  0  0  0  0  0
   -3.1546    0.8365    0.0000 O   0  0  0  0  0  0  0  0  0  0  0  0
   -4.6480    0.9768    0.0000 C   0  0  0  0  0  0  0  0  0  0  0  0
    2.6230    0.6277    0.0000 C   0  0  0  0  0  0  0  0  0  0  0  0
    2.6065    2.1276    0.0000 O   0  0  0  0  0  0  0  0  0  0  0  0
    3.9303   -0.1079    0.0000 O   0  0  0  0  0  0  0  0  0  0  0  0
  1  2  1  0
  2  3  1  0
  3  4  1  0
  4  5  1  0
  4  6  1  1
  6  7  1  0
  7  8  1  0
  2  9  1  1
  9 10  2  0
  9 11  1  0
  5  1  1  0
M  END
>  <rName>  (3254) 
Pro_4SOMe

>  <PQ_SYMBOL>  (3254) 
Pro_4SOMe

>  <FULL_NAME>  (3254) 
(2S,4S)-4-(methoxymethyl)pyrrolidine-2-carboxylic acid

>  <IUPAC_CONDENSED>  (3254) 
Pro(4S-OMe)

>  <IUPAC>  (3254) 
(2S,4S)-4-(methoxymethyl)pyrrolidine-2-carboxylic acid

>  <TYPE>  (3254) 
Backbone

>  <CLASS>  (3254) 
alpha

>  <ANALOG>  (3254) 
Pro

>  <MOL_WT>  (3254) 
159.185

>  <LOGP>  (3254) 
-0.30450000000000027

>  <TPSA>  (3254) 
58.56

>  <POPULARITY>  (3254) 
6.2

>  <PROTECTED>  (3254) 
TRUE

>  <SMILES>  (3254) 
N1[C@@H](C[C@@H](C1)COC)C(=O)O

>  <INCHIKEY>  (3254) 
NEGCDNJQEDCABL-WDSKDSINSA-N

$$$$
Pro_4SPh
     RDKit          2D

 14 15  0  0  0  0  0  0  0  0999 V2000
   -2.0158    1.6013    0.0000 N   0  0  0  0  0  0  0  0  0  0  0  0
   -2.3178    0.1320    0.0000 C   0  0  0  0  0  0  0  0  0  0  0  0
   -1.0138   -0.6092    0.0000 C   0  0  0  0  0  0  0  0  0  0  0  0
    0.0942    0.4019    0.0000 C   0  0  0  0  0  0  0  0  0  0  0  0
   -0.5251    1.7681    0.0000 C   0  0  0  0  0  0  0  0  0  0  0  0
    1.5635    0.0999    0.0000 C   0  0  0  0  0  0  0  0  0  0  0  0
    2.0365   -1.3236    0.0000 C   0  0  0  0  0  0  0  0  0  0  0  0
    3.5058   -1.6256    0.0000 C   0  0  0  0  0  0  0  0  0  0  0  0
    4.5020   -0.5042    0.0000 C   0  0  0  0  0  0  0  0  0  0  0  0
    4.0290    0.9192    0.0000 C   0  0  0  0  0  0  0  0  0  0  0  0
    2.5597    1.2213    0.0000 C   0  0  0  0  0  0  0  0  0  0  0  0
   -3.6840   -0.4872    0.0000 C   0  0  0  0  0  0  0  0  0  0  0  0
   -3.8308   -1.9800    0.0000 O   0  0  0  0  0  0  0  0  0  0  0  0
   -4.9034    0.3863    0.0000 O   0  0  0  0  0  0  0  0  0  0  0  0
  1  2  1  0
  2  3  1  0
  3  4  1  0
  4  5  1  0
  4  6  1  6
  6  7  2  0
  7  8  1  0
  8  9  2  0
  9 10  1  0
 10 11  2  0
  2 12  1  1
 12 13  2  0
 12 14  1  0
  5  1  1  0
 11  6  1  0
M  END
>  <rName>  (3255) 
Pro_4SPh

>  <PQ_SYMBOL>  (3255) 
Pro_4SPh

>  <FULL_NAME>  (3255) 
(4S)-4-Phenyl-L-Proline

>  <IUPAC_CONDENSED>  (3255) 
Pro(4S-Ph)

>  <IUPAC>  (3255) 
(2S,4S)-4-phenylpyrrolidine-2-carboxylic acid

>  <TYPE>  (3255) 
Backbone

>  <CLASS>  (3255) 
alpha

>  <ANALOG>  (3255) 
Pro

>  <MOL_WT>  (3255) 
191.23

>  <LOGP>  (3255) 
1.2167

>  <TPSA>  (3255) 
49.33

>  <POPULARITY>  (3255) 
12.5

>  <PROTECTED>  (3255) 
TRUE

>  <SMILES>  (3255) 
N1[C@@H](C[C@H](C1)c2(ccccc2))C(=O)O

>  <INCHIKEY>  (3255) 
JHHOFXBPLJDHOR-ZJUUUORDSA-N

$$$$
Pro_4SSH
     RDKit          2D

  9  9  0  0  0  0  0  0  0  0999 V2000
   -0.1792   -1.4541    0.0000 N   0  0  0  0  0  0  0  0  0  0  0  0
    0.4598   -0.0969    0.0000 C   0  0  0  0  0  0  0  0  0  0  0  0
   -0.6334    0.9301    0.0000 C   0  0  0  0  0  0  0  0  0  0  0  0
   -1.9481    0.2077    0.0000 C   0  0  0  0  0  0  0  0  0  0  0  0
   -3.3052    0.8467    0.0000 S   0  0  0  0  0  0  0  0  0  0  0  0
   -1.6673   -1.2657    0.0000 C   0  0  0  0  0  0  0  0  0  0  0  0
    1.9333    0.1838    0.0000 C   0  0  0  0  0  0  0  0  0  0  0  0
    2.4269    1.6003    0.0000 O   0  0  0  0  0  0  0  0  0  0  0  0
    2.9132   -0.9519    0.0000 O   0  0  0  0  0  0  0  0  0  0  0  0
  1  2  1  0
  2  3  1  0
  3  4  1  0
  4  5  1  1
  4  6  1  0
  2  7  1  1
  7  8  2  0
  7  9  1  0
  6  1  1  0
M  END
>  <rName>  (3256) 
Pro_4SSH

>  <PQ_SYMBOL>  (3256) 
Pro_4SSH

>  <FULL_NAME>  (3256) 
(2S,4S)-4-sulfanylpyrrolidine-2-carboxylic acid

>  <IUPAC_CONDENSED>  (3256) 
Pro(4S-SH)

>  <IUPAC>  (3256) 
(2S,4S)-4-sulfanylpyrrolidine-2-carboxylic acid

>  <TYPE>  (3256) 
Backbone

>  <CLASS>  (3256) 
alpha

>  <ANALOG>  (3256) 
Pro

>  <MOL_WT>  (3256) 
147.199

>  <LOGP>  (3256) 
-0.2687

>  <TPSA>  (3256) 
49.33

>  <POPULARITY>  (3256) 
16.1

>  <PROTECTED>  (3256) 
TRUE

>  <SMILES>  (3256) 
N1[C@@H](C[C@H](S)C1)C(=O)O

>  <INCHIKEY>  (3256) 
OYNANFOWNSGDJL-IMJSIDKUSA-N

$$$$
Pro_4SSMe
     RDKit          2D

 10 10  0  0  0  0  0  0  0  0999 V2000
    0.5059   -1.6189    0.0000 N   0  0  0  0  0  0  0  0  0  0  0  0
    0.8536   -0.1598    0.0000 C   0  0  0  0  0  0  0  0  0  0  0  0
   -0.4267    0.6218    0.0000 C   0  0  0  0  0  0  0  0  0  0  0  0
   -1.5656   -0.3543    0.0000 C   0  0  0  0  0  0  0  0  0  0  0  0
   -0.9893   -1.7392    0.0000 C   0  0  0  0  0  0  0  0  0  0  0  0
   -3.0248   -0.0066    0.0000 S   0  0  0  0  0  0  0  0  0  0  0  0
   -3.4533    1.4309    0.0000 C   0  0  0  0  0  0  0  0  0  0  0  0
    2.2384    0.4166    0.0000 C   0  0  0  0  0  0  0  0  0  0  0  0
    2.4317    1.9041    0.0000 O   0  0  0  0  0  0  0  0  0  0  0  0
    3.4300   -0.4945    0.0000 O   0  0  0  0  0  0  0  0  0  0  0  0
  1  2  1  0
  2  3  1  0
  3  4  1  0
  4  5  1  0
  4  6  1  1
  6  7  1  0
  2  8  1  1
  8  9  2  0
  8 10  1  0
  5  1  1  0
M  END
>  <rName>  (3257) 
Pro_4SSMe

>  <PQ_SYMBOL>  (3257) 
Pro_4SSMe

>  <FULL_NAME>  (3257) 
(2S,4S)-4-(Methylthio)pyrrolidine-2-carboxylic acid

>  <IUPAC_CONDENSED>  (3257) 
Pro(4S-SMe)

>  <IUPAC>  (3257) 
(2S,4S)-4-(methylsulfanyl)pyrrolidine-2-carboxylic acid

>  <TYPE>  (3257) 
Backbone

>  <CLASS>  (3257) 
alpha

>  <ANALOG>  (3257) 
Pro

>  <MOL_WT>  (3257) 
161.226

>  <LOGP>  (3257) 
0.16450000000000004

>  <TPSA>  (3257) 
49.33

>  <POPULARITY>  (3257) 
11.3

>  <PROTECTED>  (3257) 
TRUE

>  <SMILES>  (3257) 
N1[C@@H](C[C@@H](C1)SC)C(=O)O

>  <INCHIKEY>  (3257) 
KZLPQCNSZCKHAI-WHFBIAKZSA-N

$$$$
Pro_4Sallyl
     RDKit          2D

 11 11  0  0  0  0  0  0  0  0999 V2000
    1.1920   -1.6300    0.0000 N   0  0  0  0  0  0  0  0  0  0  0  0
    1.3323   -0.1366    0.0000 C   0  0  0  0  0  0  0  0  0  0  0  0
   -0.0446    0.4584    0.0000 C   0  0  0  0  0  0  0  0  0  0  0  0
   -1.0360   -0.6674    0.0000 C   0  0  0  0  0  0  0  0  0  0  0  0
   -2.5294   -0.5270    0.0000 C   0  0  0  0  0  0  0  0  0  0  0  0
   -3.1546    0.8365    0.0000 C   0  0  0  0  0  0  0  0  0  0  0  0
   -4.6480    0.9768    0.0000 C   0  0  0  0  0  0  0  0  0  0  0  0
   -0.2717   -1.9580    0.0000 C   0  0  0  0  0  0  0  0  0  0  0  0
    2.6230    0.6277    0.0000 C   0  0  0  0  0  0  0  0  0  0  0  0
    2.6065    2.1276    0.0000 O   0  0  0  0  0  0  0  0  0  0  0  0
    3.9303   -0.1079    0.0000 O   0  0  0  0  0  0  0  0  0  0  0  0
  1  2  1  0
  2  3  1  0
  3  4  1  0
  4  5  1  1
  5  6  1  0
  6  7  2  0
  4  8  1  0
  2  9  1  1
  9 10  2  0
  9 11  1  0
  8  1  1  0
M  END
>  <rName>  (3258) 
Pro_4Sallyl

>  <PQ_SYMBOL>  (3258) 
Pro_4Sallyl

>  <FULL_NAME>  (3258) 
(2S,4S)-4-prop-2-enylpyrrolidine-2-carboxylic acid

>  <IUPAC_CONDENSED>  (3258) 
Pro(4S-allyl)

>  <IUPAC>  (3258) 
(2S,4S)-4-prop-2-enylpyrrolidine-2-carboxylic acid

>  <TYPE>  (3258) 
Backbone

>  <CLASS>  (3258) 
alpha

>  <ANALOG>  (3258) 
Pro

>  <MOL_WT>  (3258) 
155.197

>  <LOGP>  (3258) 
0.6251999999999998

>  <TPSA>  (3258) 
49.33

>  <POPULARITY>  (3258) 
2.2

>  <PROTECTED>  (3258) 
TRUE

>  <SMILES>  (3258) 
N1[C@@H](C[C@H](CC=C)C1)C(=O)O

>  <INCHIKEY>  (3258) 
JMWRIQIIDLNILM-BQBZGAKWSA-N

$$$$
Pro_4Samino
     RDKit          2D

  9  9  0  0  0  0  0  0  0  0999 V2000
   -0.1792   -1.4541    0.0000 N   0  0  0  0  0  0  0  0  0  0  0  0
    0.4598   -0.0969    0.0000 C   0  0  0  0  0  0  0  0  0  0  0  0
   -0.6334    0.9301    0.0000 C   0  0  0  0  0  0  0  0  0  0  0  0
   -1.9481    0.2077    0.0000 C   0  0  0  0  0  0  0  0  0  0  0  0
   -3.3052    0.8467    0.0000 N   0  0  0  0  0  0  0  0  0  0  0  0
   -1.6673   -1.2657    0.0000 C   0  0  0  0  0  0  0  0  0  0  0  0
    1.9333    0.1838    0.0000 C   0  0  0  0  0  0  0  0  0  0  0  0
    2.4269    1.6003    0.0000 O   0  0  0  0  0  0  0  0  0  0  0  0
    2.9132   -0.9519    0.0000 O   0  0  0  0  0  0  0  0  0  0  0  0
  1  2  1  0
  2  3  1  0
  3  4  1  0
  4  5  1  1
  4  6  1  0
  2  7  1  1
  7  8  2  0
  7  9  1  0
  6  1  1  0
M  END
>  <rName>  (3259) 
Pro_4Samino

>  <PQ_SYMBOL>  (3259) 
Pro_4Samino

>  <FULL_NAME>  (3259) 
(4S)-4-Amino-L-Proline

>  <IUPAC_CONDENSED>  (3259) 
Pro(4S-amino)

>  <IUPAC>  (3259) 
(2S,4S)-4-aminopyrrolidine-2-carboxylic acid

>  <TYPE>  (3259) 
Backbone

>  <CLASS>  (3259) 
alpha

>  <ANALOG>  (3259) 
Pro

>  <MOL_WT>  (3259) 
130.14700000000002

>  <LOGP>  (3259) 
-1.2397999999999993

>  <TPSA>  (3259) 
75.35

>  <POPULARITY>  (3259) 
23.6

>  <PROTECTED>  (3259) 
TRUE

>  <SMILES>  (3259) 
N1[C@@H](C[C@H](N)C1)C(=O)O

>  <INCHIKEY>  (3259) 
SHINASQYHDCLEU-IMJSIDKUSA-N

$$$$
Pro_4ScBu
     RDKit          2D

 13 14  0  0  0  0  0  0  0  0999 V2000
    2.1170   -1.6073    0.0000 N   0  0  0  0  0  0  0  0  0  0  0  0
    1.9158   -0.1209    0.0000 C   0  0  0  0  0  0  0  0  0  0  0  0
    0.4400    0.1472    0.0000 C   0  0  0  0  0  0  0  0  0  0  0  0
   -0.2710   -1.1736    0.0000 C   0  0  0  0  0  0  0  0  0  0  0  0
    0.7654   -2.2580    0.0000 C   0  0  0  0  0  0  0  0  0  0  0  0
   -1.7575   -1.3748    0.0000 C   0  0  0  0  0  0  0  0  0  0  0  0
   -2.6749   -0.1881    0.0000 C   0  0  0  0  0  0  0  0  0  0  0  0
   -2.4845    1.2998    0.0000 C   0  0  0  0  0  0  0  0  0  0  0  0
   -3.9723    1.4902    0.0000 C   0  0  0  0  0  0  0  0  0  0  0  0
   -4.1628    0.0023    0.0000 C   0  0  0  0  0  0  0  0  0  0  0  0
    3.0001    0.9156    0.0000 C   0  0  0  0  0  0  0  0  0  0  0  0
    2.6447    2.3729    0.0000 O   0  0  0  0  0  0  0  0  0  0  0  0
    4.4399    0.4948    0.0000 O   0  0  0  0  0  0  0  0  0  0  0  0
  1  2  1  0
  2  3  1  0
  3  4  1  0
  4  5  1  0
  4  6  1  1
  6  7  1  0
  7  8  1  0
  8  9  1  0
  9 10  1  0
  2 11  1  1
 11 12  2  0
 11 13  1  0
  5  1  1  0
 10  7  1  0
M  END
>  <rName>  (3260) 
Pro_4ScBu

>  <PQ_SYMBOL>  (3260) 
Pro_4ScBu

>  <FULL_NAME>  (3260) 
rac-(2R,4R)-4-(cyclobutylmethyl)pyrrolidine-2-carboxylic acid

>  <IUPAC_CONDENSED>  (3260) 
Pro(4S-cBu)

>  <IUPAC>  (3260) 
(2S,4S)-4-(cyclobutylmethyl)pyrrolidine-2-carboxylic acid

>  <TYPE>  (3260) 
Backbone

>  <CLASS>  (3260) 
alpha

>  <ANALOG>  (3260) 
Pro

>  <MOL_WT>  (3260) 
183.251

>  <LOGP>  (3260) 
1.2392999999999998

>  <TPSA>  (3260) 
49.33

>  <POPULARITY>  (3260) 
6.1

>  <PROTECTED>  (3260) 
TRUE

>  <SMILES>  (3260) 
N1[C@@H](C[C@@H](C1)CC2(CCC2))C(=O)O

>  <INCHIKEY>  (3260) 
NDBSPNIEEGBEQF-IUCAKERBSA-N

$$$$
Pro_4ScHex
     RDKit          2D

 14 15  0  0  0  0  0  0  0  0999 V2000
   -2.0158    1.6013    0.0000 N   0  0  0  0  0  0  0  0  0  0  0  0
   -2.3178    0.1320    0.0000 C   0  0  0  0  0  0  0  0  0  0  0  0
   -1.0138   -0.6092    0.0000 C   0  0  0  0  0  0  0  0  0  0  0  0
    0.0942    0.4019    0.0000 C   0  0  0  0  0  0  0  0  0  0  0  0
   -0.5251    1.7681    0.0000 C   0  0  0  0  0  0  0  0  0  0  0  0
    1.5635    0.0999    0.0000 C   0  0  0  0  0  0  0  0  0  0  0  0
    2.0365   -1.3236    0.0000 C   0  0  0  0  0  0  0  0  0  0  0  0
    3.5058   -1.6256    0.0000 C   0  0  0  0  0  0  0  0  0  0  0  0
    4.5020   -0.5042    0.0000 C   0  0  0  0  0  0  0  0  0  0  0  0
    4.0290    0.9192    0.0000 C   0  0  0  0  0  0  0  0  0  0  0  0
    2.5597    1.2213    0.0000 C   0  0  0  0  0  0  0  0  0  0  0  0
   -3.6840   -0.4872    0.0000 C   0  0  0  0  0  0  0  0  0  0  0  0
   -3.8308   -1.9800    0.0000 O   0  0  0  0  0  0  0  0  0  0  0  0
   -4.9034    0.3863    0.0000 O   0  0  0  0  0  0  0  0  0  0  0  0
  1  2  1  0
  2  3  1  0
  3  4  1  0
  4  5  1  0
  4  6  1  6
  6  7  1  0
  7  8  1  0
  8  9  1  0
  9 10  1  0
 10 11  1  0
  2 12  1  1
 12 13  2  0
 12 14  1  0
  5  1  1  0
 11  6  1  0
M  END
>  <rName>  (3261) 
Pro_4ScHex

>  <PQ_SYMBOL>  (3261) 
Pro_4ScHex

>  <FULL_NAME>  (3261) 
(4S)-4-cyclohexyl-L-proline

>  <IUPAC_CONDENSED>  (3261) 
Pro(4S-cHex)

>  <IUPAC>  (3261) 
(2S,4S)-4-cyclohexylpyrrolidine-2-carboxylic acid

>  <TYPE>  (3261) 
Backbone

>  <CLASS>  (3261) 
alpha

>  <ANALOG>  (3261) 
Pro

>  <MOL_WT>  (3261) 
197.278

>  <LOGP>  (3261) 
1.6294

>  <TPSA>  (3261) 
49.33

>  <POPULARITY>  (3261) 
16.5

>  <PROTECTED>  (3261) 
TRUE

>  <SMILES>  (3261) 
N1[C@@H](C[C@H](C1)C2(CCCCC2))C(=O)O

>  <INCHIKEY>  (3261) 
XRZWVSXEDRYQGC-ZJUUUORDSA-N

$$$$
Pro_4Sphenylmethyl
     RDKit          2D

 15 16  0  0  0  0  0  0  0  0999 V2000
   -1.9780    1.3585    0.0000 N   0  0  0  0  0  0  0  0  0  0  0  0
   -2.7771    0.0891    0.0000 C   0  0  0  0  0  0  0  0  0  0  0  0
   -1.8168   -1.0632    0.0000 C   0  0  0  0  0  0  0  0  0  0  0  0
   -0.4242   -0.5059    0.0000 C   0  0  0  0  0  0  0  0  0  0  0  0
   -0.5238    0.9908    0.0000 C   0  0  0  0  0  0  0  0  0  0  0  0
    0.8452   -1.3051    0.0000 C   0  0  0  0  0  0  0  0  0  0  0  0
    2.1720   -0.6053    0.0000 C   0  0  0  0  0  0  0  0  0  0  0  0
    3.4414   -1.4044    0.0000 C   0  0  0  0  0  0  0  0  0  0  0  0
    4.7682   -0.7047    0.0000 C   0  0  0  0  0  0  0  0  0  0  0  0
    4.8256    0.7942    0.0000 C   0  0  0  0  0  0  0  0  0  0  0  0
    3.5562    1.5934    0.0000 C   0  0  0  0  0  0  0  0  0  0  0  0
    2.2294    0.8936    0.0000 C   0  0  0  0  0  0  0  0  0  0  0  0
   -4.2738   -0.0105    0.0000 C   0  0  0  0  0  0  0  0  0  0  0  0
   -4.9359   -1.3565    0.0000 O   0  0  0  0  0  0  0  0  0  0  0  0
   -5.1084    1.2359    0.0000 O   0  0  0  0  0  0  0  0  0  0  0  0
  1  2  1  0
  2  3  1  0
  3  4  1  0
  4  5  1  0
  4  6  1  1
  6  7  1  0
  7  8  2  0
  8  9  1  0
  9 10  2  0
 10 11  1  0
 11 12  2  0
  2 13  1  1
 13 14  2  0
 13 15  1  0
  5  1  1  0
 12  7  1  0
M  END
>  <rName>  (3262) 
Pro_4Sphenylmethyl

>  <PQ_SYMBOL>  (3262) 
Pro_4Sphenylmethyl

>  <FULL_NAME>  (3262) 
(4S)-4-(Phenylmethyl)-L-proline

>  <IUPAC_CONDENSED>  (3262) 
Pro(4S-phenylmethyl)

>  <IUPAC>  (3262) 
(2S,4S)-4-benzylpyrrolidine-2-carboxylic acid

>  <TYPE>  (3262) 
Backbone

>  <CLASS>  (3262) 
alpha

>  <ANALOG>  (3262) 
Pro

>  <MOL_WT>  (3262) 
205.257

>  <LOGP>  (3262) 
1.2918

>  <TPSA>  (3262) 
49.33

>  <POPULARITY>  (3262) 
2.2

>  <PROTECTED>  (3262) 
TRUE

>  <SMILES>  (3262) 
N1[C@@H](C[C@@H](C1)Cc2(ccccc2))C(=O)O

>  <INCHIKEY>  (3262) 
JQVMMZMKXGQVGQ-QWRGUYRKSA-N

$$$$
Pro_4Striazol1yl_4Ph_4F
     RDKit          2D

 20 22  0  0  0  0  0  0  0  0999 V2000
   -4.0481    1.7207    0.0000 N   0  0  0  0  0  0  0  0  0  0  0  0
   -4.6125    0.3309    0.0000 C   0  0  0  0  0  0  0  0  0  0  0  0
   -3.4652   -0.6354    0.0000 C   0  0  0  0  0  0  0  0  0  0  0  0
   -2.1917    0.1572    0.0000 C   0  0  0  0  0  0  0  0  0  0  0  0
   -2.5519    1.6133    0.0000 C   0  0  0  0  0  0  0  0  0  0  0  0
   -0.8019   -0.4072    0.0000 N   0  0  0  0  0  0  0  0  0  0  0  0
    0.4716    0.3854    0.0000 C   0  0  0  0  0  0  0  0  0  0  0  0
    1.6189   -0.5809    0.0000 C   0  0  0  0  0  0  0  0  0  0  0  0
    1.0545   -1.9706    0.0000 N   0  0  0  0  0  0  0  0  0  0  0  0
   -0.4417   -1.8633    0.0000 N   0  0  0  0  0  0  0  0  0  0  0  0
    3.0750   -0.2206    0.0000 C   0  0  0  0  0  0  0  0  0  0  0  0
    4.1150   -1.3015    0.0000 C   0  0  0  0  0  0  0  0  0  0  0  0
    5.5711   -0.9412    0.0000 C   0  0  0  0  0  0  0  0  0  0  0  0
    5.9872    0.4999    0.0000 C   0  0  0  0  0  0  0  0  0  0  0  0
    7.4433    0.8602    0.0000 F   0  0  0  0  0  0  0  0  0  0  0  0
    4.9472    1.5808    0.0000 C   0  0  0  0  0  0  0  0  0  0  0  0
    3.4911    1.2206    0.0000 C   0  0  0  0  0  0  0  0  0  0  0  0
   -6.0686   -0.0294    0.0000 C   0  0  0  0  0  0  0  0  0  0  0  0
   -6.4847   -1.4705    0.0000 O   0  0  0  0  0  0  0  0  0  0  0  0
   -7.1086    1.0515    0.0000 O   0  0  0  0  0  0  0  0  0  0  0  0
  1  2  1  0
  2  3  1  0
  3  4  1  0
  4  5  1  0
  4  6  1  1
  6  7  1  0
  7  8  2  0
  8  9  1  0
  9 10  2  0
  8 11  1  0
 11 12  1  0
 12 13  2  0
 13 14  1  0
 14 15  1  0
 14 16  2  0
 16 17  1  0
  2 18  1  1
 18 19  2  0
 18 20  1  0
  5  1  1  0
 10  6  1  0
 17 11  2  0
M  END
>  <rName>  (3263) 
Pro_4Striazol1yl_4Ph_4F

>  <PQ_SYMBOL>  (3263) 
Pro_4Striazol1yl_4Ph_4F

>  <FULL_NAME>  (3263) 
(2S,4S)-4-[4-(4-fluorophenyl)-1,2,3-triazol-1-yl]pyrrolidine-2-carboxylic acid

>  <IUPAC_CONDENSED>  (3263) 
Pro(4S-triazol-1-yl(4-Ph(4-F)))

>  <IUPAC>  (3263) 
(2S,4S)-4-(4-(4-fluorophenyl)-1H-1,2,3-triazol-1-yl)pyrrolidine-2-carboxylic acid

>  <TYPE>  (3263) 
N-term cap

>  <CLASS>  (3263) 
n_cap

>  <ANALOG>  (3263) 
X

>  <MOL_WT>  (3263) 
276.271

>  <LOGP>  (3263) 
1.0717999999999996

>  <TPSA>  (3263) 
80.04

>  <POPULARITY>  (3263) 
1.5

>  <PROTECTED>  (3263) 
FALSE

>  <SMILES>  (3263) 
N1[C@@H](C[C@@H](C1)n2(cc(nn2)c3(ccc(F)cc3)))C(=O)O

>  <INCHIKEY>  (3263) 
ZOARAQYNIFGSNI-QWRGUYRKSA-N

$$$$
Pro_4carbonyl
     RDKit          2D

  9  9  0  0  0  0  0  0  0  0999 V2000
   -0.1792   -1.4541    0.0000 N   0  0  0  0  0  0  0  0  0  0  0  0
    0.4598   -0.0969    0.0000 C   0  0  0  0  0  0  0  0  0  0  0  0
   -0.6334    0.9301    0.0000 C   0  0  0  0  0  0  0  0  0  0  0  0
   -1.9481    0.2077    0.0000 C   0  0  0  0  0  0  0  0  0  0  0  0
   -3.3052    0.8467    0.0000 O   0  0  0  0  0  0  0  0  0  0  0  0
   -1.6673   -1.2657    0.0000 C   0  0  0  0  0  0  0  0  0  0  0  0
    1.9333    0.1838    0.0000 C   0  0  0  0  0  0  0  0  0  0  0  0
    2.4269    1.6003    0.0000 O   0  0  0  0  0  0  0  0  0  0  0  0
    2.9132   -0.9519    0.0000 O   0  0  0  0  0  0  0  0  0  0  0  0
  1  2  1  0
  2  3  1  0
  3  4  1  0
  4  5  2  0
  4  6  1  0
  2  7  1  1
  7  8  2  0
  7  9  1  0
  6  1  1  0
M  END
>  <rName>  (3264) 
Pro_4carbonyl

>  <PQ_SYMBOL>  (3264) 
Pro_4carbonyl

>  <FULL_NAME>  (3264) 
4-OXOPROLINE

>  <IUPAC_CONDENSED>  (3264) 
Pro(4-carbonyl)

>  <IUPAC>  (3264) 
(2S)-4-oxopyrrolidine-2-carboxylic acid

>  <TYPE>  (3264) 
Backbone

>  <CLASS>  (3264) 
alpha

>  <ANALOG>  (3264) 
Pro

>  <MOL_WT>  (3264) 
129.115

>  <LOGP>  (3264) 
-0.9980000000000004

>  <TPSA>  (3264) 
66.4

>  <POPULARITY>  (3264) 
11.1

>  <PROTECTED>  (3264) 
TRUE

>  <SMILES>  (3264) 
N1[C@@H](CC(=O)C1)C(=O)O

>  <INCHIKEY>  (3264) 
HFXAFXVXPMUQCQ-BYPYZUCNSA-N

$$$$
Pro_4carbonyl-
     RDKit          2D

  9  9  0  0  0  0  0  0  0  0999 V2000
   -0.1792   -1.4541    0.0000 N   0  0  0  0  0  0  0  0  0  0  0  0
    0.4598   -0.0969    0.0000 C   0  0  0  0  0  0  0  0  0  0  0  0
   -0.6334    0.9301    0.0000 C   0  0  0  0  0  0  0  0  0  0  0  0
   -1.9481    0.2077    0.0000 C   0  0  0  0  0  0  0  0  0  0  0  0
   -3.3052    0.8467    0.0000 O   0  0  0  0  0  0  0  0  0  0  0  0
   -1.6673   -1.2657    0.0000 C   0  0  0  0  0  0  0  0  0  0  0  0
    1.9333    0.1838    0.0000 C   0  0  0  0  0  0  0  0  0  0  0  0
    2.4269    1.6003    0.0000 O   0  0  0  0  0  0  0  0  0  0  0  0
    2.9132   -0.9519    0.0000 O   0  0  0  0  0  0  0  0  0  0  0  0
  1  2  1  0
  2  3  1  0
  3  4  1  0
  4  5  2  0
  4  6  1  0
  2  7  1  1
  7  8  2  0
  7  9  1  0
  6  1  1  0
M  END
>  <rName>  (3265) 
Pro_4carbonyl-

>  <PQ_SYMBOL>  (3265) 
Pro_4carbonyl-

>  <FULL_NAME>  (3265) 
(2S)-4-oxopyrrolidine-2-carboxylic acid

>  <IUPAC_CONDENSED>  (3265) 
Pro(4-carbonyl)-

>  <IUPAC>  (3265) 
(2S)-4-oxopyrrolidine-2-carboxylic acid

>  <TYPE>  (3265) 
N-term cap

>  <CLASS>  (3265) 
n_cap

>  <ANALOG>  (3265) 
X

>  <MOL_WT>  (3265) 
129.115

>  <LOGP>  (3265) 
-0.9980000000000004

>  <TPSA>  (3265) 
66.4

>  <POPULARITY>  (3265) 
7.7

>  <PROTECTED>  (3265) 
TRUE

>  <SMILES>  (3265) 
N1[C@@H](CC(=O)C1)C(=O)O

>  <INCHIKEY>  (3265) 
HFXAFXVXPMUQCQ-BYPYZUCNSA-N

$$$$
Pro_4spirodiazirine
     RDKit          2D

 10 11  0  0  0  0  0  0  0  0999 V2000
    0.1740   -1.5160    0.0000 N   0  0  0  0  0  0  0  0  0  0  0  0
    0.7598   -0.1351    0.0000 C   0  0  0  0  0  0  0  0  0  0  0  0
   -0.3725    0.8487    0.0000 C   0  0  0  0  0  0  0  0  0  0  0  0
   -1.6581    0.0759    0.0000 C   0  0  0  0  0  0  0  0  0  0  0  0
   -1.3203   -1.3856    0.0000 C   0  0  0  0  0  0  0  0  0  0  0  0
   -3.1469   -0.1073    0.0000 N   0  0  0  0  0  0  0  0  0  0  0  0
   -2.5611    1.2736    0.0000 N   0  0  0  0  0  0  0  0  0  0  0  0
    2.2212    0.2027    0.0000 C   0  0  0  0  0  0  0  0  0  0  0  0
    2.6595    1.6372    0.0000 O   0  0  0  0  0  0  0  0  0  0  0  0
    3.2445   -0.8941    0.0000 O   0  0  0  0  0  0  0  0  0  0  0  0
  1  2  1  0
  2  3  1  0
  3  4  1  0
  4  5  1  0
  4  6  1  0
  6  7  2  0
  2  8  1  1
  8  9  2  0
  8 10  1  0
  5  1  1  0
  7  4  1  0
M  END
>  <rName>  (3266) 
Pro_4spirodiazirine

>  <PQ_SYMBOL>  (3266) 
Pro_4spirodiazirine

>  <FULL_NAME>  (3266) 
(6S)-1,2,5-triazaspiro[2.4]hept-1-ene-6-carboxylic acid

>  <IUPAC_CONDENSED>  (3266) 
Pro(4-spiro-diazirine)

>  <IUPAC>  (3266) 
(5S)-1,2,6-triazaspiro[2.4]hept-1-ene-5-carboxylic acid

>  <TYPE>  (3266) 
Backbone

>  <CLASS>  (3266) 
alpha

>  <ANALOG>  (3266) 
Pro

>  <MOL_WT>  (3266) 
141.13000000000002

>  <LOGP>  (3266) 
-0.4050000000000001

>  <TPSA>  (3266) 
74.05

>  <POPULARITY>  (3266) 
2.2

>  <PROTECTED>  (3266) 
TRUE

>  <SMILES>  (3266) 
N1[C@@H](CC2(C1)(N=N2))C(=O)O

>  <INCHIKEY>  (3266) 
HTLUZICRDFRIGH-VKHMYHEASA-N

$$$$
Pro_55diMe
     RDKit          2D

 10 10  0  0  0  0  0  0  0  0999 V2000
   -0.3816   -0.8744    0.0000 N   0  0  0  0  0  0  0  0  0  0  0  0
    0.7221    0.1414    0.0000 C   0  0  0  0  0  0  0  0  0  0  0  0
    0.0971    1.5050    0.0000 C   0  0  0  0  0  0  0  0  0  0  0  0
   -1.3929    1.3319    0.0000 C   0  0  0  0  0  0  0  0  0  0  0  0
   -1.6888   -0.1386    0.0000 C   0  0  0  0  0  0  0  0  0  0  0  0
   -2.2839   -1.5155    0.0000 C   0  0  0  0  0  0  0  0  0  0  0  0
   -3.1203    0.3093    0.0000 C   0  0  0  0  0  0  0  0  0  0  0  0
    2.1926   -0.1544    0.0000 C   0  0  0  0  0  0  0  0  0  0  0  0
    3.1841    0.9712    0.0000 O   0  0  0  0  0  0  0  0  0  0  0  0
    2.6717   -1.5759    0.0000 O   0  0  0  0  0  0  0  0  0  0  0  0
  1  2  1  0
  2  3  1  0
  3  4  1  0
  4  5  1  0
  5  6  1  0
  5  7  1  0
  2  8  1  1
  8  9  2  0
  8 10  1  0
  5  1  1  0
M  END
>  <rName>  (3267) 
Pro_55diMe

>  <PQ_SYMBOL>  (3267) 
Pro_55diMe

>  <FULL_NAME>  (3267) 
5,5-Dimethyl-l-proline

>  <IUPAC_CONDENSED>  (3267) 
Pro(5,5-diMe)

>  <IUPAC>  (3267) 
(2S)-5,5-dimethylpyrrolidine-2-carboxylic acid

>  <TYPE>  (3267) 
Backbone

>  <CLASS>  (3267) 
alpha

>  <ANALOG>  (3267) 
Pro

>  <MOL_WT>  (3267) 
143.186

>  <LOGP>  (3267) 
0.6015999999999997

>  <TPSA>  (3267) 
49.33

>  <POPULARITY>  (3267) 
9.7

>  <PROTECTED>  (3267) 
TRUE

>  <SMILES>  (3267) 
N1[C@@H](CCC1(C)C)C(=O)O

>  <INCHIKEY>  (3267) 
DEMIRSVUSWJCFT-YFKPBYRVSA-N

$$$$
Pro_5RCONH2
     RDKit          2D

 11 11  0  0  0  0  0  0  0  0999 V2000
   -0.0000   -0.7238    0.0000 N   0  0  0  0  0  0  0  0  0  0  0  0
    1.2135    0.1579    0.0000 C   0  0  0  0  0  0  0  0  0  0  0  0
    0.7500    1.5845    0.0000 C   0  0  0  0  0  0  0  0  0  0  0  0
   -0.7500    1.5845    0.0000 C   0  0  0  0  0  0  0  0  0  0  0  0
   -1.2135    0.1579    0.0000 C   0  0  0  0  0  0  0  0  0  0  0  0
   -2.6401   -0.3056    0.0000 C   0  0  0  0  0  0  0  0  0  0  0  0
   -2.9520   -1.7729    0.0000 O   0  0  0  0  0  0  0  0  0  0  0  0
   -3.7548    0.6981    0.0000 N   0  0  0  0  0  0  0  0  0  0  0  0
    2.6401   -0.3056    0.0000 C   0  0  0  0  0  0  0  0  0  0  0  0
    3.7548    0.6981    0.0000 O   0  0  0  0  0  0  0  0  0  0  0  0
    2.9520   -1.7729    0.0000 O   0  0  0  0  0  0  0  0  0  0  0  0
  1  2  1  0
  2  3  1  0
  3  4  1  0
  4  5  1  0
  5  6  1  1
  6  7  2  0
  6  8  1  0
  2  9  1  1
  9 10  2  0
  9 11  1  0
  5  1  1  0
M  END
>  <rName>  (3268) 
Pro_5RCONH2

>  <PQ_SYMBOL>  (3268) 
Pro_5RCONH2

>  <FULL_NAME>  (3268) 
NC(=O)[C@H]1CC[C@@H](C(=O)O)N1

>  <IUPAC_CONDENSED>  (3268) 
Pro(5R-CONH2)

>  <IUPAC>  (3268) 
(2S,5R)-5-carbamoylpyrrolidine-2-carboxylic acid

>  <TYPE>  (3268) 
Backbone

>  <CLASS>  (3268) 
alpha

>  <ANALOG>  (3268) 
Pro

>  <MOL_WT>  (3268) 
158.157

>  <LOGP>  (3268) 
-1.3230999999999993

>  <TPSA>  (3268) 
92.42

>  <POPULARITY>  (3268) 
4.3

>  <PROTECTED>  (3268) 
TRUE

>  <SMILES>  (3268) 
N1[C@@H](CC[C@@H]1C(=O)N)C(=O)O

>  <INCHIKEY>  (3268) 
IMPWVKCLUHMJPY-DMTCNVIQSA-N

$$$$
Pro_5RMe
     RDKit          2D

  9  9  0  0  0  0  0  0  0  0999 V2000
   -0.6334   -0.9301    0.0000 N   0  0  0  0  0  0  0  0  0  0  0  0
    0.4598    0.0969    0.0000 C   0  0  0  0  0  0  0  0  0  0  0  0
   -0.1792    1.4541    0.0000 C   0  0  0  0  0  0  0  0  0  0  0  0
   -1.6673    1.2657    0.0000 C   0  0  0  0  0  0  0  0  0  0  0  0
   -1.9481   -0.2077    0.0000 C   0  0  0  0  0  0  0  0  0  0  0  0
   -3.3052   -0.8467    0.0000 C   0  0  0  0  0  0  0  0  0  0  0  0
    1.9333   -0.1838    0.0000 C   0  0  0  0  0  0  0  0  0  0  0  0
    2.9132    0.9519    0.0000 O   0  0  0  0  0  0  0  0  0  0  0  0
    2.4269   -1.6003    0.0000 O   0  0  0  0  0  0  0  0  0  0  0  0
  1  2  1  0
  2  3  1  0
  3  4  1  0
  4  5  1  0
  5  6  1  6
  2  7  1  1
  7  8  2  0
  7  9  1  0
  5  1  1  0
M  END
>  <rName>  (3269) 
Pro_5RMe

>  <PQ_SYMBOL>  (3269) 
Pro_5RMe

>  <FULL_NAME>  (3269) 
(2S,5R)-5-methylpyrrolidine-2-carboxylic acid

>  <IUPAC_CONDENSED>  (3269) 
Pro(5R-Me)

>  <IUPAC>  (3269) 
(2S,5R)-5-methylpyrrolidine-2-carboxylic acid

>  <TYPE>  (3269) 
Backbone

>  <CLASS>  (3269) 
alpha

>  <ANALOG>  (3269) 
Pro

>  <MOL_WT>  (3269) 
129.159

>  <LOGP>  (3269) 
0.21149999999999974

>  <TPSA>  (3269) 
49.33

>  <POPULARITY>  (3269) 
10.3

>  <PROTECTED>  (3269) 
TRUE

>  <SMILES>  (3269) 
N1[C@@H](CC[C@H]1C)C(=O)O

>  <INCHIKEY>  (3269) 
YNSYWEFVEIFJPZ-UHNVWZDZSA-N

$$$$
Pro_5RPh
     RDKit          2D

 14 15  0  0  0  0  0  0  0  0999 V2000
   -1.0138    0.6092    0.0000 N   0  0  0  0  0  0  0  0  0  0  0  0
   -2.3178   -0.1320    0.0000 C   0  0  0  0  0  0  0  0  0  0  0  0
   -2.0158   -1.6013    0.0000 C   0  0  0  0  0  0  0  0  0  0  0  0
   -0.5251   -1.7681    0.0000 C   0  0  0  0  0  0  0  0  0  0  0  0
    0.0942   -0.4019    0.0000 C   0  0  0  0  0  0  0  0  0  0  0  0
    1.5635   -0.0999    0.0000 C   0  0  0  0  0  0  0  0  0  0  0  0
    2.5597   -1.2213    0.0000 C   0  0  0  0  0  0  0  0  0  0  0  0
    4.0290   -0.9192    0.0000 C   0  0  0  0  0  0  0  0  0  0  0  0
    4.5020    0.5042    0.0000 C   0  0  0  0  0  0  0  0  0  0  0  0
    3.5058    1.6256    0.0000 C   0  0  0  0  0  0  0  0  0  0  0  0
    2.0365    1.3236    0.0000 C   0  0  0  0  0  0  0  0  0  0  0  0
   -3.6840    0.4872    0.0000 C   0  0  0  0  0  0  0  0  0  0  0  0
   -4.9034   -0.3863    0.0000 O   0  0  0  0  0  0  0  0  0  0  0  0
   -3.8308    1.9800    0.0000 O   0  0  0  0  0  0  0  0  0  0  0  0
  1  2  1  0
  2  3  1  0
  3  4  1  0
  4  5  1  0
  5  6  1  1
  6  7  2  0
  7  8  1  0
  8  9  2  0
  9 10  1  0
 10 11  2  0
  2 12  1  1
 12 13  2  0
 12 14  1  0
  5  1  1  0
 11  6  1  0
M  END
>  <rName>  (3270) 
Pro_5RPh

>  <PQ_SYMBOL>  (3270) 
Pro_5RPh

>  <FULL_NAME>  (3270) 
(2S,5R)-5-phenylpyrrolidine-2-carboxylic acid

>  <IUPAC_CONDENSED>  (3270) 
Pro(5R-Ph)

>  <IUPAC>  (3270) 
(2S,5R)-5-phenylpyrrolidine-2-carboxylic acid

>  <TYPE>  (3270) 
Backbone

>  <CLASS>  (3270) 
alpha

>  <ANALOG>  (3270) 
Pro

>  <MOL_WT>  (3270) 
191.23

>  <LOGP>  (3270) 
1.5642999999999998

>  <TPSA>  (3270) 
49.33

>  <POPULARITY>  (3270) 
10.7

>  <PROTECTED>  (3270) 
TRUE

>  <SMILES>  (3270) 
N1[C@@H](CC[C@@H]1c2(ccccc2))C(=O)O

>  <INCHIKEY>  (3270) 
SMWADGDVGCZIGK-ZJUUUORDSA-N

$$$$
Pro_5RPh_4Br
     RDKit          2D

 15 16  0  0  0  0  0  0  0  0999 V2000
   -1.3934    0.6004    0.0000 N   0  0  0  0  0  0  0  0  0  0  0  0
   -2.7205   -0.0987    0.0000 C   0  0  0  0  0  0  0  0  0  0  0  0
   -2.4656   -1.5769    0.0000 C   0  0  0  0  0  0  0  0  0  0  0  0
   -0.9810   -1.7913    0.0000 C   0  0  0  0  0  0  0  0  0  0  0  0
   -0.3183   -0.4457    0.0000 C   0  0  0  0  0  0  0  0  0  0  0  0
    1.1599   -0.1908    0.0000 C   0  0  0  0  0  0  0  0  0  0  0  0
    2.1197   -1.3436    0.0000 C   0  0  0  0  0  0  0  0  0  0  0  0
    3.5978   -1.0887    0.0000 C   0  0  0  0  0  0  0  0  0  0  0  0
    4.1163    0.3188    0.0000 C   0  0  0  0  0  0  0  0  0  0  0  0
    5.5945    0.5737    0.0000 Br  0  0  0  0  0  0  0  0  0  0  0  0
    3.1565    1.4716    0.0000 C   0  0  0  0  0  0  0  0  0  0  0  0
    1.6783    1.2167    0.0000 C   0  0  0  0  0  0  0  0  0  0  0  0
   -4.0661    0.5640    0.0000 C   0  0  0  0  0  0  0  0  0  0  0  0
   -5.3129   -0.2701    0.0000 O   0  0  0  0  0  0  0  0  0  0  0  0
   -4.1650    2.0607    0.0000 O   0  0  0  0  0  0  0  0  0  0  0  0
  1  2  1  0
  2  3  1  0
  3  4  1  0
  4  5  1  0
  5  6  1  1
  6  7  1  0
  7  8  2  0
  8  9  1  0
  9 10  1  0
  9 11  2  0
 11 12  1  0
  2 13  1  1
 13 14  2  0
 13 15  1  0
  5  1  1  0
 12  6  2  0
M  END
>  <rName>  (3271) 
Pro_5RPh_4Br

>  <PQ_SYMBOL>  (3271) 
Pro_5RPh_4Br

>  <FULL_NAME>  (3271) 
(2S,5R)-5-(4-bromophenyl)pyrrolidine-2-carboxylic acid

>  <IUPAC_CONDENSED>  (3271) 
Pro(5R-Ph(4-Br))

>  <IUPAC>  (3271) 
(2S,5R)-5-(4-bromophenyl)pyrrolidine-2-carboxylic acid

>  <TYPE>  (3271) 
Backbone

>  <CLASS>  (3271) 
alpha

>  <ANALOG>  (3271) 
Pro

>  <MOL_WT>  (3271) 
270.126

>  <LOGP>  (3271) 
2.3267999999999995

>  <TPSA>  (3271) 
49.33

>  <POPULARITY>  (3271) 
2.2

>  <PROTECTED>  (3271) 
TRUE

>  <SMILES>  (3271) 
N1[C@@H](CC[C@@H]1c2(ccc(Br)cc2))C(=O)O

>  <INCHIKEY>  (3271) 
PLJDZKZFSUVBSQ-ZJUUUORDSA-N

$$$$
Pro_5SMe
     RDKit          2D

  9  9  0  0  0  0  0  0  0  0999 V2000
   -0.6334   -0.9301    0.0000 N   0  0  0  0  0  0  0  0  0  0  0  0
    0.4598    0.0969    0.0000 C   0  0  0  0  0  0  0  0  0  0  0  0
   -0.1792    1.4541    0.0000 C   0  0  0  0  0  0  0  0  0  0  0  0
   -1.6673    1.2657    0.0000 C   0  0  0  0  0  0  0  0  0  0  0  0
   -1.9481   -0.2077    0.0000 C   0  0  0  0  0  0  0  0  0  0  0  0
   -3.3052   -0.8467    0.0000 C   0  0  0  0  0  0  0  0  0  0  0  0
    1.9333   -0.1838    0.0000 C   0  0  0  0  0  0  0  0  0  0  0  0
    2.9132    0.9519    0.0000 O   0  0  0  0  0  0  0  0  0  0  0  0
    2.4269   -1.6003    0.0000 O   0  0  0  0  0  0  0  0  0  0  0  0
  1  2  1  0
  2  3  1  0
  3  4  1  0
  4  5  1  0
  5  6  1  1
  2  7  1  1
  7  8  2  0
  7  9  1  0
  5  1  1  0
M  END
>  <rName>  (3272) 
Pro_5SMe

>  <PQ_SYMBOL>  (3272) 
Pro_5SMe

>  <FULL_NAME>  (3272) 
(2S,5S)-5-methylpyrrolidine-2-carboxylic acid

>  <IUPAC_CONDENSED>  (3272) 
Pro(5S-Me)

>  <IUPAC>  (3272) 
(2S,5S)-5-methylpyrrolidine-2-carboxylic acid

>  <TYPE>  (3272) 
Backbone

>  <CLASS>  (3272) 
alpha

>  <ANALOG>  (3272) 
Pro

>  <MOL_WT>  (3272) 
129.159

>  <LOGP>  (3272) 
0.21149999999999974

>  <TPSA>  (3272) 
49.33

>  <POPULARITY>  (3272) 
13.6

>  <PROTECTED>  (3272) 
TRUE

>  <SMILES>  (3272) 
N1[C@@H](CC[C@@H]1C)C(=O)O

>  <INCHIKEY>  (3272) 
YNSYWEFVEIFJPZ-WHFBIAKZSA-N

$$$$
Pro_5SPh
     RDKit          2D

 14 15  0  0  0  0  0  0  0  0999 V2000
   -1.0138    0.6092    0.0000 N   0  0  0  0  0  0  0  0  0  0  0  0
   -2.3178   -0.1320    0.0000 C   0  0  0  0  0  0  0  0  0  0  0  0
   -2.0158   -1.6013    0.0000 C   0  0  0  0  0  0  0  0  0  0  0  0
   -0.5251   -1.7681    0.0000 C   0  0  0  0  0  0  0  0  0  0  0  0
    0.0942   -0.4019    0.0000 C   0  0  0  0  0  0  0  0  0  0  0  0
    1.5635   -0.0999    0.0000 C   0  0  0  0  0  0  0  0  0  0  0  0
    2.5597   -1.2213    0.0000 C   0  0  0  0  0  0  0  0  0  0  0  0
    4.0290   -0.9192    0.0000 C   0  0  0  0  0  0  0  0  0  0  0  0
    4.5020    0.5042    0.0000 C   0  0  0  0  0  0  0  0  0  0  0  0
    3.5058    1.6256    0.0000 C   0  0  0  0  0  0  0  0  0  0  0  0
    2.0365    1.3236    0.0000 C   0  0  0  0  0  0  0  0  0  0  0  0
   -3.6840    0.4872    0.0000 C   0  0  0  0  0  0  0  0  0  0  0  0
   -4.9034   -0.3863    0.0000 O   0  0  0  0  0  0  0  0  0  0  0  0
   -3.8308    1.9800    0.0000 O   0  0  0  0  0  0  0  0  0  0  0  0
  1  2  1  0
  2  3  1  0
  3  4  1  0
  4  5  1  0
  5  6  1  6
  6  7  2  0
  7  8  1  0
  8  9  2  0
  9 10  1  0
 10 11  2  0
  2 12  1  1
 12 13  2  0
 12 14  1  0
  5  1  1  0
 11  6  1  0
M  END
>  <rName>  (3273) 
Pro_5SPh

>  <PQ_SYMBOL>  (3273) 
Pro_5SPh

>  <FULL_NAME>  (3273) 
(2S,5S)-5-phenylpyrrolidine-2-carboxylic acid

>  <IUPAC_CONDENSED>  (3273) 
Pro(5S-Ph)

>  <IUPAC>  (3273) 
(2S,5S)-5-phenylpyrrolidine-2-carboxylic acid

>  <TYPE>  (3273) 
Backbone

>  <CLASS>  (3273) 
alpha

>  <ANALOG>  (3273) 
Pro

>  <MOL_WT>  (3273) 
191.23

>  <LOGP>  (3273) 
1.5642999999999998

>  <TPSA>  (3273) 
49.33

>  <POPULARITY>  (3273) 
8.5

>  <PROTECTED>  (3273) 
TRUE

>  <SMILES>  (3273) 
N1[C@@H](CC[C@H]1c2(ccccc2))C(=O)O

>  <INCHIKEY>  (3273) 
SMWADGDVGCZIGK-UWVGGRQHSA-N

$$$$
Pro_5SPh_3Br
     RDKit          2D

 15 16  0  0  0  0  0  0  0  0999 V2000
   -1.2329    0.5297    0.0000 N   0  0  0  0  0  0  0  0  0  0  0  0
   -2.6035   -0.0798    0.0000 C   0  0  0  0  0  0  0  0  0  0  0  0
   -2.4474   -1.5717    0.0000 C   0  0  0  0  0  0  0  0  0  0  0  0
   -0.9803   -1.8841    0.0000 C   0  0  0  0  0  0  0  0  0  0  0  0
   -0.2297   -0.5854    0.0000 C   0  0  0  0  0  0  0  0  0  0  0  0
    1.2621   -0.4293    0.0000 C   0  0  0  0  0  0  0  0  0  0  0  0
    2.1433   -1.6431    0.0000 C   0  0  0  0  0  0  0  0  0  0  0  0
    3.6351   -1.4870    0.0000 C   0  0  0  0  0  0  0  0  0  0  0  0
    4.2458   -0.1169    0.0000 C   0  0  0  0  0  0  0  0  0  0  0  0
    3.3647    1.0970    0.0000 C   0  0  0  0  0  0  0  0  0  0  0  0
    3.9753    2.4670    0.0000 Br  0  0  0  0  0  0  0  0  0  0  0  0
    1.8728    0.9408    0.0000 C   0  0  0  0  0  0  0  0  0  0  0  0
   -3.9022    0.6707    0.0000 C   0  0  0  0  0  0  0  0  0  0  0  0
   -5.2016   -0.0787    0.0000 O   0  0  0  0  0  0  0  0  0  0  0  0
   -3.9016    2.1707    0.0000 O   0  0  0  0  0  0  0  0  0  0  0  0
  1  2  1  0
  2  3  1  0
  3  4  1  0
  4  5  1  0
  5  6  1  6
  6  7  2  0
  7  8  1  0
  8  9  2  0
  9 10  1  0
 10 11  1  0
 10 12  2  0
  2 13  1  1
 13 14  2  0
 13 15  1  0
  5  1  1  0
 12  6  1  0
M  END
>  <rName>  (3274) 
Pro_5SPh_3Br

>  <PQ_SYMBOL>  (3274) 
Pro_5SPh_3Br

>  <FULL_NAME>  (3274) 
Pro(5S-Ph(3-Br))

>  <IUPAC_CONDENSED>  (3274) 
Pro(5S-Ph(3-Br))

>  <IUPAC>  (3274) 
(2S,5S)-5-(3-bromophenyl)pyrrolidine-2-carboxylic acid

>  <TYPE>  (3274) 
Backbone

>  <CLASS>  (3274) 
alpha

>  <ANALOG>  (3274) 
Pro

>  <MOL_WT>  (3274) 
270.126

>  <LOGP>  (3274) 
2.3268

>  <TPSA>  (3274) 
49.33

>  <POPULARITY>  (3274) 
2.2

>  <PROTECTED>  (3274) 
TRUE

>  <SMILES>  (3274) 
N1[C@@H](CC[C@H]1c2(cccc(Br)c2))C(=O)O

>  <INCHIKEY>  (3274) 
CVSPSHUHUFAYMV-UWVGGRQHSA-N

$$$$
Pro_R4benz_4Br
     RDKit          2D

 16 17  0  0  0  0  0  0  0  0999 V2000
   -2.3003    1.3750    0.0000 N   0  0  0  0  0  0  0  0  0  0  0  0
   -3.1583    0.1447    0.0000 C   0  0  0  0  0  0  0  0  0  0  0  0
   -2.2534   -1.0516    0.0000 C   0  0  0  0  0  0  0  0  0  0  0  0
   -0.8360   -0.5605    0.0000 C   0  0  0  0  0  0  0  0  0  0  0  0
   -0.8650    0.9392    0.0000 C   0  0  0  0  0  0  0  0  0  0  0  0
    0.3943   -1.4186    0.0000 C   0  0  0  0  0  0  0  0  0  0  0  0
    1.7526   -0.7821    0.0000 C   0  0  0  0  0  0  0  0  0  0  0  0
    2.9830   -1.6401    0.0000 C   0  0  0  0  0  0  0  0  0  0  0  0
    4.3412   -1.0036    0.0000 C   0  0  0  0  0  0  0  0  0  0  0  0
    4.4691    0.4909    0.0000 C   0  0  0  0  0  0  0  0  0  0  0  0
    5.8274    1.1274    0.0000 Br  0  0  0  0  0  0  0  0  0  0  0  0
    3.2388    1.3489    0.0000 C   0  0  0  0  0  0  0  0  0  0  0  0
    1.8805    0.7124    0.0000 C   0  0  0  0  0  0  0  0  0  0  0  0
   -4.6581    0.1157    0.0000 C   0  0  0  0  0  0  0  0  0  0  0  0
   -5.3828   -1.1976    0.0000 O   0  0  0  0  0  0  0  0  0  0  0  0
   -5.4330    1.4000    0.0000 O   0  0  0  0  0  0  0  0  0  0  0  0
  1  2  1  0
  2  3  1  0
  3  4  1  0
  4  5  1  0
  4  6  1  6
  6  7  1  0
  7  8  1  0
  8  9  2  0
  9 10  1  0
 10 11  1  0
 10 12  2  0
 12 13  1  0
  2 14  1  1
 14 15  2  0
 14 16  1  0
  5  1  1  0
 13  7  2  0
M  END
>  <rName>  (3275) 
Pro_R4benz_4Br

>  <PQ_SYMBOL>  (3275) 
Pro_R4benz_4Br

>  <FULL_NAME>  (3275) 
(2S,4R)-4-(4-Bromobenzyl)pyrrolidine-2-carboxylic acid

>  <IUPAC_CONDENSED>  (3275) 
Pro(R-4-benz(4-Br))

>  <IUPAC>  (3275) 
(2S,4R)-4-[(4-bromophenyl)methyl]pyrrolidine-2-carboxylic acid

>  <TYPE>  (3275) 
Backbone

>  <CLASS>  (3275) 
alpha

>  <ANALOG>  (3275) 
Pro

>  <MOL_WT>  (3275) 
284.153

>  <LOGP>  (3275) 
2.0543

>  <TPSA>  (3275) 
49.33

>  <POPULARITY>  (3275) 
2.2

>  <PROTECTED>  (3275) 
TRUE

>  <SMILES>  (3275) 
N1[C@@H](C[C@H](C1)Cc2(ccc(Br)cc2))C(=O)O

>  <INCHIKEY>  (3275) 
KBZRUYGFVGXOBD-KOLCDFICSA-N

$$$$
Pro_R4benz_4F
     RDKit          2D

 16 17  0  0  0  0  0  0  0  0999 V2000
   -2.3003    1.3750    0.0000 N   0  0  0  0  0  0  0  0  0  0  0  0
   -3.1583    0.1447    0.0000 C   0  0  0  0  0  0  0  0  0  0  0  0
   -2.2534   -1.0516    0.0000 C   0  0  0  0  0  0  0  0  0  0  0  0
   -0.8360   -0.5605    0.0000 C   0  0  0  0  0  0  0  0  0  0  0  0
   -0.8650    0.9392    0.0000 C   0  0  0  0  0  0  0  0  0  0  0  0
    0.3943   -1.4186    0.0000 C   0  0  0  0  0  0  0  0  0  0  0  0
    1.7526   -0.7821    0.0000 C   0  0  0  0  0  0  0  0  0  0  0  0
    2.9830   -1.6401    0.0000 C   0  0  0  0  0  0  0  0  0  0  0  0
    4.3412   -1.0036    0.0000 C   0  0  0  0  0  0  0  0  0  0  0  0
    4.4691    0.4909    0.0000 C   0  0  0  0  0  0  0  0  0  0  0  0
    5.8274    1.1274    0.0000 F   0  0  0  0  0  0  0  0  0  0  0  0
    3.2388    1.3489    0.0000 C   0  0  0  0  0  0  0  0  0  0  0  0
    1.8805    0.7124    0.0000 C   0  0  0  0  0  0  0  0  0  0  0  0
   -4.6581    0.1157    0.0000 C   0  0  0  0  0  0  0  0  0  0  0  0
   -5.3828   -1.1976    0.0000 O   0  0  0  0  0  0  0  0  0  0  0  0
   -5.4330    1.4000    0.0000 O   0  0  0  0  0  0  0  0  0  0  0  0
  1  2  1  0
  2  3  1  0
  3  4  1  0
  4  5  1  0
  4  6  1  6
  6  7  1  0
  7  8  1  0
  8  9  2  0
  9 10  1  0
 10 11  1  0
 10 12  2  0
 12 13  1  0
  2 14  1  1
 14 15  2  0
 14 16  1  0
  5  1  1  0
 13  7  2  0
M  END
>  <rName>  (3276) 
Pro_R4benz_4F

>  <PQ_SYMBOL>  (3276) 
Pro_R4benz_4F

>  <FULL_NAME>  (3276) 
(2S,4R)-4-(4-Fluorobenzyl)pyrrolidine-2-carboxylic acid

>  <IUPAC_CONDENSED>  (3276) 
Pro(R-4-benz(4-F))

>  <IUPAC>  (3276) 
(2S,4R)-4-[(4-fluorophenyl)methyl]pyrrolidine-2-carboxylic acid

>  <TYPE>  (3276) 
Backbone

>  <CLASS>  (3276) 
alpha

>  <ANALOG>  (3276) 
Pro

>  <MOL_WT>  (3276) 
223.24699999999999

>  <LOGP>  (3276) 
1.4309

>  <TPSA>  (3276) 
49.33

>  <POPULARITY>  (3276) 
3.5

>  <PROTECTED>  (3276) 
TRUE

>  <SMILES>  (3276) 
N1[C@@H](C[C@H](C1)Cc2(ccc(F)cc2))C(=O)O

>  <INCHIKEY>  (3276) 
WXRWCYJRYYTPQO-KOLCDFICSA-N

$$$$
Pro_R4benz_4Ph
     RDKit          2D

 21 23  0  0  0  0  0  0  0  0999 V2000
   -3.9137    1.4664    0.0000 N   0  0  0  0  0  0  0  0  0  0  0  0
   -4.9300    0.3631    0.0000 C   0  0  0  0  0  0  0  0  0  0  0  0
   -4.1947   -0.9443    0.0000 C   0  0  0  0  0  0  0  0  0  0  0  0
   -2.7241   -0.6491    0.0000 C   0  0  0  0  0  0  0  0  0  0  0  0
   -2.5504    0.8408    0.0000 C   0  0  0  0  0  0  0  0  0  0  0  0
   -1.6208   -1.6653    0.0000 C   0  0  0  0  0  0  0  0  0  0  0  0
   -0.1891   -1.2180    0.0000 C   0  0  0  0  0  0  0  0  0  0  0  0
    0.9142   -2.2342    0.0000 C   0  0  0  0  0  0  0  0  0  0  0  0
    2.3460   -1.7869    0.0000 C   0  0  0  0  0  0  0  0  0  0  0  0
    2.6744   -0.3233    0.0000 C   0  0  0  0  0  0  0  0  0  0  0  0
    1.5711    0.6929    0.0000 C   0  0  0  0  0  0  0  0  0  0  0  0
    0.1394    0.2456    0.0000 C   0  0  0  0  0  0  0  0  0  0  0  0
    4.1062    0.1240    0.0000 C   0  0  0  0  0  0  0  0  0  0  0  0
    5.2094   -0.8922    0.0000 C   0  0  0  0  0  0  0  0  0  0  0  0
    6.6412   -0.4449    0.0000 C   0  0  0  0  0  0  0  0  0  0  0  0
    6.9696    1.0187    0.0000 C   0  0  0  0  0  0  0  0  0  0  0  0
    5.8664    2.0350    0.0000 C   0  0  0  0  0  0  0  0  0  0  0  0
    4.4346    1.5876    0.0000 C   0  0  0  0  0  0  0  0  0  0  0  0
   -6.4199    0.5368    0.0000 C   0  0  0  0  0  0  0  0  0  0  0  0
   -7.3153   -0.6667    0.0000 O   0  0  0  0  0  0  0  0  0  0  0  0
   -7.0145    1.9139    0.0000 O   0  0  0  0  0  0  0  0  0  0  0  0
  1  2  1  0
  2  3  1  0
  3  4  1  0
  4  5  1  0
  4  6  1  6
  6  7  1  0
  7  8  1  0
  8  9  2  0
  9 10  1  0
 10 11  2  0
 11 12  1  0
 10 13  1  0
 13 14  2  0
 14 15  1  0
 15 16  2  0
 16 17  1  0
 17 18  2  0
  2 19  1  1
 19 20  2  0
 19 21  1  0
  5  1  1  0
 12  7  2  0
 18 13  1  0
M  END
>  <rName>  (3277) 
Pro_R4benz_4Ph

>  <PQ_SYMBOL>  (3277) 
Pro_R4benz_4Ph

>  <FULL_NAME>  (3277) 
(2S,4R)-4-(Biphenyl-4-ylmethyl)pyrrolidine-2-carboxylic acid

>  <IUPAC_CONDENSED>  (3277) 
Pro(R-4-benz(4-Ph))

>  <IUPAC>  (3277) 
(2S,4R)-4-[(4-phenylphenyl)methyl]pyrrolidine-2-carboxylic acid

>  <TYPE>  (3277) 
Backbone

>  <CLASS>  (3277) 
alpha

>  <ANALOG>  (3277) 
Pro

>  <MOL_WT>  (3277) 
281.355

>  <LOGP>  (3277) 
2.958800000000001

>  <TPSA>  (3277) 
49.33

>  <POPULARITY>  (3277) 
2.2

>  <PROTECTED>  (3277) 
TRUE

>  <SMILES>  (3277) 
N1[C@@H](C[C@H](C1)Cc2(ccc(cc2)c3(ccccc3)))C(=O)O

>  <INCHIKEY>  (3277) 
MMZUHXUJQSMMAV-PBHICJAKSA-N

$$$$
Pro_b_bdiMe
     RDKit          2D

 10 10  0  0  0  0  0  0  0  0999 V2000
   -0.3795   -1.7836    0.0000 N   0  0  0  0  0  0  0  0  0  0  0  0
    0.2354   -0.4154    0.0000 C   0  0  0  0  0  0  0  0  0  0  0  0
   -0.8759    0.5922    0.0000 C   0  0  0  0  0  0  0  0  0  0  0  0
   -1.7533    1.8087    0.0000 C   0  0  0  0  0  0  0  0  0  0  0  0
    0.2423    1.5920    0.0000 C   0  0  0  0  0  0  0  0  0  0  0  0
   -2.1775   -0.1533    0.0000 C   0  0  0  0  0  0  0  0  0  0  0  0
   -1.8707   -1.6216    0.0000 C   0  0  0  0  0  0  0  0  0  0  0  0
    1.7037   -0.1086    0.0000 C   0  0  0  0  0  0  0  0  0  0  0  0
    2.1721    1.3164    0.0000 O   0  0  0  0  0  0  0  0  0  0  0  0
    2.7035   -1.2268    0.0000 O   0  0  0  0  0  0  0  0  0  0  0  0
  1  2  1  0
  2  3  1  0
  3  4  1  0
  3  5  1  0
  3  6  1  0
  6  7  1  0
  2  8  1  1
  8  9  2  0
  8 10  1  0
  7  1  1  0
M  END
>  <rName>  (3278) 
Pro_b_bdiMe

>  <PQ_SYMBOL>  (3278) 
Pro_b_bdiMe

>  <FULL_NAME>  (3278) 
(S)-3,3-Dimethylpyrrolidine-2-carboxylic acid

>  <IUPAC_CONDENSED>  (3278) 
Pro(b,b-diMe)

>  <IUPAC>  (3278) 
(2S)-3,3-dimethylpyrrolidine-2-carboxylic acid

>  <TYPE>  (3278) 
Backbone

>  <CLASS>  (3278) 
alpha

>  <ANALOG>  (3278) 
Pro

>  <MOL_WT>  (3278) 
143.186

>  <LOGP>  (3278) 
0.4591

>  <TPSA>  (3278) 
49.33

>  <POPULARITY>  (3278) 
11.0

>  <PROTECTED>  (3278) 
TRUE

>  <SMILES>  (3278) 
N1[C@@H](C(C)(C)CC1)C(=O)O

>  <INCHIKEY>  (3278) 
JQFLYFRHDIHZFZ-RXMQYKEDSA-N

$$$$
Pro_c4guan
     RDKit          2D

 12 12  0  0  0  0  0  0  0  0999 V2000
    1.5111   -1.6952    0.0000 N   0  0  0  0  0  0  0  0  0  0  0  0
    1.5414   -0.1955    0.0000 C   0  0  0  0  0  0  0  0  0  0  0  0
    0.1245    0.2967    0.0000 C   0  0  0  0  0  0  0  0  0  0  0  0
   -0.7815   -0.8988    0.0000 C   0  0  0  0  0  0  0  0  0  0  0  0
    0.0755   -2.1299    0.0000 C   0  0  0  0  0  0  0  0  0  0  0  0
   -2.2812   -0.8686    0.0000 N   0  0  0  0  0  0  0  0  0  0  0  0
   -3.0049    0.4453    0.0000 C   0  0  0  0  0  0  0  0  0  0  0  0
   -2.2288    1.7290    0.0000 N   0  0  0  0  0  0  0  0  0  0  0  0
   -4.5046    0.4756    0.0000 N   0  0  0  0  0  0  0  0  0  0  0  0
    2.7725    0.6615    0.0000 C   0  0  0  0  0  0  0  0  0  0  0  0
    2.6458    2.1561    0.0000 O   0  0  0  0  0  0  0  0  0  0  0  0
    4.1302    0.0239    0.0000 O   0  0  0  0  0  0  0  0  0  0  0  0
  1  2  1  0
  2  3  1  0
  3  4  1  0
  4  5  1  0
  4  6  1  1
  6  7  1  0
  7  8  2  0
  7  9  1  0
  2 10  1  1
 10 11  2  0
 10 12  1  0
  5  1  1  0
M  END
>  <rName>  (3279) 
Pro_c4guan

>  <PQ_SYMBOL>  (3279) 
Pro_c4guan

>  <FULL_NAME>  (3279) 
cis-4-guanidino-L-proline

>  <IUPAC_CONDENSED>  (3279) 
Pro(c-4-guan)

>  <IUPAC>  (3279) 
(2S,4S)-4-(((amino)(imino)methyl)amino)pyrrolidine-2-carboxylic acid

>  <TYPE>  (3279) 
Backbone

>  <CLASS>  (3279) 
alpha

>  <ANALOG>  (3279) 
Pro

>  <MOL_WT>  (3279) 
172.18800000000002

>  <LOGP>  (3279) 
-1.7154299999999987

>  <TPSA>  (3279) 
111.23

>  <POPULARITY>  (3279) 
10.5

>  <PROTECTED>  (3279) 
TRUE

>  <SMILES>  (3279) 
N1[C@@H](C[C@@H](C1)NC(=N)N)C(=O)O

>  <INCHIKEY>  (3279) 
RYAUUSMBKDBGNL-IMJSIDKUSA-N

$$$$
Pro_t4guan
     RDKit          2D

 12 12  0  0  0  0  0  0  0  0999 V2000
    1.5111   -1.6952    0.0000 N   0  0  0  0  0  0  0  0  0  0  0  0
    1.5414   -0.1955    0.0000 C   0  0  0  0  0  0  0  0  0  0  0  0
    0.1245    0.2967    0.0000 C   0  0  0  0  0  0  0  0  0  0  0  0
   -0.7815   -0.8988    0.0000 C   0  0  0  0  0  0  0  0  0  0  0  0
    0.0755   -2.1299    0.0000 C   0  0  0  0  0  0  0  0  0  0  0  0
   -2.2812   -0.8686    0.0000 N   0  0  0  0  0  0  0  0  0  0  0  0
   -3.0049    0.4453    0.0000 C   0  0  0  0  0  0  0  0  0  0  0  0
   -2.2288    1.7290    0.0000 N   0  0  0  0  0  0  0  0  0  0  0  0
   -4.5046    0.4756    0.0000 N   0  0  0  0  0  0  0  0  0  0  0  0
    2.7725    0.6615    0.0000 C   0  0  0  0  0  0  0  0  0  0  0  0
    2.6458    2.1561    0.0000 O   0  0  0  0  0  0  0  0  0  0  0  0
    4.1302    0.0239    0.0000 O   0  0  0  0  0  0  0  0  0  0  0  0
  1  2  1  0
  2  3  1  0
  3  4  1  0
  4  5  1  0
  4  6  1  6
  6  7  1  0
  7  8  2  0
  7  9  1  0
  2 10  1  1
 10 11  2  0
 10 12  1  0
  5  1  1  0
M  END
>  <rName>  (3280) 
Pro_t4guan

>  <PQ_SYMBOL>  (3280) 
Pro_t4guan

>  <FULL_NAME>  (3280) 
trans-4-guanidino-L-proline

>  <IUPAC_CONDENSED>  (3280) 
Pro(t-4-guan)

>  <IUPAC>  (3280) 
(2S,4R)-4-(((amino)(imino)methyl)amino)pyrrolidine-2-carboxylic acid

>  <TYPE>  (3280) 
Backbone

>  <CLASS>  (3280) 
alpha

>  <ANALOG>  (3280) 
Pro

>  <MOL_WT>  (3280) 
172.18800000000002

>  <LOGP>  (3280) 
-1.7154299999999987

>  <TPSA>  (3280) 
111.23

>  <POPULARITY>  (3280) 
9.7

>  <PROTECTED>  (3280) 
TRUE

>  <SMILES>  (3280) 
N1[C@@H](C[C@H](C1)NC(=N)N)C(=O)O

>  <INCHIKEY>  (3280) 
RYAUUSMBKDBGNL-DMTCNVIQSA-N

$$$$
Pye
     RDKit          2D

 14 14  0  0  0  0  0  0  0  0999 V2000
   -2.4804    1.9820    0.0000 N   0  0  0  0  0  0  0  0  0  0  0  0
   -2.6730    0.4945    0.0000 C   0  0  0  0  0  0  0  0  0  0  0  0
   -1.4810   -0.4161    0.0000 C   0  0  0  0  0  0  0  0  0  0  0  0
   -0.0964    0.1609    0.0000 C   0  0  0  0  0  0  0  0  0  0  0  0
    1.0956   -0.7497    0.0000 C   0  0  0  0  0  0  0  0  0  0  0  0
    0.9029   -2.2373    0.0000 O   0  0  0  0  0  0  0  0  0  0  0  0
    2.4801   -0.1727    0.0000 N   0  0  0  0  0  0  0  0  0  0  0  0
    3.7608   -0.9537    0.0000 C   0  0  0  0  0  0  0  0  0  0  0  0
    4.8993    0.0229    0.0000 C   0  0  0  0  0  0  0  0  0  0  0  0
    4.3223    1.4075    0.0000 C   0  0  0  0  0  0  0  0  0  0  0  0
    2.8272    1.2866    0.0000 C   0  0  0  0  0  0  0  0  0  0  0  0
   -4.0576   -0.0825    0.0000 C   0  0  0  0  0  0  0  0  0  0  0  0
   -4.2502   -1.5701    0.0000 O   0  0  0  0  0  0  0  0  0  0  0  0
   -5.2496    0.8281    0.0000 O   0  0  0  0  0  0  0  0  0  0  0  0
  2  1  1  1
  2  3  1  0
  3  4  1  0
  4  5  1  0
  5  6  2  0
  5  7  1  0
  7  8  1  0
  8  9  1  0
  9 10  1  0
 10 11  1  0
  2 12  1  0
 12 13  2  0
 12 14  1  0
 11  7  1  0
M  END
>  <rName>  (3281) 
Pye

>  <PQ_SYMBOL>  (3281) 
Pye

>  <FULL_NAME>  (3281) 
N,N-pyrrolidinyl glutamine, 5-oxo-5-(pyrrolidin-1-yl)-L-Norvaline

>  <IUPAC_CONDENSED>  (3281) 
Pye

>  <IUPAC>  (3281) 
(2S)-2-amino-5-oxo-5-(pyrrolidin-1-yl)pentanoic acid

>  <TYPE>  (3281) 
Backbone

>  <CLASS>  (3281) 
alpha

>  <ANALOG>  (3281) 
Lys

>  <MOL_WT>  (3281) 
200.23799999999997

>  <LOGP>  (3281) 
-0.19910000000000033

>  <TPSA>  (3281) 
83.63000000000001

>  <POPULARITY>  (3281) 
7.0

>  <PROTECTED>  (3281) 
TRUE

>  <SMILES>  (3281) 
N[C@@H](CCC(=O)N1(CCCC1))C(=O)O

>  <INCHIKEY>  (3281) 
VSNLUUNJQKSBTN-ZETCQYMHSA-N

$$$$
Pyl
     RDKit          2D

 18 18  0  0  0  0  0  0  0  0999 V2000
    5.1394   -1.8054    0.0000 N   0  0  0  0  0  0  0  0  0  0  0  0
    5.1009   -0.3059    0.0000 C   0  0  0  0  0  0  0  0  0  0  0  0
    3.7830    0.4105    0.0000 C   0  0  0  0  0  0  0  0  0  0  0  0
    2.5037   -0.3726    0.0000 C   0  0  0  0  0  0  0  0  0  0  0  0
    1.1858    0.3438    0.0000 C   0  0  0  0  0  0  0  0  0  0  0  0
   -0.0935   -0.4394    0.0000 C   0  0  0  0  0  0  0  0  0  0  0  0
   -1.4114    0.2770    0.0000 N   0  0  0  0  0  0  0  0  0  0  0  0
   -2.6907   -0.5061    0.0000 C   0  0  0  0  0  0  0  0  0  0  0  0
   -2.6522   -2.0056    0.0000 O   0  0  0  0  0  0  0  0  0  0  0  0
   -4.0086    0.2103    0.0000 C   0  0  0  0  0  0  0  0  0  0  0  0
   -4.2037    1.6976    0.0000 N   0  0  0  0  0  0  0  0  0  0  0  0
   -5.6784    1.9716    0.0000 C   0  0  0  0  0  0  0  0  0  0  0  0
   -6.3948    0.6538    0.0000 C   0  0  0  0  0  0  0  0  0  0  0  0
   -5.3628   -0.4348    0.0000 C   0  0  0  0  0  0  0  0  0  0  0  0
   -5.6369   -1.9096    0.0000 C   0  0  0  0  0  0  0  0  0  0  0  0
    6.3803    0.4772    0.0000 C   0  0  0  0  0  0  0  0  0  0  0  0
    6.3417    1.9767    0.0000 O   0  0  0  0  0  0  0  0  0  0  0  0
    7.6981   -0.2392    0.0000 O   0  0  0  0  0  0  0  0  0  0  0  0
  2  1  1  1
  2  3  1  0
  3  4  1  0
  4  5  1  0
  5  6  1  0
  6  7  1  0
  7  8  1  0
  8  9  2  0
 10  8  1  1
 10 11  1  0
 11 12  2  0
 12 13  1  0
 13 14  1  0
 14 15  1  6
  2 16  1  0
 16 17  2  0
 16 18  1  0
 14 10  1  0
M  END
>  <rName>  (3282) 
Pyl

>  <PQ_SYMBOL>  (3282) 
Pyl

>  <FULL_NAME>  (3282) 
PYRROLYSINE

>  <IUPAC_CONDENSED>  (3282) 
Pyl

>  <IUPAC>  (3282) 
(2S)-2-amino-6-((2R,3R)-3-methyl-1-azacyclopent-5-en-2-ylcarbonylamino)hexanoic acid

>  <TYPE>  (3282) 
Backbone

>  <CLASS>  (3282) 
alpha

>  <ANALOG>  (3282) 
Lys

>  <MOL_WT>  (3282) 
255.318

>  <LOGP>  (3282) 
0.1640000000000001

>  <TPSA>  (3282) 
104.77999999999999

>  <POPULARITY>  (3282) 
11.7

>  <PROTECTED>  (3282) 
FALSE

>  <SMILES>  (3282) 
N[C@@H](CCCCNC(=O)[C@@H]1(N=CC[C@H]1C))C(=O)O

>  <INCHIKEY>  (3282) 
ZFOMKMMPBOQKMC-KXUCPTDWSA-N

$$$$
Pyr
     RDKit          2D

  9  9  0  0  0  0  0  0  0  0999 V2000
   -0.6334   -0.9301    0.0000 N   0  0  0  0  0  0  0  0  0  0  0  0
    0.4598    0.0969    0.0000 C   0  0  0  0  0  0  0  0  0  0  0  0
   -0.1792    1.4541    0.0000 C   0  0  0  0  0  0  0  0  0  0  0  0
   -1.6673    1.2657    0.0000 C   0  0  0  0  0  0  0  0  0  0  0  0
   -1.9481   -0.2077    0.0000 C   0  0  0  0  0  0  0  0  0  0  0  0
   -3.3052   -0.8467    0.0000 O   0  0  0  0  0  0  0  0  0  0  0  0
    1.9333   -0.1838    0.0000 C   0  0  0  0  0  0  0  0  0  0  0  0
    2.9132    0.9519    0.0000 O   0  0  0  0  0  0  0  0  0  0  0  0
    2.4269   -1.6003    0.0000 O   0  0  0  0  0  0  0  0  0  0  0  0
  1  2  1  0
  2  3  1  0
  3  4  1  0
  4  5  1  0
  5  6  2  0
  2  7  1  1
  7  8  2  0
  7  9  1  0
  5  1  1  0
M  END
>  <rName>  (3283) 
Pyr

>  <PQ_SYMBOL>  (3283) 
Pyr

>  <FULL_NAME>  (3283) 
L-Pyroglutamic acid

>  <IUPAC_CONDENSED>  (3283) 
Pyr

>  <IUPAC>  (3283) 
(2S)-5-oxopyrrolidine-2-carboxylic acid

>  <TYPE>  (3283) 
Backbone

>  <CLASS>  (3283) 
alpha

>  <ANALOG>  (3283) 
X

>  <MOL_WT>  (3283) 
129.115

>  <LOGP>  (3283) 
-0.6504000000000001

>  <TPSA>  (3283) 
66.4

>  <POPULARITY>  (3283) 
58.8

>  <PROTECTED>  (3283) 
TRUE

>  <SMILES>  (3283) 
N1[C@@H](CCC1=O)C(=O)O

>  <INCHIKEY>  (3283) 
ODHCTXKNWHHXJC-VKHMYHEASA-N

$$$$
Q
     RDKit          2D

 10  9  0  0  0  0  0  0  0  0999 V2000
    1.2717   -1.9622    0.0000 N   0  0  0  0  0  0  0  0  0  0  0  0
    1.1946   -0.4642    0.0000 C   0  0  0  0  0  0  0  0  0  0  0  0
   -0.1413    0.2180    0.0000 C   0  0  0  0  0  0  0  0  0  0  0  0
   -1.4001   -0.5978    0.0000 C   0  0  0  0  0  0  0  0  0  0  0  0
   -2.7359    0.0845    0.0000 C   0  0  0  0  0  0  0  0  0  0  0  0
   -2.8131    1.5825    0.0000 O   0  0  0  0  0  0  0  0  0  0  0  0
   -3.9947   -0.7313    0.0000 N   0  0  0  0  0  0  0  0  0  0  0  0
    2.4533    0.3516    0.0000 C   0  0  0  0  0  0  0  0  0  0  0  0
    2.3762    1.8496    0.0000 O   0  0  0  0  0  0  0  0  0  0  0  0
    3.7892   -0.3306    0.0000 O   0  0  0  0  0  0  0  0  0  0  0  0
  2  1  1  1
  2  3  1  0
  3  4  1  0
  4  5  1  0
  5  6  2  0
  5  7  1  0
  2  8  1  0
  8  9  2  0
  8 10  1  0
M  END
>  <rName>  (3284) 
Q

>  <PQ_SYMBOL>  (3284) 
Q

>  <FULL_NAME>  (3284) 
L-Glutamine

>  <IUPAC_CONDENSED>  (3284) 
Gln

>  <IUPAC>  (3284) 
(2S)-2-amino-4-carbamoylbutanoic acid

>  <TYPE>  (3284) 
Backbone

>  <CLASS>  (3284) 
alpha

>  <ANALOG>  (3284) 
Gln

>  <MOL_WT>  (3284) 
146.14600000000002

>  <LOGP>  (3284) 
-1.336199999999999

>  <TPSA>  (3284) 
106.41000000000001

>  <POPULARITY>  (3284) 
95.1

>  <PROTECTED>  (3284) 
TRUE

>  <SMILES>  (3284) 
N[C@@H](CCC(=O)N)C(=O)O

>  <INCHIKEY>  (3284) 
ZDXPYRJPNDTMRX-VKHMYHEASA-N

$$$$
Q0001
     RDKit          2D

 39 41  0  0  0  0  0  0  0  0999 V2000
   -6.7641   -5.0721    0.0000 N   0  0  0  0  0  0  0  0  0  0  0  0
   -5.2668   -5.1622    0.0000 C   0  0  0  0  0  0  0  0  0  0  0  0
   -4.5961   -6.5039    0.0000 C   0  0  0  0  0  0  0  0  0  0  0  0
   -5.4228   -7.7556    0.0000 O   0  0  0  0  0  0  0  0  0  0  0  0
   -4.4401   -3.9105    0.0000 C   0  0  0  0  0  0  0  0  0  0  0  0
   -5.1108   -2.5688    0.0000 O   0  0  0  0  0  0  0  0  0  0  0  0
   -4.2841   -1.3171    0.0000 C   0  0  0  0  0  0  0  0  0  0  0  0
   -2.7868   -1.4072    0.0000 O   0  0  0  0  0  0  0  0  0  0  0  0
   -4.9547    0.0246    0.0000 C   0  0  0  0  0  0  0  0  0  0  0  0
   -6.4520    0.1147    0.0000 C   0  0  0  0  0  0  0  0  0  0  0  0
   -7.1227    1.4564    0.0000 O   0  0  0  0  0  0  0  0  0  0  0  0
   -7.2787   -1.1370    0.0000 C   0  0  0  0  0  0  0  0  0  0  0  0
   -4.1281    1.2762    0.0000 C   0  0  0  0  0  0  0  0  0  0  0  0
   -2.6296    1.3432    0.0000 C   0  0  0  0  0  0  0  0  0  0  0  0
   -1.6946    0.1702    0.0000 C   0  0  0  0  0  0  0  0  0  0  0  0
   -2.2302    2.7890    0.0000 C   0  0  0  0  0  0  0  0  0  0  0  0
   -3.4818    3.6157    0.0000 C   0  0  0  0  0  0  0  0  0  0  0  0
   -4.6548    2.6807    0.0000 N   0  0  0  0  0  0  0  0  0  0  0  0
   -3.5488    5.1142    0.0000 C   0  0  0  0  0  0  0  0  0  0  0  0
   -2.2845    5.9214    0.0000 O   0  0  0  0  0  0  0  0  0  0  0  0
   -4.8800    5.8055    0.0000 O   0  0  0  0  0  0  0  0  0  0  0  0
   -0.8257    3.3157    0.0000 S   0  0  0  0  0  0  0  0  0  0  0  0
    0.3327    2.3628    0.0000 C   0  0  0  0  0  0  0  0  0  0  0  0
    1.7845    2.7398    0.0000 C   0  0  0  0  0  0  0  0  0  0  0  0
    2.5918    1.4755    0.0000 C   0  0  0  0  0  0  0  0  0  0  0  0
    1.6388    0.3171    0.0000 N   0  0  0  0  0  0  0  0  0  0  0  0
    0.2426    0.8655    0.0000 C   0  0  0  0  0  0  0  0  0  0  0  0
    4.0890    1.3855    0.0000 C   0  0  0  0  0  0  0  0  0  0  0  0
    4.9157    2.6371    0.0000 O   0  0  0  0  0  0  0  0  0  0  0  0
    4.7597    0.0437    0.0000 N   0  0  0  0  0  0  0  0  0  0  0  0
    6.2570   -0.0464    0.0000 C   0  0  0  0  0  0  0  0  0  0  0  0
    6.9276   -1.3881    0.0000 C   0  0  0  0  0  0  0  0  0  0  0  0
    8.4249   -1.4782    0.0000 C   0  0  0  0  0  0  0  0  0  0  0  0
    9.2516   -0.2265    0.0000 C   0  0  0  0  0  0  0  0  0  0  0  0
    8.5809    1.1152    0.0000 C   0  0  0  0  0  0  0  0  0  0  0  0
    7.0836    1.2053    0.0000 C   0  0  0  0  0  0  0  0  0  0  0  0
    9.0956   -2.8199    0.0000 C   0  0  0  0  0  0  0  0  0  0  0  0
   10.5928   -2.9100    0.0000 O   0  0  0  0  0  0  0  0  0  0  0  0
    8.2689   -4.0715    0.0000 O   0  0  0  0  0  0  0  0  0  0  0  0
  2  1  1  6
  2  3  1  0
  3  4  2  0
  2  5  1  0
  5  6  1  0
  6  7  1  0
  7  8  2  0
  9  7  1  6
  9 10  1  0
 10 11  1  0
 10 12  1  1
  9 13  1  0
 13 14  1  0
 14 15  1  6
 14 16  1  0
 16 17  1  0
 17 18  2  0
 17 19  1  0
 19 20  2  0
 19 21  1  0
 16 22  1  0
 23 22  1  1
 23 24  1  0
 24 25  1  0
 25 26  1  0
 26 27  1  0
 25 28  1  1
 28 29  2  0
 28 30  1  0
 30 31  1  0
 31 32  2  0
 32 33  1  0
 33 34  2  0
 34 35  1  0
 35 36  2  0
 33 37  1  0
 37 38  2  0
 37 39  1  0
 36 31  1  0
 27 23  1  0
 13 18  1  6
M  END
>  <rName>  (3285) 
Q0001

>  <PQ_SYMBOL>  (3285) 
Q0001

>  <FULL_NAME>  (3285) 
(2~{S},3~{R})-2-[(2~{S},3~{R})-1-[(2~{R})-2-azanyl-3-oxidanylidene-propoxy]-3-oxidanyl-1-oxidanylidene-butan-2-yl]-4-[(3~{S},5~{S})-5-[(3-carboxyphenyl)carbamoyl]pyrrolidin-3-yl]sulfanyl-3-methyl-3,4-dihydro-2~{H}-pyrrole-5-carboxylic acid

>  <IUPAC_CONDENSED>  (3285) 


>  <IUPAC>  (3285) 
(4R,5S)-5-((2S,3R)-1-(((2R)-2-amino-3-oxopropyl)oxy)-3-hydroxy-1-oxobutan-2-yl)-3-(((3S,5S)-5-((3-((hydroxy)carbonyl)phenyl)carbamoyl)pyrrolidin-3-yl)sulfanyl)-4-methyl-1-azacyclopent-1-ene-2-carboxylic acid

>  <TYPE>  (3285) 
C-term cap

>  <CLASS>  (3285) 
c_cap

>  <ANALOG>  (3285) 
X

>  <MOL_WT>  (3285) 
564.6170000000003

>  <LOGP>  (3285) 
-0.2340999999999938

>  <TPSA>  (3285) 
217.70999999999998

>  <POPULARITY>  (3285) 
3.2

>  <PROTECTED>  (3285) 
FALSE

>  <SMILES>  (3285) 
N[C@@H](C=O)COC(=O)[C@H]([C@H](O)C)[C@H]3[C@@H](C)C(C(=N3)C(=O)O)S[C@H]2C[C@H](NC2)C(=O)Nc1cc(ccc1)C(=O)O

>  <INCHIKEY>  (3285) 
PARUKYQAUVQKHU-QCPKZJAKSA-N

$$$$
Q0002
     RDKit          2D

 60 59  0  0  0  0  0  0  0  0999 V2000
   26.7397    3.0566    0.0000 N   0  0  0  0  0  0  0  0  0  0  0  0
   26.2225    4.4646    0.0000 C   0  0  0  0  0  0  0  0  0  0  0  0
   24.7445    4.7208    0.0000 C   0  0  0  0  0  0  0  0  0  0  0  0
   23.7837    3.5689    0.0000 C   0  0  0  0  0  0  0  0  0  0  0  0
   22.3058    3.8250    0.0000 C   0  0  0  0  0  0  0  0  0  0  0  0
   21.3450    2.6731    0.0000 C   0  0  0  0  0  0  0  0  0  0  0  0
   19.8670    2.9293    0.0000 N   0  0  0  0  0  0  0  0  0  0  0  0
   18.9062    1.7774    0.0000 C   0  0  0  0  0  0  0  0  0  0  0  0
   19.4233    0.3693    0.0000 O   0  0  0  0  0  0  0  0  0  0  0  0
   17.4282    2.0335    0.0000 C   0  0  0  0  0  0  0  0  0  0  0  0
   16.4674    0.8816    0.0000 O   0  0  0  0  0  0  0  0  0  0  0  0
   14.9894    1.1377    0.0000 C   0  0  0  0  0  0  0  0  0  0  0  0
   14.0286   -0.0141    0.0000 C   0  0  0  0  0  0  0  0  0  0  0  0
   12.5507    0.2420    0.0000 O   0  0  0  0  0  0  0  0  0  0  0  0
   11.5898   -0.9099    0.0000 C   0  0  0  0  0  0  0  0  0  0  0  0
   10.1119   -0.6538    0.0000 C   0  0  0  0  0  0  0  0  0  0  0  0
    9.1511   -1.8056    0.0000 N   0  0  0  0  0  0  0  0  0  0  0  0
    7.6731   -1.5495    0.0000 C   0  0  0  0  0  0  0  0  0  0  0  0
    7.1559   -0.1415    0.0000 O   0  0  0  0  0  0  0  0  0  0  0  0
    6.7123   -2.7014    0.0000 C   0  0  0  0  0  0  0  0  0  0  0  0
    5.2343   -2.4453    0.0000 O   0  0  0  0  0  0  0  0  0  0  0  0
    4.2735   -3.5972    0.0000 C   0  0  0  0  0  0  0  0  0  0  0  0
    2.7956   -3.3410    0.0000 C   0  0  0  0  0  0  0  0  0  0  0  0
    1.8347   -4.4929    0.0000 O   0  0  0  0  0  0  0  0  0  0  0  0
    0.3568   -4.2368    0.0000 C   0  0  0  0  0  0  0  0  0  0  0  0
   -0.6040   -5.3887    0.0000 C   0  0  0  0  0  0  0  0  0  0  0  0
   -2.0820   -5.1325    0.0000 N   0  0  0  0  0  0  0  0  0  0  0  0
   -3.0428   -6.2844    0.0000 C   0  0  0  0  0  0  0  0  0  0  0  0
   -2.5256   -7.6924    0.0000 O   0  0  0  0  0  0  0  0  0  0  0  0
   -4.5208   -6.0283    0.0000 C   0  0  0  0  0  0  0  0  0  0  0  0
   -5.4816   -7.1802    0.0000 C   0  0  0  0  0  0  0  0  0  0  0  0
   -6.9596   -6.9240    0.0000 C   0  0  0  0  0  0  0  0  0  0  0  0
   -7.4767   -5.5160    0.0000 N   0  0  0  0  0  0  0  0  0  0  0  0
   -8.9547   -5.2599    0.0000 C   0  0  0  0  0  0  0  0  0  0  0  0
   -9.9155   -6.4118    0.0000 O   0  0  0  0  0  0  0  0  0  0  0  0
   -9.4718   -3.8518    0.0000 C   0  0  0  0  0  0  0  0  0  0  0  0
  -10.9498   -3.5957    0.0000 C   0  0  0  0  0  0  0  0  0  0  0  0
  -11.4670   -2.1877    0.0000 C   0  0  0  0  0  0  0  0  0  0  0  0
  -12.9449   -1.9315    0.0000 C   0  0  0  0  0  0  0  0  0  0  0  0
  -13.4621   -0.5235    0.0000 C   0  0  0  0  0  0  0  0  0  0  0  0
  -14.9401   -0.2674    0.0000 C   0  0  0  0  0  0  0  0  0  0  0  0
  -15.4572    1.1407    0.0000 C   0  0  0  0  0  0  0  0  0  0  0  0
  -16.9352    1.3968    0.0000 C   0  0  0  0  0  0  0  0  0  0  0  0
  -17.4524    2.8048    0.0000 C   0  0  0  0  0  0  0  0  0  0  0  0
  -18.9303    3.0610    0.0000 C   0  0  0  0  0  0  0  0  0  0  0  0
  -19.4475    4.4690    0.0000 C   0  0  0  0  0  0  0  0  0  0  0  0
  -20.9255    4.7251    0.0000 C   0  0  0  0  0  0  0  0  0  0  0  0
  -21.4426    6.1332    0.0000 C   0  0  0  0  0  0  0  0  0  0  0  0
  -22.9206    6.3893    0.0000 C   0  0  0  0  0  0  0  0  0  0  0  0
  -23.4378    7.7973    0.0000 C   0  0  0  0  0  0  0  0  0  0  0  0
  -24.9157    8.0535    0.0000 C   0  0  0  0  0  0  0  0  0  0  0  0
  -25.4329    9.4615    0.0000 C   0  0  0  0  0  0  0  0  0  0  0  0
  -24.4721   10.6134    0.0000 O   0  0  0  0  0  0  0  0  0  0  0  0
  -26.9109    9.7176    0.0000 O   0  0  0  0  0  0  0  0  0  0  0  0
   -7.9204   -8.0759    0.0000 C   0  0  0  0  0  0  0  0  0  0  0  0
   -7.4032   -9.4839    0.0000 O   0  0  0  0  0  0  0  0  0  0  0  0
   -9.3983   -7.8198    0.0000 O   0  0  0  0  0  0  0  0  0  0  0  0
   27.1833    5.6165    0.0000 C   0  0  0  0  0  0  0  0  0  0  0  0
   26.6661    7.0245    0.0000 O   0  0  0  0  0  0  0  0  0  0  0  0
   28.6613    5.3604    0.0000 O   0  0  0  0  0  0  0  0  0  0  0  0
  2  1  1  1
  2  3  1  0
  3  4  1  0
  4  5  1  0
  5  6  1  0
  6  7  1  0
  7  8  1  0
  8  9  2  0
  8 10  1  0
 10 11  1  0
 11 12  1  0
 12 13  1  0
 13 14  1  0
 14 15  1  0
 15 16  1  0
 16 17  1  0
 17 18  1  0
 18 19  2  0
 18 20  1  0
 20 21  1  0
 21 22  1  0
 22 23  1  0
 23 24  1  0
 24 25  1  0
 25 26  1  0
 26 27  1  0
 27 28  1  0
 28 29  2  0
 28 30  1  0
 30 31  1  0
 32 31  1  6
 32 33  1  0
 33 34  1  0
 34 35  2  0
 34 36  1  0
 36 37  1  0
 37 38  1  0
 38 39  1  0
 39 40  1  0
 40 41  1  0
 41 42  1  0
 42 43  1  0
 43 44  1  0
 44 45  1  0
 45 46  1  0
 46 47  1  0
 47 48  1  0
 48 49  1  0
 49 50  1  0
 50 51  1  0
 51 52  1  0
 52 53  2  0
 52 54  1  0
 32 55  1  0
 55 56  2  0
 55 57  1  0
  2 58  1  0
 58 59  2  0
 58 60  1  0
M  END
>  <rName>  (3286) 
Q0002

>  <PQ_SYMBOL>  (3286) 
Q0002

>  <FULL_NAME>  (3286) 
L-Lys(AEEAc-AEEAc-L-γ-Glu-C18di acid)

>  <IUPAC_CONDENSED>  (3286) 


>  <IUPAC>  (3286) 
17-(((2R)-5-((2-(2-(2-((2-(2-(2-(((5S)-5-amino-6-hydroxy-6-oxohexyl)amino)-2-oxoethoxy)ethoxy)ethyl)amino)-2-oxoethoxy)ethoxy)ethyl)amino)-1-hydroxy-1,5-dioxopentan-2-yl)carbamoyl)heptadecanoic acid

>  <TYPE>  (3286) 
Backbone

>  <CLASS>  (3286) 
alpha

>  <ANALOG>  (3286) 
Gln

>  <MOL_WT>  (3286) 
862.0719999999994

>  <LOGP>  (3286) 
2.6594000000000095

>  <TPSA>  (3286) 
291.24

>  <POPULARITY>  (3286) 
0.6

>  <PROTECTED>  (3286) 
FALSE

>  <SMILES>  (3286) 
N[C@@H](CCCCNC(=O)COCCOCCNC(=O)COCCOCCNC(=O)CC[C@@H](NC(=O)CCCCCCCCCCCCCCCCC(=O)O)C(=O)O)C(=O)O

>  <INCHIKEY>  (3286) 
QDUKXQMKBZEBHC-SZAHLOSFSA-N

$$$$
Q0003
     RDKit          2D

 22 21  0  0  0  0  0  0  0  0999 V2000
    5.0197   -0.3654    0.0000 N   0  0  0  0  0  0  0  0  0  0  0  0
    3.7192    0.3821    0.0000 C   0  0  0  0  0  0  0  0  0  0  0  0
    2.4216   -0.3704    0.0000 C   0  0  0  0  0  0  0  0  0  0  0  0
    1.1212    0.3772    0.0000 C   0  0  0  0  0  0  0  0  0  0  0  0
   -0.1764   -0.3753    0.0000 O   0  0  0  0  0  0  0  0  0  0  0  0
   -1.4769    0.3722    0.0000 C   0  0  0  0  0  0  0  0  0  0  0  0
   -2.7745   -0.3803    0.0000 C   0  0  0  0  0  0  0  0  0  0  0  0
   -4.0750    0.3672    0.0000 O   0  0  0  0  0  0  0  0  0  0  0  0
   -5.3726   -0.3853    0.0000 C   0  0  0  0  0  0  0  0  0  0  0  0
   -6.6730    0.3622    0.0000 C   0  0  0  0  0  0  0  0  0  0  0  0
   -7.9706   -0.3903    0.0000 O   0  0  0  0  0  0  0  0  0  0  0  0
   -9.2711    0.3572    0.0000 C   0  0  0  0  0  0  0  0  0  0  0  0
  -10.5687   -0.3953    0.0000 C   0  0  0  0  0  0  0  0  0  0  0  0
  -11.8692    0.3522    0.0000 C   0  0  0  0  0  0  0  0  0  0  0  0
  -13.1668   -0.4002    0.0000 N   0  0  0  0  0  0  0  0  0  0  0  0
    6.3173    0.3871    0.0000 C   0  0  0  0  0  0  0  0  0  0  0  0
    6.3144    1.8871    0.0000 O   0  0  0  0  0  0  0  0  0  0  0  0
    7.6178   -0.3604    0.0000 C   0  0  0  0  0  0  0  0  0  0  0  0
    8.9154    0.3921    0.0000 C   0  0  0  0  0  0  0  0  0  0  0  0
   10.2159   -0.3554    0.0000 C   0  0  0  0  0  0  0  0  0  0  0  0
   10.2187   -1.8554    0.0000 O   0  0  0  0  0  0  0  0  0  0  0  0
   11.5135    0.3971    0.0000 O   0  0  0  0  0  0  0  0  0  0  0  0
  1  2  1  0
  2  3  1  0
  3  4  1  0
  4  5  1  0
  5  6  1  0
  6  7  1  0
  7  8  1  0
  8  9  1  0
  9 10  1  0
 10 11  1  0
 11 12  1  0
 12 13  1  0
 13 14  1  0
 14 15  1  0
  1 16  1  0
 16 17  2  0
 16 18  1  0
 18 19  1  0
 19 20  1  0
 20 21  2  0
 20 22  1  0
M  END
>  <rName>  (3287) 
Q0003

>  <PQ_SYMBOL>  (3287) 
Q0003

>  <FULL_NAME>  (3287) 
1-amino-15-oxo-4,7,10-trioxa-14-azaoctadecan-18-oic acid

>  <IUPAC_CONDENSED>  (3287) 


>  <IUPAC>  (3287) 
3-((3-((2-((2-((3-aminopropyl)oxy)ethyl)oxy)ethyl)oxy)propyl)carbamoyl)propanoic acid

>  <TYPE>  (3287) 
Backbone

>  <CLASS>  (3287) 
gamma

>  <ANALOG>  (3287) 
Gly

>  <MOL_WT>  (3287) 
320.386

>  <LOGP>  (3287) 
-0.24389999999999762

>  <TPSA>  (3287) 
120.11

>  <POPULARITY>  (3287) 
5.8

>  <PROTECTED>  (3287) 
TRUE

>  <SMILES>  (3287) 
N(CCCOCCOCCOCCCN)C(=O)CCC(=O)O

>  <INCHIKEY>  (3287) 
FRJNIHLOMXIQKH-UHFFFAOYSA-N

$$$$
Q0004
     RDKit          2D

 31 33  0  0  0  0  0  0  0  0999 V2000
   -3.0313    2.1601    0.0000 N   0  0  0  0  0  0  0  0  0  0  0  0
   -4.4790    1.7673    0.0000 C   0  0  0  0  0  0  0  0  0  0  0  0
   -4.8627    0.3172    0.0000 C   0  0  0  0  0  0  0  0  0  0  0  0
   -3.7987   -0.7401    0.0000 C   0  0  0  0  0  0  0  0  0  0  0  0
   -2.3510   -0.3473    0.0000 C   0  0  0  0  0  0  0  0  0  0  0  0
   -1.2870   -1.4046    0.0000 C   0  0  0  0  0  0  0  0  0  0  0  0
   -1.6707   -2.8547    0.0000 C   0  0  0  0  0  0  0  0  0  0  0  0
   -3.1184   -3.2475    0.0000 C   0  0  0  0  0  0  0  0  0  0  0  0
   -4.1824   -2.1902    0.0000 C   0  0  0  0  0  0  0  0  0  0  0  0
   -5.6300   -2.5830    0.0000 C   0  0  0  0  0  0  0  0  0  0  0  0
   -6.0137   -4.0331    0.0000 C   0  0  0  0  0  0  0  0  0  0  0  0
    0.1606   -1.0119    0.0000 C   0  0  0  0  0  0  0  0  0  0  0  0
    0.5534   -2.4595    0.0000 C   0  0  0  0  0  0  0  0  0  0  0  0
   -0.2321    0.4358    0.0000 C   0  0  0  0  0  0  0  0  0  0  0  0
    1.6083   -0.6191    0.0000 C   0  0  0  0  0  0  0  0  0  0  0  0
    2.7770   -1.5594    0.0000 N   0  0  0  0  0  0  0  0  0  0  0  0
    4.0324   -0.7385    0.0000 C   0  0  0  0  0  0  0  0  0  0  0  0
    5.4825   -1.1222    0.0000 C   0  0  0  0  0  0  0  0  0  0  0  0
    6.5398   -0.0582    0.0000 C   0  0  0  0  0  0  0  0  0  0  0  0
    7.9899   -0.4419    0.0000 C   0  0  0  0  0  0  0  0  0  0  0  0
    9.4400   -0.8256    0.0000 N   0  0  0  0  0  0  0  0  0  0  0  0
    6.1471    1.3894    0.0000 C   0  0  0  0  0  0  0  0  0  0  0  0
    4.6970    1.7731    0.0000 C   0  0  0  0  0  0  0  0  0  0  0  0
    3.6396    0.7091    0.0000 C   0  0  0  0  0  0  0  0  0  0  0  0
    2.1415    0.7829    0.0000 C   0  0  0  0  0  0  0  0  0  0  0  0
    1.3206    2.0384    0.0000 C   0  0  0  0  0  0  0  0  0  0  0  0
    1.9973    3.3770    0.0000 O   0  0  0  0  0  0  0  0  0  0  0  0
   -0.1771    1.9552    0.0000 O   0  0  0  0  0  0  0  0  0  0  0  0
   -5.5430    2.8247    0.0000 C   0  0  0  0  0  0  0  0  0  0  0  0
   -6.9906    2.4319    0.0000 O   0  0  0  0  0  0  0  0  0  0  0  0
   -5.1593    4.2748    0.0000 O   0  0  0  0  0  0  0  0  0  0  0  0
  2  1  1  1
  2  3  1  0
  3  4  1  0
  4  5  1  0
  5  6  2  0
  6  7  1  0
  7  8  2  0
  8  9  1  0
  9 10  1  0
 10 11  1  0
  6 12  1  0
 12 13  1  0
 12 14  1  0
 12 15  1  0
 15 16  1  0
 16 17  1  0
 17 18  1  0
 18 19  2  0
 19 20  1  0
 20 21  3  0
 19 22  1  0
 22 23  2  0
 23 24  1  0
 24 25  1  0
 25 26  1  0
 26 27  2  0
 26 28  1  0
  2 29  1  0
 29 30  2  0
 29 31  1  0
  9  4  2  0
 24 17  2  0
 25 15  2  0
M  END
>  <rName>  (3288) 
Q0004

>  <PQ_SYMBOL>  (3288) 
Q0004

>  <FULL_NAME>  (3288) 
2-(2-{3-[(2S)-2-amino-2-carboxyethyl]-4-ethylphenyl}propan-2-yl)-6-cyano-1H-indole-3-carboxylic acid

>  <IUPAC_CONDENSED>  (3288) 


>  <IUPAC>  (3288) 
2-(2-(3-((2S)-2-amino-3-hydroxy-3-oxopropyl)-4-ethylphenyl)propan-2-yl)-6-cyano-1H-indole-3-carboxylic acid

>  <TYPE>  (3288) 
Backbone

>  <CLASS>  (3288) 
alpha

>  <ANALOG>  (3288) 
Phe

>  <MOL_WT>  (3288) 
419.4810000000001

>  <LOGP>  (3288) 
3.5804800000000014

>  <TPSA>  (3288) 
140.2

>  <POPULARITY>  (3288) 
2.2

>  <PROTECTED>  (3288) 
TRUE

>  <SMILES>  (3288) 
N[C@@H](Cc1(cc(ccc1CC)C(C)(C)c3([nH]c2(cc(C#N)ccc2c3C(=O)O))))C(=O)O

>  <INCHIKEY>  (3288) 
IYZFETXPFHGSRC-SFHVURJKSA-N

$$$$
Q0005
     RDKit          2D

 60 59  0  0  0  0  0  0  0  0999 V2000
    7.6853   -0.4739    0.0000 N   0  0  0  0  0  0  0  0  0  0  0  0
    8.9854    0.2742    0.0000 C   0  0  0  0  0  0  0  0  0  0  0  0
    8.9877    1.7742    0.0000 O   0  0  0  0  0  0  0  0  0  0  0  0
   10.2834   -0.4778    0.0000 C   0  0  0  0  0  0  0  0  0  0  0  0
   11.5835    0.2703    0.0000 C   0  0  0  0  0  0  0  0  0  0  0  0
   12.8814   -0.4816    0.0000 C   0  0  0  0  0  0  0  0  0  0  0  0
   14.1816    0.2665    0.0000 C   0  0  0  0  0  0  0  0  0  0  0  0
   15.4795   -0.4855    0.0000 C   0  0  0  0  0  0  0  0  0  0  0  0
   16.7797    0.2626    0.0000 C   0  0  0  0  0  0  0  0  0  0  0  0
   18.0776   -0.4893    0.0000 C   0  0  0  0  0  0  0  0  0  0  0  0
   19.3777    0.2588    0.0000 C   0  0  0  0  0  0  0  0  0  0  0  0
   20.6756   -0.4932    0.0000 C   0  0  0  0  0  0  0  0  0  0  0  0
   21.9758    0.2549    0.0000 C   0  0  0  0  0  0  0  0  0  0  0  0
   23.2737   -0.4970    0.0000 C   0  0  0  0  0  0  0  0  0  0  0  0
   24.5739    0.2510    0.0000 C   0  0  0  0  0  0  0  0  0  0  0  0
   25.8718   -0.5009    0.0000 C   0  0  0  0  0  0  0  0  0  0  0  0
   27.1719    0.2472    0.0000 C   0  0  0  0  0  0  0  0  0  0  0  0
   28.4699   -0.5047    0.0000 C   0  0  0  0  0  0  0  0  0  0  0  0
   29.7700    0.2433    0.0000 C   0  0  0  0  0  0  0  0  0  0  0  0
   31.0679   -0.5086    0.0000 C   0  0  0  0  0  0  0  0  0  0  0  0
   31.0657   -2.0086    0.0000 O   0  0  0  0  0  0  0  0  0  0  0  0
   32.3681    0.2395    0.0000 O   0  0  0  0  0  0  0  0  0  0  0  0
    6.3874    0.2780    0.0000 C   0  0  0  0  0  0  0  0  0  0  0  0
    5.0872   -0.4700    0.0000 C   0  0  0  0  0  0  0  0  0  0  0  0
    3.7893    0.2819    0.0000 C   0  0  0  0  0  0  0  0  0  0  0  0
    2.4891   -0.4662    0.0000 C   0  0  0  0  0  0  0  0  0  0  0  0
    2.4869   -1.9662    0.0000 O   0  0  0  0  0  0  0  0  0  0  0  0
    1.1912    0.2857    0.0000 N   0  0  0  0  0  0  0  0  0  0  0  0
   -0.1089   -0.4623    0.0000 C   0  0  0  0  0  0  0  0  0  0  0  0
   -1.4069    0.2896    0.0000 C   0  0  0  0  0  0  0  0  0  0  0  0
   -2.7070   -0.4585    0.0000 O   0  0  0  0  0  0  0  0  0  0  0  0
   -4.0049    0.2934    0.0000 C   0  0  0  0  0  0  0  0  0  0  0  0
   -5.3051   -0.4546    0.0000 C   0  0  0  0  0  0  0  0  0  0  0  0
   -6.6030    0.2973    0.0000 O   0  0  0  0  0  0  0  0  0  0  0  0
   -7.9032   -0.4508    0.0000 C   0  0  0  0  0  0  0  0  0  0  0  0
   -9.2011    0.3012    0.0000 C   0  0  0  0  0  0  0  0  0  0  0  0
   -9.1989    1.8012    0.0000 O   0  0  0  0  0  0  0  0  0  0  0  0
  -10.5012   -0.4469    0.0000 N   0  0  0  0  0  0  0  0  0  0  0  0
  -11.7992    0.3050    0.0000 C   0  0  0  0  0  0  0  0  0  0  0  0
  -13.0993   -0.4431    0.0000 C   0  0  0  0  0  0  0  0  0  0  0  0
  -14.3972    0.3089    0.0000 O   0  0  0  0  0  0  0  0  0  0  0  0
  -15.6974   -0.4392    0.0000 C   0  0  0  0  0  0  0  0  0  0  0  0
  -16.9953    0.3127    0.0000 C   0  0  0  0  0  0  0  0  0  0  0  0
  -18.2955   -0.4354    0.0000 O   0  0  0  0  0  0  0  0  0  0  0  0
  -19.5934    0.3166    0.0000 C   0  0  0  0  0  0  0  0  0  0  0  0
  -20.8935   -0.4315    0.0000 C   0  0  0  0  0  0  0  0  0  0  0  0
  -20.8958   -1.9315    0.0000 O   0  0  0  0  0  0  0  0  0  0  0  0
  -22.1914    0.3204    0.0000 N   0  0  0  0  0  0  0  0  0  0  0  0
  -23.4916   -0.4276    0.0000 C   0  0  0  0  0  0  0  0  0  0  0  0
  -24.7895    0.3243    0.0000 C   0  0  0  0  0  0  0  0  0  0  0  0
  -26.0897   -0.4238    0.0000 C   0  0  0  0  0  0  0  0  0  0  0  0
  -27.3876    0.3281    0.0000 C   0  0  0  0  0  0  0  0  0  0  0  0
  -28.6877   -0.4199    0.0000 C   0  0  0  0  0  0  0  0  0  0  0  0
  -28.6900   -1.9199    0.0000 N   0  0  0  0  0  0  0  0  0  0  0  0
  -29.9857    0.3320    0.0000 C   0  0  0  0  0  0  0  0  0  0  0  0
  -29.9834    1.8320    0.0000 O   0  0  0  0  0  0  0  0  0  0  0  0
  -31.2858   -0.4161    0.0000 O   0  0  0  0  0  0  0  0  0  0  0  0
    6.3896    1.7780    0.0000 C   0  0  0  0  0  0  0  0  0  0  0  0
    7.6897    2.5261    0.0000 O   0  0  0  0  0  0  0  0  0  0  0  0
    5.0917    2.5299    0.0000 O   0  0  0  0  0  0  0  0  0  0  0  0
  1  2  1  0
  2  3  2  0
  2  4  1  0
  4  5  1  0
  5  6  1  0
  6  7  1  0
  7  8  1  0
  8  9  1  0
  9 10  1  0
 10 11  1  0
 11 12  1  0
 12 13  1  0
 13 14  1  0
 14 15  1  0
 15 16  1  0
 16 17  1  0
 17 18  1  0
 18 19  1  0
 19 20  1  0
 20 21  2  0
 20 22  1  0
  1 23  1  0
 23 24  1  1
 24 25  1  0
 25 26  1  0
 26 27  2  0
 26 28  1  0
 28 29  1  0
 29 30  1  0
 30 31  1  0
 31 32  1  0
 32 33  1  0
 33 34  1  0
 34 35  1  0
 35 36  1  0
 36 37  2  0
 36 38  1  0
 38 39  1  0
 39 40  1  0
 40 41  1  0
 41 42  1  0
 42 43  1  0
 43 44  1  0
 44 45  1  0
 45 46  1  0
 46 47  2  0
 46 48  1  0
 48 49  1  0
 49 50  1  0
 50 51  1  0
 51 52  1  0
 52 53  1  0
 53 54  1  6
 53 55  1  0
 55 56  2  0
 55 57  1  0
 23 58  1  0
 58 59  2  0
 58 60  1  0
M  END
>  <rName>  (3289) 
Q0005

>  <PQ_SYMBOL>  (3289) 
Q0005

>  <FULL_NAME>  (3289) 
Lysine, semaglutide-

>  <IUPAC_CONDENSED>  (3289) 


>  <IUPAC>  (3289) 
17-(((2S)-5-((2-(2-(2-((2-(2-(2-(((5S)-5-amino-6-hydroxy-6-oxohexyl)amino)-2-oxoethoxy)ethoxy)ethyl)amino)-2-oxoethoxy)ethoxy)ethyl)amino)-1-hydroxy-1,5-dioxopentan-2-yl)carbamoyl)heptadecanoic acid

>  <TYPE>  (3289) 
Backbone

>  <CLASS>  (3289) 
alpha

>  <ANALOG>  (3289) 
Gln

>  <MOL_WT>  (3289) 
862.0719999999998

>  <LOGP>  (3289) 
2.65940000000001

>  <TPSA>  (3289) 
291.24

>  <POPULARITY>  (3289) 
2.8

>  <PROTECTED>  (3289) 
TRUE

>  <SMILES>  (3289) 
N(C(=O)CCCCCCCCCCCCCCCCC(=O)O)[C@@H](CCC(=O)NCCOCCOCC(=O)NCCOCCOCC(=O)NCCCC[C@H](N)C(=O)O)C(=O)O

>  <INCHIKEY>  (3289) 
QDUKXQMKBZEBHC-HEVIKAOCSA-N

$$$$
R
     RDKit          2D

 12 11  0  0  0  0  0  0  0  0999 V2000
    2.4617   -1.9005    0.0000 N   0  0  0  0  0  0  0  0  0  0  0  0
    2.4001   -0.4018    0.0000 C   0  0  0  0  0  0  0  0  0  0  0  0
    1.0713    0.2943    0.0000 C   0  0  0  0  0  0  0  0  0  0  0  0
   -0.1958   -0.5085    0.0000 C   0  0  0  0  0  0  0  0  0  0  0  0
   -1.5245    0.1875    0.0000 C   0  0  0  0  0  0  0  0  0  0  0  0
   -2.7917   -0.6152    0.0000 N   0  0  0  0  0  0  0  0  0  0  0  0
   -4.1204    0.0808    0.0000 C   0  0  0  0  0  0  0  0  0  0  0  0
   -4.1820    1.5796    0.0000 N   0  0  0  0  0  0  0  0  0  0  0  0
   -5.3876   -0.7219    0.0000 N   0  0  0  0  0  0  0  0  0  0  0  0
    3.6672    0.4010    0.0000 C   0  0  0  0  0  0  0  0  0  0  0  0
    3.6056    1.8997    0.0000 O   0  0  0  0  0  0  0  0  0  0  0  0
    4.9960   -0.2950    0.0000 O   0  0  0  0  0  0  0  0  0  0  0  0
  2  1  1  1
  2  3  1  0
  3  4  1  0
  4  5  1  0
  5  6  1  0
  6  7  1  0
  7  8  2  0
  7  9  1  0
  2 10  1  0
 10 11  2  0
 10 12  1  0
M  END
>  <rName>  (3290) 
R

>  <PQ_SYMBOL>  (3290) 
R

>  <FULL_NAME>  (3290) 
L-Arginine

>  <IUPAC_CONDENSED>  (3290) 
Arg

>  <IUPAC>  (3290) 
(2S)-2-amino-5-(((amino)(imino)methyl)amino)pentanoic acid

>  <TYPE>  (3290) 
Backbone

>  <CLASS>  (3290) 
alpha

>  <ANALOG>  (3290) 
Arg

>  <MOL_WT>  (3290) 
174.204

>  <LOGP>  (3290) 
-1.338429999999999

>  <TPSA>  (3290) 
125.22000000000001

>  <POPULARITY>  (3290) 
96.3

>  <PROTECTED>  (3290) 
TRUE

>  <SMILES>  (3290) 
N[C@@H](CCCNC(=N)N)C(=O)O

>  <INCHIKEY>  (3290) 
ODKSFYDXXFIFQN-BYPYZUCNSA-N

$$$$
R-3-aminoazepan-2-one
     RDKit          2D

  9  9  0  0  0  0  0  0  0  0999 V2000
    2.2624   -1.4008    0.0000 N   0  0  0  0  0  0  0  0  0  0  0  0
    0.9110   -0.7500    0.0000 C   0  0  0  0  0  0  0  0  0  0  0  0
    0.9110    0.7500    0.0000 C   0  0  0  0  0  0  0  0  0  0  0  0
    2.2624    1.4008    0.0000 O   0  0  0  0  0  0  0  0  0  0  0  0
   -0.2618    1.6852    0.0000 N   0  0  0  0  0  0  0  0  0  0  0  0
   -1.7242    1.3515    0.0000 C   0  0  0  0  0  0  0  0  0  0  0  0
   -2.3750    0.0000    0.0000 C   0  0  0  0  0  0  0  0  0  0  0  0
   -1.7242   -1.3515    0.0000 C   0  0  0  0  0  0  0  0  0  0  0  0
   -0.2618   -1.6852    0.0000 C   0  0  0  0  0  0  0  0  0  0  0  0
  2  1  1  6
  2  3  1  0
  3  4  2  0
  3  5  1  0
  5  6  1  0
  6  7  1  0
  7  8  1  0
  8  9  1  0
  9  2  1  0
M  END
>  <rName>  (3291) 
R-3-aminoazepan-2-one

>  <PQ_SYMBOL>  (3291) 
R-3-aminoazepan-2-one

>  <FULL_NAME>  (3291) 
(3R)-3-aminoazepan-2-one

>  <IUPAC_CONDENSED>  (3291) 
R-3-aminoazepan-2-one

>  <IUPAC>  (3291) 
(3R)-3-amino-1-azacycloheptan-2-one

>  <TYPE>  (3291) 
C-term cap

>  <CLASS>  (3291) 
c_cap

>  <ANALOG>  (3291) 
X

>  <MOL_WT>  (3291) 
128.17499999999998

>  <LOGP>  (3291) 
-0.38620000000000076

>  <TPSA>  (3291) 
55.120000000000005

>  <POPULARITY>  (3291) 
10.8

>  <PROTECTED>  (3291) 
TRUE

>  <SMILES>  (3291) 
N[C@H]1C(=O)NCCCC1

>  <INCHIKEY>  (3291) 
BOWUOGIPSRVRSJ-RXMQYKEDSA-N

$$$$
R-6-benzylpiperazin-2-one
     RDKit          2D

 14 15  0  0  0  0  0  0  0  0999 V2000
    3.6106   -1.2140    0.0000 N   0  0  0  0  0  0  0  0  0  0  0  0
    2.2448   -1.8342    0.0000 C   0  0  0  0  0  0  0  0  0  0  0  0
    1.0248   -0.9614    0.0000 C   0  0  0  0  0  0  0  0  0  0  0  0
    1.1707    0.5315    0.0000 N   0  0  0  0  0  0  0  0  0  0  0  0
    2.5365    1.1516    0.0000 C   0  0  0  0  0  0  0  0  0  0  0  0
    2.6824    2.6445    0.0000 O   0  0  0  0  0  0  0  0  0  0  0  0
    3.7565    0.2788    0.0000 C   0  0  0  0  0  0  0  0  0  0  0  0
   -0.3410   -1.5815    0.0000 C   0  0  0  0  0  0  0  0  0  0  0  0
   -1.5609   -0.7087    0.0000 C   0  0  0  0  0  0  0  0  0  0  0  0
   -1.4151    0.7842    0.0000 C   0  0  0  0  0  0  0  0  0  0  0  0
   -2.6350    1.6570    0.0000 C   0  0  0  0  0  0  0  0  0  0  0  0
   -4.0008    1.0369    0.0000 C   0  0  0  0  0  0  0  0  0  0  0  0
   -4.1467   -0.4560    0.0000 C   0  0  0  0  0  0  0  0  0  0  0  0
   -2.9268   -1.3288    0.0000 C   0  0  0  0  0  0  0  0  0  0  0  0
  1  2  1  0
  2  3  1  0
  3  4  1  0
  4  5  1  0
  5  6  2  0
  5  7  1  0
  3  8  1  1
  8  9  1  0
  9 10  2  0
 10 11  1  0
 11 12  2  0
 12 13  1  0
 13 14  2  0
 14  9  1  0
  7  1  1  0
M  END
>  <rName>  (3292) 
R-6-benzylpiperazin-2-one

>  <PQ_SYMBOL>  (3292) 
R-6-benzylpiperazin-2-one

>  <FULL_NAME>  (3292) 
(6R)-6-benzylpiperazin-2-one

>  <IUPAC_CONDENSED>  (3292) 
R-6-benzylpiperazin-2-one

>  <IUPAC>  (3292) 
(6R)-6-benzylpiperazin-2-one

>  <TYPE>  (3292) 
C-term cap

>  <CLASS>  (3292) 
c_cap

>  <ANALOG>  (3292) 
X

>  <MOL_WT>  (3292) 
190.24600000000004

>  <LOGP>  (3292) 
0.3170999999999997

>  <TPSA>  (3292) 
41.129999999999995

>  <POPULARITY>  (3292) 
10.0

>  <PROTECTED>  (3292) 
TRUE

>  <SMILES>  (3292) 
N2C[C@H](NC(=O)C2)Cc1ccccc1

>  <INCHIKEY>  (3292) 
PGNYGDAFMUYUNJ-SNVBAGLBSA-N

$$$$
S
     RDKit          2D

  7  6  0  0  0  0  0  0  0  0999 V2000
    0.5797   -1.7367    0.0000 N   0  0  0  0  0  0  0  0  0  0  0  0
    0.2514   -0.2730    0.0000 C   0  0  0  0  0  0  0  0  0  0  0  0
    1.3548    0.7431    0.0000 C   0  0  0  0  0  0  0  0  0  0  0  0
    2.7865    0.2956    0.0000 O   0  0  0  0  0  0  0  0  0  0  0  0
   -1.1803    0.1745    0.0000 C   0  0  0  0  0  0  0  0  0  0  0  0
   -1.5086    1.6381    0.0000 O   0  0  0  0  0  0  0  0  0  0  0  0
   -2.2837   -0.8417    0.0000 O   0  0  0  0  0  0  0  0  0  0  0  0
  2  1  1  6
  2  3  1  0
  3  4  1  0
  2  5  1  0
  5  6  2  0
  5  7  1  0
M  END
>  <rName>  (3293) 
S

>  <PQ_SYMBOL>  (3293) 
S

>  <FULL_NAME>  (3293) 
L-Serine

>  <IUPAC_CONDENSED>  (3293) 
Ser

>  <IUPAC>  (3293) 
(2S)-2-amino-3-hydroxypropanoic acid

>  <TYPE>  (3293) 
Backbone

>  <CLASS>  (3293) 
alpha

>  <ANALOG>  (3293) 
Ser

>  <MOL_WT>  (3293) 
105.09299999999999

>  <LOGP>  (3293) 
-1.6093999999999997

>  <TPSA>  (3293) 
83.55

>  <POPULARITY>  (3293) 
96.5

>  <PROTECTED>  (3293) 
TRUE

>  <SMILES>  (3293) 
N[C@@H](CO)C(=O)O

>  <INCHIKEY>  (3293) 
MTCFGRXMJLQNBG-REOHCLBHSA-N

$$$$
S-2-aminoglutarimide
     RDKit          2D

  9  9  0  0  0  0  0  0  0  0999 V2000
    2.6931   -0.9264    0.0000 N   0  0  0  0  0  0  0  0  0  0  0  0
    1.2325   -0.5848    0.0000 C   0  0  0  0  0  0  0  0  0  0  0  0
    0.2064   -1.6788    0.0000 C   0  0  0  0  0  0  0  0  0  0  0  0
   -1.2542   -1.3372    0.0000 C   0  0  0  0  0  0  0  0  0  0  0  0
   -1.6886    0.0985    0.0000 C   0  0  0  0  0  0  0  0  0  0  0  0
   -0.6625    1.1926    0.0000 N   0  0  0  0  0  0  0  0  0  0  0  0
    0.7981    0.8510    0.0000 C   0  0  0  0  0  0  0  0  0  0  0  0
    1.8243    1.9450    0.0000 O   0  0  0  0  0  0  0  0  0  0  0  0
   -3.1492    0.4401    0.0000 O   0  0  0  0  0  0  0  0  0  0  0  0
  2  1  1  1
  2  3  1  0
  3  4  1  0
  4  5  1  0
  5  6  1  0
  6  7  1  0
  7  8  2  0
  5  9  2  0
  7  2  1  0
M  END
>  <rName>  (3294) 
S-2-aminoglutarimide

>  <PQ_SYMBOL>  (3294) 
S-2-aminoglutarimide

>  <FULL_NAME>  (3294) 
L-2-Aminoglutarimide

>  <IUPAC_CONDENSED>  (3294) 
S-2-aminoglutarimide

>  <IUPAC>  (3294) 
(3S)-3-aminopiperidine-2,6-dione

>  <TYPE>  (3294) 
C-term cap

>  <CLASS>  (3294) 
c_cap

>  <ANALOG>  (3294) 
X

>  <MOL_WT>  (3294) 
128.131

>  <LOGP>  (3294) 
-1.2497

>  <TPSA>  (3294) 
72.19

>  <POPULARITY>  (3294) 
10.9

>  <PROTECTED>  (3294) 
FALSE

>  <SMILES>  (3294) 
N[C@H]1CCC(NC1=O)=O

>  <INCHIKEY>  (3294) 
NPWMTBZSRRLQNJ-VKHMYHEASA-N

$$$$
S-2-aminohexane-11-diol
     RDKit          2D

  9  8  0  0  0  0  0  0  0  0999 V2000
    0.7616   -1.8791    0.0000 N   0  0  0  0  0  0  0  0  0  0  0  0
    0.8459   -0.3815    0.0000 C   0  0  0  0  0  0  0  0  0  0  0  0
    2.1851    0.2943    0.0000 C   0  0  0  0  0  0  0  0  0  0  0  0
    3.4399   -0.5275    0.0000 O   0  0  0  0  0  0  0  0  0  0  0  0
    2.2694    1.7919    0.0000 O   0  0  0  0  0  0  0  0  0  0  0  0
   -0.4089    0.4403    0.0000 C   0  0  0  0  0  0  0  0  0  0  0  0
   -1.7480   -0.2354    0.0000 C   0  0  0  0  0  0  0  0  0  0  0  0
   -3.0029    0.5864    0.0000 C   0  0  0  0  0  0  0  0  0  0  0  0
   -4.3420   -0.0894    0.0000 C   0  0  0  0  0  0  0  0  0  0  0  0
  2  1  1  1
  2  3  1  0
  3  4  1  0
  3  5  1  0
  2  6  1  0
  6  7  1  0
  7  8  1  0
  8  9  1  0
M  END
>  <rName>  (3295) 
S-2-aminohexane-11-diol

>  <PQ_SYMBOL>  (3295) 
S-2-aminohexane-11-diol

>  <FULL_NAME>  (3295) 
(2S)-2-AMINOHEXANE-1,1-DIOL

>  <IUPAC_CONDENSED>  (3295) 
S-2-aminohexane-1,1-diol

>  <IUPAC>  (3295) 
(2S)-2-aminohexane-1,1-diol

>  <TYPE>  (3295) 
C-term cap

>  <CLASS>  (3295) 
c_cap

>  <ANALOG>  (3295) 
X

>  <MOL_WT>  (3295) 
133.191

>  <LOGP>  (3295) 
-0.18540000000000068

>  <TPSA>  (3295) 
66.48

>  <POPULARITY>  (3295) 
12.3

>  <PROTECTED>  (3295) 
FALSE

>  <SMILES>  (3295) 
N[C@H](C(O)O)CCCC

>  <INCHIKEY>  (3295) 
SUCLLBDDWGZXQQ-YFKPBYRVSA-N

$$$$
S-3-aminoazepan-2-one
     RDKit          2D

  9  9  0  0  0  0  0  0  0  0999 V2000
    2.2624   -1.4008    0.0000 N   0  0  0  0  0  0  0  0  0  0  0  0
    0.9110   -0.7500    0.0000 C   0  0  0  0  0  0  0  0  0  0  0  0
    0.9110    0.7500    0.0000 C   0  0  0  0  0  0  0  0  0  0  0  0
    2.2624    1.4008    0.0000 O   0  0  0  0  0  0  0  0  0  0  0  0
   -0.2618    1.6852    0.0000 N   0  0  0  0  0  0  0  0  0  0  0  0
   -1.7242    1.3515    0.0000 C   0  0  0  0  0  0  0  0  0  0  0  0
   -2.3750    0.0000    0.0000 C   0  0  0  0  0  0  0  0  0  0  0  0
   -1.7242   -1.3515    0.0000 C   0  0  0  0  0  0  0  0  0  0  0  0
   -0.2618   -1.6852    0.0000 C   0  0  0  0  0  0  0  0  0  0  0  0
  2  1  1  1
  2  3  1  0
  3  4  2  0
  3  5  1  0
  5  6  1  0
  6  7  1  0
  7  8  1  0
  8  9  1  0
  9  2  1  0
M  END
>  <rName>  (3296) 
S-3-aminoazepan-2-one

>  <PQ_SYMBOL>  (3296) 
S-3-aminoazepan-2-one

>  <FULL_NAME>  (3296) 
(3S)-3-aminoazepan-2-one

>  <IUPAC_CONDENSED>  (3296) 
S-3-aminoazepan-2-one

>  <IUPAC>  (3296) 
(3S)-3-amino-1-azacycloheptan-2-one

>  <TYPE>  (3296) 
C-term cap

>  <CLASS>  (3296) 
c_cap

>  <ANALOG>  (3296) 
X

>  <MOL_WT>  (3296) 
128.17499999999998

>  <LOGP>  (3296) 
-0.38620000000000076

>  <TPSA>  (3296) 
55.120000000000005

>  <POPULARITY>  (3296) 
16.1

>  <PROTECTED>  (3296) 
TRUE

>  <SMILES>  (3296) 
N[C@@H]1C(=O)NCCCC1

>  <INCHIKEY>  (3296) 
BOWUOGIPSRVRSJ-YFKPBYRVSA-N

$$$$
S-3-aminopiperidin-2-one
     RDKit          2D

  8  8  0  0  0  0  0  0  0  0999 V2000
    1.9486   -1.5000    0.0000 N   0  0  0  0  0  0  0  0  0  0  0  0
    0.6495   -0.7500    0.0000 C   0  0  0  0  0  0  0  0  0  0  0  0
   -0.6495   -1.5000    0.0000 C   0  0  0  0  0  0  0  0  0  0  0  0
   -1.9486   -0.7500    0.0000 C   0  0  0  0  0  0  0  0  0  0  0  0
   -1.9486    0.7500    0.0000 C   0  0  0  0  0  0  0  0  0  0  0  0
   -0.6495    1.5000    0.0000 N   0  0  0  0  0  0  0  0  0  0  0  0
    0.6495    0.7500    0.0000 C   0  0  0  0  0  0  0  0  0  0  0  0
    1.9486    1.5000    0.0000 O   0  0  0  0  0  0  0  0  0  0  0  0
  2  1  1  1
  2  3  1  0
  3  4  1  0
  4  5  1  0
  5  6  1  0
  6  7  1  0
  7  8  2  0
  7  2  1  0
M  END
>  <rName>  (3297) 
S-3-aminopiperidin-2-one

>  <PQ_SYMBOL>  (3297) 
S-3-aminopiperidin-2-one

>  <FULL_NAME>  (3297) 
(3S)-3-aminopiperidin-2-one

>  <IUPAC_CONDENSED>  (3297) 
S-3-aminopiperidin-2-one

>  <IUPAC>  (3297) 
(3S)-3-aminopiperidin-2-one

>  <TYPE>  (3297) 
C-term cap

>  <CLASS>  (3297) 
c_cap

>  <ANALOG>  (3297) 
X

>  <MOL_WT>  (3297) 
114.148

>  <LOGP>  (3297) 
-0.7763000000000002

>  <TPSA>  (3297) 
55.12

>  <POPULARITY>  (3297) 
13.2

>  <PROTECTED>  (3297) 
TRUE

>  <SMILES>  (3297) 
N[C@H]1CCCNC1=O

>  <INCHIKEY>  (3297) 
YCCMTCQQDULIFE-BYPYZUCNSA-N

$$$$
S-3-aminopyrrolidine-25-dione
     RDKit          2D

  8  8  0  0  0  0  0  0  0  0999 V2000
   -2.0314   -1.6317    0.0000 N   0  0  0  0  0  0  0  0  0  0  0  0
   -0.8178   -0.7500    0.0000 C   0  0  0  0  0  0  0  0  0  0  0  0
    0.6088   -1.2135    0.0000 C   0  0  0  0  0  0  0  0  0  0  0  0
    1.4904    0.0000    0.0000 C   0  0  0  0  0  0  0  0  0  0  0  0
    0.6088    1.2135    0.0000 N   0  0  0  0  0  0  0  0  0  0  0  0
   -0.8178    0.7500    0.0000 C   0  0  0  0  0  0  0  0  0  0  0  0
   -2.0314    1.6317    0.0000 O   0  0  0  0  0  0  0  0  0  0  0  0
    2.9904    0.0000    0.0000 O   0  0  0  0  0  0  0  0  0  0  0  0
  2  1  1  6
  2  3  1  0
  3  4  1  0
  4  5  1  0
  5  6  1  0
  6  7  2  0
  4  8  2  0
  6  2  1  0
M  END
>  <rName>  (3298) 
S-3-aminopyrrolidine-25-dione

>  <PQ_SYMBOL>  (3298) 
S-3-aminopyrrolidine-25-dione

>  <FULL_NAME>  (3298) 
(3S)-3-aminopyrrolidine-2,5-dione

>  <IUPAC_CONDENSED>  (3298) 
S-3-aminopyrrolidine-2,5-dione

>  <IUPAC>  (3298) 
(3S)-3-aminopyrrolidine-2,5-dione

>  <TYPE>  (3298) 
C-term cap

>  <CLASS>  (3298) 
c_cap

>  <ANALOG>  (3298) 
X

>  <MOL_WT>  (3298) 
114.10399999999998

>  <LOGP>  (3298) 
-1.6397999999999997

>  <TPSA>  (3298) 
72.19

>  <POPULARITY>  (3298) 
28.4

>  <PROTECTED>  (3298) 
TRUE

>  <SMILES>  (3298) 
N[C@H]1CC(NC1=O)=O

>  <INCHIKEY>  (3298) 
YDNMHDRXNOHCJH-REOHCLBHSA-N

$$$$
S-6-benzylpiperazin-2-one
     RDKit          2D

 14 15  0  0  0  0  0  0  0  0999 V2000
    3.6106   -1.2140    0.0000 N   0  0  0  0  0  0  0  0  0  0  0  0
    2.2448   -1.8342    0.0000 C   0  0  0  0  0  0  0  0  0  0  0  0
    1.0248   -0.9614    0.0000 C   0  0  0  0  0  0  0  0  0  0  0  0
    1.1707    0.5315    0.0000 N   0  0  0  0  0  0  0  0  0  0  0  0
    2.5365    1.1516    0.0000 C   0  0  0  0  0  0  0  0  0  0  0  0
    2.6824    2.6445    0.0000 O   0  0  0  0  0  0  0  0  0  0  0  0
    3.7565    0.2788    0.0000 C   0  0  0  0  0  0  0  0  0  0  0  0
   -0.3410   -1.5815    0.0000 C   0  0  0  0  0  0  0  0  0  0  0  0
   -1.5609   -0.7087    0.0000 C   0  0  0  0  0  0  0  0  0  0  0  0
   -1.4151    0.7842    0.0000 C   0  0  0  0  0  0  0  0  0  0  0  0
   -2.6350    1.6570    0.0000 C   0  0  0  0  0  0  0  0  0  0  0  0
   -4.0008    1.0369    0.0000 C   0  0  0  0  0  0  0  0  0  0  0  0
   -4.1467   -0.4560    0.0000 C   0  0  0  0  0  0  0  0  0  0  0  0
   -2.9268   -1.3288    0.0000 C   0  0  0  0  0  0  0  0  0  0  0  0
  1  2  1  0
  2  3  1  0
  3  4  1  0
  4  5  1  0
  5  6  2  0
  5  7  1  0
  3  8  1  6
  8  9  1  0
  9 10  2  0
 10 11  1  0
 11 12  2  0
 12 13  1  0
 13 14  2  0
 14  9  1  0
  7  1  1  0
M  END
>  <rName>  (3299) 
S-6-benzylpiperazin-2-one

>  <PQ_SYMBOL>  (3299) 
S-6-benzylpiperazin-2-one

>  <FULL_NAME>  (3299) 
(6S)-6-benzylpiperazin-2-one

>  <IUPAC_CONDENSED>  (3299) 
S-6-benzylpiperazin-2-one

>  <IUPAC>  (3299) 
(6S)-6-benzylpiperazin-2-one

>  <TYPE>  (3299) 
C-term cap

>  <CLASS>  (3299) 
c_cap

>  <ANALOG>  (3299) 
X

>  <MOL_WT>  (3299) 
190.24600000000004

>  <LOGP>  (3299) 
0.3170999999999997

>  <TPSA>  (3299) 
41.129999999999995

>  <POPULARITY>  (3299) 
11.8

>  <PROTECTED>  (3299) 
TRUE

>  <SMILES>  (3299) 
N2C[C@@H](NC(=O)C2)Cc1ccccc1

>  <INCHIKEY>  (3299) 
PGNYGDAFMUYUNJ-JTQLQIEISA-N

$$$$
S-Nip
     RDKit          2D

  9  9  0  0  0  0  0  0  0  0999 V2000
    1.9167   -1.2990    0.0000 N   0  0  0  0  0  0  0  0  0  0  0  0
    0.4167   -1.2990    0.0000 C   0  0  0  0  0  0  0  0  0  0  0  0
   -0.3333    0.0000    0.0000 C   0  0  0  0  0  0  0  0  0  0  0  0
    0.4167    1.2990    0.0000 C   0  0  0  0  0  0  0  0  0  0  0  0
    1.9167    1.2990    0.0000 C   0  0  0  0  0  0  0  0  0  0  0  0
    2.6667    0.0000    0.0000 C   0  0  0  0  0  0  0  0  0  0  0  0
   -1.8333    0.0000    0.0000 C   0  0  0  0  0  0  0  0  0  0  0  0
   -2.5833   -1.2990    0.0000 O   0  0  0  0  0  0  0  0  0  0  0  0
   -2.5833    1.2990    0.0000 O   0  0  0  0  0  0  0  0  0  0  0  0
  1  2  1  0
  2  3  1  0
  3  4  1  0
  4  5  1  0
  5  6  1  0
  3  7  1  1
  7  8  2  0
  7  9  1  0
  6  1  1  0
M  END
>  <rName>  (3300) 
S-Nip

>  <PQ_SYMBOL>  (3300) 
S-Nip

>  <FULL_NAME>  (3300) 
(S)-Nipecotic acid

>  <IUPAC_CONDENSED>  (3300) 
(S)-Nip

>  <IUPAC>  (3300) 
(3S)-piperidine-3-carboxylic acid

>  <TYPE>  (3300) 
Backbone

>  <CLASS>  (3300) 
beta

>  <ANALOG>  (3300) 
Pro

>  <MOL_WT>  (3300) 
129.15900000000002

>  <LOGP>  (3300) 
0.07059999999999994

>  <TPSA>  (3300) 
49.33

>  <POPULARITY>  (3300) 
15.2

>  <PROTECTED>  (3300) 
TRUE

>  <SMILES>  (3300) 
N1C[C@H](CCC1)C(=O)O

>  <INCHIKEY>  (3300) 
XJLSEXAGTJCILF-YFKPBYRVSA-N

$$$$
S-Nip_4SMe
     RDKit          2D

 10 10  0  0  0  0  0  0  0  0999 V2000
    2.0255   -1.4594    0.0000 N   0  0  0  0  0  0  0  0  0  0  0  0
    0.5274   -1.5344    0.0000 C   0  0  0  0  0  0  0  0  0  0  0  0
   -0.2866   -0.2745    0.0000 C   0  0  0  0  0  0  0  0  0  0  0  0
    0.3975    1.0604    0.0000 C   0  0  0  0  0  0  0  0  0  0  0  0
   -0.4166    2.3203    0.0000 C   0  0  0  0  0  0  0  0  0  0  0  0
    1.8956    1.1355    0.0000 C   0  0  0  0  0  0  0  0  0  0  0  0
    2.7096   -0.1244    0.0000 C   0  0  0  0  0  0  0  0  0  0  0  0
   -1.7848   -0.3495    0.0000 C   0  0  0  0  0  0  0  0  0  0  0  0
   -2.5988    0.9104    0.0000 O   0  0  0  0  0  0  0  0  0  0  0  0
   -2.4688   -1.6844    0.0000 O   0  0  0  0  0  0  0  0  0  0  0  0
  1  2  1  0
  2  3  1  0
  3  4  1  0
  4  5  1  1
  4  6  1  0
  6  7  1  0
  3  8  1  1
  8  9  2  0
  8 10  1  0
  7  1  1  0
M  END
>  <rName>  (3301) 
S-Nip_4SMe

>  <PQ_SYMBOL>  (3301) 
S-Nip_4SMe

>  <FULL_NAME>  (3301) 
cis-4-Methylpiperidine-3-carboxylic acid

>  <IUPAC_CONDENSED>  (3301) 
(S)-Nip(4S-Me)

>  <IUPAC>  (3301) 
(3S,4S)-4-methylpiperidine-3-carboxylic acid

>  <TYPE>  (3301) 
Backbone

>  <CLASS>  (3301) 
beta

>  <ANALOG>  (3301) 
Pro

>  <MOL_WT>  (3301) 
143.186

>  <LOGP>  (3301) 
0.31659999999999994

>  <TPSA>  (3301) 
49.33

>  <POPULARITY>  (3301) 
10.5

>  <PROTECTED>  (3301) 
TRUE

>  <SMILES>  (3301) 
N1C[C@H]([C@@H](C)CC1)C(=O)O

>  <INCHIKEY>  (3301) 
WKOFYEXTIWYYNM-NTSWFWBYSA-N

$$$$
S-Nip_5RCF3
     RDKit          2D

 13 13  0  0  0  0  0  0  0  0999 V2000
   -0.2741   -2.4158    0.0000 N   0  0  0  0  0  0  0  0  0  0  0  0
   -1.5495   -1.6263    0.0000 C   0  0  0  0  0  0  0  0  0  0  0  0
   -1.5035   -0.1270    0.0000 C   0  0  0  0  0  0  0  0  0  0  0  0
   -0.1821    0.5828    0.0000 C   0  0  0  0  0  0  0  0  0  0  0  0
    1.0934   -0.2067    0.0000 C   0  0  0  0  0  0  0  0  0  0  0  0
    1.0474   -1.7060    0.0000 C   0  0  0  0  0  0  0  0  0  0  0  0
    2.4148    0.5031    0.0000 C   0  0  0  0  0  0  0  0  0  0  0  0
    3.7362    1.2129    0.0000 F   0  0  0  0  0  0  0  0  0  0  0  0
    3.1246   -0.8183    0.0000 F   0  0  0  0  0  0  0  0  0  0  0  0
    1.7050    1.8245    0.0000 F   0  0  0  0  0  0  0  0  0  0  0  0
   -2.7789    0.6625    0.0000 C   0  0  0  0  0  0  0  0  0  0  0  0
   -4.1003   -0.0474    0.0000 O   0  0  0  0  0  0  0  0  0  0  0  0
   -2.7329    2.1617    0.0000 O   0  0  0  0  0  0  0  0  0  0  0  0
  1  2  1  0
  2  3  1  0
  3  4  1  0
  4  5  1  0
  5  6  1  0
  5  7  1  1
  7  8  1  0
  7  9  1  0
  7 10  1  0
  3 11  1  1
 11 12  2  0
 11 13  1  0
  6  1  1  0
M  END
>  <rName>  (3302) 
S-Nip_5RCF3

>  <PQ_SYMBOL>  (3302) 
S-Nip_5RCF3

>  <FULL_NAME>  (3302) 
rac-(3R,5S)-5-(trifluoromethyl)piperidine-3-carboxylic acid

>  <IUPAC_CONDENSED>  (3302) 
(S)-Nip(5R-CF3)

>  <IUPAC>  (3302) 
(3S,5R)-5-(trifluoromethyl)piperidine-3-carboxylic acid

>  <TYPE>  (3302) 
Backbone

>  <CLASS>  (3302) 
beta

>  <ANALOG>  (3302) 
Pro

>  <MOL_WT>  (3302) 
197.15599999999998

>  <LOGP>  (3302) 
0.859

>  <TPSA>  (3302) 
49.33

>  <POPULARITY>  (3302) 
3.5

>  <PROTECTED>  (3302) 
TRUE

>  <SMILES>  (3302) 
N1C[C@H](C[C@H](C1)C(F)(F)F)C(=O)O

>  <INCHIKEY>  (3302) 
FYCAOBWFMRWJHV-CRCLSJGQSA-N

$$$$
S-Nip_5SNH2
     RDKit          2D

 10 10  0  0  0  0  0  0  0  0999 V2000
    1.1946   -1.9301    0.0000 N   0  0  0  0  0  0  0  0  0  0  0  0
   -0.2551   -1.5451    0.0000 C   0  0  0  0  0  0  0  0  0  0  0  0
   -0.6466   -0.0971    0.0000 C   0  0  0  0  0  0  0  0  0  0  0  0
    0.4117    0.9659    0.0000 C   0  0  0  0  0  0  0  0  0  0  0  0
    1.8615    0.5809    0.0000 C   0  0  0  0  0  0  0  0  0  0  0  0
    2.9197    1.6440    0.0000 N   0  0  0  0  0  0  0  0  0  0  0  0
    2.2529   -0.8671    0.0000 C   0  0  0  0  0  0  0  0  0  0  0  0
   -2.0963    0.2879    0.0000 C   0  0  0  0  0  0  0  0  0  0  0  0
   -3.1546   -0.7752    0.0000 O   0  0  0  0  0  0  0  0  0  0  0  0
   -2.4878    1.7359    0.0000 O   0  0  0  0  0  0  0  0  0  0  0  0
  1  2  1  0
  2  3  1  0
  3  4  1  0
  4  5  1  0
  5  6  1  6
  5  7  1  0
  3  8  1  6
  8  9  2  0
  8 10  1  0
  7  1  1  0
M  END
>  <rName>  (3303) 
S-Nip_5SNH2

>  <PQ_SYMBOL>  (3303) 
S-Nip_5SNH2

>  <FULL_NAME>  (3303) 
3(s)-Aminopiperidine-5(r)-carboxylic acid

>  <IUPAC_CONDENSED>  (3303) 
(S)-Nip(5S-NH2)

>  <IUPAC>  (3303) 
(3R,5S)-5-aminopiperidine-3-carboxylic acid

>  <TYPE>  (3303) 
Backbone

>  <CLASS>  (3303) 
beta

>  <ANALOG>  (3303) 
Pro

>  <MOL_WT>  (3303) 
144.174

>  <LOGP>  (3303) 
-0.9921999999999993

>  <TPSA>  (3303) 
75.35

>  <POPULARITY>  (3303) 
2.2

>  <PROTECTED>  (3303) 
TRUE

>  <SMILES>  (3303) 
N1C[C@@H](C[C@H](N)C1)C(=O)O

>  <INCHIKEY>  (3303) 
SRPMKKNIFNCJDV-UHNVWZDZSA-N

$$$$
S-Nip_5SOMe
     RDKit          2D

 11 11  0  0  0  0  0  0  0  0999 V2000
    0.5480   -2.1250    0.0000 N   0  0  0  0  0  0  0  0  0  0  0  0
   -0.8455   -1.5700    0.0000 C   0  0  0  0  0  0  0  0  0  0  0  0
   -1.0616   -0.0856    0.0000 C   0  0  0  0  0  0  0  0  0  0  0  0
    0.1159    0.8437    0.0000 C   0  0  0  0  0  0  0  0  0  0  0  0
    1.5094    0.2886    0.0000 C   0  0  0  0  0  0  0  0  0  0  0  0
    2.6869    1.2179    0.0000 O   0  0  0  0  0  0  0  0  0  0  0  0
    4.0804    0.6628    0.0000 C   0  0  0  0  0  0  0  0  0  0  0  0
    1.7255   -1.1957    0.0000 C   0  0  0  0  0  0  0  0  0  0  0  0
   -2.4551    0.4694    0.0000 C   0  0  0  0  0  0  0  0  0  0  0  0
   -3.6326   -0.4599    0.0000 O   0  0  0  0  0  0  0  0  0  0  0  0
   -2.6712    1.9538    0.0000 O   0  0  0  0  0  0  0  0  0  0  0  0
  1  2  1  0
  2  3  1  0
  3  4  1  0
  4  5  1  0
  5  6  1  6
  6  7  1  0
  5  8  1  0
  3  9  1  6
  9 10  2  0
  9 11  1  0
  8  1  1  0
M  END
>  <rName>  (3304) 
S-Nip_5SOMe

>  <PQ_SYMBOL>  (3304) 
S-Nip_5SOMe

>  <FULL_NAME>  (3304) 
rac-(3R,5S)-5-methoxypiperidine-3-carboxylic acid

>  <IUPAC_CONDENSED>  (3304) 
(S)-Nip(5S-OMe)

>  <IUPAC>  (3304) 
(3R,5S)-5-methoxypiperidine-3-carboxylic acid

>  <TYPE>  (3304) 
Backbone

>  <CLASS>  (3304) 
beta

>  <ANALOG>  (3304) 
Pro

>  <MOL_WT>  (3304) 
159.185

>  <LOGP>  (3304) 
-0.30450000000000027

>  <TPSA>  (3304) 
58.56

>  <POPULARITY>  (3304) 
5.8

>  <PROTECTED>  (3304) 
TRUE

>  <SMILES>  (3304) 
N1C[C@@H](C[C@H](OC)C1)C(=O)O

>  <INCHIKEY>  (3304) 
DJPOAMSLSHUTOZ-RITPCOANSA-N

$$$$
S-Nip_6RMe
     RDKit          2D

 10 10  0  0  0  0  0  0  0  0999 V2000
    1.5000   -1.2990    0.0000 N   0  0  0  0  0  0  0  0  0  0  0  0
   -0.0000   -1.2990    0.0000 C   0  0  0  0  0  0  0  0  0  0  0  0
   -0.7500    0.0000    0.0000 C   0  0  0  0  0  0  0  0  0  0  0  0
   -0.0000    1.2990    0.0000 C   0  0  0  0  0  0  0  0  0  0  0  0
    1.5000    1.2990    0.0000 C   0  0  0  0  0  0  0  0  0  0  0  0
    2.2500   -0.0000    0.0000 C   0  0  0  0  0  0  0  0  0  0  0  0
    3.7500   -0.0000    0.0000 C   0  0  0  0  0  0  0  0  0  0  0  0
   -2.2500    0.0000    0.0000 C   0  0  0  0  0  0  0  0  0  0  0  0
   -3.0000   -1.2990    0.0000 O   0  0  0  0  0  0  0  0  0  0  0  0
   -3.0000    1.2990    0.0000 O   0  0  0  0  0  0  0  0  0  0  0  0
  1  2  1  0
  2  3  1  0
  3  4  1  0
  4  5  1  0
  5  6  1  0
  6  7  1  1
  3  8  1  1
  8  9  2  0
  8 10  1  0
  6  1  1  0
M  END
>  <rName>  (3305) 
S-Nip_6RMe

>  <PQ_SYMBOL>  (3305) 
S-Nip_6RMe

>  <FULL_NAME>  (3305) 
(3S,6R)-6-Methylpiperidine-3-carboxylic acid

>  <IUPAC_CONDENSED>  (3305) 
(S)-Nip(6R-Me)

>  <IUPAC>  (3305) 
(3S,6R)-6-methylpiperidine-3-carboxylic acid

>  <TYPE>  (3305) 
Backbone

>  <CLASS>  (3305) 
beta

>  <ANALOG>  (3305) 
Pro

>  <MOL_WT>  (3305) 
143.186

>  <LOGP>  (3305) 
0.4591

>  <TPSA>  (3305) 
49.33

>  <POPULARITY>  (3305) 
2.2

>  <PROTECTED>  (3305) 
TRUE

>  <SMILES>  (3305) 
N1C[C@H](CC[C@H]1C)C(=O)O

>  <INCHIKEY>  (3305) 
ITWDDDADSFZADI-RITPCOANSA-N

$$$$
S-Nip_6SMe
     RDKit          2D

 10 10  0  0  0  0  0  0  0  0999 V2000
    1.5000   -1.2990    0.0000 N   0  0  0  0  0  0  0  0  0  0  0  0
   -0.0000   -1.2990    0.0000 C   0  0  0  0  0  0  0  0  0  0  0  0
   -0.7500    0.0000    0.0000 C   0  0  0  0  0  0  0  0  0  0  0  0
   -0.0000    1.2990    0.0000 C   0  0  0  0  0  0  0  0  0  0  0  0
    1.5000    1.2990    0.0000 C   0  0  0  0  0  0  0  0  0  0  0  0
    2.2500   -0.0000    0.0000 C   0  0  0  0  0  0  0  0  0  0  0  0
    3.7500   -0.0000    0.0000 C   0  0  0  0  0  0  0  0  0  0  0  0
   -2.2500    0.0000    0.0000 C   0  0  0  0  0  0  0  0  0  0  0  0
   -3.0000   -1.2990    0.0000 O   0  0  0  0  0  0  0  0  0  0  0  0
   -3.0000    1.2990    0.0000 O   0  0  0  0  0  0  0  0  0  0  0  0
  1  2  1  0
  2  3  1  0
  3  4  1  0
  4  5  1  0
  5  6  1  0
  6  7  1  6
  3  8  1  6
  8  9  2  0
  8 10  1  0
  6  1  1  0
M  END
>  <rName>  (3306) 
S-Nip_6SMe

>  <PQ_SYMBOL>  (3306) 
S-Nip_6SMe

>  <FULL_NAME>  (3306) 
(3R,6S)-6-Methylpiperidine-3-carboxylic acid

>  <IUPAC_CONDENSED>  (3306) 
(S)-Nip(6S-Me)

>  <IUPAC>  (3306) 
(3R,6S)-6-methylpiperidine-3-carboxylic acid

>  <TYPE>  (3306) 
Backbone

>  <CLASS>  (3306) 
beta

>  <ANALOG>  (3306) 
Pro

>  <MOL_WT>  (3306) 
143.186

>  <LOGP>  (3306) 
0.4591

>  <TPSA>  (3306) 
49.33

>  <POPULARITY>  (3306) 
7.6

>  <PROTECTED>  (3306) 
TRUE

>  <SMILES>  (3306) 
N1C[C@@H](CC[C@@H]1C)C(=O)O

>  <INCHIKEY>  (3306) 
ITWDDDADSFZADI-NTSWFWBYSA-N

$$$$
Sar
     RDKit          2D

  6  5  0  0  0  0  0  0  0  0999 V2000
   -1.4825    0.3386    0.0000 N   0  0  0  0  0  0  0  0  0  0  0  0
   -2.8748   -0.2197    0.0000 C   0  0  0  0  0  0  0  0  0  0  0  0
   -0.3029   -0.5880    0.0000 C   0  0  0  0  0  0  0  0  0  0  0  0
    1.0893   -0.0297    0.0000 C   0  0  0  0  0  0  0  0  0  0  0  0
    1.3020    1.4551    0.0000 O   0  0  0  0  0  0  0  0  0  0  0  0
    2.2689   -0.9563    0.0000 O   0  0  0  0  0  0  0  0  0  0  0  0
  1  2  1  0
  1  3  1  0
  3  4  1  0
  4  5  2  0
  4  6  1  0
M  END
>  <rName>  (3307) 
Sar

>  <PQ_SYMBOL>  (3307) 
Sar

>  <FULL_NAME>  (3307) 
N-methyl-glycine, sarcosine

>  <IUPAC_CONDENSED>  (3307) 
Sar

>  <IUPAC>  (3307) 
2-(methylamino)acetic acid

>  <TYPE>  (3307) 
Backbone

>  <CLASS>  (3307) 
alpha

>  <ANALOG>  (3307) 
Gly

>  <MOL_WT>  (3307) 
89.09399999999998

>  <LOGP>  (3307) 
-0.7096000000000002

>  <TPSA>  (3307) 
49.33

>  <POPULARITY>  (3307) 
59.3

>  <PROTECTED>  (3307) 
TRUE

>  <SMILES>  (3307) 
N(C)CC(=O)O

>  <INCHIKEY>  (3307) 
FSYKKLYZXJSNPZ-UHFFFAOYSA-N

$$$$
Sar-OMe
     RDKit          2D

  7  6  0  0  0  0  0  0  0  0999 V2000
   -2.0220    0.3004    0.0000 N   0  0  0  0  0  0  0  0  0  0  0  0
   -3.3863   -0.3229    0.0000 C   0  0  0  0  0  0  0  0  0  0  0  0
   -0.8000   -0.5695    0.0000 C   0  0  0  0  0  0  0  0  0  0  0  0
    0.5644    0.0538    0.0000 C   0  0  0  0  0  0  0  0  0  0  0  0
    0.7068    1.5470    0.0000 O   0  0  0  0  0  0  0  0  0  0  0  0
    1.7864   -0.8161    0.0000 O   0  0  0  0  0  0  0  0  0  0  0  0
    3.1507   -0.1928    0.0000 C   0  0  0  0  0  0  0  0  0  0  0  0
  1  2  1  0
  1  3  1  0
  3  4  1  0
  4  5  2  0
  4  6  1  0
  6  7  1  0
M  END
>  <rName>  (3308) 
Sar-OMe

>  <PQ_SYMBOL>  (3308) 
Sar-OMe

>  <FULL_NAME>  (3308) 
methyl 2-(methylamino)acetate

>  <IUPAC_CONDENSED>  (3308) 
Sar-OMe

>  <IUPAC>  (3308) 
methyl 2-(methylamino)acetate

>  <TYPE>  (3308) 
C-term cap

>  <CLASS>  (3308) 
c_cap

>  <ANALOG>  (3308) 
X

>  <MOL_WT>  (3308) 
103.12099999999998

>  <LOGP>  (3308) 
-0.6212000000000002

>  <TPSA>  (3308) 
38.33

>  <POPULARITY>  (3308) 
19.4

>  <PROTECTED>  (3308) 
TRUE

>  <SMILES>  (3308) 
N(C)CC(=O)OC

>  <INCHIKEY>  (3308) 
VXGABWCSZZWXPC-UHFFFAOYSA-N

$$$$
SeMet
     RDKit          2D

  9  8  0  0  0  0  0  0  0  0999 V2000
    0.7616   -1.8791    0.0000 N   0  0  0  0  0  0  0  0  0  0  0  0
    0.8459   -0.3815    0.0000 C   0  0  0  0  0  0  0  0  0  0  0  0
   -0.4089    0.4403    0.0000 C   0  0  0  0  0  0  0  0  0  0  0  0
   -1.7480   -0.2354    0.0000 C   0  0  0  0  0  0  0  0  0  0  0  0
   -3.0029    0.5864    0.0000 Se  0  0  0  0  0  2  0  0  0  0  0  0
   -4.3420   -0.0894    0.0000 C   0  0  0  0  0  0  0  0  0  0  0  0
    2.1851    0.2943    0.0000 C   0  0  0  0  0  0  0  0  0  0  0  0
    2.2694    1.7919    0.0000 O   0  0  0  0  0  0  0  0  0  0  0  0
    3.4399   -0.5275    0.0000 O   0  0  0  0  0  0  0  0  0  0  0  0
  2  1  1  1
  2  3  1  0
  3  4  1  0
  4  5  1  0
  5  6  1  0
  2  7  1  0
  7  8  2  0
  7  9  1  0
M  END
>  <rName>  (3309) 
SeMet

>  <PQ_SYMBOL>  (3309) 
SeMet

>  <FULL_NAME>  (3309) 
SELENOMETHIONINE

>  <IUPAC_CONDENSED>  (3309) 
SeMet

>  <IUPAC>  (3309) 
(2S)-2-amino-4-(methylselanyl)butanoic acid

>  <TYPE>  (3309) 
Backbone

>  <CLASS>  (3309) 
alpha

>  <ANALOG>  (3309) 
Met

>  <MOL_WT>  (3309) 
196.10799999999998

>  <LOGP>  (3309) 
-0.041000000000000425

>  <TPSA>  (3309) 
63.32000000000001

>  <POPULARITY>  (3309) 
49.5

>  <PROTECTED>  (3309) 
TRUE

>  <SMILES>  (3309) 
N[C@@H](CC[Se]C)C(=O)O

>  <INCHIKEY>  (3309) 
RJFAYQIBOAGBLC-BYPYZUCNSA-N

$$$$
Sec
     RDKit          2D

  7  6  0  0  0  0  0  0  0  0999 V2000
    0.5797   -1.7367    0.0000 N   0  0  0  0  0  0  0  0  0  0  0  0
    0.2514   -0.2730    0.0000 C   0  0  0  0  0  0  0  0  0  0  0  0
    1.3548    0.7431    0.0000 C   0  0  0  0  0  0  0  0  0  0  0  0
    2.7865    0.2956    0.0000 Se  0  0  0  0  0  2  0  0  0  0  0  0
   -1.1803    0.1745    0.0000 C   0  0  0  0  0  0  0  0  0  0  0  0
   -1.5086    1.6381    0.0000 O   0  0  0  0  0  0  0  0  0  0  0  0
   -2.2837   -0.8417    0.0000 O   0  0  0  0  0  0  0  0  0  0  0  0
  2  1  1  6
  2  3  1  0
  3  4  1  0
  2  5  1  0
  5  6  2  0
  5  7  1  0
M  END
>  <rName>  (3310) 
Sec

>  <PQ_SYMBOL>  (3310) 
Sec

>  <FULL_NAME>  (3310) 
SELENOCYSTEINE

>  <IUPAC_CONDENSED>  (3310) 
Sec

>  <IUPAC>  (3310) 
(2R)-2-amino-3-selanylpropanoic acid

>  <TYPE>  (3310) 
Backbone

>  <CLASS>  (3310) 
alpha

>  <ANALOG>  (3310) 
Cys

>  <MOL_WT>  (3310) 
168.054

>  <LOGP>  (3310) 
-1.2826000000000002

>  <TPSA>  (3310) 
63.32000000000001

>  <POPULARITY>  (3310) 
28.8

>  <PROTECTED>  (3310) 
TRUE

>  <SMILES>  (3310) 
N[C@@H](C[SeH])C(=O)O

>  <INCHIKEY>  (3310) 
ZKZBPNGNEQAJSX-REOHCLBHSA-N

$$$$
Sec-NH2
     RDKit          2D

  7  6  0  0  0  0  0  0  0  0999 V2000
    0.5797   -1.7367    0.0000 N   0  0  0  0  0  0  0  0  0  0  0  0
    0.2514   -0.2730    0.0000 C   0  0  0  0  0  0  0  0  0  0  0  0
   -1.1803    0.1745    0.0000 C   0  0  0  0  0  0  0  0  0  0  0  0
   -1.5086    1.6381    0.0000 O   0  0  0  0  0  0  0  0  0  0  0  0
   -2.2837   -0.8417    0.0000 N   0  0  0  0  0  0  0  0  0  0  0  0
    1.3548    0.7431    0.0000 C   0  0  0  0  0  0  0  0  0  0  0  0
    2.7865    0.2956    0.0000 Se  0  0  0  0  0  2  0  0  0  0  0  0
  2  1  1  6
  2  3  1  0
  3  4  2  0
  3  5  1  0
  2  6  1  0
  6  7  1  0
M  END
>  <rName>  (3311) 
Sec-NH2

>  <PQ_SYMBOL>  (3311) 
Sec-NH2

>  <FULL_NAME>  (3311) 
3-selanyl-L-alaninamide

>  <IUPAC_CONDENSED>  (3311) 
Sec-NH2

>  <IUPAC>  (3311) 
(2R)-2-amino-3-selanylpropanamide

>  <TYPE>  (3311) 
C-term cap

>  <CLASS>  (3311) 
c_cap

>  <ANALOG>  (3311) 
X

>  <MOL_WT>  (3311) 
167.07000000000002

>  <LOGP>  (3311) 
-1.8819

>  <TPSA>  (3311) 
69.11

>  <POPULARITY>  (3311) 
5.1

>  <PROTECTED>  (3311) 
FALSE

>  <SMILES>  (3311) 
N[C@H](C(=O)N)C[SeH]

>  <INCHIKEY>  (3311) 
CLZAHPNIIBPCBI-REOHCLBHSA-N

$$$$
Sec_Mbzl
     RDKit          2D

 15 15  0  0  0  0  0  0  0  0999 V2000
   -3.0746    1.8754    0.0000 N   0  0  0  0  0  0  0  0  0  0  0  0
   -3.3626    0.4033    0.0000 C   0  0  0  0  0  0  0  0  0  0  0  0
   -2.2318   -0.5822    0.0000 C   0  0  0  0  0  0  0  0  0  0  0  0
   -0.8129   -0.0957    0.0000 Se  0  0  0  0  0  2  0  0  0  0  0  0
    0.3179   -1.0812    0.0000 C   0  0  0  0  0  0  0  0  0  0  0  0
    1.7368   -0.5946    0.0000 C   0  0  0  0  0  0  0  0  0  0  0  0
    2.0249    0.8775    0.0000 C   0  0  0  0  0  0  0  0  0  0  0  0
    3.4437    1.3640    0.0000 C   0  0  0  0  0  0  0  0  0  0  0  0
    4.5746    0.3785    0.0000 C   0  0  0  0  0  0  0  0  0  0  0  0
    5.9935    0.8651    0.0000 C   0  0  0  0  0  0  0  0  0  0  0  0
    4.2865   -1.0935    0.0000 C   0  0  0  0  0  0  0  0  0  0  0  0
    2.8676   -1.5801    0.0000 C   0  0  0  0  0  0  0  0  0  0  0  0
   -4.7815   -0.0833    0.0000 C   0  0  0  0  0  0  0  0  0  0  0  0
   -5.0696   -1.5554    0.0000 O   0  0  0  0  0  0  0  0  0  0  0  0
   -5.9124    0.9022    0.0000 O   0  0  0  0  0  0  0  0  0  0  0  0
  2  1  1  1
  2  3  1  0
  3  4  1  0
  4  5  1  0
  5  6  1  0
  6  7  1  0
  7  8  2  0
  8  9  1  0
  9 10  1  0
  9 11  2  0
 11 12  1  0
  2 13  1  0
 13 14  2  0
 13 15  1  0
 12  6  2  0
M  END
>  <rName>  (3312) 
Sec_Mbzl

>  <PQ_SYMBOL>  (3312) 
Sec_Mbzl

>  <FULL_NAME>  (3312) 
3-[(4-Methylbenzyl)seleno]-L-alanine

>  <IUPAC_CONDENSED>  (3312) 
Sec(Mbzl)

>  <IUPAC>  (3312) 
(2R)-2-amino-3-[(4-methylphenyl)methylselanyl]propanoic acid

>  <TYPE>  (3312) 
Backbone

>  <CLASS>  (3312) 
alpha

>  <ANALOG>  (3312) 
Cys

>  <MOL_WT>  (3312) 
272.20599999999996

>  <LOGP>  (3312) 
1.0294199999999996

>  <TPSA>  (3312) 
63.32000000000001

>  <POPULARITY>  (3312) 
2.2

>  <PROTECTED>  (3312) 
TRUE

>  <SMILES>  (3312) 
N[C@@H](C[Se]Cc1(ccc(C)cc1))C(=O)O

>  <INCHIKEY>  (3312) 
JKMVVSOYPSFMIC-JTQLQIEISA-N

$$$$
Sec_Me
     RDKit          2D

  8  7  0  0  0  0  0  0  0  0999 V2000
   -0.2517   -1.8862    0.0000 N   0  0  0  0  0  0  0  0  0  0  0  0
   -0.3100   -0.3873    0.0000 C   0  0  0  0  0  0  0  0  0  0  0  0
    0.9590    0.4126    0.0000 C   0  0  0  0  0  0  0  0  0  0  0  0
    2.2862   -0.2864    0.0000 Se  0  0  0  0  0  2  0  0  0  0  0  0
    3.5551    0.5134    0.0000 C   0  0  0  0  0  0  0  0  0  0  0  0
   -1.6371    0.3117    0.0000 C   0  0  0  0  0  0  0  0  0  0  0  0
   -1.6954    1.8105    0.0000 O   0  0  0  0  0  0  0  0  0  0  0  0
   -2.9061   -0.4882    0.0000 O   0  0  0  0  0  0  0  0  0  0  0  0
  2  1  1  6
  2  3  1  0
  3  4  1  0
  4  5  1  0
  2  6  1  0
  6  7  2  0
  6  8  1  0
M  END
>  <rName>  (3313) 
Sec_Me

>  <PQ_SYMBOL>  (3313) 
Sec_Me

>  <FULL_NAME>  (3313) 
(R)-2-amino-3-(methylselanyl)propanoic acid

>  <IUPAC_CONDENSED>  (3313) 
Sec(Me)

>  <IUPAC>  (3313) 
(2R)-2-amino-3-(methylselanyl)propanoic acid

>  <TYPE>  (3313) 
Backbone

>  <CLASS>  (3313) 
alpha

>  <ANALOG>  (3313) 
Cys

>  <MOL_WT>  (3313) 
182.081

>  <LOGP>  (3313) 
-0.4311000000000003

>  <TPSA>  (3313) 
63.32000000000001

>  <POPULARITY>  (3313) 
6.4

>  <PROTECTED>  (3313) 
TRUE

>  <SMILES>  (3313) 
N[C@@H](C[Se]C)C(=O)O

>  <INCHIKEY>  (3313) 
XDSSPSLGNGIIHP-VKHMYHEASA-N

$$$$
Sec_Mob
     RDKit          2D

 16 16  0  0  0  0  0  0  0  0999 V2000
   -3.5260    1.8713    0.0000 N   0  0  0  0  0  0  0  0  0  0  0  0
   -3.8092    0.3983    0.0000 C   0  0  0  0  0  0  0  0  0  0  0  0
   -2.6752   -0.5835    0.0000 C   0  0  0  0  0  0  0  0  0  0  0  0
   -1.2579   -0.0923    0.0000 Se  0  0  0  0  0  2  0  0  0  0  0  0
   -0.1238   -1.0741    0.0000 C   0  0  0  0  0  0  0  0  0  0  0  0
    1.2935   -0.5828    0.0000 C   0  0  0  0  0  0  0  0  0  0  0  0
    1.5767    0.8902    0.0000 C   0  0  0  0  0  0  0  0  0  0  0  0
    2.9939    1.3814    0.0000 C   0  0  0  0  0  0  0  0  0  0  0  0
    4.1280    0.3997    0.0000 C   0  0  0  0  0  0  0  0  0  0  0  0
    5.5453    0.8909    0.0000 O   0  0  0  0  0  0  0  0  0  0  0  0
    6.6794   -0.0909    0.0000 C   0  0  0  0  0  0  0  0  0  0  0  0
    3.8448   -1.0734    0.0000 C   0  0  0  0  0  0  0  0  0  0  0  0
    2.4275   -1.5646    0.0000 C   0  0  0  0  0  0  0  0  0  0  0  0
   -5.2265   -0.0930    0.0000 C   0  0  0  0  0  0  0  0  0  0  0  0
   -5.5097   -1.5660    0.0000 O   0  0  0  0  0  0  0  0  0  0  0  0
   -6.3606    0.8888    0.0000 O   0  0  0  0  0  0  0  0  0  0  0  0
  2  1  1  1
  2  3  1  0
  3  4  1  0
  4  5  1  0
  5  6  1  0
  6  7  1  0
  7  8  2  0
  8  9  1  0
  9 10  1  0
 10 11  1  0
  9 12  2  0
 12 13  1  0
  2 14  1  0
 14 15  2  0
 14 16  1  0
 13  6  2  0
M  END
>  <rName>  (3314) 
Sec_Mob

>  <PQ_SYMBOL>  (3314) 
Sec_Mob

>  <FULL_NAME>  (3314) 
(2R)-2-amino-3-[(4-methoxyphenyl)methylselanyl]propanoic acid

>  <IUPAC_CONDENSED>  (3314) 
Sec(Mob)

>  <IUPAC>  (3314) 
(2R)-2-amino-3-(((4-methoxyphenyl)methyl)selanyl)propanoic acid

>  <TYPE>  (3314) 
Backbone

>  <CLASS>  (3314) 
alpha

>  <ANALOG>  (3314) 
Cys

>  <MOL_WT>  (3314) 
288.205

>  <LOGP>  (3314) 
0.7295999999999996

>  <TPSA>  (3314) 
72.55

>  <POPULARITY>  (3314) 
3.2

>  <PROTECTED>  (3314) 
TRUE

>  <SMILES>  (3314) 
N[C@@H](C[Se]Cc1(ccc(OC)cc1))C(=O)O

>  <INCHIKEY>  (3314) 
JWOVEICZZWRECX-JTQLQIEISA-N

$$$$
Ser-Gly
     RDKit          2D

 11 10  0  0  0  0  0  0  0  0999 V2000
    0.5947    0.1918    0.0000 N   0  0  0  0  0  0  0  0  0  0  0  0
   -0.7201   -0.5301    0.0000 C   0  0  0  0  0  0  0  0  0  0  0  0
   -0.7523   -2.0298    0.0000 O   0  0  0  0  0  0  0  0  0  0  0  0
   -2.0028    0.2476    0.0000 C   0  0  0  0  0  0  0  0  0  0  0  0
   -1.9706    1.7472    0.0000 N   0  0  0  0  0  0  0  0  0  0  0  0
   -3.3176   -0.4744    0.0000 C   0  0  0  0  0  0  0  0  0  0  0  0
   -4.6002    0.3033    0.0000 O   0  0  0  0  0  0  0  0  0  0  0  0
    1.8774   -0.5859    0.0000 C   0  0  0  0  0  0  0  0  0  0  0  0
    3.1922    0.1361    0.0000 C   0  0  0  0  0  0  0  0  0  0  0  0
    3.2244    1.6357    0.0000 O   0  0  0  0  0  0  0  0  0  0  0  0
    4.4748   -0.6416    0.0000 O   0  0  0  0  0  0  0  0  0  0  0  0
  1  2  1  0
  2  3  2  0
  2  4  1  0
  4  5  1  6
  4  6  1  0
  6  7  1  0
  1  8  1  0
  8  9  1  0
  9 10  2  0
  9 11  1  0
M  END
>  <rName>  (3315) 
Ser-Gly

>  <PQ_SYMBOL>  (3315) 
Ser-Gly

>  <FULL_NAME>  (3315) 
L-serylglycine

>  <IUPAC_CONDENSED>  (3315) 
Ser-Gly

>  <IUPAC>  (3315) 
2-((1S)-1-amino-2-hydroxyethylcarbonylamino)acetic acid

>  <TYPE>  (3315) 
Backbone

>  <CLASS>  (3315) 
alpha

>  <ANALOG>  (3315) 
Gly

>  <MOL_WT>  (3315) 
162.145

>  <LOGP>  (3315) 
-2.4932

>  <TPSA>  (3315) 
112.65000000000002

>  <POPULARITY>  (3315) 
14.9

>  <PROTECTED>  (3315) 
TRUE

>  <SMILES>  (3315) 
N(C(=O)[C@@H](N)CO)CC(=O)O

>  <INCHIKEY>  (3315) 
WOUIMBGNEUWXQG-VKHMYHEASA-N

$$$$
Ser-NH2
     RDKit          2D

  7  6  0  0  0  0  0  0  0  0999 V2000
    0.5797   -1.7367    0.0000 N   0  0  0  0  0  0  0  0  0  0  0  0
    0.2514   -0.2730    0.0000 C   0  0  0  0  0  0  0  0  0  0  0  0
   -1.1803    0.1745    0.0000 C   0  0  0  0  0  0  0  0  0  0  0  0
   -1.5086    1.6381    0.0000 O   0  0  0  0  0  0  0  0  0  0  0  0
   -2.2837   -0.8417    0.0000 N   0  0  0  0  0  0  0  0  0  0  0  0
    1.3548    0.7431    0.0000 C   0  0  0  0  0  0  0  0  0  0  0  0
    2.7865    0.2956    0.0000 O   0  0  0  0  0  0  0  0  0  0  0  0
  2  1  1  6
  2  3  1  0
  3  4  2  0
  3  5  1  0
  2  6  1  0
  6  7  1  0
M  END
>  <rName>  (3316) 
Ser-NH2

>  <PQ_SYMBOL>  (3316) 
Ser-NH2

>  <FULL_NAME>  (3316) 
AMINOSERINE

>  <IUPAC_CONDENSED>  (3316) 
Ser-NH2

>  <IUPAC>  (3316) 
(2S)-2-amino-3-hydroxypropanamide

>  <TYPE>  (3316) 
C-term cap

>  <CLASS>  (3316) 
c_cap

>  <ANALOG>  (3316) 
X

>  <MOL_WT>  (3316) 
104.109

>  <LOGP>  (3316) 
-2.2087

>  <TPSA>  (3316) 
89.34

>  <POPULARITY>  (3316) 
24.3

>  <PROTECTED>  (3316) 
FALSE

>  <SMILES>  (3316) 
N[C@H](C(=O)N)CO

>  <INCHIKEY>  (3316) 
MGOGKPMIZGEGOZ-REOHCLBHSA-N

$$$$
Ser-OBn
     RDKit          2D

 14 14  0  0  0  0  0  0  0  0999 V2000
   -2.9396    1.8033    0.0000 N   0  0  0  0  0  0  0  0  0  0  0  0
   -3.1407    0.3168    0.0000 C   0  0  0  0  0  0  0  0  0  0  0  0
   -4.5286   -0.2522    0.0000 C   0  0  0  0  0  0  0  0  0  0  0  0
   -5.7153    0.6652    0.0000 O   0  0  0  0  0  0  0  0  0  0  0  0
   -1.9539   -0.6006    0.0000 C   0  0  0  0  0  0  0  0  0  0  0  0
   -2.1551   -2.0870    0.0000 O   0  0  0  0  0  0  0  0  0  0  0  0
   -0.5661   -0.0315    0.0000 O   0  0  0  0  0  0  0  0  0  0  0  0
    0.6207   -0.9489    0.0000 C   0  0  0  0  0  0  0  0  0  0  0  0
    2.0085   -0.3799    0.0000 C   0  0  0  0  0  0  0  0  0  0  0  0
    2.2097    1.1066    0.0000 C   0  0  0  0  0  0  0  0  0  0  0  0
    3.5975    1.6756    0.0000 C   0  0  0  0  0  0  0  0  0  0  0  0
    4.7843    0.7582    0.0000 C   0  0  0  0  0  0  0  0  0  0  0  0
    4.5832   -0.7282    0.0000 C   0  0  0  0  0  0  0  0  0  0  0  0
    3.1953   -1.2973    0.0000 C   0  0  0  0  0  0  0  0  0  0  0  0
  2  1  1  6
  2  3  1  0
  3  4  1  0
  2  5  1  0
  5  6  2  0
  5  7  1  0
  7  8  1  0
  8  9  1  0
  9 10  2  0
 10 11  1  0
 11 12  2  0
 12 13  1  0
 13 14  2  0
 14  9  1  0
M  END
>  <rName>  (3317) 
Ser-OBn

>  <PQ_SYMBOL>  (3317) 
Ser-OBn

>  <FULL_NAME>  (3317) 
Serine benzyl ester

>  <IUPAC_CONDENSED>  (3317) 
Ser-OBn

>  <IUPAC>  (3317) 
benzyl (2S)-2-amino-3-hydroxypropanoate

>  <TYPE>  (3317) 
C-term cap

>  <CLASS>  (3317) 
c_cap

>  <ANALOG>  (3317) 
X

>  <MOL_WT>  (3317) 
195.21800000000002

>  <LOGP>  (3317) 
0.049399999999999666

>  <TPSA>  (3317) 
72.55

>  <POPULARITY>  (3317) 
9.3

>  <PROTECTED>  (3317) 
TRUE

>  <SMILES>  (3317) 
N[C@@H](CO)C(=O)OCc1ccccc1

>  <INCHIKEY>  (3317) 
IIDNACBMUWTYIV-VIFPVBQESA-N

$$$$
Ser-OMe
     RDKit          2D

  8  7  0  0  0  0  0  0  0  0999 V2000
    0.9517    1.7412    0.0000 N   0  0  0  0  0  0  0  0  0  0  0  0
    0.7027    0.2620    0.0000 C   0  0  0  0  0  0  0  0  0  0  0  0
    1.8593   -0.6932    0.0000 C   0  0  0  0  0  0  0  0  0  0  0  0
    3.2648   -0.1692    0.0000 O   0  0  0  0  0  0  0  0  0  0  0  0
   -0.7027   -0.2620    0.0000 C   0  0  0  0  0  0  0  0  0  0  0  0
   -0.9517   -1.7412    0.0000 O   0  0  0  0  0  0  0  0  0  0  0  0
   -1.8593    0.6932    0.0000 O   0  0  0  0  0  0  0  0  0  0  0  0
   -3.2648    0.1692    0.0000 C   0  0  0  0  0  0  0  0  0  0  0  0
  2  1  1  1
  2  3  1  0
  3  4  1  0
  2  5  1  0
  5  6  2  0
  5  7  1  0
  7  8  1  0
M  END
>  <rName>  (3318) 
Ser-OMe

>  <PQ_SYMBOL>  (3318) 
Ser-OMe

>  <FULL_NAME>  (3318) 
L-Serine methyl ester

>  <IUPAC_CONDENSED>  (3318) 
Ser-OMe

>  <IUPAC>  (3318) 
methyl (2S)-2-amino-3-hydroxypropanoate

>  <TYPE>  (3318) 
C-term cap

>  <CLASS>  (3318) 
c_cap

>  <ANALOG>  (3318) 
X

>  <MOL_WT>  (3318) 
119.11999999999999

>  <LOGP>  (3318) 
-1.521

>  <TPSA>  (3318) 
72.55

>  <POPULARITY>  (3318) 
24.7

>  <PROTECTED>  (3318) 
TRUE

>  <SMILES>  (3318) 
N[C@@H](CO)C(=O)OC

>  <INCHIKEY>  (3318) 
ANSUDRATXSJBLY-VKHMYHEASA-N

$$$$
Ser-ol-
     RDKit          2D

  6  5  0  0  0  0  0  0  0  0999 V2000
    0.0000    1.5000    0.0000 N   0  0  0  0  0  0  0  0  0  0  0  0
    0.0000    0.0000    0.0000 C   0  0  0  0  0  0  0  0  0  0  0  0
   -1.2990   -0.7500    0.0000 C   0  0  0  0  0  0  0  0  0  0  0  0
   -2.5981    0.0000    0.0000 O   0  0  0  0  0  0  0  0  0  0  0  0
    1.2990   -0.7500    0.0000 C   0  0  0  0  0  0  0  0  0  0  0  0
    2.5981   -0.0000    0.0000 O   0  0  0  0  0  0  0  0  0  0  0  0
  1  2  1  0
  2  3  1  0
  3  4  1  0
  2  5  1  0
  5  6  1  0
M  END
>  <rName>  (3319) 
Ser-ol-

>  <PQ_SYMBOL>  (3319) 
Ser-ol-

>  <FULL_NAME>  (3319) 
2-amino-1,3-propanediol

>  <IUPAC_CONDENSED>  (3319) 
Ser-ol-

>  <IUPAC>  (3319) 
2-aminopropane-1,3-diol

>  <TYPE>  (3319) 
N-term cap

>  <CLASS>  (3319) 
n_cap

>  <ANALOG>  (3319) 
X

>  <MOL_WT>  (3319) 
91.11

>  <LOGP>  (3319) 
-1.7017

>  <TPSA>  (3319) 
66.48

>  <POPULARITY>  (3319) 
15.0

>  <PROTECTED>  (3319) 
FALSE

>  <SMILES>  (3319) 
NC(CO)CO

>  <INCHIKEY>  (3319) 
KJJPLEZQSCZCKE-UHFFFAOYSA-N

$$$$
SerO-Gaba4-NHCO-Leu-al
     RDKit          2D

 20 19  0  0  0  0  0  0  0  0999 V2000
    6.9564    1.6771    0.0000 N   0  0  0  0  0  0  0  0  0  0  0  0
    6.8973    0.1783    0.0000 C   0  0  0  0  0  0  0  0  0  0  0  0
    8.1658   -0.6223    0.0000 C   0  0  0  0  0  0  0  0  0  0  0  0
    9.4933    0.0759    0.0000 O   0  0  0  0  0  0  0  0  0  0  0  0
    5.5697   -0.5199    0.0000 C   0  0  0  0  0  0  0  0  0  0  0  0
    4.3012    0.2807    0.0000 O   0  0  0  0  0  0  0  0  0  0  0  0
    2.9736   -0.4175    0.0000 C   0  0  0  0  0  0  0  0  0  0  0  0
    2.9145   -1.9164    0.0000 O   0  0  0  0  0  0  0  0  0  0  0  0
    1.7052    0.3831    0.0000 C   0  0  0  0  0  0  0  0  0  0  0  0
    0.3776   -0.3151    0.0000 C   0  0  0  0  0  0  0  0  0  0  0  0
   -0.8909    0.4855    0.0000 C   0  0  0  0  0  0  0  0  0  0  0  0
   -2.2185   -0.2127    0.0000 N   0  0  0  0  0  0  0  0  0  0  0  0
   -3.4869    0.5879    0.0000 C   0  0  0  0  0  0  0  0  0  0  0  0
   -3.4278    2.0867    0.0000 O   0  0  0  0  0  0  0  0  0  0  0  0
   -4.8145   -0.1103    0.0000 C   0  0  0  0  0  0  0  0  0  0  0  0
   -4.8736   -1.6092    0.0000 O   0  0  0  0  0  0  0  0  0  0  0  0
   -6.0830    0.6903    0.0000 C   0  0  0  0  0  0  0  0  0  0  0  0
   -7.4106   -0.0079    0.0000 C   0  0  0  0  0  0  0  0  0  0  0  0
   -8.6791    0.7927    0.0000 C   0  0  0  0  0  0  0  0  0  0  0  0
   -7.4697   -1.5068    0.0000 C   0  0  0  0  0  0  0  0  0  0  0  0
  2  1  1  6
  2  3  1  0
  3  4  2  0
  2  5  1  0
  5  6  1  0
  6  7  1  0
  7  8  2  0
  7  9  1  0
  9 10  1  0
 10 11  1  0
 11 12  1  0
 12 13  1  0
 13 14  2  0
 13 15  1  0
 15 16  1  1
 15 17  1  0
 17 18  1  0
 18 19  1  0
 18 20  1  0
M  END
>  <rName>  (3320) 
SerO-Gaba4-NHCO-Leu-al

>  <PQ_SYMBOL>  (3320) 
SerO-Gaba4-NHCO-Leu-al

>  <FULL_NAME>  (3320) 
(2S)-2-amino-3-oxopropyl 4-{[(2S)-2-hydroxy-4-methylpentanoyl]amino}butanoate

>  <IUPAC_CONDENSED>  (3320) 
Ser(O-Gaba(4-NHCO-Leu))-al

>  <IUPAC>  (3320) 
(2S)-2-amino-3-oxopropyl 4-((1S)-1-hydroxy-3-methylbutylcarbonylamino)butanoate

>  <TYPE>  (3320) 
C-term cap

>  <CLASS>  (3320) 
c_cap

>  <ANALOG>  (3320) 
X

>  <MOL_WT>  (3320) 
288.344

>  <LOGP>  (3320) 
-0.6407999999999991

>  <TPSA>  (3320) 
118.72000000000001

>  <POPULARITY>  (3320) 
3.2

>  <PROTECTED>  (3320) 
FALSE

>  <SMILES>  (3320) 
N[C@H](C=O)COC(=O)CCCNC(=O)[C@@H](O)CC(C)C

>  <INCHIKEY>  (3320) 
GRIOOHXHRRRAIS-MNOVXSKESA-N

$$$$
Ser_2OHiBu
     RDKit          2D

 12 11  0  0  0  0  0  0  0  0999 V2000
   -1.9172   -1.8446    0.0000 N   0  0  0  0  0  0  0  0  0  0  0  0
   -2.0356   -0.3492    0.0000 C   0  0  0  0  0  0  0  0  0  0  0  0
   -0.7998    0.5009    0.0000 C   0  0  0  0  0  0  0  0  0  0  0  0
    0.5544   -0.1442    0.0000 O   0  0  0  0  0  0  0  0  0  0  0  0
    1.7902    0.7060    0.0000 C   0  0  0  0  0  0  0  0  0  0  0  0
    3.1443    0.0608    0.0000 C   0  0  0  0  0  0  0  0  0  0  0  0
    4.4985   -0.5843    0.0000 O   0  0  0  0  0  0  0  0  0  0  0  0
    3.7895    1.4150    0.0000 C   0  0  0  0  0  0  0  0  0  0  0  0
    2.4992   -1.2933    0.0000 C   0  0  0  0  0  0  0  0  0  0  0  0
   -3.3898    0.2959    0.0000 C   0  0  0  0  0  0  0  0  0  0  0  0
   -3.5082    1.7912    0.0000 O   0  0  0  0  0  0  0  0  0  0  0  0
   -4.6256   -0.5543    0.0000 O   0  0  0  0  0  0  0  0  0  0  0  0
  2  1  1  6
  2  3  1  0
  3  4  1  0
  4  5  1  0
  5  6  1  0
  6  7  1  0
  6  8  1  0
  6  9  1  0
  2 10  1  0
 10 11  2  0
 10 12  1  0
M  END
>  <rName>  (3321) 
Ser_2OHiBu

>  <PQ_SYMBOL>  (3321) 
Ser_2OHiBu

>  <FULL_NAME>  (3321) 
(2S)-2-amino-3-(2-hydroxy-2-methylpropoxy)propanoic acid

>  <IUPAC_CONDENSED>  (3321) 
Ser(2-OH-iBu)

>  <IUPAC>  (3321) 
(2S)-2-amino-3-(2-hydroxy-2-methylpropoxy)propanoic acid

>  <TYPE>  (3321) 
Backbone

>  <CLASS>  (3321) 
alpha

>  <ANALOG>  (3321) 
Ser

>  <MOL_WT>  (3321) 
177.2

>  <LOGP>  (3321) 
-0.8142000000000005

>  <TPSA>  (3321) 
92.78000000000002

>  <POPULARITY>  (3321) 
3.9

>  <PROTECTED>  (3321) 
TRUE

>  <SMILES>  (3321) 
N[C@@H](COCC(O)(C)C)C(=O)O

>  <INCHIKEY>  (3321) 
NDCYDVNZZUMZOC-YFKPBYRVSA-N

$$$$
Ser_2PyranoseNAc_RSSRRRRRRR
     RDKit          2D

 32 33  0  0  0  0  0  0  0  0999 V2000
    0.7849   -3.0090    0.0000 C   0  0  0  0  0  0  0  0  0  0  0  0
   -0.0294   -1.7493    0.0000 C   0  0  0  0  0  0  0  0  0  0  0  0
   -1.5275   -1.8246    0.0000 O   0  0  0  0  0  0  0  0  0  0  0  0
    0.6544   -0.4142    0.0000 N   0  0  0  0  0  0  0  0  0  0  0  0
   -0.1599    0.8455    0.0000 C   0  0  0  0  0  0  0  0  0  0  0  0
   -1.6580    0.7702    0.0000 C   0  0  0  0  0  0  0  0  0  0  0  0
   -2.3418   -0.5649    0.0000 O   0  0  0  0  0  0  0  0  0  0  0  0
   -3.8399   -0.6402    0.0000 C   0  0  0  0  0  0  0  0  0  0  0  0
   -4.5237   -1.9753    0.0000 C   0  0  0  0  0  0  0  0  0  0  0  0
   -3.7094   -3.2350    0.0000 N   0  0  0  0  0  0  0  0  0  0  0  0
   -6.0218   -2.0506    0.0000 C   0  0  0  0  0  0  0  0  0  0  0  0
   -6.8361   -0.7909    0.0000 O   0  0  0  0  0  0  0  0  0  0  0  0
   -6.7056   -3.3857    0.0000 O   0  0  0  0  0  0  0  0  0  0  0  0
   -2.4723    2.0299    0.0000 O   0  0  0  0  0  0  0  0  0  0  0  0
   -1.7885    3.3650    0.0000 C   0  0  0  0  0  0  0  0  0  0  0  0
   -2.6028    4.6247    0.0000 C   0  0  0  0  0  0  0  0  0  0  0  0
   -4.1009    4.5494    0.0000 O   0  0  0  0  0  0  0  0  0  0  0  0
   -0.2904    3.4403    0.0000 C   0  0  0  0  0  0  0  0  0  0  0  0
    0.3934    4.7754    0.0000 O   0  0  0  0  0  0  0  0  0  0  0  0
    0.5239    2.1806    0.0000 C   0  0  0  0  0  0  0  0  0  0  0  0
    2.0220    2.2559    0.0000 O   0  0  0  0  0  0  0  0  0  0  0  0
    2.8364    0.9962    0.0000 C   0  0  0  0  0  0  0  0  0  0  0  0
    2.1526   -0.3389    0.0000 O   0  0  0  0  0  0  0  0  0  0  0  0
    2.9669   -1.5986    0.0000 C   0  0  0  0  0  0  0  0  0  0  0  0
    2.2831   -2.9336    0.0000 C   0  0  0  0  0  0  0  0  0  0  0  0
    3.0974   -4.1934    0.0000 O   0  0  0  0  0  0  0  0  0  0  0  0
    4.4650   -1.5232    0.0000 C   0  0  0  0  0  0  0  0  0  0  0  0
    5.2793   -2.7830    0.0000 O   0  0  0  0  0  0  0  0  0  0  0  0
    5.1488   -0.1882    0.0000 C   0  0  0  0  0  0  0  0  0  0  0  0
    6.6469   -0.1128    0.0000 O   0  0  0  0  0  0  0  0  0  0  0  0
    4.3345    1.0716    0.0000 C   0  0  0  0  0  0  0  0  0  0  0  0
    5.0183    2.4066    0.0000 O   0  0  0  0  0  0  0  0  0  0  0  0
  1  2  1  0
  2  3  2  0
  2  4  1  0
  5  4  1  1
  5  6  1  0
  6  7  1  1
  7  8  1  0
  8  9  1  0
  9 10  1  6
  9 11  1  0
 11 12  2  0
 11 13  1  0
  6 14  1  0
 14 15  1  0
 15 16  1  6
 16 17  1  0
 15 18  1  0
 18 19  1  6
 18 20  1  0
 20 21  1  6
 22 21  1  1
 22 23  1  0
 23 24  1  0
 24 25  1  1
 25 26  1  0
 24 27  1  0
 27 28  1  1
 27 29  1  0
 29 30  1  1
 29 31  1  0
 31 32  1  6
 20  5  1  0
 31 22  1  0
M  END
>  <rName>  (3322) 
Ser_2PyranoseNAc_RSSRRRRRRR

>  <PQ_SYMBOL>  (3322) 
Ser_2PyranoseNAc_RSSRRRRRRR

>  <FULL_NAME>  (3322) 
(2S)-3-[(2S,3R,4R,5R,6R)-3-acetamido-5-hydroxy-6-(hydroxymethyl)-4-[(2R,3R,4S,5R,6R)-3,4,5-trihydroxy-6-(hydroxymethyl)oxan-2-yl]oxyoxan-2-yl]oxy-2-aminopropanoic acid

>  <IUPAC_CONDENSED>  (3322) 
Ser(2Pyranose-NAc(RSSRRRRRRR))

>  <IUPAC>  (3322) 
(2S)-3-[(2S,3R,4R,5R,6R)-3-acetamido-5-hydroxy-6-(hydroxymethyl)-4-[(2R,3R,4S,5R,6R)-3,4,5-trihydroxy-6-(hydroxymethyl)oxan-2-yl]oxyoxan-2-yl]oxy-2-aminopropanoic acid

>  <TYPE>  (3322) 
Backbone

>  <CLASS>  (3322) 
alpha

>  <ANALOG>  (3322) 
Ser

>  <MOL_WT>  (3322) 
470.4280000000001

>  <LOGP>  (3322) 
-5.817199999999991

>  <TPSA>  (3322) 
250.7199999999999

>  <POPULARITY>  (3322) 
2.2

>  <PROTECTED>  (3322) 
TRUE

>  <SMILES>  (3322) 
CC(=O)N[C@H]1[C@@H](OC[C@H](N)C(=O)O)O[C@H](CO)[C@H](O)[C@@H]1O[C@@H]1O[C@H](CO)[C@H](O)[C@H](O)[C@H]1O

>  <INCHIKEY>  (3322) 
XDMCWZFLLGVIID-ULCOMTOUSA-N

$$$$
Ser_3OH3Mebutyl
     RDKit          2D

 13 12  0  0  0  0  0  0  0  0999 V2000
   -2.7828    1.9007    0.0000 N   0  0  0  0  0  0  0  0  0  0  0  0
   -2.7179    0.4021    0.0000 C   0  0  0  0  0  0  0  0  0  0  0  0
   -1.3877   -0.2910    0.0000 C   0  0  0  0  0  0  0  0  0  0  0  0
   -0.1223    0.5144    0.0000 O   0  0  0  0  0  0  0  0  0  0  0  0
    1.2080   -0.1787    0.0000 C   0  0  0  0  0  0  0  0  0  0  0  0
    2.4734    0.6267    0.0000 C   0  0  0  0  0  0  0  0  0  0  0  0
    3.8036   -0.0664    0.0000 C   0  0  0  0  0  0  0  0  0  0  0  0
    5.1339   -0.7595    0.0000 O   0  0  0  0  0  0  0  0  0  0  0  0
    4.4968    1.2639    0.0000 C   0  0  0  0  0  0  0  0  0  0  0  0
    3.1105   -1.3966    0.0000 C   0  0  0  0  0  0  0  0  0  0  0  0
   -3.9833   -0.4034    0.0000 C   0  0  0  0  0  0  0  0  0  0  0  0
   -3.9185   -1.9020    0.0000 O   0  0  0  0  0  0  0  0  0  0  0  0
   -5.3136    0.2898    0.0000 O   0  0  0  0  0  0  0  0  0  0  0  0
  2  1  1  1
  2  3  1  0
  3  4  1  0
  4  5  1  0
  5  6  1  0
  6  7  1  0
  7  8  1  0
  7  9  1  0
  7 10  1  0
  2 11  1  0
 11 12  2  0
 11 13  1  0
M  END
>  <rName>  (3323) 
Ser_3OH3Mebutyl

>  <PQ_SYMBOL>  (3323) 
Ser_3OH3Mebutyl

>  <FULL_NAME>  (3323) 
(2S)-2-amino-3-(3-hydroxy-3-methylbutoxy)propanoic acid

>  <IUPAC_CONDENSED>  (3323) 
Ser(3-OH-3-Me-butyl)

>  <IUPAC>  (3323) 
(2S)-2-amino-3-(3-hydroxy-3-methylbutoxy)propanoic acid

>  <TYPE>  (3323) 
Backbone

>  <CLASS>  (3323) 
alpha

>  <ANALOG>  (3323) 
Ser

>  <MOL_WT>  (3323) 
191.22699999999998

>  <LOGP>  (3323) 
-0.4241000000000004

>  <TPSA>  (3323) 
92.78000000000002

>  <POPULARITY>  (3323) 
3.9

>  <PROTECTED>  (3323) 
TRUE

>  <SMILES>  (3323) 
N[C@@H](COCCC(O)(C)C)C(=O)O

>  <INCHIKEY>  (3323) 
LWWOHLCMDDVCIZ-LURJTMIESA-N

$$$$
Ser_3SCF3
     RDKit          2D

 11 10  0  0  0  0  0  0  0  0999 V2000
    0.5427    1.9436    0.0000 N   0  0  0  0  0  0  0  0  0  0  0  0
    0.7665    0.4604    0.0000 C   0  0  0  0  0  0  0  0  0  0  0  0
   -0.4061   -0.4750    0.0000 C   0  0  0  0  0  0  0  0  0  0  0  0
   -0.1822   -1.9582    0.0000 O   0  0  0  0  0  0  0  0  0  0  0  0
   -1.8025    0.0728    0.0000 C   0  0  0  0  0  0  0  0  0  0  0  0
   -3.1989    0.6206    0.0000 F   0  0  0  0  0  0  0  0  0  0  0  0
   -2.3502   -1.3236    0.0000 F   0  0  0  0  0  0  0  0  0  0  0  0
   -1.2547    1.4692    0.0000 F   0  0  0  0  0  0  0  0  0  0  0  0
    2.1629   -0.0874    0.0000 C   0  0  0  0  0  0  0  0  0  0  0  0
    2.3867   -1.5706    0.0000 O   0  0  0  0  0  0  0  0  0  0  0  0
    3.3355    0.8481    0.0000 O   0  0  0  0  0  0  0  0  0  0  0  0
  2  1  1  6
  2  3  1  0
  3  4  1  6
  3  5  1  0
  5  6  1  0
  5  7  1  0
  5  8  1  0
  2  9  1  0
  9 10  2  0
  9 11  1  0
M  END
>  <rName>  (3324) 
Ser_3SCF3

>  <PQ_SYMBOL>  (3324) 
Ser_3SCF3

>  <FULL_NAME>  (3324) 
(2S,3S)-2-azaniumyl-4,4,4-trifluoro-3-hydroxybutanoate

>  <IUPAC_CONDENSED>  (3324) 
Ser(3S-CF3)

>  <IUPAC>  (3324) 
(2S,3S)-2-azaniumyl-4,4,4-trifluoro-3-hydroxybutanoate

>  <TYPE>  (3324) 
Backbone

>  <CLASS>  (3324) 
alpha

>  <ANALOG>  (3324) 
Thr

>  <MOL_WT>  (3324) 
173.09

>  <LOGP>  (3324) 
-0.6785000000000001

>  <TPSA>  (3324) 
83.55

>  <POPULARITY>  (3324) 
3.5

>  <PROTECTED>  (3324) 
TRUE

>  <SMILES>  (3324) 
N[C@@H]([C@H](O)C(F)(F)F)C(=O)O

>  <INCHIKEY>  (3324) 
ITYVCUQVLKIGEY-LWMBPPNESA-N

$$$$
Ser_Ac
     RDKit          2D

 10  9  0  0  0  0  0  0  0  0999 V2000
   -1.2717    1.9622    0.0000 N   0  0  0  0  0  0  0  0  0  0  0  0
   -1.1946    0.4642    0.0000 C   0  0  0  0  0  0  0  0  0  0  0  0
    0.1413   -0.2180    0.0000 C   0  0  0  0  0  0  0  0  0  0  0  0
    1.4001    0.5978    0.0000 O   0  0  0  0  0  0  0  0  0  0  0  0
    2.7359   -0.0845    0.0000 C   0  0  0  0  0  0  0  0  0  0  0  0
    2.8131   -1.5825    0.0000 O   0  0  0  0  0  0  0  0  0  0  0  0
    3.9947    0.7313    0.0000 C   0  0  0  0  0  0  0  0  0  0  0  0
   -2.4533   -0.3516    0.0000 C   0  0  0  0  0  0  0  0  0  0  0  0
   -2.3762   -1.8496    0.0000 O   0  0  0  0  0  0  0  0  0  0  0  0
   -3.7892    0.3306    0.0000 O   0  0  0  0  0  0  0  0  0  0  0  0
  2  1  1  1
  2  3  1  0
  3  4  1  0
  4  5  1  0
  5  6  2  0
  5  7  1  0
  2  8  1  0
  8  9  2  0
  8 10  1  0
M  END
>  <rName>  (3325) 
Ser_Ac

>  <PQ_SYMBOL>  (3325) 
Ser_Ac

>  <FULL_NAME>  (3325) 
O-Acetyl-L-Serine

>  <IUPAC_CONDENSED>  (3325) 
Ser(Ac)

>  <IUPAC>  (3325) 
(2S)-2-amino-3-(acetoxy)propanoic acid

>  <TYPE>  (3325) 
Backbone

>  <CLASS>  (3325) 
alpha

>  <ANALOG>  (3325) 
Ser

>  <MOL_WT>  (3325) 
147.13

>  <LOGP>  (3325) 
-1.0385999999999997

>  <TPSA>  (3325) 
89.62

>  <POPULARITY>  (3325) 
29.4

>  <PROTECTED>  (3325) 
TRUE

>  <SMILES>  (3325) 
N[C@@H](COC(=O)C)C(=O)O

>  <INCHIKEY>  (3325) 
VZXPDPZARILFQX-BYPYZUCNSA-N

$$$$
Ser_Bn
     RDKit          2D

 14 14  0  0  0  0  0  0  0  0999 V2000
   -2.7125    1.8435    0.0000 N   0  0  0  0  0  0  0  0  0  0  0  0
   -2.9490    0.3623    0.0000 C   0  0  0  0  0  0  0  0  0  0  0  0
   -1.7844   -0.5831    0.0000 C   0  0  0  0  0  0  0  0  0  0  0  0
   -0.3834   -0.0473    0.0000 O   0  0  0  0  0  0  0  0  0  0  0  0
    0.7812   -0.9927    0.0000 C   0  0  0  0  0  0  0  0  0  0  0  0
    2.1822   -0.4569    0.0000 C   0  0  0  0  0  0  0  0  0  0  0  0
    2.4187    1.0244    0.0000 C   0  0  0  0  0  0  0  0  0  0  0  0
    3.8197    1.5602    0.0000 C   0  0  0  0  0  0  0  0  0  0  0  0
    4.9842    0.6148    0.0000 C   0  0  0  0  0  0  0  0  0  0  0  0
    4.7478   -0.8664    0.0000 C   0  0  0  0  0  0  0  0  0  0  0  0
    3.3467   -1.4023    0.0000 C   0  0  0  0  0  0  0  0  0  0  0  0
   -4.3500   -0.1735    0.0000 C   0  0  0  0  0  0  0  0  0  0  0  0
   -4.5865   -1.6548    0.0000 O   0  0  0  0  0  0  0  0  0  0  0  0
   -5.5146    0.7719    0.0000 O   0  0  0  0  0  0  0  0  0  0  0  0
  2  1  1  1
  2  3  1  0
  3  4  1  0
  4  5  1  0
  5  6  1  0
  6  7  2  0
  7  8  1  0
  8  9  2  0
  9 10  1  0
 10 11  2  0
  2 12  1  0
 12 13  2  0
 12 14  1  0
 11  6  1  0
M  END
>  <rName>  (3326) 
Ser_Bn

>  <PQ_SYMBOL>  (3326) 
Ser_Bn

>  <FULL_NAME>  (3326) 
O-benzyl-L-serine

>  <IUPAC_CONDENSED>  (3326) 
Ser(Bn)

>  <IUPAC>  (3326) 
(2S)-2-amino-3-benzyloxypropanoic acid

>  <TYPE>  (3326) 
Backbone

>  <CLASS>  (3326) 
alpha

>  <ANALOG>  (3326) 
Ser

>  <MOL_WT>  (3326) 
195.218

>  <LOGP>  (3326) 
0.6151

>  <TPSA>  (3326) 
72.55

>  <POPULARITY>  (3326) 
21.4

>  <PROTECTED>  (3326) 
TRUE

>  <SMILES>  (3326) 
N[C@@H](COCc1(ccccc1))C(=O)O

>  <INCHIKEY>  (3326) 
IDGQXGPQOGUGIX-VIFPVBQESA-N

$$$$
Ser_Bu
     RDKit          2D

 11 10  0  0  0  0  0  0  0  0999 V2000
    1.9630   -1.8884    0.0000 N   0  0  0  0  0  0  0  0  0  0  0  0
    1.9989   -0.3888    0.0000 C   0  0  0  0  0  0  0  0  0  0  0  0
    0.7181    0.3920    0.0000 C   0  0  0  0  0  0  0  0  0  0  0  0
   -0.5985   -0.3267    0.0000 O   0  0  0  0  0  0  0  0  0  0  0  0
   -1.8792    0.4541    0.0000 C   0  0  0  0  0  0  0  0  0  0  0  0
   -3.1958   -0.2646    0.0000 C   0  0  0  0  0  0  0  0  0  0  0  0
   -4.4765    0.5162    0.0000 C   0  0  0  0  0  0  0  0  0  0  0  0
   -5.7931   -0.2025    0.0000 C   0  0  0  0  0  0  0  0  0  0  0  0
    3.3155    0.3299    0.0000 C   0  0  0  0  0  0  0  0  0  0  0  0
    3.3513    1.8295    0.0000 O   0  0  0  0  0  0  0  0  0  0  0  0
    4.5962   -0.4509    0.0000 O   0  0  0  0  0  0  0  0  0  0  0  0
  2  1  1  1
  2  3  1  0
  3  4  1  0
  4  5  1  0
  5  6  1  0
  6  7  1  0
  7  8  1  0
  2  9  1  0
  9 10  2  0
  9 11  1  0
M  END
>  <rName>  (3327) 
Ser_Bu

>  <PQ_SYMBOL>  (3327) 
Ser_Bu

>  <FULL_NAME>  (3327) 
(2S)-2-azanyl-3-butoxy-propanoic acid

>  <IUPAC_CONDENSED>  (3327) 
Ser(Bu)

>  <IUPAC>  (3327) 
(2S)-2-amino-3-butoxypropanoic acid

>  <TYPE>  (3327) 
Backbone

>  <CLASS>  (3327) 
alpha

>  <ANALOG>  (3327) 
Ser

>  <MOL_WT>  (3327) 
161.201

>  <LOGP>  (3327) 
0.21499999999999936

>  <TPSA>  (3327) 
72.55

>  <POPULARITY>  (3327) 
15.1

>  <PROTECTED>  (3327) 
TRUE

>  <SMILES>  (3327) 
N[C@@H](COCCCC)C(=O)O

>  <INCHIKEY>  (3327) 
BVQOXKZMEATPAE-LURJTMIESA-N

$$$$
Ser_CF3
     RDKit          2D

 11 10  0  0  0  0  0  0  0  0999 V2000
    1.5275    1.9644    0.0000 N   0  0  0  0  0  0  0  0  0  0  0  0
    1.4450    0.4666    0.0000 C   0  0  0  0  0  0  0  0  0  0  0  0
    0.1067   -0.2107    0.0000 C   0  0  0  0  0  0  0  0  0  0  0  0
   -1.1491    0.6096    0.0000 O   0  0  0  0  0  0  0  0  0  0  0  0
   -2.4875   -0.0678    0.0000 C   0  0  0  0  0  0  0  0  0  0  0  0
   -3.8258   -0.7452    0.0000 F   0  0  0  0  0  0  0  0  0  0  0  0
   -3.1649    1.2706    0.0000 F   0  0  0  0  0  0  0  0  0  0  0  0
   -1.8101   -1.4061    0.0000 F   0  0  0  0  0  0  0  0  0  0  0  0
    2.7008   -0.3537    0.0000 C   0  0  0  0  0  0  0  0  0  0  0  0
    2.6183   -1.8514    0.0000 O   0  0  0  0  0  0  0  0  0  0  0  0
    4.0391    0.3237    0.0000 O   0  0  0  0  0  0  0  0  0  0  0  0
  2  1  1  6
  2  3  1  0
  3  4  1  0
  4  5  1  0
  5  6  1  0
  5  7  1  0
  5  8  1  0
  2  9  1  0
  9 10  2  0
  9 11  1  0
M  END
>  <rName>  (3328) 
Ser_CF3

>  <PQ_SYMBOL>  (3328) 
Ser_CF3

>  <FULL_NAME>  (3328) 
(S)-2-Amino-3-(trifluoromethoxy)propanoic acid

>  <IUPAC_CONDENSED>  (3328) 
Ser(CF3)

>  <IUPAC>  (3328) 
(2S)-2-amino-3-((trifluoromethyl)oxy)propanoic acid

>  <TYPE>  (3328) 
Backbone

>  <CLASS>  (3328) 
alpha

>  <ANALOG>  (3328) 
Ser

>  <MOL_WT>  (3328) 
173.09

>  <LOGP>  (3328) 
-0.06529999999999997

>  <TPSA>  (3328) 
72.55

>  <POPULARITY>  (3328) 
4.8

>  <PROTECTED>  (3328) 
TRUE

>  <SMILES>  (3328) 
N[C@@H](COC(F)(F)F)C(=O)O

>  <INCHIKEY>  (3328) 
BGDJXHSDJCFWPX-REOHCLBHSA-N

$$$$
Ser_CH2CONHtBu
     RDKit          2D

 15 14  0  0  0  0  0  0  0  0999 V2000
    3.3538   -1.8198    0.0000 N   0  0  0  0  0  0  0  0  0  0  0  0
    3.4505   -0.3229    0.0000 C   0  0  0  0  0  0  0  0  0  0  0  0
    2.2024    0.5092    0.0000 C   0  0  0  0  0  0  0  0  0  0  0  0
    0.8578   -0.1556    0.0000 O   0  0  0  0  0  0  0  0  0  0  0  0
   -0.3902    0.6765    0.0000 C   0  0  0  0  0  0  0  0  0  0  0  0
   -1.7349    0.0118    0.0000 C   0  0  0  0  0  0  0  0  0  0  0  0
   -1.8315   -1.4851    0.0000 O   0  0  0  0  0  0  0  0  0  0  0  0
   -2.9829    0.8439    0.0000 N   0  0  0  0  0  0  0  0  0  0  0  0
   -4.3276    0.1791    0.0000 C   0  0  0  0  0  0  0  0  0  0  0  0
   -4.9923    1.5238    0.0000 C   0  0  0  0  0  0  0  0  0  0  0  0
   -3.6628   -1.1655    0.0000 C   0  0  0  0  0  0  0  0  0  0  0  0
   -5.6722   -0.4856    0.0000 C   0  0  0  0  0  0  0  0  0  0  0  0
    4.7951    0.3418    0.0000 C   0  0  0  0  0  0  0  0  0  0  0  0
    4.8917    1.8387    0.0000 O   0  0  0  0  0  0  0  0  0  0  0  0
    6.0431   -0.4903    0.0000 O   0  0  0  0  0  0  0  0  0  0  0  0
  2  1  1  1
  2  3  1  0
  3  4  1  0
  4  5  1  0
  5  6  1  0
  6  7  2  0
  6  8  1  0
  8  9  1  0
  9 10  1  0
  9 11  1  0
  9 12  1  0
  2 13  1  0
 13 14  2  0
 13 15  1  0
M  END
>  <rName>  (3329) 
Ser_CH2CONHtBu

>  <PQ_SYMBOL>  (3329) 
Ser_CH2CONHtBu

>  <FULL_NAME>  (3329) 
(2S)-2-amino-3-[2-(tert-butylamino)-2-oxoethoxy]propanoic acid

>  <IUPAC_CONDENSED>  (3329) 
Ser(CH2CONHtBu)

>  <IUPAC>  (3329) 
(2S)-2-amino-3-((2-((tert-butyl)amino)-2-oxoethyl)oxy)propanoic acid

>  <TYPE>  (3329) 
Backbone

>  <CLASS>  (3329) 
alpha

>  <ANALOG>  (3329) 
Ser

>  <MOL_WT>  (3329) 
218.253

>  <LOGP>  (3329) 
-0.6703999999999992

>  <TPSA>  (3329) 
101.64999999999999

>  <POPULARITY>  (3329) 
2.9

>  <PROTECTED>  (3329) 
TRUE

>  <SMILES>  (3329) 
N[C@@H](COCC(=O)NC(C)(C)C)C(=O)O

>  <INCHIKEY>  (3329) 
GPTHNDPQMQMZHV-LURJTMIESA-N

$$$$
Ser_CH2cHex
     RDKit          2D

 14 14  0  0  0  0  0  0  0  0999 V2000
   -2.7125    1.8435    0.0000 N   0  0  0  0  0  0  0  0  0  0  0  0
   -2.9490    0.3623    0.0000 C   0  0  0  0  0  0  0  0  0  0  0  0
   -1.7844   -0.5831    0.0000 C   0  0  0  0  0  0  0  0  0  0  0  0
   -0.3834   -0.0473    0.0000 O   0  0  0  0  0  0  0  0  0  0  0  0
    0.7812   -0.9927    0.0000 C   0  0  0  0  0  0  0  0  0  0  0  0
    2.1822   -0.4569    0.0000 C   0  0  0  0  0  0  0  0  0  0  0  0
    2.4187    1.0244    0.0000 C   0  0  0  0  0  0  0  0  0  0  0  0
    3.8197    1.5602    0.0000 C   0  0  0  0  0  0  0  0  0  0  0  0
    4.9842    0.6148    0.0000 C   0  0  0  0  0  0  0  0  0  0  0  0
    4.7478   -0.8664    0.0000 C   0  0  0  0  0  0  0  0  0  0  0  0
    3.3467   -1.4023    0.0000 C   0  0  0  0  0  0  0  0  0  0  0  0
   -4.3500   -0.1735    0.0000 C   0  0  0  0  0  0  0  0  0  0  0  0
   -4.5865   -1.6548    0.0000 O   0  0  0  0  0  0  0  0  0  0  0  0
   -5.5146    0.7719    0.0000 O   0  0  0  0  0  0  0  0  0  0  0  0
  2  1  1  1
  2  3  1  0
  3  4  1  0
  4  5  1  0
  5  6  1  0
  6  7  1  0
  7  8  1  0
  8  9  1  0
  9 10  1  0
 10 11  1  0
  2 12  1  0
 12 13  2  0
 12 14  1  0
 11  6  1  0
M  END
>  <rName>  (3330) 
Ser_CH2cHex

>  <PQ_SYMBOL>  (3330) 
Ser_CH2cHex

>  <FULL_NAME>  (3330) 
O-(cyclohexylmethyl)-L-serine

>  <IUPAC_CONDENSED>  (3330) 
Ser(CH2cHex)

>  <IUPAC>  (3330) 
(2S)-2-amino-3-(cyclohexylmethoxy)propanoic acid

>  <TYPE>  (3330) 
Backbone

>  <CLASS>  (3330) 
alpha

>  <ANALOG>  (3330) 
Ser

>  <MOL_WT>  (3330) 
201.26599999999996

>  <LOGP>  (3330) 
0.9951999999999996

>  <TPSA>  (3330) 
72.55

>  <POPULARITY>  (3330) 
4.8

>  <PROTECTED>  (3330) 
TRUE

>  <SMILES>  (3330) 
N[C@@H](COCC1(CCCCC1))C(=O)O

>  <INCHIKEY>  (3330) 
GPAONAQVNZKTIE-VIFPVBQESA-N

$$$$
Ser_CH2cPr
     RDKit          2D

 11 11  0  0  0  0  0  0  0  0999 V2000
   -1.6548    1.8577    0.0000 N   0  0  0  0  0  0  0  0  0  0  0  0
   -1.8277    0.3677    0.0000 C   0  0  0  0  0  0  0  0  0  0  0  0
   -0.6237   -0.5270    0.0000 C   0  0  0  0  0  0  0  0  0  0  0  0
    0.7531    0.0683    0.0000 O   0  0  0  0  0  0  0  0  0  0  0  0
    1.9570   -0.8264    0.0000 C   0  0  0  0  0  0  0  0  0  0  0  0
    3.3339   -0.2311    0.0000 C   0  0  0  0  0  0  0  0  0  0  0  0
    4.8239   -0.4040    0.0000 C   0  0  0  0  0  0  0  0  0  0  0  0
    4.2286    0.9728    0.0000 C   0  0  0  0  0  0  0  0  0  0  0  0
   -3.2045   -0.2276    0.0000 C   0  0  0  0  0  0  0  0  0  0  0  0
   -3.3774   -1.7176    0.0000 O   0  0  0  0  0  0  0  0  0  0  0  0
   -4.4084    0.6671    0.0000 O   0  0  0  0  0  0  0  0  0  0  0  0
  2  1  1  1
  2  3  1  0
  3  4  1  0
  4  5  1  0
  5  6  1  0
  6  7  1  0
  7  8  1  0
  2  9  1  0
  9 10  2  0
  9 11  1  0
  8  6  1  0
M  END
>  <rName>  (3331) 
Ser_CH2cPr

>  <PQ_SYMBOL>  (3331) 
Ser_CH2cPr

>  <FULL_NAME>  (3331) 
(2S)-2-amino-3-(cyclopropylmethoxy)propanoic acid

>  <IUPAC_CONDENSED>  (3331) 
Ser(CH2cPr)

>  <IUPAC>  (3331) 
(2S)-2-amino-3-(cyclopropylmethoxy)propanoic acid

>  <TYPE>  (3331) 
Backbone

>  <CLASS>  (3331) 
alpha

>  <ANALOG>  (3331) 
Ser

>  <MOL_WT>  (3331) 
159.185

>  <LOGP>  (3331) 
-0.17510000000000053

>  <TPSA>  (3331) 
72.55

>  <POPULARITY>  (3331) 
2.2

>  <PROTECTED>  (3331) 
TRUE

>  <SMILES>  (3331) 
N[C@@H](COCC1(CC1))C(=O)O

>  <INCHIKEY>  (3331) 
UXWAOSFQNVSTBP-LURJTMIESA-N

$$$$
Ser_CHF2
     RDKit          2D

 10  9  0  0  0  0  0  0  0  0999 V2000
    1.2717    1.9622    0.0000 N   0  0  0  0  0  0  0  0  0  0  0  0
    1.1946    0.4642    0.0000 C   0  0  0  0  0  0  0  0  0  0  0  0
   -0.1413   -0.2180    0.0000 C   0  0  0  0  0  0  0  0  0  0  0  0
   -1.4001    0.5978    0.0000 O   0  0  0  0  0  0  0  0  0  0  0  0
   -2.7359   -0.0845    0.0000 C   0  0  0  0  0  0  0  0  0  0  0  0
   -3.9947    0.7313    0.0000 F   0  0  0  0  0  0  0  0  0  0  0  0
   -2.8131   -1.5825    0.0000 F   0  0  0  0  0  0  0  0  0  0  0  0
    2.4533   -0.3516    0.0000 C   0  0  0  0  0  0  0  0  0  0  0  0
    2.3762   -1.8496    0.0000 O   0  0  0  0  0  0  0  0  0  0  0  0
    3.7892    0.3306    0.0000 O   0  0  0  0  0  0  0  0  0  0  0  0
  2  1  1  6
  2  3  1  0
  3  4  1  0
  4  5  1  0
  5  6  1  0
  5  7  1  0
  2  8  1  0
  8  9  2  0
  8 10  1  0
M  END
>  <rName>  (3332) 
Ser_CHF2

>  <PQ_SYMBOL>  (3332) 
Ser_CHF2

>  <FULL_NAME>  (3332) 
O-(Difluoromethyl)-L-serine

>  <IUPAC_CONDENSED>  (3332) 
Ser(CHF2)

>  <IUPAC>  (3332) 
(2S)-2-amino-3-(difluoromethoxy)propanoic acid

>  <TYPE>  (3332) 
Backbone

>  <CLASS>  (3332) 
alpha

>  <ANALOG>  (3332) 
Ser

>  <MOL_WT>  (3332) 
155.1

>  <LOGP>  (3332) 
-0.3624999999999999

>  <TPSA>  (3332) 
72.55

>  <POPULARITY>  (3332) 
2.2

>  <PROTECTED>  (3332) 
TRUE

>  <SMILES>  (3332) 
N[C@@H](COC(F)F)C(=O)O

>  <INCHIKEY>  (3332) 
RVEKWELYJPXRIG-REOHCLBHSA-N

$$$$
Ser_CONMe2
     RDKit          2D

 12 11  0  0  0  0  0  0  0  0999 V2000
    1.8826   -1.9413    0.0000 N   0  0  0  0  0  0  0  0  0  0  0  0
    1.9344   -0.4422    0.0000 C   0  0  0  0  0  0  0  0  0  0  0  0
    0.6621    0.3523    0.0000 C   0  0  0  0  0  0  0  0  0  0  0  0
   -0.6621   -0.3523    0.0000 O   0  0  0  0  0  0  0  0  0  0  0  0
   -1.9344    0.4422    0.0000 C   0  0  0  0  0  0  0  0  0  0  0  0
   -1.8826    1.9413    0.0000 O   0  0  0  0  0  0  0  0  0  0  0  0
   -3.2586   -0.2625    0.0000 N   0  0  0  0  0  0  0  0  0  0  0  0
   -4.5309    0.5320    0.0000 C   0  0  0  0  0  0  0  0  0  0  0  0
   -3.3105   -1.7616    0.0000 C   0  0  0  0  0  0  0  0  0  0  0  0
    3.2586    0.2625    0.0000 C   0  0  0  0  0  0  0  0  0  0  0  0
    3.3105    1.7616    0.0000 O   0  0  0  0  0  0  0  0  0  0  0  0
    4.5309   -0.5320    0.0000 O   0  0  0  0  0  0  0  0  0  0  0  0
  2  1  1  1
  2  3  1  0
  3  4  1  0
  4  5  1  0
  5  6  2  0
  5  7  1  0
  7  8  1  0
  7  9  1  0
  2 10  1  0
 10 11  2  0
 10 12  1  0
M  END
>  <rName>  (3333) 
Ser_CONMe2

>  <PQ_SYMBOL>  (3333) 
Ser_CONMe2

>  <FULL_NAME>  (3333) 
(2~{S})-2-azanyl-3-(dimethylcarbamoyloxy)propanoic acid

>  <IUPAC_CONDENSED>  (3333) 
Ser(CONMe2)

>  <IUPAC>  (3333) 
(2S)-2-amino-3-(dimethylcarbamoyloxy)propanoic acid

>  <TYPE>  (3333) 
N-term cap

>  <CLASS>  (3333) 
n_cap

>  <ANALOG>  (3333) 
X

>  <MOL_WT>  (3333) 
176.172

>  <LOGP>  (3333) 
-0.9035

>  <TPSA>  (3333) 
92.86

>  <POPULARITY>  (3333) 
4.0

>  <PROTECTED>  (3333) 
FALSE

>  <SMILES>  (3333) 
N[C@@H](COC(=O)N(C)C)C(=O)O

>  <INCHIKEY>  (3333) 
YZZSSACJQJKEJY-BYPYZUCNSA-N

$$$$
Ser_Et
     RDKit          2D

  9  8  0  0  0  0  0  0  0  0999 V2000
    0.7616   -1.8791    0.0000 N   0  0  0  0  0  0  0  0  0  0  0  0
    0.8459   -0.3815    0.0000 C   0  0  0  0  0  0  0  0  0  0  0  0
   -0.4089    0.4403    0.0000 C   0  0  0  0  0  0  0  0  0  0  0  0
   -1.7480   -0.2354    0.0000 O   0  0  0  0  0  0  0  0  0  0  0  0
   -3.0029    0.5864    0.0000 C   0  0  0  0  0  0  0  0  0  0  0  0
   -4.3420   -0.0894    0.0000 C   0  0  0  0  0  0  0  0  0  0  0  0
    2.1851    0.2943    0.0000 C   0  0  0  0  0  0  0  0  0  0  0  0
    2.2694    1.7919    0.0000 O   0  0  0  0  0  0  0  0  0  0  0  0
    3.4399   -0.5275    0.0000 O   0  0  0  0  0  0  0  0  0  0  0  0
  2  1  1  1
  2  3  1  0
  3  4  1  0
  4  5  1  0
  5  6  1  0
  2  7  1  0
  7  8  2  0
  7  9  1  0
M  END
>  <rName>  (3334) 
Ser_Et

>  <PQ_SYMBOL>  (3334) 
Ser_Et

>  <FULL_NAME>  (3334) 
(2S)-2-Amino-3-ethoxypropanoic acid

>  <IUPAC_CONDENSED>  (3334) 
Ser(Et)

>  <IUPAC>  (3334) 
(2S)-2-amino-3-ethoxypropanoic acid

>  <TYPE>  (3334) 
Backbone

>  <CLASS>  (3334) 
alpha

>  <ANALOG>  (3334) 
Ser

>  <MOL_WT>  (3334) 
133.147

>  <LOGP>  (3334) 
-0.5652000000000004

>  <TPSA>  (3334) 
72.55

>  <POPULARITY>  (3334) 
13.9

>  <PROTECTED>  (3334) 
TRUE

>  <SMILES>  (3334) 
N[C@@H](COCC)C(=O)O

>  <INCHIKEY>  (3334) 
AFGCRUGTZPDWSF-BYPYZUCNSA-N

$$$$
Ser_EtNH2
     RDKit          2D

 10  9  0  0  0  0  0  0  0  0999 V2000
   -1.4166   -1.8843    0.0000 N   0  0  0  0  0  0  0  0  0  0  0  0
   -1.4265   -0.3844    0.0000 C   0  0  0  0  0  0  0  0  0  0  0  0
   -0.1324    0.3741    0.0000 C   0  0  0  0  0  0  0  0  0  0  0  0
    1.1716   -0.3673    0.0000 O   0  0  0  0  0  0  0  0  0  0  0  0
    2.4657    0.3912    0.0000 C   0  0  0  0  0  0  0  0  0  0  0  0
    3.7696   -0.3503    0.0000 C   0  0  0  0  0  0  0  0  0  0  0  0
    5.0637    0.4082    0.0000 N   0  0  0  0  0  0  0  0  0  0  0  0
   -2.7304    0.3571    0.0000 C   0  0  0  0  0  0  0  0  0  0  0  0
   -2.7402    1.8571    0.0000 O   0  0  0  0  0  0  0  0  0  0  0  0
   -4.0245   -0.4014    0.0000 O   0  0  0  0  0  0  0  0  0  0  0  0
  2  1  1  6
  2  3  1  0
  3  4  1  0
  4  5  1  0
  5  6  1  0
  6  7  1  0
  2  8  1  0
  8  9  2  0
  8 10  1  0
M  END
>  <rName>  (3335) 
Ser_EtNH2

>  <PQ_SYMBOL>  (3335) 
Ser_EtNH2

>  <FULL_NAME>  (3335) 
O-(2-aminoethyl)-L-serine

>  <IUPAC_CONDENSED>  (3335) 
Ser(EtNH2)

>  <IUPAC>  (3335) 
(2S)-2-amino-3-((2-aminoethyl)oxy)propanoic acid

>  <TYPE>  (3335) 
Backbone

>  <CLASS>  (3335) 
alpha

>  <ANALOG>  (3335) 
Ser

>  <MOL_WT>  (3335) 
148.162

>  <LOGP>  (3335) 
-1.6263999999999985

>  <TPSA>  (3335) 
98.57000000000001

>  <POPULARITY>  (3335) 
11.8

>  <PROTECTED>  (3335) 
TRUE

>  <SMILES>  (3335) 
N[C@@H](COCCN)C(=O)O

>  <INCHIKEY>  (3335) 
SLTGLTLBIVDQKE-BYPYZUCNSA-N

$$$$
Ser_EtO2H
     RDKit          2D

 11 10  0  0  0  0  0  0  0  0999 V2000
   -1.6269   -1.8430    0.0000 N   0  0  0  0  0  0  0  0  0  0  0  0
   -1.7489   -0.3480    0.0000 C   0  0  0  0  0  0  0  0  0  0  0  0
   -0.5152    0.5052    0.0000 C   0  0  0  0  0  0  0  0  0  0  0  0
    0.8406   -0.1366    0.0000 O   0  0  0  0  0  0  0  0  0  0  0  0
    2.0743    0.7166    0.0000 C   0  0  0  0  0  0  0  0  0  0  0  0
    3.4300    0.0748    0.0000 C   0  0  0  0  0  0  0  0  0  0  0  0
    3.5521   -1.4203    0.0000 O   0  0  0  0  0  0  0  0  0  0  0  0
    4.6637    0.9280    0.0000 O   0  0  0  0  0  0  0  0  0  0  0  0
   -3.1047    0.2938    0.0000 C   0  0  0  0  0  0  0  0  0  0  0  0
   -3.2267    1.7889    0.0000 O   0  0  0  0  0  0  0  0  0  0  0  0
   -4.3384   -0.5594    0.0000 O   0  0  0  0  0  0  0  0  0  0  0  0
  2  1  1  6
  2  3  1  0
  3  4  1  0
  4  5  1  0
  5  6  1  0
  6  7  2  0
  6  8  1  0
  2  9  1  0
  9 10  2  0
  9 11  1  0
M  END
>  <rName>  (3336) 
Ser_EtO2H

>  <PQ_SYMBOL>  (3336) 
Ser_EtO2H

>  <FULL_NAME>  (3336) 
O-(Carboxymethyl)-L-serine

>  <IUPAC_CONDENSED>  (3336) 
Ser(EtO2H)

>  <IUPAC>  (3336) 
(2S)-2-amino-3-(carboxymethoxy)propanoic acid

>  <TYPE>  (3336) 
Backbone

>  <CLASS>  (3336) 
alpha

>  <ANALOG>  (3336) 
Ser

>  <MOL_WT>  (3336) 
163.129

>  <LOGP>  (3336) 
-1.5004999999999988

>  <TPSA>  (3336) 
109.85000000000001

>  <POPULARITY>  (3336) 
3.5

>  <PROTECTED>  (3336) 
TRUE

>  <SMILES>  (3336) 
N[C@@H](COCC(=O)O)C(=O)O

>  <INCHIKEY>  (3336) 
YHAOCTNMVPIAJZ-VKHMYHEASA-N

$$$$
Ser_EtOEtOEtN3
     RDKit          2D

 18 17  0  0  0  0  0  0  0  0999 V2000
   -6.2387   -1.9261    0.0000 N   0  0  0  0  0  0  0  0  0  0  0  0
   -6.2710   -0.4265    0.0000 C   0  0  0  0  0  0  0  0  0  0  0  0
   -4.9883    0.3513    0.0000 C   0  0  0  0  0  0  0  0  0  0  0  0
   -3.6735   -0.3707    0.0000 O   0  0  0  0  0  0  0  0  0  0  0  0
   -2.3909    0.4071    0.0000 C   0  0  0  0  0  0  0  0  0  0  0  0
   -1.0760   -0.3149    0.0000 C   0  0  0  0  0  0  0  0  0  0  0  0
    0.2066    0.4629    0.0000 O   0  0  0  0  0  0  0  0  0  0  0  0
    1.5215   -0.2590    0.0000 C   0  0  0  0  0  0  0  0  0  0  0  0
    2.8041    0.5187    0.0000 C   0  0  0  0  0  0  0  0  0  0  0  0
    4.1189   -0.2032    0.0000 O   0  0  0  0  0  0  0  0  0  0  0  0
    5.4016    0.5745    0.0000 C   0  0  0  0  0  0  0  0  0  0  0  0
    6.7164   -0.1474    0.0000 C   0  0  0  0  0  0  0  0  0  0  0  0
    7.9990    0.6303    0.0000 N   0  0  0  0  0  0  0  0  0  0  0  0
    9.3139   -0.0916    0.0000 N   0  0  0  0  0  0  0  0  0  0  0  0
   10.6287   -0.8135    0.0000 N   0  0  0  0  0  0  0  0  0  0  0  0
   -7.5858    0.2955    0.0000 C   0  0  0  0  0  0  0  0  0  0  0  0
   -7.6180    1.7951    0.0000 O   0  0  0  0  0  0  0  0  0  0  0  0
   -8.8684   -0.4823    0.0000 O   0  0  0  0  0  0  0  0  0  0  0  0
  2  1  1  6
  2  3  1  0
  3  4  1  0
  4  5  1  0
  5  6  1  0
  6  7  1  0
  7  8  1  0
  8  9  1  0
  9 10  1  0
 10 11  1  0
 11 12  1  0
 12 13  1  0
 13 14  2  0
 14 15  2  0
  2 16  1  0
 16 17  2  0
 16 18  1  0
M  CHG  2  14   1  15  -1
M  END
>  <rName>  (3337) 
Ser_EtOEtOEtN3

>  <PQ_SYMBOL>  (3337) 
Ser_EtOEtOEtN3

>  <FULL_NAME>  (3337) 
(2S)-2-amino-3-[2-[2-(2-azidoethoxy)ethoxy]ethoxy]propanoic acid

>  <IUPAC_CONDENSED>  (3337) 
Ser(EtOEtOEtN3)

>  <IUPAC>  (3337) 
(2S)-2-amino-3-[2-[2-(2-azidoethoxy)ethoxy]ethoxy]propanoic acid

>  <TYPE>  (3337) 
Backbone

>  <CLASS>  (3337) 
alpha

>  <ANALOG>  (3337) 
Ser

>  <MOL_WT>  (3337) 
262.26599999999996

>  <LOGP>  (3337) 
-0.2416000000000001

>  <TPSA>  (3337) 
139.77

>  <POPULARITY>  (3337) 
2.2

>  <PROTECTED>  (3337) 
TRUE

>  <SMILES>  (3337) 
N[C@@H](COCCOCCOCCN=[N+]=[N-])C(=O)O

>  <INCHIKEY>  (3337) 
BHNVZMHTTIZOKQ-QMMMGPOBSA-N

$$$$
Ser_EtOMe
     RDKit          2D

 11 10  0  0  0  0  0  0  0  0999 V2000
    1.9630   -1.8884    0.0000 N   0  0  0  0  0  0  0  0  0  0  0  0
    1.9989   -0.3888    0.0000 C   0  0  0  0  0  0  0  0  0  0  0  0
    0.7181    0.3920    0.0000 C   0  0  0  0  0  0  0  0  0  0  0  0
   -0.5985   -0.3267    0.0000 O   0  0  0  0  0  0  0  0  0  0  0  0
   -1.8792    0.4541    0.0000 C   0  0  0  0  0  0  0  0  0  0  0  0
   -3.1958   -0.2646    0.0000 C   0  0  0  0  0  0  0  0  0  0  0  0
   -4.4765    0.5162    0.0000 O   0  0  0  0  0  0  0  0  0  0  0  0
   -5.7931   -0.2025    0.0000 C   0  0  0  0  0  0  0  0  0  0  0  0
    3.3155    0.3299    0.0000 C   0  0  0  0  0  0  0  0  0  0  0  0
    3.3513    1.8295    0.0000 O   0  0  0  0  0  0  0  0  0  0  0  0
    4.5962   -0.4509    0.0000 O   0  0  0  0  0  0  0  0  0  0  0  0
  2  1  1  1
  2  3  1  0
  3  4  1  0
  4  5  1  0
  5  6  1  0
  6  7  1  0
  7  8  1  0
  2  9  1  0
  9 10  2  0
  9 11  1  0
M  END
>  <rName>  (3338) 
Ser_EtOMe

>  <PQ_SYMBOL>  (3338) 
Ser_EtOMe

>  <FULL_NAME>  (3338) 
(S)-2-amino-3-(2-methoxyethoxy)propanoic acid

>  <IUPAC_CONDENSED>  (3338) 
Ser(EtOMe)

>  <IUPAC>  (3338) 
(2S)-2-amino-3-((2-methoxyethyl)oxy)propanoic acid

>  <TYPE>  (3338) 
Backbone

>  <CLASS>  (3338) 
alpha

>  <ANALOG>  (3338) 
Ser

>  <MOL_WT>  (3338) 
163.173

>  <LOGP>  (3338) 
-0.9386999999999996

>  <TPSA>  (3338) 
81.78

>  <POPULARITY>  (3338) 
6.1

>  <PROTECTED>  (3338) 
TRUE

>  <SMILES>  (3338) 
N[C@@H](COCCOC)C(=O)O

>  <INCHIKEY>  (3338) 
ZOMRDSPJEFYHEH-YFKPBYRVSA-N

$$$$
Ser_Me
     RDKit          2D

  8  7  0  0  0  0  0  0  0  0999 V2000
   -0.2517   -1.8862    0.0000 N   0  0  0  0  0  0  0  0  0  0  0  0
   -0.3100   -0.3873    0.0000 C   0  0  0  0  0  0  0  0  0  0  0  0
    0.9590    0.4126    0.0000 C   0  0  0  0  0  0  0  0  0  0  0  0
    2.2862   -0.2864    0.0000 O   0  0  0  0  0  0  0  0  0  0  0  0
    3.5551    0.5134    0.0000 C   0  0  0  0  0  0  0  0  0  0  0  0
   -1.6371    0.3117    0.0000 C   0  0  0  0  0  0  0  0  0  0  0  0
   -1.6954    1.8105    0.0000 O   0  0  0  0  0  0  0  0  0  0  0  0
   -2.9061   -0.4882    0.0000 O   0  0  0  0  0  0  0  0  0  0  0  0
  2  1  1  6
  2  3  1  0
  3  4  1  0
  4  5  1  0
  2  6  1  0
  6  7  2  0
  6  8  1  0
M  END
>  <rName>  (3339) 
Ser_Me

>  <PQ_SYMBOL>  (3339) 
Ser_Me

>  <FULL_NAME>  (3339) 
O-Methyl-L-Serine

>  <IUPAC_CONDENSED>  (3339) 
Ser(Me)

>  <IUPAC>  (3339) 
(2S)-2-amino-3-methoxypropanoic acid

>  <TYPE>  (3339) 
Backbone

>  <CLASS>  (3339) 
alpha

>  <ANALOG>  (3339) 
Ser

>  <MOL_WT>  (3339) 
119.11999999999998

>  <LOGP>  (3339) 
-0.9552999999999998

>  <TPSA>  (3339) 
72.55

>  <POPULARITY>  (3339) 
22.7

>  <PROTECTED>  (3339) 
TRUE

>  <SMILES>  (3339) 
N[C@@H](COC)C(=O)O

>  <INCHIKEY>  (3339) 
KNTFCRCCPLEUQZ-VKHMYHEASA-N

$$$$
Ser_OAla
     RDKit          2D

 12 11  0  0  0  0  0  0  0  0999 V2000
   -1.8826   -1.9413    0.0000 N   0  0  0  0  0  0  0  0  0  0  0  0
   -1.9344   -0.4422    0.0000 C   0  0  0  0  0  0  0  0  0  0  0  0
   -0.6621    0.3523    0.0000 C   0  0  0  0  0  0  0  0  0  0  0  0
    0.6621   -0.3523    0.0000 O   0  0  0  0  0  0  0  0  0  0  0  0
    1.9344    0.4422    0.0000 C   0  0  0  0  0  0  0  0  0  0  0  0
    1.8826    1.9413    0.0000 O   0  0  0  0  0  0  0  0  0  0  0  0
    3.2586   -0.2625    0.0000 C   0  0  0  0  0  0  0  0  0  0  0  0
    4.5309    0.5320    0.0000 C   0  0  0  0  0  0  0  0  0  0  0  0
    3.3105   -1.7616    0.0000 N   0  0  0  0  0  0  0  0  0  0  0  0
   -3.2586    0.2625    0.0000 C   0  0  0  0  0  0  0  0  0  0  0  0
   -3.3105    1.7616    0.0000 O   0  0  0  0  0  0  0  0  0  0  0  0
   -4.5309   -0.5320    0.0000 O   0  0  0  0  0  0  0  0  0  0  0  0
  2  1  1  6
  2  3  1  0
  3  4  1  0
  4  5  1  0
  5  6  2  0
  5  7  1  0
  7  8  1  6
  7  9  1  0
  2 10  1  0
 10 11  2  0
 10 12  1  0
M  END
>  <rName>  (3340) 
Ser_OAla

>  <PQ_SYMBOL>  (3340) 
Ser_OAla

>  <FULL_NAME>  (3340) 
O-(L-alanyl)-L-serine

>  <IUPAC_CONDENSED>  (3340) 
Ser(O-Ala)

>  <IUPAC>  (3340) 
(2S)-2-amino-3-((1S)-1-aminoethylcarbonyloxy)propanoic acid

>  <TYPE>  (3340) 
Backbone

>  <CLASS>  (3340) 
alpha

>  <ANALOG>  (3340) 
Ser

>  <MOL_WT>  (3340) 
176.17199999999997

>  <LOGP>  (3340) 
-1.7112999999999987

>  <TPSA>  (3340) 
115.64

>  <POPULARITY>  (3340) 
8.4

>  <PROTECTED>  (3340) 
TRUE

>  <SMILES>  (3340) 
N[C@@H](COC(=O)[C@H](C)N)C(=O)O

>  <INCHIKEY>  (3340) 
LUIRFVVZMTXCLG-IMJSIDKUSA-N

$$$$
Ser_OArg
     RDKit          2D

 18 17  0  0  0  0  0  0  0  0999 V2000
    4.8729    1.8628    0.0000 N   0  0  0  0  0  0  0  0  0  0  0  0
    4.8434    0.3631    0.0000 C   0  0  0  0  0  0  0  0  0  0  0  0
    3.5298   -0.3612    0.0000 C   0  0  0  0  0  0  0  0  0  0  0  0
    2.2458    0.4142    0.0000 O   0  0  0  0  0  0  0  0  0  0  0  0
    0.9323   -0.3101    0.0000 C   0  0  0  0  0  0  0  0  0  0  0  0
    0.9028   -1.8098    0.0000 O   0  0  0  0  0  0  0  0  0  0  0  0
   -0.3518    0.4653    0.0000 C   0  0  0  0  0  0  0  0  0  0  0  0
   -0.3222    1.9651    0.0000 N   0  0  0  0  0  0  0  0  0  0  0  0
   -1.6653   -0.2589    0.0000 C   0  0  0  0  0  0  0  0  0  0  0  0
   -2.9493    0.5165    0.0000 C   0  0  0  0  0  0  0  0  0  0  0  0
   -4.2629   -0.2078    0.0000 C   0  0  0  0  0  0  0  0  0  0  0  0
   -5.5469    0.5676    0.0000 N   0  0  0  0  0  0  0  0  0  0  0  0
   -6.8604   -0.1567    0.0000 C   0  0  0  0  0  0  0  0  0  0  0  0
   -6.8900   -1.6564    0.0000 N   0  0  0  0  0  0  0  0  0  0  0  0
   -8.1445    0.6187    0.0000 N   0  0  0  0  0  0  0  0  0  0  0  0
    6.1274   -0.4123    0.0000 C   0  0  0  0  0  0  0  0  0  0  0  0
    6.0979   -1.9120    0.0000 O   0  0  0  0  0  0  0  0  0  0  0  0
    7.4410    0.3120    0.0000 O   0  0  0  0  0  0  0  0  0  0  0  0
  2  1  1  6
  2  3  1  0
  3  4  1  0
  4  5  1  0
  5  6  2  0
  5  7  1  0
  7  8  1  6
  7  9  1  0
  9 10  1  0
 10 11  1  0
 11 12  1  0
 12 13  1  0
 13 14  2  0
 13 15  1  0
  2 16  1  0
 16 17  2  0
 16 18  1  0
M  END
>  <rName>  (3341) 
Ser_OArg

>  <PQ_SYMBOL>  (3341) 
Ser_OArg

>  <FULL_NAME>  (3341) 
O-(L-arginyl)-L-serine

>  <IUPAC_CONDENSED>  (3341) 
Ser(O-Arg)

>  <IUPAC>  (3341) 
(2S)-2-amino-3-((1S)-1-amino-4-(((amino)(imino)methyl)amino)butylcarbonyloxy)propanoic acid

>  <TYPE>  (3341) 
Backbone

>  <CLASS>  (3341) 
alpha

>  <ANALOG>  (3341) 
Arg

>  <MOL_WT>  (3341) 
261.282

>  <LOGP>  (3341) 
-2.4679299999999973

>  <TPSA>  (3341) 
177.54

>  <POPULARITY>  (3341) 
2.6

>  <PROTECTED>  (3341) 
TRUE

>  <SMILES>  (3341) 
N[C@@H](COC(=O)[C@@H](N)CCCNC(=N)N)C(=O)O

>  <INCHIKEY>  (3341) 
WVJYMQMPIZUASP-WDSKDSINSA-N

$$$$
Ser_OAsn
     RDKit          2D

 15 14  0  0  0  0  0  0  0  0999 V2000
   -3.0893   -1.9459    0.0000 N   0  0  0  0  0  0  0  0  0  0  0  0
   -3.1825   -0.4488    0.0000 C   0  0  0  0  0  0  0  0  0  0  0  0
   -1.9327    0.3806    0.0000 C   0  0  0  0  0  0  0  0  0  0  0  0
   -0.5895   -0.2872    0.0000 O   0  0  0  0  0  0  0  0  0  0  0  0
    0.6604    0.5421    0.0000 C   0  0  0  0  0  0  0  0  0  0  0  0
    0.5671    2.0392    0.0000 O   0  0  0  0  0  0  0  0  0  0  0  0
    2.0035   -0.1257    0.0000 C   0  0  0  0  0  0  0  0  0  0  0  0
    2.0968   -1.6228    0.0000 N   0  0  0  0  0  0  0  0  0  0  0  0
    3.2534    0.7037    0.0000 C   0  0  0  0  0  0  0  0  0  0  0  0
    4.5966    0.0359    0.0000 C   0  0  0  0  0  0  0  0  0  0  0  0
    4.6899   -1.4612    0.0000 O   0  0  0  0  0  0  0  0  0  0  0  0
    5.8465    0.8652    0.0000 N   0  0  0  0  0  0  0  0  0  0  0  0
   -4.5257    0.2190    0.0000 C   0  0  0  0  0  0  0  0  0  0  0  0
   -4.6190    1.7161    0.0000 O   0  0  0  0  0  0  0  0  0  0  0  0
   -5.7756   -0.6103    0.0000 O   0  0  0  0  0  0  0  0  0  0  0  0
  2  1  1  6
  2  3  1  0
  3  4  1  0
  4  5  1  0
  5  6  2  0
  5  7  1  0
  7  8  1  6
  7  9  1  0
  9 10  1  0
 10 11  2  0
 10 12  1  0
  2 13  1  0
 13 14  2  0
 13 15  1  0
M  END
>  <rName>  (3342) 
Ser_OAsn

>  <PQ_SYMBOL>  (3342) 
Ser_OAsn

>  <FULL_NAME>  (3342) 
O-(L-asparaginyl)-L-serine

>  <IUPAC_CONDENSED>  (3342) 
Ser(O-Asn)

>  <IUPAC>  (3342) 
(2S)-2-amino-3-((1S)-1,3-diamino-3-oxopropylcarbonyloxy)propanoic acid

>  <TYPE>  (3342) 
Backbone

>  <CLASS>  (3342) 
alpha

>  <ANALOG>  (3342) 
Ser

>  <MOL_WT>  (3342) 
219.19699999999997

>  <LOGP>  (3342) 
-2.8557999999999977

>  <TPSA>  (3342) 
158.73

>  <POPULARITY>  (3342) 
2.9

>  <PROTECTED>  (3342) 
TRUE

>  <SMILES>  (3342) 
N[C@@H](COC(=O)[C@@H](N)CC(=O)N)C(=O)O

>  <INCHIKEY>  (3342) 
XBSLWEZXUKNJHF-IMJSIDKUSA-N

$$$$
Ser_OAsp
     RDKit          2D

 15 14  0  0  0  0  0  0  0  0999 V2000
   -3.0893   -1.9459    0.0000 N   0  0  0  0  0  0  0  0  0  0  0  0
   -3.1825   -0.4488    0.0000 C   0  0  0  0  0  0  0  0  0  0  0  0
   -1.9327    0.3806    0.0000 C   0  0  0  0  0  0  0  0  0  0  0  0
   -0.5895   -0.2872    0.0000 O   0  0  0  0  0  0  0  0  0  0  0  0
    0.6604    0.5421    0.0000 C   0  0  0  0  0  0  0  0  0  0  0  0
    0.5671    2.0392    0.0000 O   0  0  0  0  0  0  0  0  0  0  0  0
    2.0035   -0.1257    0.0000 C   0  0  0  0  0  0  0  0  0  0  0  0
    2.0968   -1.6228    0.0000 N   0  0  0  0  0  0  0  0  0  0  0  0
    3.2534    0.7037    0.0000 C   0  0  0  0  0  0  0  0  0  0  0  0
    4.5966    0.0359    0.0000 C   0  0  0  0  0  0  0  0  0  0  0  0
    4.6899   -1.4612    0.0000 O   0  0  0  0  0  0  0  0  0  0  0  0
    5.8465    0.8652    0.0000 O   0  0  0  0  0  0  0  0  0  0  0  0
   -4.5257    0.2190    0.0000 C   0  0  0  0  0  0  0  0  0  0  0  0
   -4.6190    1.7161    0.0000 O   0  0  0  0  0  0  0  0  0  0  0  0
   -5.7756   -0.6103    0.0000 O   0  0  0  0  0  0  0  0  0  0  0  0
  2  1  1  6
  2  3  1  0
  3  4  1  0
  4  5  1  0
  5  6  2  0
  5  7  1  0
  7  8  1  6
  7  9  1  0
  9 10  1  0
 10 11  2  0
 10 12  1  0
  2 13  1  0
 13 14  2  0
 13 15  1  0
M  END
>  <rName>  (3343) 
Ser_OAsp

>  <PQ_SYMBOL>  (3343) 
Ser_OAsp

>  <FULL_NAME>  (3343) 
(S)-3-amino-4-((S)-2-amino-2-carboxyethoxy)-4-oxobutanoic acid

>  <IUPAC_CONDENSED>  (3343) 
Ser(O-Asp)

>  <IUPAC>  (3343) 
(2S)-2-amino-3-((1S)-1-amino-3-hydroxy-3-oxopropylcarbonyloxy)propanoic acid

>  <TYPE>  (3343) 
Backbone

>  <CLASS>  (3343) 
alpha

>  <ANALOG>  (3343) 
Ser

>  <MOL_WT>  (3343) 
220.18099999999998

>  <LOGP>  (3343) 
-2.256499999999998

>  <TPSA>  (3343) 
152.94

>  <POPULARITY>  (3343) 
2.9

>  <PROTECTED>  (3343) 
TRUE

>  <SMILES>  (3343) 
N[C@@H](COC(=O)[C@@H](N)CC(=O)O)C(=O)O

>  <INCHIKEY>  (3343) 
XEBMHEOSBKVUSV-IMJSIDKUSA-N

$$$$
Ser_OGln
     RDKit          2D

 16 15  0  0  0  0  0  0  0  0999 V2000
   -1.4186   -1.9998    0.0000 N   0  0  0  0  0  0  0  0  0  0  0  0
   -1.4510   -0.5001    0.0000 C   0  0  0  0  0  0  0  0  0  0  0  0
   -2.7659    0.2217    0.0000 C   0  0  0  0  0  0  0  0  0  0  0  0
   -4.0484   -0.5562    0.0000 C   0  0  0  0  0  0  0  0  0  0  0  0
   -5.3634    0.1657    0.0000 C   0  0  0  0  0  0  0  0  0  0  0  0
   -5.3957    1.6653    0.0000 O   0  0  0  0  0  0  0  0  0  0  0  0
   -6.6459   -0.6122    0.0000 N   0  0  0  0  0  0  0  0  0  0  0  0
   -0.1684    0.2777    0.0000 C   0  0  0  0  0  0  0  0  0  0  0  0
   -0.2007    1.7773    0.0000 O   0  0  0  0  0  0  0  0  0  0  0  0
    1.1465   -0.4441    0.0000 O   0  0  0  0  0  0  0  0  0  0  0  0
    2.4291    0.3337    0.0000 C   0  0  0  0  0  0  0  0  0  0  0  0
    3.7440   -0.3881    0.0000 C   0  0  0  0  0  0  0  0  0  0  0  0
    3.7763   -1.8878    0.0000 N   0  0  0  0  0  0  0  0  0  0  0  0
    5.0265    0.3897    0.0000 C   0  0  0  0  0  0  0  0  0  0  0  0
    4.9942    1.8894    0.0000 O   0  0  0  0  0  0  0  0  0  0  0  0
    6.3414   -0.3321    0.0000 O   0  0  0  0  0  0  0  0  0  0  0  0
  2  1  1  1
  2  3  1  0
  3  4  1  0
  4  5  1  0
  5  6  2  0
  5  7  1  0
  2  8  1  0
  8  9  2  0
  8 10  1  0
 10 11  1  0
 11 12  1  0
 12 13  1  1
 12 14  1  0
 14 15  2  0
 14 16  1  0
M  END
>  <rName>  (3344) 
Ser_OGln

>  <PQ_SYMBOL>  (3344) 
Ser_OGln

>  <FULL_NAME>  (3344) 
(2S)-2-amino-3-[(2S)-2,5-diamino-5-oxopentanoyl]oxypropanoic acid

>  <IUPAC_CONDENSED>  (3344) 
Ser(O-Gln)

>  <IUPAC>  (3344) 
(2S)-2-amino-3-((1S)-1,4-diamino-4-oxobutylcarbonyloxy)propanoic acid

>  <TYPE>  (3344) 
Backbone

>  <CLASS>  (3344) 
epsilon

>  <ANALOG>  (3344) 
Gln

>  <MOL_WT>  (3344) 
233.224

>  <LOGP>  (3344) 
-2.4656999999999973

>  <TPSA>  (3344) 
158.73

>  <POPULARITY>  (3344) 
3.9

>  <PROTECTED>  (3344) 
TRUE

>  <SMILES>  (3344) 
N[C@@H](CCC(=O)N)C(=O)OC[C@H](N)C(=O)O

>  <INCHIKEY>  (3344) 
NITGXFWLRQKSKJ-WHFBIAKZSA-N

$$$$
Ser_OGlu
     RDKit          2D

 16 15  0  0  0  0  0  0  0  0999 V2000
    3.7763    1.8878    0.0000 N   0  0  0  0  0  0  0  0  0  0  0  0
    3.7440    0.3881    0.0000 C   0  0  0  0  0  0  0  0  0  0  0  0
    2.4291   -0.3337    0.0000 C   0  0  0  0  0  0  0  0  0  0  0  0
    1.1465    0.4441    0.0000 O   0  0  0  0  0  0  0  0  0  0  0  0
   -0.1684   -0.2777    0.0000 C   0  0  0  0  0  0  0  0  0  0  0  0
   -0.2007   -1.7773    0.0000 O   0  0  0  0  0  0  0  0  0  0  0  0
   -1.4510    0.5001    0.0000 C   0  0  0  0  0  0  0  0  0  0  0  0
   -1.4186    1.9998    0.0000 N   0  0  0  0  0  0  0  0  0  0  0  0
   -2.7659   -0.2217    0.0000 C   0  0  0  0  0  0  0  0  0  0  0  0
   -4.0484    0.5562    0.0000 C   0  0  0  0  0  0  0  0  0  0  0  0
   -5.3634   -0.1657    0.0000 C   0  0  0  0  0  0  0  0  0  0  0  0
   -5.3957   -1.6653    0.0000 O   0  0  0  0  0  0  0  0  0  0  0  0
   -6.6459    0.6122    0.0000 O   0  0  0  0  0  0  0  0  0  0  0  0
    5.0265   -0.3897    0.0000 C   0  0  0  0  0  0  0  0  0  0  0  0
    4.9942   -1.8894    0.0000 O   0  0  0  0  0  0  0  0  0  0  0  0
    6.3414    0.3321    0.0000 O   0  0  0  0  0  0  0  0  0  0  0  0
  2  1  1  6
  2  3  1  0
  3  4  1  0
  4  5  1  0
  5  6  2  0
  5  7  1  0
  7  8  1  6
  7  9  1  0
  9 10  1  0
 10 11  1  0
 11 12  2  0
 11 13  1  0
  2 14  1  0
 14 15  2  0
 14 16  1  0
M  END
>  <rName>  (3345) 
Ser_OGlu

>  <PQ_SYMBOL>  (3345) 
Ser_OGlu

>  <FULL_NAME>  (3345) 
(S)-4-amino-5-((S)-2-amino-2-carboxyethoxy)-5-oxopentanoic acid

>  <IUPAC_CONDENSED>  (3345) 
Ser(O-Glu)

>  <IUPAC>  (3345) 
(4S)-4-amino-4-(((2S)-2-amino-3-hydroxy-3-oxopropoxy)carbonyl)butanoic acid

>  <TYPE>  (3345) 
Backbone

>  <CLASS>  (3345) 
alpha

>  <ANALOG>  (3345) 
Ser

>  <MOL_WT>  (3345) 
234.20799999999997

>  <LOGP>  (3345) 
-1.8663999999999978

>  <TPSA>  (3345) 
152.94

>  <POPULARITY>  (3345) 
2.8

>  <PROTECTED>  (3345) 
TRUE

>  <SMILES>  (3345) 
N[C@@H](COC(=O)[C@@H](N)CCC(=O)O)C(=O)O

>  <INCHIKEY>  (3345) 
JCWTXEASOZBHFE-WHFBIAKZSA-N

$$$$
Ser_OGly
     RDKit          2D

 11 10  0  0  0  0  0  0  0  0999 V2000
    4.8461    0.0297    0.0000 N   0  0  0  0  0  0  0  0  0  0  0  0
    3.5123    0.7160    0.0000 C   0  0  0  0  0  0  0  0  0  0  0  0
    2.2511   -0.0959    0.0000 C   0  0  0  0  0  0  0  0  0  0  0  0
    2.3235   -1.5941    0.0000 O   0  0  0  0  0  0  0  0  0  0  0  0
    0.9173    0.5905    0.0000 O   0  0  0  0  0  0  0  0  0  0  0  0
   -0.3440   -0.2214    0.0000 C   0  0  0  0  0  0  0  0  0  0  0  0
   -1.6777    0.4649    0.0000 C   0  0  0  0  0  0  0  0  0  0  0  0
   -1.7502    1.9632    0.0000 N   0  0  0  0  0  0  0  0  0  0  0  0
   -2.9390   -0.3470    0.0000 C   0  0  0  0  0  0  0  0  0  0  0  0
   -2.8665   -1.8452    0.0000 O   0  0  0  0  0  0  0  0  0  0  0  0
   -4.2728    0.3394    0.0000 O   0  0  0  0  0  0  0  0  0  0  0  0
  1  2  1  0
  2  3  1  0
  3  4  2  0
  3  5  1  0
  5  6  1  0
  6  7  1  0
  7  8  1  1
  7  9  1  0
  9 10  2  0
  9 11  1  0
M  END
>  <rName>  (3346) 
Ser_OGly

>  <PQ_SYMBOL>  (3346) 
Ser_OGly

>  <FULL_NAME>  (3346) 
(2S)-2-amino-3-(2-aminoacetyl)oxypropanoic acid

>  <IUPAC_CONDENSED>  (3346) 
Ser(O-Gly)

>  <IUPAC>  (3346) 
(2S)-2-amino-3-(aminomethylcarbonyloxy)propanoic acid

>  <TYPE>  (3346) 
Backbone

>  <CLASS>  (3346) 
epsilon

>  <ANALOG>  (3346) 
X

>  <MOL_WT>  (3346) 
162.145

>  <LOGP>  (3346) 
-2.0997999999999992

>  <TPSA>  (3346) 
115.64

>  <POPULARITY>  (3346) 
14.4

>  <PROTECTED>  (3346) 
TRUE

>  <SMILES>  (3346) 
NCC(=O)OC[C@H](N)C(=O)O

>  <INCHIKEY>  (3346) 
UCCAORFDUCOVNR-VKHMYHEASA-N

$$$$
Ser_OHis
     RDKit          2D

 17 17  0  0  0  0  0  0  0  0999 V2000
   -3.7981    2.0012    0.0000 N   0  0  0  0  0  0  0  0  0  0  0  0
   -3.9609    0.5101    0.0000 C   0  0  0  0  0  0  0  0  0  0  0  0
   -2.7510   -0.3765    0.0000 C   0  0  0  0  0  0  0  0  0  0  0  0
   -1.3782    0.2280    0.0000 O   0  0  0  0  0  0  0  0  0  0  0  0
   -0.1683   -0.6586    0.0000 C   0  0  0  0  0  0  0  0  0  0  0  0
   -0.3311   -2.1497    0.0000 O   0  0  0  0  0  0  0  0  0  0  0  0
    1.2045   -0.0540    0.0000 C   0  0  0  0  0  0  0  0  0  0  0  0
    1.3674    1.4371    0.0000 N   0  0  0  0  0  0  0  0  0  0  0  0
    2.4145   -0.9406    0.0000 C   0  0  0  0  0  0  0  0  0  0  0  0
    3.7872   -0.3361    0.0000 C   0  0  0  0  0  0  0  0  0  0  0  0
    5.0832   -1.0914    0.0000 C   0  0  0  0  0  0  0  0  0  0  0  0
    6.2020   -0.0922    0.0000 N   0  0  0  0  0  0  0  0  0  0  0  0
    5.5975    1.2806    0.0000 C   0  0  0  0  0  0  0  0  0  0  0  0
    4.1051    1.1298    0.0000 N   0  0  0  0  0  0  0  0  0  0  0  0
   -5.3337   -0.0944    0.0000 C   0  0  0  0  0  0  0  0  0  0  0  0
   -5.4966   -1.5856    0.0000 O   0  0  0  0  0  0  0  0  0  0  0  0
   -6.5436    0.7922    0.0000 O   0  0  0  0  0  0  0  0  0  0  0  0
  2  1  1  1
  2  3  1  0
  3  4  1  0
  4  5  1  0
  5  6  2  0
  5  7  1  0
  7  8  1  1
  7  9  1  0
  9 10  1  0
 10 11  2  0
 11 12  1  0
 12 13  1  0
 13 14  2  0
  2 15  1  0
 15 16  2  0
 15 17  1  0
 14 10  1  0
M  END
>  <rName>  (3347) 
Ser_OHis

>  <PQ_SYMBOL>  (3347) 
Ser_OHis

>  <FULL_NAME>  (3347) 
O-(L-histidyl)-L-serine

>  <IUPAC_CONDENSED>  (3347) 
Ser(O-His)

>  <IUPAC>  (3347) 
(2S)-2-amino-3-((1S)-1-amino-2-(1H-imidazol-4-yl)ethylcarbonyloxy)propanoic acid

>  <TYPE>  (3347) 
Backbone

>  <CLASS>  (3347) 
alpha

>  <ANALOG>  (3347) 
Ser

>  <MOL_WT>  (3347) 
242.235

>  <LOGP>  (3347) 
-1.7653999999999987

>  <TPSA>  (3347) 
144.32

>  <POPULARITY>  (3347) 
2.6

>  <PROTECTED>  (3347) 
TRUE

>  <SMILES>  (3347) 
N[C@@H](COC(=O)[C@@H](N)Cc1(c[nH]cn1))C(=O)O

>  <INCHIKEY>  (3347) 
PAQXXADZWSMFKN-BQBZGAKWSA-N

$$$$
Ser_OIle
     RDKit          2D

 15 14  0  0  0  0  0  0  0  0999 V2000
    2.9888    1.9640    0.0000 N   0  0  0  0  0  0  0  0  0  0  0  0
    2.8934    0.4670    0.0000 C   0  0  0  0  0  0  0  0  0  0  0  0
    1.5493   -0.1989    0.0000 C   0  0  0  0  0  0  0  0  0  0  0  0
    0.3006    0.6322    0.0000 O   0  0  0  0  0  0  0  0  0  0  0  0
   -1.0435   -0.0337    0.0000 C   0  0  0  0  0  0  0  0  0  0  0  0
   -1.1388   -1.5307    0.0000 O   0  0  0  0  0  0  0  0  0  0  0  0
   -2.2922    0.7973    0.0000 C   0  0  0  0  0  0  0  0  0  0  0  0
   -2.1969    2.2943    0.0000 N   0  0  0  0  0  0  0  0  0  0  0  0
   -3.6363    0.1314    0.0000 C   0  0  0  0  0  0  0  0  0  0  0  0
   -4.8850    0.9625    0.0000 C   0  0  0  0  0  0  0  0  0  0  0  0
   -3.7317   -1.3655    0.0000 C   0  0  0  0  0  0  0  0  0  0  0  0
   -2.4829   -2.1966    0.0000 C   0  0  0  0  0  0  0  0  0  0  0  0
    4.1422   -0.3641    0.0000 C   0  0  0  0  0  0  0  0  0  0  0  0
    4.0468   -1.8610    0.0000 O   0  0  0  0  0  0  0  0  0  0  0  0
    5.4862    0.3018    0.0000 O   0  0  0  0  0  0  0  0  0  0  0  0
  2  1  1  6
  2  3  1  0
  3  4  1  0
  4  5  1  0
  5  6  2  0
  5  7  1  0
  7  8  1  6
  7  9  1  0
  9 10  1  6
  9 11  1  0
 11 12  1  0
  2 13  1  0
 13 14  2  0
 13 15  1  0
M  END
>  <rName>  (3348) 
Ser_OIle

>  <PQ_SYMBOL>  (3348) 
Ser_OIle

>  <FULL_NAME>  (3348) 
O-(L-isoleucyl)-L-serine

>  <IUPAC_CONDENSED>  (3348) 
Ser(O-Ile)

>  <IUPAC>  (3348) 
(2S)-2-amino-3-((1S,2S)-1-amino-2-methylbutylcarbonyloxy)propanoic acid

>  <TYPE>  (3348) 
Backbone

>  <CLASS>  (3348) 
alpha

>  <ANALOG>  (3348) 
Ser

>  <MOL_WT>  (3348) 
218.253

>  <LOGP>  (3348) 
-0.6850999999999996

>  <TPSA>  (3348) 
115.64

>  <POPULARITY>  (3348) 
5.5

>  <PROTECTED>  (3348) 
TRUE

>  <SMILES>  (3348) 
N[C@@H](COC(=O)[C@@H](N)[C@@H](C)CC)C(=O)O

>  <INCHIKEY>  (3348) 
LSUNZJPKZOWBJP-ACZMJKKPSA-N

$$$$
Ser_OLeu
     RDKit          2D

 15 14  0  0  0  0  0  0  0  0999 V2000
    3.0893   -1.9459    0.0000 N   0  0  0  0  0  0  0  0  0  0  0  0
    3.1825   -0.4488    0.0000 C   0  0  0  0  0  0  0  0  0  0  0  0
    1.9327    0.3806    0.0000 C   0  0  0  0  0  0  0  0  0  0  0  0
    0.5895   -0.2872    0.0000 O   0  0  0  0  0  0  0  0  0  0  0  0
   -0.6604    0.5421    0.0000 C   0  0  0  0  0  0  0  0  0  0  0  0
   -0.5671    2.0392    0.0000 O   0  0  0  0  0  0  0  0  0  0  0  0
   -2.0035   -0.1257    0.0000 C   0  0  0  0  0  0  0  0  0  0  0  0
   -2.0968   -1.6228    0.0000 N   0  0  0  0  0  0  0  0  0  0  0  0
   -3.2534    0.7037    0.0000 C   0  0  0  0  0  0  0  0  0  0  0  0
   -4.5966    0.0359    0.0000 C   0  0  0  0  0  0  0  0  0  0  0  0
   -5.8465    0.8652    0.0000 C   0  0  0  0  0  0  0  0  0  0  0  0
   -4.6899   -1.4612    0.0000 C   0  0  0  0  0  0  0  0  0  0  0  0
    4.5257    0.2190    0.0000 C   0  0  0  0  0  0  0  0  0  0  0  0
    4.6190    1.7161    0.0000 O   0  0  0  0  0  0  0  0  0  0  0  0
    5.7756   -0.6103    0.0000 O   0  0  0  0  0  0  0  0  0  0  0  0
  2  1  1  1
  2  3  1  0
  3  4  1  0
  4  5  1  0
  5  6  2  0
  5  7  1  0
  7  8  1  1
  7  9  1  0
  9 10  1  0
 10 11  1  0
 10 12  1  0
  2 13  1  0
 13 14  2  0
 13 15  1  0
M  END
>  <rName>  (3349) 
Ser_OLeu

>  <PQ_SYMBOL>  (3349) 
Ser_OLeu

>  <FULL_NAME>  (3349) 
O-(L-leucyl)-L-serine

>  <IUPAC_CONDENSED>  (3349) 
Ser(O-Leu)

>  <IUPAC>  (3349) 
(2S)-2-amino-3-((1S)-1-amino-3-methylbutylcarbonyloxy)propanoic acid

>  <TYPE>  (3349) 
Backbone

>  <CLASS>  (3349) 
alpha

>  <ANALOG>  (3349) 
Ser

>  <MOL_WT>  (3349) 
218.253

>  <LOGP>  (3349) 
-0.6850999999999996

>  <TPSA>  (3349) 
115.64

>  <POPULARITY>  (3349) 
6.1

>  <PROTECTED>  (3349) 
TRUE

>  <SMILES>  (3349) 
N[C@@H](COC(=O)[C@@H](N)CC(C)C)C(=O)O

>  <INCHIKEY>  (3349) 
MAILEPNVKHMLDQ-BQBZGAKWSA-N

$$$$
Ser_OLys
     RDKit          2D

 16 15  0  0  0  0  0  0  0  0999 V2000
   -3.8837   -1.9026    0.0000 N   0  0  0  0  0  0  0  0  0  0  0  0
   -3.8944   -0.4027    0.0000 C   0  0  0  0  0  0  0  0  0  0  0  0
   -2.6007    0.3565    0.0000 C   0  0  0  0  0  0  0  0  0  0  0  0
   -1.2963   -0.3842    0.0000 O   0  0  0  0  0  0  0  0  0  0  0  0
   -0.0027    0.3750    0.0000 C   0  0  0  0  0  0  0  0  0  0  0  0
   -0.0133    1.8750    0.0000 O   0  0  0  0  0  0  0  0  0  0  0  0
    1.3017   -0.3658    0.0000 C   0  0  0  0  0  0  0  0  0  0  0  0
    1.3123   -1.8657    0.0000 N   0  0  0  0  0  0  0  0  0  0  0  0
    2.5953    0.3934    0.0000 C   0  0  0  0  0  0  0  0  0  0  0  0
    3.8997   -0.3473    0.0000 C   0  0  0  0  0  0  0  0  0  0  0  0
    5.1934    0.4119    0.0000 C   0  0  0  0  0  0  0  0  0  0  0  0
    6.4977   -0.3289    0.0000 C   0  0  0  0  0  0  0  0  0  0  0  0
    7.7914    0.4303    0.0000 N   0  0  0  0  0  0  0  0  0  0  0  0
   -5.1987    0.3381    0.0000 C   0  0  0  0  0  0  0  0  0  0  0  0
   -5.2093    1.8381    0.0000 O   0  0  0  0  0  0  0  0  0  0  0  0
   -6.4924   -0.4211    0.0000 O   0  0  0  0  0  0  0  0  0  0  0  0
  2  1  1  6
  2  3  1  0
  3  4  1  0
  4  5  1  0
  5  6  2  0
  5  7  1  0
  7  8  1  6
  7  9  1  0
  9 10  1  0
 10 11  1  0
 11 12  1  0
 12 13  1  0
  2 14  1  0
 14 15  2  0
 14 16  1  0
M  END
>  <rName>  (3350) 
Ser_OLys

>  <PQ_SYMBOL>  (3350) 
Ser_OLys

>  <FULL_NAME>  (3350) 
O-(L-lysyl)-L-serine

>  <IUPAC_CONDENSED>  (3350) 
Ser(O-Lys)

>  <IUPAC>  (3350) 
(2S)-2-amino-3-((1S)-1,5-diaminopentylcarbonyloxy)propanoic acid

>  <TYPE>  (3350) 
Backbone

>  <CLASS>  (3350) 
alpha

>  <ANALOG>  (3350) 
Ser

>  <MOL_WT>  (3350) 
233.26799999999994

>  <LOGP>  (3350) 
-1.6021999999999972

>  <TPSA>  (3350) 
141.66

>  <POPULARITY>  (3350) 
3.7

>  <PROTECTED>  (3350) 
TRUE

>  <SMILES>  (3350) 
N[C@@H](COC(=O)[C@@H](N)CCCCN)C(=O)O

>  <INCHIKEY>  (3350) 
CKPSQKYHBPKIFS-BQBZGAKWSA-N

$$$$
Ser_OMet
     RDKit          2D

 15 14  0  0  0  0  0  0  0  0999 V2000
    3.3319   -1.9309    0.0000 N   0  0  0  0  0  0  0  0  0  0  0  0
    3.3681   -0.4314    0.0000 C   0  0  0  0  0  0  0  0  0  0  0  0
    2.0875    0.3497    0.0000 C   0  0  0  0  0  0  0  0  0  0  0  0
    0.7708   -0.3687    0.0000 O   0  0  0  0  0  0  0  0  0  0  0  0
   -0.5098    0.4124    0.0000 C   0  0  0  0  0  0  0  0  0  0  0  0
   -0.4736    1.9120    0.0000 O   0  0  0  0  0  0  0  0  0  0  0  0
   -1.8266   -0.3060    0.0000 C   0  0  0  0  0  0  0  0  0  0  0  0
   -1.8627   -1.8056    0.0000 N   0  0  0  0  0  0  0  0  0  0  0  0
   -3.1071    0.4751    0.0000 C   0  0  0  0  0  0  0  0  0  0  0  0
   -4.4239   -0.2434    0.0000 C   0  0  0  0  0  0  0  0  0  0  0  0
   -5.7045    0.5378    0.0000 S   0  0  0  0  0  0  0  0  0  0  0  0
   -7.0212   -0.1807    0.0000 C   0  0  0  0  0  0  0  0  0  0  0  0
    4.6848    0.2871    0.0000 C   0  0  0  0  0  0  0  0  0  0  0  0
    4.7210    1.7866    0.0000 O   0  0  0  0  0  0  0  0  0  0  0  0
    5.9654   -0.4940    0.0000 O   0  0  0  0  0  0  0  0  0  0  0  0
  2  1  1  1
  2  3  1  0
  3  4  1  0
  4  5  1  0
  5  6  2  0
  5  7  1  0
  7  8  1  1
  7  9  1  0
  9 10  1  0
 10 11  1  0
 11 12  1  0
  2 13  1  0
 13 14  2  0
 13 15  1  0
M  END
>  <rName>  (3351) 
Ser_OMet

>  <PQ_SYMBOL>  (3351) 
Ser_OMet

>  <FULL_NAME>  (3351) 
O-(L-methionyl)-L-serine

>  <IUPAC_CONDENSED>  (3351) 
Ser(O-Met)

>  <IUPAC>  (3351) 
(2S)-2-amino-3-((1S)-1-amino-3-(methylsulfanyl)propylcarbonyloxy)propanoic acid

>  <TYPE>  (3351) 
Backbone

>  <CLASS>  (3351) 
alpha

>  <ANALOG>  (3351) 
Ser

>  <MOL_WT>  (3351) 
236.29299999999998

>  <LOGP>  (3351) 
-0.9780999999999991

>  <TPSA>  (3351) 
115.64

>  <POPULARITY>  (3351) 
2.9

>  <PROTECTED>  (3351) 
TRUE

>  <SMILES>  (3351) 
N[C@@H](COC(=O)[C@@H](N)CCSC)C(=O)O

>  <INCHIKEY>  (3351) 
FXMUHQZXHNDOLK-WDSKDSINSA-N

$$$$
Ser_OPhe
     RDKit          2D

 18 18  0  0  0  0  0  0  0  0999 V2000
   -4.1168    2.0129    0.0000 N   0  0  0  0  0  0  0  0  0  0  0  0
   -4.2983    0.5239    0.0000 C   0  0  0  0  0  0  0  0  0  0  0  0
   -3.0996   -0.3778    0.0000 C   0  0  0  0  0  0  0  0  0  0  0  0
   -1.7193    0.2096    0.0000 O   0  0  0  0  0  0  0  0  0  0  0  0
   -0.5206   -0.6921    0.0000 C   0  0  0  0  0  0  0  0  0  0  0  0
   -0.7020   -2.1811    0.0000 O   0  0  0  0  0  0  0  0  0  0  0  0
    0.8597   -0.1048    0.0000 C   0  0  0  0  0  0  0  0  0  0  0  0
    1.0411    1.3842    0.0000 N   0  0  0  0  0  0  0  0  0  0  0  0
    2.0584   -1.0064    0.0000 C   0  0  0  0  0  0  0  0  0  0  0  0
    3.4387   -0.4191    0.0000 C   0  0  0  0  0  0  0  0  0  0  0  0
    3.6201    1.0699    0.0000 C   0  0  0  0  0  0  0  0  0  0  0  0
    5.0004    1.6572    0.0000 C   0  0  0  0  0  0  0  0  0  0  0  0
    6.1991    0.7556    0.0000 C   0  0  0  0  0  0  0  0  0  0  0  0
    6.0176   -0.7334    0.0000 C   0  0  0  0  0  0  0  0  0  0  0  0
    4.6374   -1.3208    0.0000 C   0  0  0  0  0  0  0  0  0  0  0  0
   -5.6786   -0.0634    0.0000 C   0  0  0  0  0  0  0  0  0  0  0  0
   -5.8600   -1.5524    0.0000 O   0  0  0  0  0  0  0  0  0  0  0  0
   -6.8773    0.8382    0.0000 O   0  0  0  0  0  0  0  0  0  0  0  0
  2  1  1  1
  2  3  1  0
  3  4  1  0
  4  5  1  0
  5  6  2  0
  5  7  1  0
  7  8  1  1
  7  9  1  0
  9 10  1  0
 10 11  2  0
 11 12  1  0
 12 13  2  0
 13 14  1  0
 14 15  2  0
  2 16  1  0
 16 17  2  0
 16 18  1  0
 15 10  1  0
M  END
>  <rName>  (3352) 
Ser_OPhe

>  <PQ_SYMBOL>  (3352) 
Ser_OPhe

>  <FULL_NAME>  (3352) 
O-(L-phenylalanyl)-L-serine

>  <IUPAC_CONDENSED>  (3352) 
Ser(O-Phe)

>  <IUPAC>  (3352) 
(2S)-2-amino-3-((1S)-1-amino-2-phenylethylcarbonyloxy)propanoic acid

>  <TYPE>  (3352) 
Backbone

>  <CLASS>  (3352) 
alpha

>  <ANALOG>  (3352) 
Ser

>  <MOL_WT>  (3352) 
252.27

>  <LOGP>  (3352) 
-0.4884999999999991

>  <TPSA>  (3352) 
115.64

>  <POPULARITY>  (3352) 
5.3

>  <PROTECTED>  (3352) 
TRUE

>  <SMILES>  (3352) 
N[C@@H](COC(=O)[C@@H](N)Cc1(ccccc1))C(=O)O

>  <INCHIKEY>  (3352) 
ZGABJPMNBMIYGX-UWVGGRQHSA-N

$$$$
Ser_OSer
     RDKit          2D

 13 12  0  0  0  0  0  0  0  0999 V2000
   -2.3174   -1.9466    0.0000 N   0  0  0  0  0  0  0  0  0  0  0  0
   -2.3813   -0.4480    0.0000 C   0  0  0  0  0  0  0  0  0  0  0  0
   -1.1154    0.3567    0.0000 C   0  0  0  0  0  0  0  0  0  0  0  0
    0.2144   -0.3373    0.0000 O   0  0  0  0  0  0  0  0  0  0  0  0
    1.4803    0.4673    0.0000 C   0  0  0  0  0  0  0  0  0  0  0  0
    1.4164    1.9660    0.0000 O   0  0  0  0  0  0  0  0  0  0  0  0
    2.8101   -0.2266    0.0000 C   0  0  0  0  0  0  0  0  0  0  0  0
    2.8740   -1.7253    0.0000 N   0  0  0  0  0  0  0  0  0  0  0  0
    4.0760    0.5780    0.0000 C   0  0  0  0  0  0  0  0  0  0  0  0
    5.4059   -0.1160    0.0000 O   0  0  0  0  0  0  0  0  0  0  0  0
   -3.7111    0.2460    0.0000 C   0  0  0  0  0  0  0  0  0  0  0  0
   -3.7750    1.7446    0.0000 O   0  0  0  0  0  0  0  0  0  0  0  0
   -4.9770   -0.5587    0.0000 O   0  0  0  0  0  0  0  0  0  0  0  0
  2  1  1  6
  2  3  1  0
  3  4  1  0
  4  5  1  0
  5  6  2  0
  5  7  1  0
  7  8  1  6
  7  9  1  0
  9 10  1  0
  2 11  1  0
 11 12  2  0
 11 13  1  0
M  END
>  <rName>  (3353) 
Ser_OSer

>  <PQ_SYMBOL>  (3353) 
Ser_OSer

>  <FULL_NAME>  (3353) 
O-(L-seryl)-L-serine

>  <IUPAC_CONDENSED>  (3353) 
Ser(O-Ser)

>  <IUPAC>  (3353) 
(2S)-2-amino-3-((1S)-1-amino-2-hydroxyethylcarbonyloxy)propanoic acid

>  <TYPE>  (3353) 
Backbone

>  <CLASS>  (3353) 
alpha

>  <ANALOG>  (3353) 
Ser

>  <MOL_WT>  (3353) 
192.171

>  <LOGP>  (3353) 
-2.738899999999998

>  <TPSA>  (3353) 
135.87

>  <POPULARITY>  (3353) 
5.1

>  <PROTECTED>  (3353) 
TRUE

>  <SMILES>  (3353) 
N[C@@H](COC(=O)[C@@H](N)CO)C(=O)O

>  <INCHIKEY>  (3353) 
HIWWZBYXUFOXEL-IMJSIDKUSA-N

$$$$
Ser_OThr
     RDKit          2D

 14 13  0  0  0  0  0  0  0  0999 V2000
   -2.7260    1.9336    0.0000 N   0  0  0  0  0  0  0  0  0  0  0  0
   -2.6991    0.4338    0.0000 C   0  0  0  0  0  0  0  0  0  0  0  0
   -1.3868   -0.2928    0.0000 C   0  0  0  0  0  0  0  0  0  0  0  0
   -0.1014    0.4804    0.0000 O   0  0  0  0  0  0  0  0  0  0  0  0
    1.2109   -0.2462    0.0000 C   0  0  0  0  0  0  0  0  0  0  0  0
    1.2378   -1.7459    0.0000 O   0  0  0  0  0  0  0  0  0  0  0  0
    2.4962    0.5270    0.0000 C   0  0  0  0  0  0  0  0  0  0  0  0
    2.4693    2.0267    0.0000 N   0  0  0  0  0  0  0  0  0  0  0  0
    3.8085   -0.1996    0.0000 C   0  0  0  0  0  0  0  0  0  0  0  0
    3.8354   -1.6994    0.0000 O   0  0  0  0  0  0  0  0  0  0  0  0
    5.0939    0.5736    0.0000 C   0  0  0  0  0  0  0  0  0  0  0  0
   -3.9845   -0.3394    0.0000 C   0  0  0  0  0  0  0  0  0  0  0  0
   -3.9576   -1.8391    0.0000 O   0  0  0  0  0  0  0  0  0  0  0  0
   -5.2967    0.3872    0.0000 O   0  0  0  0  0  0  0  0  0  0  0  0
  2  1  1  1
  2  3  1  0
  3  4  1  0
  4  5  1  0
  5  6  2  0
  5  7  1  0
  7  8  1  1
  7  9  1  0
  9 10  1  0
  9 11  1  1
  2 12  1  0
 12 13  2  0
 12 14  1  0
M  END
>  <rName>  (3354) 
Ser_OThr

>  <PQ_SYMBOL>  (3354) 
Ser_OThr

>  <FULL_NAME>  (3354) 
O-(L-threonyl)-L-serine

>  <IUPAC_CONDENSED>  (3354) 
Ser(O-Thr)

>  <IUPAC>  (3354) 
(2S)-2-amino-3-((1S,2R)-1-amino-2-hydroxypropylcarbonyloxy)propanoic acid

>  <TYPE>  (3354) 
Backbone

>  <CLASS>  (3354) 
alpha

>  <ANALOG>  (3354) 
Ser

>  <MOL_WT>  (3354) 
206.198

>  <LOGP>  (3354) 
-2.3503999999999987

>  <TPSA>  (3354) 
135.87

>  <POPULARITY>  (3354) 
4.7

>  <PROTECTED>  (3354) 
TRUE

>  <SMILES>  (3354) 
N[C@@H](COC(=O)[C@@H](N)[C@H](O)C)C(=O)O

>  <INCHIKEY>  (3354) 
HYSIMHWTLUDZPY-WISUUJSJSA-N

$$$$
Ser_OTrp
     RDKit          2D

 21 22  0  0  0  0  0  0  0  0999 V2000
   -5.3484   -1.8237    0.0000 N   0  0  0  0  0  0  0  0  0  0  0  0
   -5.3492   -0.3237    0.0000 C   0  0  0  0  0  0  0  0  0  0  0  0
   -4.0506    0.4270    0.0000 C   0  0  0  0  0  0  0  0  0  0  0  0
   -2.7511   -0.3223    0.0000 O   0  0  0  0  0  0  0  0  0  0  0  0
   -1.4525    0.4284    0.0000 C   0  0  0  0  0  0  0  0  0  0  0  0
   -1.4533    1.9284    0.0000 O   0  0  0  0  0  0  0  0  0  0  0  0
   -0.1530   -0.3209    0.0000 C   0  0  0  0  0  0  0  0  0  0  0  0
   -0.1522   -1.8209    0.0000 N   0  0  0  0  0  0  0  0  0  0  0  0
    1.1456    0.4298    0.0000 C   0  0  0  0  0  0  0  0  0  0  0  0
    2.4450   -0.3194    0.0000 C   0  0  0  0  0  0  0  0  0  0  0  0
    2.6026   -1.8111    0.0000 C   0  0  0  0  0  0  0  0  0  0  0  0
    4.0700   -2.1222    0.0000 N   0  0  0  0  0  0  0  0  0  0  0  0
    4.8193   -0.8227    0.0000 C   0  0  0  0  0  0  0  0  0  0  0  0
    6.2864   -0.5101    0.0000 C   0  0  0  0  0  0  0  0  0  0  0  0
    6.7491    0.9168    0.0000 C   0  0  0  0  0  0  0  0  0  0  0  0
    5.7448    2.0309    0.0000 C   0  0  0  0  0  0  0  0  0  0  0  0
    4.2778    1.7183    0.0000 C   0  0  0  0  0  0  0  0  0  0  0  0
    3.8150    0.2914    0.0000 C   0  0  0  0  0  0  0  0  0  0  0  0
   -6.6486    0.4256    0.0000 C   0  0  0  0  0  0  0  0  0  0  0  0
   -6.6495    1.9256    0.0000 O   0  0  0  0  0  0  0  0  0  0  0  0
   -7.9473   -0.3251    0.0000 O   0  0  0  0  0  0  0  0  0  0  0  0
  2  1  1  6
  2  3  1  0
  3  4  1  0
  4  5  1  0
  5  6  2  0
  5  7  1  0
  7  8  1  6
  7  9  1  0
  9 10  1  0
 10 11  2  0
 11 12  1  0
 12 13  1  0
 13 14  2  0
 14 15  1  0
 15 16  2  0
 16 17  1  0
 17 18  2  0
  2 19  1  0
 19 20  2  0
 19 21  1  0
 18 13  1  0
 18 10  1  0
M  END
>  <rName>  (3355) 
Ser_OTrp

>  <PQ_SYMBOL>  (3355) 
Ser_OTrp

>  <FULL_NAME>  (3355) 
O-(L-tryptophyl)-L-serine

>  <IUPAC_CONDENSED>  (3355) 
Ser(O-Trp)

>  <IUPAC>  (3355) 
(2S)-2-amino-3-((1S)-1-amino-2-(1H-indol-3-yl)ethylcarbonyloxy)propanoic acid

>  <TYPE>  (3355) 
Backbone

>  <CLASS>  (3355) 
alpha

>  <ANALOG>  (3355) 
Ser

>  <MOL_WT>  (3355) 
291.3070000000001

>  <LOGP>  (3355) 
-0.007199999999999485

>  <TPSA>  (3355) 
131.42999999999998

>  <POPULARITY>  (3355) 
3.8

>  <PROTECTED>  (3355) 
TRUE

>  <SMILES>  (3355) 
N[C@@H](COC(=O)[C@@H](N)Cc2(c[nH]c1(ccccc12)))C(=O)O

>  <INCHIKEY>  (3355) 
PAWPSMTXWOQIMI-QWRGUYRKSA-N

$$$$
Ser_OTyr
     RDKit          2D

 19 19  0  0  0  0  0  0  0  0999 V2000
   -4.4597    2.0676    0.0000 N   0  0  0  0  0  0  0  0  0  0  0  0
   -4.6827    0.5842    0.0000 C   0  0  0  0  0  0  0  0  0  0  0  0
   -3.5096   -0.3505    0.0000 C   0  0  0  0  0  0  0  0  0  0  0  0
   -2.1135    0.1980    0.0000 O   0  0  0  0  0  0  0  0  0  0  0  0
   -0.9404   -0.7368    0.0000 C   0  0  0  0  0  0  0  0  0  0  0  0
   -1.1634   -2.2201    0.0000 O   0  0  0  0  0  0  0  0  0  0  0  0
    0.4557   -0.1883    0.0000 C   0  0  0  0  0  0  0  0  0  0  0  0
    0.6787    1.2951    0.0000 N   0  0  0  0  0  0  0  0  0  0  0  0
    1.6288   -1.1230    0.0000 C   0  0  0  0  0  0  0  0  0  0  0  0
    3.0249   -0.5745    0.0000 C   0  0  0  0  0  0  0  0  0  0  0  0
    3.2479    0.9088    0.0000 C   0  0  0  0  0  0  0  0  0  0  0  0
    4.6440    1.4574    0.0000 C   0  0  0  0  0  0  0  0  0  0  0  0
    5.8171    0.5226    0.0000 C   0  0  0  0  0  0  0  0  0  0  0  0
    7.2132    1.0711    0.0000 O   0  0  0  0  0  0  0  0  0  0  0  0
    5.5941   -0.9608    0.0000 C   0  0  0  0  0  0  0  0  0  0  0  0
    4.1980   -1.5093    0.0000 C   0  0  0  0  0  0  0  0  0  0  0  0
   -6.0788    0.0357    0.0000 C   0  0  0  0  0  0  0  0  0  0  0  0
   -6.3018   -1.4476    0.0000 O   0  0  0  0  0  0  0  0  0  0  0  0
   -7.2519    0.9705    0.0000 O   0  0  0  0  0  0  0  0  0  0  0  0
  2  1  1  1
  2  3  1  0
  3  4  1  0
  4  5  1  0
  5  6  2  0
  5  7  1  0
  7  8  1  1
  7  9  1  0
  9 10  1  0
 10 11  1  0
 11 12  2  0
 12 13  1  0
 13 14  1  0
 13 15  2  0
 15 16  1  0
  2 17  1  0
 17 18  2  0
 17 19  1  0
 16 10  2  0
M  END
>  <rName>  (3356) 
Ser_OTyr

>  <PQ_SYMBOL>  (3356) 
Ser_OTyr

>  <FULL_NAME>  (3356) 
O-(L-tyrosyl)-L-serine

>  <IUPAC_CONDENSED>  (3356) 
Ser(O-Tyr)

>  <IUPAC>  (3356) 
(2S)-2-amino-3-((1S)-1-amino-2-(4-hydroxyphenyl)ethylcarbonyloxy)propanoic acid

>  <TYPE>  (3356) 
Backbone

>  <CLASS>  (3356) 
alpha

>  <ANALOG>  (3356) 
Ser

>  <MOL_WT>  (3356) 
268.269

>  <LOGP>  (3356) 
-0.782899999999999

>  <TPSA>  (3356) 
135.87

>  <POPULARITY>  (3356) 
5.2

>  <PROTECTED>  (3356) 
TRUE

>  <SMILES>  (3356) 
N[C@@H](COC(=O)[C@@H](N)Cc1(ccc(O)cc1))C(=O)O

>  <INCHIKEY>  (3356) 
SFQVCDHAWHHWRN-UWVGGRQHSA-N

$$$$
Ser_PO3H2
     RDKit          2D

 11 10  0  0  0  0  0  0  0  0999 V2000
    1.5275    1.9644    0.0000 N   0  0  0  0  0  0  0  0  0  0  0  0
    1.4450    0.4666    0.0000 C   0  0  0  0  0  0  0  0  0  0  0  0
    0.1067   -0.2107    0.0000 C   0  0  0  0  0  0  0  0  0  0  0  0
   -1.1491    0.6096    0.0000 O   0  0  0  0  0  0  0  0  0  0  0  0
   -2.4875   -0.0678    0.0000 P   0  0  0  0  0  0  0  0  0  0  0  0
   -3.1649    1.2706    0.0000 O   0  0  0  0  0  0  0  0  0  0  0  0
   -1.8101   -1.4061    0.0000 O   0  0  0  0  0  0  0  0  0  0  0  0
   -3.8258   -0.7452    0.0000 O   0  0  0  0  0  0  0  0  0  0  0  0
    2.7008   -0.3537    0.0000 C   0  0  0  0  0  0  0  0  0  0  0  0
    2.6183   -1.8514    0.0000 O   0  0  0  0  0  0  0  0  0  0  0  0
    4.0391    0.3237    0.0000 O   0  0  0  0  0  0  0  0  0  0  0  0
  2  1  1  6
  2  3  1  0
  3  4  1  0
  4  5  1  0
  5  6  2  0
  5  7  1  0
  5  8  1  0
  2  9  1  0
  9 10  2  0
  9 11  1  0
M  END
>  <rName>  (3357) 
Ser_PO3H2

>  <PQ_SYMBOL>  (3357) 
Ser_PO3H2

>  <FULL_NAME>  (3357) 
O-Phospho-L-Serine

>  <IUPAC_CONDENSED>  (3357) 
Ser(PO3H2)

>  <IUPAC>  (3357) 
(2S)-2-amino-3-hydroxy-3-oxopropyl dihydrogen phosphate

>  <TYPE>  (3357) 
Backbone

>  <CLASS>  (3357) 
alpha

>  <ANALOG>  (3357) 
Ser

>  <MOL_WT>  (3357) 
185.072

>  <LOGP>  (3357) 
-1.4924000000000002

>  <TPSA>  (3357) 
130.07999999999998

>  <POPULARITY>  (3357) 
54.5

>  <PROTECTED>  (3357) 
TRUE

>  <SMILES>  (3357) 
N[C@@H](COP(=O)(O)O)C(=O)O

>  <INCHIKEY>  (3357) 
BZQFBWGGLXLEPQ-REOHCLBHSA-N

$$$$
Ser_Ph
     RDKit          2D

 13 13  0  0  0  0  0  0  0  0999 V2000
   -2.6715   -1.9340    0.0000 N   0  0  0  0  0  0  0  0  0  0  0  0
   -2.4130   -0.4565    0.0000 C   0  0  0  0  0  0  0  0  0  0  0  0
   -1.0042    0.0585    0.0000 C   0  0  0  0  0  0  0  0  0  0  0  0
    0.1462   -0.9041    0.0000 O   0  0  0  0  0  0  0  0  0  0  0  0
    1.5550   -0.3891    0.0000 C   0  0  0  0  0  0  0  0  0  0  0  0
    1.8135    1.0885    0.0000 C   0  0  0  0  0  0  0  0  0  0  0  0
    3.2223    1.6034    0.0000 C   0  0  0  0  0  0  0  0  0  0  0  0
    4.3727    0.6408    0.0000 C   0  0  0  0  0  0  0  0  0  0  0  0
    4.1143   -0.8367    0.0000 C   0  0  0  0  0  0  0  0  0  0  0  0
    2.7054   -1.3517    0.0000 C   0  0  0  0  0  0  0  0  0  0  0  0
   -3.5634    0.5061    0.0000 C   0  0  0  0  0  0  0  0  0  0  0  0
   -3.3050    1.9837    0.0000 O   0  0  0  0  0  0  0  0  0  0  0  0
   -4.9723   -0.0089    0.0000 O   0  0  0  0  0  0  0  0  0  0  0  0
  2  1  1  6
  2  3  1  0
  3  4  1  0
  4  5  1  0
  5  6  2  0
  6  7  1  0
  7  8  2  0
  8  9  1  0
  9 10  2  0
  2 11  1  0
 11 12  2  0
 11 13  1  0
 10  5  1  0
M  END
>  <rName>  (3358) 
Ser_Ph

>  <PQ_SYMBOL>  (3358) 
Ser_Ph

>  <FULL_NAME>  (3358) 
O-phenyl-L-Serine

>  <IUPAC_CONDENSED>  (3358) 
Ser(Ph)

>  <IUPAC>  (3358) 
(2S)-2-amino-3-phenoxypropanoic acid

>  <TYPE>  (3358) 
Backbone

>  <CLASS>  (3358) 
alpha

>  <ANALOG>  (3358) 
Ser

>  <MOL_WT>  (3358) 
181.19099999999997

>  <LOGP>  (3358) 
0.4773

>  <TPSA>  (3358) 
72.55

>  <POPULARITY>  (3358) 
11.3

>  <PROTECTED>  (3358) 
TRUE

>  <SMILES>  (3358) 
N[C@@H](COc1(ccccc1))C(=O)O

>  <INCHIKEY>  (3358) 
JQBDLDSXPJLCFK-QMMMGPOBSA-N

$$$$
Ser_Ph_2Cl
     RDKit          2D

 14 14  0  0  0  0  0  0  0  0999 V2000
   -2.7345   -1.9034    0.0000 N   0  0  0  0  0  0  0  0  0  0  0  0
   -2.5673   -0.4128    0.0000 C   0  0  0  0  0  0  0  0  0  0  0  0
   -1.1928    0.1877    0.0000 C   0  0  0  0  0  0  0  0  0  0  0  0
    0.0146   -0.7024    0.0000 O   0  0  0  0  0  0  0  0  0  0  0  0
    1.3891   -0.1019    0.0000 C   0  0  0  0  0  0  0  0  0  0  0  0
    1.5563    1.3887    0.0000 C   0  0  0  0  0  0  0  0  0  0  0  0
    2.9309    1.9892    0.0000 C   0  0  0  0  0  0  0  0  0  0  0  0
    4.1382    1.0991    0.0000 C   0  0  0  0  0  0  0  0  0  0  0  0
    3.9710   -0.3916    0.0000 C   0  0  0  0  0  0  0  0  0  0  0  0
    2.5965   -0.9921    0.0000 C   0  0  0  0  0  0  0  0  0  0  0  0
    2.4292   -2.4827    0.0000 Cl  0  0  0  0  0  0  0  0  0  0  0  0
   -3.7746    0.4773    0.0000 C   0  0  0  0  0  0  0  0  0  0  0  0
   -3.6074    1.9680    0.0000 O   0  0  0  0  0  0  0  0  0  0  0  0
   -5.1492   -0.1232    0.0000 O   0  0  0  0  0  0  0  0  0  0  0  0
  2  1  1  6
  2  3  1  0
  3  4  1  0
  4  5  1  0
  5  6  2  0
  6  7  1  0
  7  8  2  0
  8  9  1  0
  9 10  2  0
 10 11  1  0
  2 12  1  0
 12 13  2  0
 12 14  1  0
 10  5  1  0
M  END
>  <rName>  (3359) 
Ser_Ph_2Cl

>  <PQ_SYMBOL>  (3359) 
Ser_Ph_2Cl

>  <FULL_NAME>  (3359) 
O-(2-chlorophenyl)-L-serine

>  <IUPAC_CONDENSED>  (3359) 
Ser(Ph(2-Cl))

>  <IUPAC>  (3359) 
(2S)-2-amino-3-((2-chlorophenyl)oxy)propanoic acid

>  <TYPE>  (3359) 
Backbone

>  <CLASS>  (3359) 
alpha

>  <ANALOG>  (3359) 
Ser

>  <MOL_WT>  (3359) 
215.63599999999997

>  <LOGP>  (3359) 
1.1307

>  <TPSA>  (3359) 
72.55

>  <POPULARITY>  (3359) 
3.5

>  <PROTECTED>  (3359) 
TRUE

>  <SMILES>  (3359) 
N[C@@H](COc1(ccccc1Cl))C(=O)O

>  <INCHIKEY>  (3359) 
UFUQAIBNROSFES-ZETCQYMHSA-N

$$$$
Ser_Ph_2OMe
     RDKit          2D

 15 15  0  0  0  0  0  0  0  0999 V2000
   -2.7505   -1.7846    0.0000 N   0  0  0  0  0  0  0  0  0  0  0  0
   -2.6299   -0.2895    0.0000 C   0  0  0  0  0  0  0  0  0  0  0  0
   -1.2747    0.3536    0.0000 C   0  0  0  0  0  0  0  0  0  0  0  0
   -0.0402   -0.4984    0.0000 O   0  0  0  0  0  0  0  0  0  0  0  0
    1.3149    0.1447    0.0000 C   0  0  0  0  0  0  0  0  0  0  0  0
    1.4355    1.6399    0.0000 C   0  0  0  0  0  0  0  0  0  0  0  0
    2.7907    2.2830    0.0000 C   0  0  0  0  0  0  0  0  0  0  0  0
    4.0252    1.4310    0.0000 C   0  0  0  0  0  0  0  0  0  0  0  0
    3.9046   -0.0641    0.0000 C   0  0  0  0  0  0  0  0  0  0  0  0
    2.5495   -0.7073    0.0000 C   0  0  0  0  0  0  0  0  0  0  0  0
    2.4289   -2.2024    0.0000 O   0  0  0  0  0  0  0  0  0  0  0  0
    1.0737   -2.8455    0.0000 C   0  0  0  0  0  0  0  0  0  0  0  0
   -3.8644    0.5625    0.0000 C   0  0  0  0  0  0  0  0  0  0  0  0
   -3.7438    2.0577    0.0000 O   0  0  0  0  0  0  0  0  0  0  0  0
   -5.2195   -0.0806    0.0000 O   0  0  0  0  0  0  0  0  0  0  0  0
  2  1  1  6
  2  3  1  0
  3  4  1  0
  4  5  1  0
  5  6  2  0
  6  7  1  0
  7  8  2  0
  8  9  1  0
  9 10  2  0
 10 11  1  0
 11 12  1  0
  2 13  1  0
 13 14  2  0
 13 15  1  0
 10  5  1  0
M  END
>  <rName>  (3360) 
Ser_Ph_2OMe

>  <PQ_SYMBOL>  (3360) 
Ser_Ph_2OMe

>  <FULL_NAME>  (3360) 
O-(2-Methoxyphenyl)-L-serine

>  <IUPAC_CONDENSED>  (3360) 
Ser(Ph(2-OMe))

>  <IUPAC>  (3360) 
(2S)-2-amino-3-(2-methoxyphenoxy)propanoic acid

>  <TYPE>  (3360) 
Backbone

>  <CLASS>  (3360) 
alpha

>  <ANALOG>  (3360) 
Ser

>  <MOL_WT>  (3360) 
211.21699999999996

>  <LOGP>  (3360) 
0.48589999999999994

>  <TPSA>  (3360) 
81.78

>  <POPULARITY>  (3360) 
2.2

>  <PROTECTED>  (3360) 
TRUE

>  <SMILES>  (3360) 
N[C@@H](COc1(ccccc1OC))C(=O)O

>  <INCHIKEY>  (3360) 
DOJCGNVHMNQHBF-ZETCQYMHSA-N

$$$$
Ser_Ph_3Cl
     RDKit          2D

 14 14  0  0  0  0  0  0  0  0999 V2000
   -2.9179   -2.0082    0.0000 N   0  0  0  0  0  0  0  0  0  0  0  0
   -2.7604   -0.5165    0.0000 C   0  0  0  0  0  0  0  0  0  0  0  0
   -1.3898    0.0929    0.0000 C   0  0  0  0  0  0  0  0  0  0  0  0
   -0.1767   -0.7894    0.0000 O   0  0  0  0  0  0  0  0  0  0  0  0
    1.1939   -0.1800    0.0000 C   0  0  0  0  0  0  0  0  0  0  0  0
    1.3515    1.3117    0.0000 C   0  0  0  0  0  0  0  0  0  0  0  0
    2.7221    1.9211    0.0000 C   0  0  0  0  0  0  0  0  0  0  0  0
    3.9352    1.0388    0.0000 C   0  0  0  0  0  0  0  0  0  0  0  0
    3.7777   -0.4529    0.0000 C   0  0  0  0  0  0  0  0  0  0  0  0
    4.9907   -1.3352    0.0000 Cl  0  0  0  0  0  0  0  0  0  0  0  0
    2.4070   -1.0623    0.0000 C   0  0  0  0  0  0  0  0  0  0  0  0
   -3.9735    0.3658    0.0000 C   0  0  0  0  0  0  0  0  0  0  0  0
   -3.8159    1.8575    0.0000 O   0  0  0  0  0  0  0  0  0  0  0  0
   -5.3441   -0.2436    0.0000 O   0  0  0  0  0  0  0  0  0  0  0  0
  2  1  1  6
  2  3  1  0
  3  4  1  0
  4  5  1  0
  5  6  2  0
  6  7  1  0
  7  8  2  0
  8  9  1  0
  9 10  1  0
  9 11  2  0
  2 12  1  0
 12 13  2  0
 12 14  1  0
 11  5  1  0
M  END
>  <rName>  (3361) 
Ser_Ph_3Cl

>  <PQ_SYMBOL>  (3361) 
Ser_Ph_3Cl

>  <FULL_NAME>  (3361) 
O-(3-chlorophenyl)-L-serine

>  <IUPAC_CONDENSED>  (3361) 
Ser(Ph(3-Cl))

>  <IUPAC>  (3361) 
(2S)-2-amino-3-((3-chlorophenyl)oxy)propanoic acid

>  <TYPE>  (3361) 
Backbone

>  <CLASS>  (3361) 
alpha

>  <ANALOG>  (3361) 
Ser

>  <MOL_WT>  (3361) 
215.63599999999997

>  <LOGP>  (3361) 
1.1307

>  <TPSA>  (3361) 
72.55

>  <POPULARITY>  (3361) 
4.4

>  <PROTECTED>  (3361) 
TRUE

>  <SMILES>  (3361) 
N[C@@H](COc1(cccc(Cl)c1))C(=O)O

>  <INCHIKEY>  (3361) 
YQQROGIJEBVHCF-QMMMGPOBSA-N

$$$$
Ser_Ph_3Me
     RDKit          2D

 14 14  0  0  0  0  0  0  0  0999 V2000
   -2.9179   -2.0082    0.0000 N   0  0  0  0  0  0  0  0  0  0  0  0
   -2.7604   -0.5165    0.0000 C   0  0  0  0  0  0  0  0  0  0  0  0
   -1.3898    0.0929    0.0000 C   0  0  0  0  0  0  0  0  0  0  0  0
   -0.1767   -0.7894    0.0000 O   0  0  0  0  0  0  0  0  0  0  0  0
    1.1939   -0.1800    0.0000 C   0  0  0  0  0  0  0  0  0  0  0  0
    1.3515    1.3117    0.0000 C   0  0  0  0  0  0  0  0  0  0  0  0
    2.7221    1.9211    0.0000 C   0  0  0  0  0  0  0  0  0  0  0  0
    3.9352    1.0388    0.0000 C   0  0  0  0  0  0  0  0  0  0  0  0
    3.7777   -0.4529    0.0000 C   0  0  0  0  0  0  0  0  0  0  0  0
    4.9907   -1.3352    0.0000 C   0  0  0  0  0  0  0  0  0  0  0  0
    2.4070   -1.0623    0.0000 C   0  0  0  0  0  0  0  0  0  0  0  0
   -3.9735    0.3658    0.0000 C   0  0  0  0  0  0  0  0  0  0  0  0
   -3.8159    1.8575    0.0000 O   0  0  0  0  0  0  0  0  0  0  0  0
   -5.3441   -0.2436    0.0000 O   0  0  0  0  0  0  0  0  0  0  0  0
  2  1  1  6
  2  3  1  0
  3  4  1  0
  4  5  1  0
  5  6  2  0
  6  7  1  0
  7  8  2  0
  8  9  1  0
  9 10  1  0
  9 11  2  0
  2 12  1  0
 12 13  2  0
 12 14  1  0
 11  5  1  0
M  END
>  <rName>  (3362) 
Ser_Ph_3Me

>  <PQ_SYMBOL>  (3362) 
Ser_Ph_3Me

>  <FULL_NAME>  (3362) 
O-(3-Methylphenyl)-L-serine

>  <IUPAC_CONDENSED>  (3362) 
Ser(Ph(3-Me))

>  <IUPAC>  (3362) 
(2S)-2-amino-3-(3-methylphenoxy)propanoic acid

>  <TYPE>  (3362) 
Backbone

>  <CLASS>  (3362) 
alpha

>  <ANALOG>  (3362) 
Ser

>  <MOL_WT>  (3362) 
195.21799999999996

>  <LOGP>  (3362) 
0.78572

>  <TPSA>  (3362) 
72.55

>  <POPULARITY>  (3362) 
2.2

>  <PROTECTED>  (3362) 
TRUE

>  <SMILES>  (3362) 
N[C@@H](COc1(cccc(C)c1))C(=O)O

>  <INCHIKEY>  (3362) 
WYGFNZRCMZKYRI-VIFPVBQESA-N

$$$$
Ser_Ph_4Br
     RDKit          2D

 14 14  0  0  0  0  0  0  0  0999 V2000
   -3.1731   -1.8740    0.0000 N   0  0  0  0  0  0  0  0  0  0  0  0
   -2.8476   -0.4097    0.0000 C   0  0  0  0  0  0  0  0  0  0  0  0
   -1.4168    0.0405    0.0000 C   0  0  0  0  0  0  0  0  0  0  0  0
   -0.3114   -0.9735    0.0000 O   0  0  0  0  0  0  0  0  0  0  0  0
    1.1194   -0.5232    0.0000 C   0  0  0  0  0  0  0  0  0  0  0  0
    1.4449    0.9411    0.0000 C   0  0  0  0  0  0  0  0  0  0  0  0
    2.8757    1.3913    0.0000 C   0  0  0  0  0  0  0  0  0  0  0  0
    3.9810    0.3773    0.0000 C   0  0  0  0  0  0  0  0  0  0  0  0
    5.4119    0.8276    0.0000 Br  0  0  0  0  0  0  0  0  0  0  0  0
    3.6556   -1.0870    0.0000 C   0  0  0  0  0  0  0  0  0  0  0  0
    2.2247   -1.5372    0.0000 C   0  0  0  0  0  0  0  0  0  0  0  0
   -3.9530    0.6043    0.0000 C   0  0  0  0  0  0  0  0  0  0  0  0
   -3.6275    2.0685    0.0000 O   0  0  0  0  0  0  0  0  0  0  0  0
   -5.3838    0.1540    0.0000 O   0  0  0  0  0  0  0  0  0  0  0  0
  2  1  1  6
  2  3  1  0
  3  4  1  0
  4  5  1  0
  5  6  1  0
  6  7  2  0
  7  8  1  0
  8  9  1  0
  8 10  2  0
 10 11  1  0
  2 12  1  0
 12 13  2  0
 12 14  1  0
 11  5  2  0
M  END
>  <rName>  (3363) 
Ser_Ph_4Br

>  <PQ_SYMBOL>  (3363) 
Ser_Ph_4Br

>  <FULL_NAME>  (3363) 
(2S)-2-amino-3-(4-bromophenoxy)propanoic acid

>  <IUPAC_CONDENSED>  (3363) 
Ser(Ph(4-Br))

>  <IUPAC>  (3363) 
(2S)-2-amino-3-(4-bromophenoxy)propanoic acid

>  <TYPE>  (3363) 
Backbone

>  <CLASS>  (3363) 
alpha

>  <ANALOG>  (3363) 
Ser

>  <MOL_WT>  (3363) 
260.087

>  <LOGP>  (3363) 
1.2398

>  <TPSA>  (3363) 
72.55

>  <POPULARITY>  (3363) 
2.2

>  <PROTECTED>  (3363) 
TRUE

>  <SMILES>  (3363) 
N[C@@H](COc1(ccc(Br)cc1))C(=O)O

>  <INCHIKEY>  (3363) 
FPJXAVTUSPPJEN-QMMMGPOBSA-N

$$$$
Ser_Ph_4Cl
     RDKit          2D

 14 14  0  0  0  0  0  0  0  0999 V2000
   -3.1731   -1.8740    0.0000 N   0  0  0  0  0  0  0  0  0  0  0  0
   -2.8476   -0.4097    0.0000 C   0  0  0  0  0  0  0  0  0  0  0  0
   -1.4168    0.0405    0.0000 C   0  0  0  0  0  0  0  0  0  0  0  0
   -0.3114   -0.9735    0.0000 O   0  0  0  0  0  0  0  0  0  0  0  0
    1.1194   -0.5232    0.0000 C   0  0  0  0  0  0  0  0  0  0  0  0
    1.4449    0.9411    0.0000 C   0  0  0  0  0  0  0  0  0  0  0  0
    2.8757    1.3913    0.0000 C   0  0  0  0  0  0  0  0  0  0  0  0
    3.9810    0.3773    0.0000 C   0  0  0  0  0  0  0  0  0  0  0  0
    5.4119    0.8276    0.0000 Cl  0  0  0  0  0  0  0  0  0  0  0  0
    3.6556   -1.0870    0.0000 C   0  0  0  0  0  0  0  0  0  0  0  0
    2.2247   -1.5372    0.0000 C   0  0  0  0  0  0  0  0  0  0  0  0
   -3.9530    0.6043    0.0000 C   0  0  0  0  0  0  0  0  0  0  0  0
   -3.6275    2.0685    0.0000 O   0  0  0  0  0  0  0  0  0  0  0  0
   -5.3838    0.1540    0.0000 O   0  0  0  0  0  0  0  0  0  0  0  0
  2  1  1  6
  2  3  1  0
  3  4  1  0
  4  5  1  0
  5  6  1  0
  6  7  2  0
  7  8  1  0
  8  9  1  0
  8 10  2  0
 10 11  1  0
  2 12  1  0
 12 13  2  0
 12 14  1  0
 11  5  2  0
M  END
>  <rName>  (3364) 
Ser_Ph_4Cl

>  <PQ_SYMBOL>  (3364) 
Ser_Ph_4Cl

>  <FULL_NAME>  (3364) 
2-Fluoro-5-methoxy-DL-phenylalanine

>  <IUPAC_CONDENSED>  (3364) 
Ser(Ph(4-Cl))

>  <IUPAC>  (3364) 
(2S)-2-amino-3-(4-chlorophenoxy)propanoic acid

>  <TYPE>  (3364) 
Backbone

>  <CLASS>  (3364) 
alpha

>  <ANALOG>  (3364) 
Ser

>  <MOL_WT>  (3364) 
215.63599999999997

>  <LOGP>  (3364) 
1.1307

>  <TPSA>  (3364) 
72.55

>  <POPULARITY>  (3364) 
2.2

>  <PROTECTED>  (3364) 
TRUE

>  <SMILES>  (3364) 
N[C@@H](COc1(ccc(Cl)cc1))C(=O)O

>  <INCHIKEY>  (3364) 
NEADGQMLXGPJDH-QMMMGPOBSA-N

$$$$
Ser_Ph_4F
     RDKit          2D

 14 14  0  0  0  0  0  0  0  0999 V2000
   -3.1731   -1.8740    0.0000 N   0  0  0  0  0  0  0  0  0  0  0  0
   -2.8476   -0.4097    0.0000 C   0  0  0  0  0  0  0  0  0  0  0  0
   -1.4168    0.0405    0.0000 C   0  0  0  0  0  0  0  0  0  0  0  0
   -0.3114   -0.9735    0.0000 O   0  0  0  0  0  0  0  0  0  0  0  0
    1.1194   -0.5232    0.0000 C   0  0  0  0  0  0  0  0  0  0  0  0
    1.4449    0.9411    0.0000 C   0  0  0  0  0  0  0  0  0  0  0  0
    2.8757    1.3913    0.0000 C   0  0  0  0  0  0  0  0  0  0  0  0
    3.9810    0.3773    0.0000 C   0  0  0  0  0  0  0  0  0  0  0  0
    5.4119    0.8276    0.0000 F   0  0  0  0  0  0  0  0  0  0  0  0
    3.6556   -1.0870    0.0000 C   0  0  0  0  0  0  0  0  0  0  0  0
    2.2247   -1.5372    0.0000 C   0  0  0  0  0  0  0  0  0  0  0  0
   -3.9530    0.6043    0.0000 C   0  0  0  0  0  0  0  0  0  0  0  0
   -3.6275    2.0685    0.0000 O   0  0  0  0  0  0  0  0  0  0  0  0
   -5.3838    0.1540    0.0000 O   0  0  0  0  0  0  0  0  0  0  0  0
  2  1  1  6
  2  3  1  0
  3  4  1  0
  4  5  1  0
  5  6  1  0
  6  7  2  0
  7  8  1  0
  8  9  1  0
  8 10  2  0
 10 11  1  0
  2 12  1  0
 12 13  2  0
 12 14  1  0
 11  5  2  0
M  END
>  <rName>  (3365) 
Ser_Ph_4F

>  <PQ_SYMBOL>  (3365) 
Ser_Ph_4F

>  <FULL_NAME>  (3365) 
O-(4-Fluorophenyl)-L-serine

>  <IUPAC_CONDENSED>  (3365) 
Ser(Ph(4-F))

>  <IUPAC>  (3365) 
(2S)-2-amino-3-(4-fluorophenoxy)propanoic acid

>  <TYPE>  (3365) 
Backbone

>  <CLASS>  (3365) 
alpha

>  <ANALOG>  (3365) 
Ser

>  <MOL_WT>  (3365) 
199.18099999999998

>  <LOGP>  (3365) 
0.6164000000000001

>  <TPSA>  (3365) 
72.55

>  <POPULARITY>  (3365) 
2.2

>  <PROTECTED>  (3365) 
TRUE

>  <SMILES>  (3365) 
N[C@@H](COc1(ccc(F)cc1))C(=O)O

>  <INCHIKEY>  (3365) 
WJHNRDRCQDYEEE-QMMMGPOBSA-N

$$$$
Ser_Pr
     RDKit          2D

 10  9  0  0  0  0  0  0  0  0999 V2000
   -1.4166   -1.8843    0.0000 N   0  0  0  0  0  0  0  0  0  0  0  0
   -1.4265   -0.3844    0.0000 C   0  0  0  0  0  0  0  0  0  0  0  0
   -0.1324    0.3741    0.0000 C   0  0  0  0  0  0  0  0  0  0  0  0
    1.1716   -0.3673    0.0000 O   0  0  0  0  0  0  0  0  0  0  0  0
    2.4657    0.3912    0.0000 C   0  0  0  0  0  0  0  0  0  0  0  0
    3.7696   -0.3503    0.0000 C   0  0  0  0  0  0  0  0  0  0  0  0
    5.0637    0.4082    0.0000 C   0  0  0  0  0  0  0  0  0  0  0  0
   -2.7304    0.3571    0.0000 C   0  0  0  0  0  0  0  0  0  0  0  0
   -2.7402    1.8571    0.0000 O   0  0  0  0  0  0  0  0  0  0  0  0
   -4.0245   -0.4014    0.0000 O   0  0  0  0  0  0  0  0  0  0  0  0
  2  1  1  6
  2  3  1  0
  3  4  1  0
  4  5  1  0
  5  6  1  0
  6  7  1  0
  2  8  1  0
  8  9  2  0
  8 10  1  0
M  END
>  <rName>  (3366) 
Ser_Pr

>  <PQ_SYMBOL>  (3366) 
Ser_Pr

>  <FULL_NAME>  (3366) 
O-propyl-L-serine

>  <IUPAC_CONDENSED>  (3366) 
Ser(Pr)

>  <IUPAC>  (3366) 
(2S)-2-amino-3-propoxypropanoic acid

>  <TYPE>  (3366) 
Backbone

>  <CLASS>  (3366) 
alpha

>  <ANALOG>  (3366) 
Ser

>  <MOL_WT>  (3366) 
147.174

>  <LOGP>  (3366) 
-0.17510000000000053

>  <TPSA>  (3366) 
72.55

>  <POPULARITY>  (3366) 
12.6

>  <PROTECTED>  (3366) 
TRUE

>  <SMILES>  (3366) 
N[C@@H](COCCC)C(=O)O

>  <INCHIKEY>  (3366) 
YLVYZXAQMZHQSE-YFKPBYRVSA-N

$$$$
Ser_PyranoseNAc_RRSRR
     RDKit          2D

 21 21  0  0  0  0  0  0  0  0999 V2000
   -0.7010   -4.4439    0.0000 C   0  0  0  0  0  0  0  0  0  0  0  0
   -0.2857   -3.0025    0.0000 C   0  0  0  0  0  0  0  0  0  0  0  0
   -1.3263   -1.9222    0.0000 O   0  0  0  0  0  0  0  0  0  0  0  0
    1.1702   -2.6415    0.0000 N   0  0  0  0  0  0  0  0  0  0  0  0
    1.5855   -1.2001    0.0000 C   0  0  0  0  0  0  0  0  0  0  0  0
    0.5449   -0.1198    0.0000 C   0  0  0  0  0  0  0  0  0  0  0  0
   -0.9110   -0.4809    0.0000 O   0  0  0  0  0  0  0  0  0  0  0  0
   -1.9517    0.5995    0.0000 C   0  0  0  0  0  0  0  0  0  0  0  0
   -3.4076    0.2384    0.0000 C   0  0  0  0  0  0  0  0  0  0  0  0
   -3.8229   -1.2029    0.0000 N   0  0  0  0  0  0  0  0  0  0  0  0
   -4.4482    1.3188    0.0000 C   0  0  0  0  0  0  0  0  0  0  0  0
   -4.0329    2.7601    0.0000 O   0  0  0  0  0  0  0  0  0  0  0  0
   -5.9041    0.9577    0.0000 O   0  0  0  0  0  0  0  0  0  0  0  0
    0.9601    1.3216    0.0000 O   0  0  0  0  0  0  0  0  0  0  0  0
    2.4160    1.6826    0.0000 C   0  0  0  0  0  0  0  0  0  0  0  0
    2.8313    3.1240    0.0000 C   0  0  0  0  0  0  0  0  0  0  0  0
    1.7907    4.2043    0.0000 O   0  0  0  0  0  0  0  0  0  0  0  0
    3.4567    0.6023    0.0000 C   0  0  0  0  0  0  0  0  0  0  0  0
    4.9126    0.9633    0.0000 O   0  0  0  0  0  0  0  0  0  0  0  0
    3.0414   -0.8391    0.0000 C   0  0  0  0  0  0  0  0  0  0  0  0
    4.0820   -1.9194    0.0000 O   0  0  0  0  0  0  0  0  0  0  0  0
  1  2  1  0
  2  3  2  0
  2  4  1  0
  5  4  1  1
  5  6  1  0
  6  7  1  6
  7  8  1  0
  8  9  1  0
  9 10  1  6
  9 11  1  0
 11 12  2  0
 11 13  1  0
  6 14  1  0
 14 15  1  0
 15 16  1  6
 16 17  1  0
 15 18  1  0
 18 19  1  1
 18 20  1  0
 20 21  1  6
 20  5  1  0
M  END
>  <rName>  (3367) 
Ser_PyranoseNAc_RRSRR

>  <PQ_SYMBOL>  (3367) 
Ser_PyranoseNAc_RRSRR

>  <FULL_NAME>  (3367) 
(2S)-3-[(2R,3R,4R,5S,6R)-3-acetamido-4,5-dihydroxy-6-(hydroxymethyl)oxan-2-yl]oxy-2-aminopropanoic acid

>  <IUPAC_CONDENSED>  (3367) 
Ser(Pyranose-NAc(RRSRR))

>  <IUPAC>  (3367) 
(2S)-3-[(2R,3R,4R,5S,6R)-3-acetamido-4,5-dihydroxy-6-(hydroxymethyl)oxan-2-yl]oxy-2-aminopropanoic acid

>  <TYPE>  (3367) 
Backbone

>  <CLASS>  (3367) 
alpha

>  <ANALOG>  (3367) 
Ser

>  <MOL_WT>  (3367) 
308.287

>  <LOGP>  (3367) 
-3.6413999999999977

>  <TPSA>  (3367) 
171.56999999999996

>  <POPULARITY>  (3367) 
4.5

>  <PROTECTED>  (3367) 
TRUE

>  <SMILES>  (3367) 
CC(=O)N[C@H]1[C@H](OC[C@H](N)C(=O)O)O[C@H](CO)[C@@H](O)[C@@H]1O

>  <INCHIKEY>  (3367) 
REDMNGDGDYFZRE-YRMXFSIDSA-N

$$$$
Ser_PyranoseNAc_SRRRR
     RDKit          2D

 21 21  0  0  0  0  0  0  0  0999 V2000
   -0.7010   -4.4439    0.0000 C   0  0  0  0  0  0  0  0  0  0  0  0
   -0.2857   -3.0025    0.0000 C   0  0  0  0  0  0  0  0  0  0  0  0
   -1.3263   -1.9222    0.0000 O   0  0  0  0  0  0  0  0  0  0  0  0
    1.1702   -2.6415    0.0000 N   0  0  0  0  0  0  0  0  0  0  0  0
    1.5855   -1.2001    0.0000 C   0  0  0  0  0  0  0  0  0  0  0  0
    0.5449   -0.1198    0.0000 C   0  0  0  0  0  0  0  0  0  0  0  0
   -0.9110   -0.4809    0.0000 O   0  0  0  0  0  0  0  0  0  0  0  0
   -1.9517    0.5995    0.0000 C   0  0  0  0  0  0  0  0  0  0  0  0
   -3.4076    0.2384    0.0000 C   0  0  0  0  0  0  0  0  0  0  0  0
   -3.8229   -1.2029    0.0000 N   0  0  0  0  0  0  0  0  0  0  0  0
   -4.4482    1.3188    0.0000 C   0  0  0  0  0  0  0  0  0  0  0  0
   -4.0329    2.7601    0.0000 O   0  0  0  0  0  0  0  0  0  0  0  0
   -5.9041    0.9577    0.0000 O   0  0  0  0  0  0  0  0  0  0  0  0
    0.9601    1.3216    0.0000 O   0  0  0  0  0  0  0  0  0  0  0  0
    2.4160    1.6826    0.0000 C   0  0  0  0  0  0  0  0  0  0  0  0
    2.8313    3.1240    0.0000 C   0  0  0  0  0  0  0  0  0  0  0  0
    1.7907    4.2043    0.0000 O   0  0  0  0  0  0  0  0  0  0  0  0
    3.4567    0.6023    0.0000 C   0  0  0  0  0  0  0  0  0  0  0  0
    4.9126    0.9633    0.0000 O   0  0  0  0  0  0  0  0  0  0  0  0
    3.0414   -0.8391    0.0000 C   0  0  0  0  0  0  0  0  0  0  0  0
    4.0820   -1.9194    0.0000 O   0  0  0  0  0  0  0  0  0  0  0  0
  1  2  1  0
  2  3  2  0
  2  4  1  0
  5  4  1  1
  5  6  1  0
  6  7  1  1
  7  8  1  0
  8  9  1  0
  9 10  1  6
  9 11  1  0
 11 12  2  0
 11 13  1  0
  6 14  1  0
 14 15  1  0
 15 16  1  6
 16 17  1  0
 15 18  1  0
 18 19  1  6
 18 20  1  0
 20 21  1  6
 20  5  1  0
M  END
>  <rName>  (3368) 
Ser_PyranoseNAc_SRRRR

>  <PQ_SYMBOL>  (3368) 
Ser_PyranoseNAc_SRRRR

>  <FULL_NAME>  (3368) 
(2S)-3-[(2S,3R,4R,5R,6R)-3-acetamido-4,5-dihydroxy-6-(hydroxymethyl)oxan-2-yl]oxy-2-aminopropanoic acid

>  <IUPAC_CONDENSED>  (3368) 
Ser(Pyranose-NAc(SRRRR))

>  <IUPAC>  (3368) 
(2S)-3-[(2S,3R,4R,5R,6R)-3-acetamido-4,5-dihydroxy-6-(hydroxymethyl)oxan-2-yl]oxy-2-aminopropanoic acid

>  <TYPE>  (3368) 
Backbone

>  <CLASS>  (3368) 
alpha

>  <ANALOG>  (3368) 
Ser

>  <MOL_WT>  (3368) 
308.287

>  <LOGP>  (3368) 
-3.6413999999999977

>  <TPSA>  (3368) 
171.56999999999996

>  <POPULARITY>  (3368) 
3.5

>  <PROTECTED>  (3368) 
TRUE

>  <SMILES>  (3368) 
CC(=O)N[C@H]1[C@@H](OC[C@H](N)C(=O)O)O[C@H](CO)[C@H](O)[C@@H]1O

>  <INCHIKEY>  (3368) 
REDMNGDGDYFZRE-WKWISIMFSA-N

$$$$
Ser_Pyranose_RSRRR
     RDKit          2D

 18 18  0  0  0  0  0  0  0  0999 V2000
   -3.8443   -1.9506    0.0000 N   0  0  0  0  0  0  0  0  0  0  0  0
   -3.5136   -0.4875    0.0000 C   0  0  0  0  0  0  0  0  0  0  0  0
   -2.0812   -0.0423    0.0000 C   0  0  0  0  0  0  0  0  0  0  0  0
   -0.9795   -1.0602    0.0000 O   0  0  0  0  0  0  0  0  0  0  0  0
    0.4529   -0.6150    0.0000 C   0  0  0  0  0  0  0  0  0  0  0  0
    0.7836    0.8481    0.0000 O   0  0  0  0  0  0  0  0  0  0  0  0
    2.2160    1.2933    0.0000 C   0  0  0  0  0  0  0  0  0  0  0  0
    2.5466    2.7564    0.0000 C   0  0  0  0  0  0  0  0  0  0  0  0
    1.4449    3.7743    0.0000 O   0  0  0  0  0  0  0  0  0  0  0  0
    3.3178    0.2754    0.0000 C   0  0  0  0  0  0  0  0  0  0  0  0
    4.7502    0.7206    0.0000 O   0  0  0  0  0  0  0  0  0  0  0  0
    2.9871   -1.1877    0.0000 C   0  0  0  0  0  0  0  0  0  0  0  0
    4.0889   -2.2056    0.0000 O   0  0  0  0  0  0  0  0  0  0  0  0
    1.5547   -1.6329    0.0000 C   0  0  0  0  0  0  0  0  0  0  0  0
    1.2240   -3.0960    0.0000 O   0  0  0  0  0  0  0  0  0  0  0  0
   -4.6154    0.5304    0.0000 C   0  0  0  0  0  0  0  0  0  0  0  0
   -4.2848    1.9935    0.0000 O   0  0  0  0  0  0  0  0  0  0  0  0
   -6.0478    0.0852    0.0000 O   0  0  0  0  0  0  0  0  0  0  0  0
  2  1  1  6
  2  3  1  0
  3  4  1  0
  5  4  1  6
  5  6  1  0
  6  7  1  0
  7  8  1  6
  8  9  1  0
  7 10  1  0
 10 11  1  6
 10 12  1  0
 12 13  1  6
 12 14  1  0
 14 15  1  1
  2 16  1  0
 16 17  2  0
 16 18  1  0
 14  5  1  0
M  END
>  <rName>  (3369) 
Ser_Pyranose_RSRRR

>  <PQ_SYMBOL>  (3369) 
Ser_Pyranose_RSRRR

>  <FULL_NAME>  (3369) 
O-((2R,3R,4S,5R,6R)-3,4,5-trihydroxy-6-(hydroxymethyl)tetrahydro-2H-pyran-2-yl)-L-serine

>  <IUPAC_CONDENSED>  (3369) 
Ser(Pyranose(RSRRR))

>  <IUPAC>  (3369) 
(2S)-2-amino-3-(((2R,3R,4S,5R,6R)-3,4,5-trihydroxy-6-(hydroxymethyl)-oxan-2-yl)oxy)propanoic acid

>  <TYPE>  (3369) 
Backbone

>  <CLASS>  (3369) 
alpha

>  <ANALOG>  (3369) 
Ser

>  <MOL_WT>  (3369) 
267.234

>  <LOGP>  (3369) 
-3.785199999999998

>  <TPSA>  (3369) 
162.70000000000002

>  <POPULARITY>  (3369) 
5.3

>  <PROTECTED>  (3369) 
TRUE

>  <SMILES>  (3369) 
N[C@@H](CO[C@@H]1(O[C@H](CO)[C@H](O)[C@H](O)[C@H]1O))C(=O)O

>  <INCHIKEY>  (3369) 
HGTOXWOVJAONKK-PRBAGFKUSA-N

$$$$
Ser_Pyranose_RSRSR
     RDKit          2D

 18 18  0  0  0  0  0  0  0  0999 V2000
   -3.8443   -1.9506    0.0000 N   0  0  0  0  0  0  0  0  0  0  0  0
   -3.5136   -0.4875    0.0000 C   0  0  0  0  0  0  0  0  0  0  0  0
   -2.0812   -0.0423    0.0000 C   0  0  0  0  0  0  0  0  0  0  0  0
   -0.9795   -1.0602    0.0000 O   0  0  0  0  0  0  0  0  0  0  0  0
    0.4529   -0.6150    0.0000 C   0  0  0  0  0  0  0  0  0  0  0  0
    0.7836    0.8481    0.0000 O   0  0  0  0  0  0  0  0  0  0  0  0
    2.2160    1.2933    0.0000 C   0  0  0  0  0  0  0  0  0  0  0  0
    2.5466    2.7564    0.0000 C   0  0  0  0  0  0  0  0  0  0  0  0
    1.4449    3.7743    0.0000 O   0  0  0  0  0  0  0  0  0  0  0  0
    3.3178    0.2754    0.0000 C   0  0  0  0  0  0  0  0  0  0  0  0
    4.7502    0.7206    0.0000 O   0  0  0  0  0  0  0  0  0  0  0  0
    2.9871   -1.1877    0.0000 C   0  0  0  0  0  0  0  0  0  0  0  0
    4.0889   -2.2056    0.0000 O   0  0  0  0  0  0  0  0  0  0  0  0
    1.5547   -1.6329    0.0000 C   0  0  0  0  0  0  0  0  0  0  0  0
    1.2240   -3.0960    0.0000 O   0  0  0  0  0  0  0  0  0  0  0  0
   -4.6154    0.5304    0.0000 C   0  0  0  0  0  0  0  0  0  0  0  0
   -4.2848    1.9935    0.0000 O   0  0  0  0  0  0  0  0  0  0  0  0
   -6.0478    0.0852    0.0000 O   0  0  0  0  0  0  0  0  0  0  0  0
  2  1  1  6
  2  3  1  0
  3  4  1  0
  5  4  1  6
  5  6  1  0
  6  7  1  0
  7  8  1  6
  8  9  1  0
  7 10  1  0
 10 11  1  1
 10 12  1  0
 12 13  1  6
 12 14  1  0
 14 15  1  1
  2 16  1  0
 16 17  2  0
 16 18  1  0
 14  5  1  0
M  END
>  <rName>  (3370) 
Ser_Pyranose_RSRSR

>  <PQ_SYMBOL>  (3370) 
Ser_Pyranose_RSRSR

>  <FULL_NAME>  (3370) 
O-((2R,3R,4S,5S,6R)-3,4,5-trihydroxy-6-(hydroxymethyl)tetrahydro-2H-pyran-2-yl)-L-serine

>  <IUPAC_CONDENSED>  (3370) 
Ser(Pyranose(RSRSR))

>  <IUPAC>  (3370) 
(2S)-2-amino-3-(((2R,3R,4S,5S,6R)-3,4,5-trihydroxy-6-(hydroxymethyl)-oxan-2-yl)oxy)propanoic acid

>  <TYPE>  (3370) 
Backbone

>  <CLASS>  (3370) 
alpha

>  <ANALOG>  (3370) 
Ser

>  <MOL_WT>  (3370) 
267.234

>  <LOGP>  (3370) 
-3.785199999999998

>  <TPSA>  (3370) 
162.70000000000002

>  <POPULARITY>  (3370) 
5.7

>  <PROTECTED>  (3370) 
TRUE

>  <SMILES>  (3370) 
N[C@@H](CO[C@@H]1(O[C@H](CO)[C@@H](O)[C@H](O)[C@H]1O))C(=O)O

>  <INCHIKEY>  (3370) 
HGTOXWOVJAONKK-AVLLYLPDSA-N

$$$$
Ser_Pyranose_SSRRR
     RDKit          2D

 18 18  0  0  0  0  0  0  0  0999 V2000
   -3.8443   -1.9506    0.0000 N   0  0  0  0  0  0  0  0  0  0  0  0
   -3.5136   -0.4875    0.0000 C   0  0  0  0  0  0  0  0  0  0  0  0
   -2.0812   -0.0423    0.0000 C   0  0  0  0  0  0  0  0  0  0  0  0
   -0.9795   -1.0602    0.0000 O   0  0  0  0  0  0  0  0  0  0  0  0
    0.4529   -0.6150    0.0000 C   0  0  0  0  0  0  0  0  0  0  0  0
    0.7836    0.8481    0.0000 O   0  0  0  0  0  0  0  0  0  0  0  0
    2.2160    1.2933    0.0000 C   0  0  0  0  0  0  0  0  0  0  0  0
    2.5466    2.7564    0.0000 C   0  0  0  0  0  0  0  0  0  0  0  0
    1.4449    3.7743    0.0000 O   0  0  0  0  0  0  0  0  0  0  0  0
    3.3178    0.2754    0.0000 C   0  0  0  0  0  0  0  0  0  0  0  0
    4.7502    0.7206    0.0000 O   0  0  0  0  0  0  0  0  0  0  0  0
    2.9871   -1.1877    0.0000 C   0  0  0  0  0  0  0  0  0  0  0  0
    4.0889   -2.2056    0.0000 O   0  0  0  0  0  0  0  0  0  0  0  0
    1.5547   -1.6329    0.0000 C   0  0  0  0  0  0  0  0  0  0  0  0
    1.2240   -3.0960    0.0000 O   0  0  0  0  0  0  0  0  0  0  0  0
   -4.6154    0.5304    0.0000 C   0  0  0  0  0  0  0  0  0  0  0  0
   -4.2848    1.9935    0.0000 O   0  0  0  0  0  0  0  0  0  0  0  0
   -6.0478    0.0852    0.0000 O   0  0  0  0  0  0  0  0  0  0  0  0
  2  1  1  6
  2  3  1  0
  3  4  1  0
  5  4  1  1
  5  6  1  0
  6  7  1  0
  7  8  1  6
  8  9  1  0
  7 10  1  0
 10 11  1  6
 10 12  1  0
 12 13  1  6
 12 14  1  0
 14 15  1  1
  2 16  1  0
 16 17  2  0
 16 18  1  0
 14  5  1  0
M  END
>  <rName>  (3371) 
Ser_Pyranose_SSRRR

>  <PQ_SYMBOL>  (3371) 
Ser_Pyranose_SSRRR

>  <FULL_NAME>  (3371) 
(2S)-2-amino-3-[(2S,3R,4S,5R,6R)-3,4,5-trihydroxy-6-(hydroxymethyl)oxan-2-yl]oxypropanoic acid

>  <IUPAC_CONDENSED>  (3371) 
Ser(Pyranose(SSRRR))

>  <IUPAC>  (3371) 
(2S)-2-amino-3-[(2S,3R,4S,5R,6R)-3,4,5-trihydroxy-6-(hydroxymethyl)oxan-2-yl]oxypropanoic acid

>  <TYPE>  (3371) 
Backbone

>  <CLASS>  (3371) 
alpha

>  <ANALOG>  (3371) 
Ser

>  <MOL_WT>  (3371) 
267.234

>  <LOGP>  (3371) 
-3.785199999999998

>  <TPSA>  (3371) 
162.70000000000002

>  <POPULARITY>  (3371) 
2.2

>  <PROTECTED>  (3371) 
TRUE

>  <SMILES>  (3371) 
N[C@@H](CO[C@H]1(O[C@H](CO)[C@H](O)[C@H](O)[C@H]1O))C(=O)O

>  <INCHIKEY>  (3371) 
HGTOXWOVJAONKK-QTMLJZJBSA-N

$$$$
Ser_Pyranose_SSSSR
     RDKit          2D

 18 18  0  0  0  0  0  0  0  0999 V2000
   -3.8443   -1.9506    0.0000 N   0  0  0  0  0  0  0  0  0  0  0  0
   -3.5136   -0.4875    0.0000 C   0  0  0  0  0  0  0  0  0  0  0  0
   -2.0812   -0.0423    0.0000 C   0  0  0  0  0  0  0  0  0  0  0  0
   -0.9795   -1.0602    0.0000 O   0  0  0  0  0  0  0  0  0  0  0  0
    0.4529   -0.6150    0.0000 C   0  0  0  0  0  0  0  0  0  0  0  0
    0.7836    0.8481    0.0000 O   0  0  0  0  0  0  0  0  0  0  0  0
    2.2160    1.2933    0.0000 C   0  0  0  0  0  0  0  0  0  0  0  0
    2.5466    2.7564    0.0000 C   0  0  0  0  0  0  0  0  0  0  0  0
    1.4449    3.7743    0.0000 O   0  0  0  0  0  0  0  0  0  0  0  0
    3.3178    0.2754    0.0000 C   0  0  0  0  0  0  0  0  0  0  0  0
    4.7502    0.7206    0.0000 O   0  0  0  0  0  0  0  0  0  0  0  0
    2.9871   -1.1877    0.0000 C   0  0  0  0  0  0  0  0  0  0  0  0
    4.0889   -2.2056    0.0000 O   0  0  0  0  0  0  0  0  0  0  0  0
    1.5547   -1.6329    0.0000 C   0  0  0  0  0  0  0  0  0  0  0  0
    1.2240   -3.0960    0.0000 O   0  0  0  0  0  0  0  0  0  0  0  0
   -4.6154    0.5304    0.0000 C   0  0  0  0  0  0  0  0  0  0  0  0
   -4.2848    1.9935    0.0000 O   0  0  0  0  0  0  0  0  0  0  0  0
   -6.0478    0.0852    0.0000 O   0  0  0  0  0  0  0  0  0  0  0  0
  2  1  1  6
  2  3  1  0
  3  4  1  0
  5  4  1  1
  5  6  1  0
  6  7  1  0
  7  8  1  6
  8  9  1  0
  7 10  1  0
 10 11  1  1
 10 12  1  0
 12 13  1  6
 12 14  1  0
 14 15  1  6
  2 16  1  0
 16 17  2  0
 16 18  1  0
 14  5  1  0
M  END
>  <rName>  (3372) 
Ser_Pyranose_SSSSR

>  <PQ_SYMBOL>  (3372) 
Ser_Pyranose_SSSSR

>  <FULL_NAME>  (3372) 
O-((2S,3S,4S,5S,6R)-3,4,5-trihydroxy-6-(hydroxymethyl)tetrahydro-2H-pyran-2-yl)-L-serine

>  <IUPAC_CONDENSED>  (3372) 
Ser(Pyranose(SSSSR))

>  <IUPAC>  (3372) 
(2S)-2-amino-3-(((2S,3S,4S,5S,6R)-3,4,5-trihydroxy-6-(hydroxymethyl)-oxan-2-yl)oxy)propanoic acid

>  <TYPE>  (3372) 
Backbone

>  <CLASS>  (3372) 
alpha

>  <ANALOG>  (3372) 
Ser

>  <MOL_WT>  (3372) 
267.234

>  <LOGP>  (3372) 
-3.785199999999998

>  <TPSA>  (3372) 
162.70000000000002

>  <POPULARITY>  (3372) 
4.7

>  <PROTECTED>  (3372) 
TRUE

>  <SMILES>  (3372) 
N[C@@H](CO[C@H]1(O[C@H](CO)[C@@H](O)[C@H](O)[C@@H]1O))C(=O)O

>  <INCHIKEY>  (3372) 
HGTOXWOVJAONKK-DHGOSONXSA-N

$$$$
Ser_allyl
     RDKit          2D

 10  9  0  0  0  0  0  0  0  0999 V2000
   -1.4166   -1.8843    0.0000 N   0  0  0  0  0  0  0  0  0  0  0  0
   -1.4265   -0.3844    0.0000 C   0  0  0  0  0  0  0  0  0  0  0  0
   -0.1324    0.3741    0.0000 C   0  0  0  0  0  0  0  0  0  0  0  0
    1.1716   -0.3673    0.0000 O   0  0  0  0  0  0  0  0  0  0  0  0
    2.4657    0.3912    0.0000 C   0  0  0  0  0  0  0  0  0  0  0  0
    3.7696   -0.3503    0.0000 C   0  0  0  0  0  0  0  0  0  0  0  0
    5.0637    0.4082    0.0000 C   0  0  0  0  0  0  0  0  0  0  0  0
   -2.7304    0.3571    0.0000 C   0  0  0  0  0  0  0  0  0  0  0  0
   -2.7402    1.8571    0.0000 O   0  0  0  0  0  0  0  0  0  0  0  0
   -4.0245   -0.4014    0.0000 O   0  0  0  0  0  0  0  0  0  0  0  0
  2  1  1  6
  2  3  1  0
  3  4  1  0
  4  5  1  0
  5  6  1  0
  6  7  2  0
  2  8  1  0
  8  9  2  0
  8 10  1  0
M  END
>  <rName>  (3373) 
Ser_allyl

>  <PQ_SYMBOL>  (3373) 
Ser_allyl

>  <FULL_NAME>  (3373) 
O-allyl-L-serine

>  <IUPAC_CONDENSED>  (3373) 
Ser(allyl)

>  <IUPAC>  (3373) 
(2S)-2-amino-3-((prop-2-en-1-yl)oxy)propanoic acid

>  <TYPE>  (3373) 
Backbone

>  <CLASS>  (3373) 
alpha

>  <ANALOG>  (3373) 
Ser

>  <MOL_WT>  (3373) 
145.158

>  <LOGP>  (3373) 
-0.3991000000000003

>  <TPSA>  (3373) 
72.55

>  <POPULARITY>  (3373) 
8.5

>  <PROTECTED>  (3373) 
TRUE

>  <SMILES>  (3373) 
N[C@@H](COCC=C)C(=O)O

>  <INCHIKEY>  (3373) 
PLTOASLATKFEBR-YFKPBYRVSA-N

$$$$
Ser_cBu
     RDKit          2D

 11 11  0  0  0  0  0  0  0  0999 V2000
   -1.9040   -1.9368    0.0000 N   0  0  0  0  0  0  0  0  0  0  0  0
   -1.7069   -0.4498    0.0000 C   0  0  0  0  0  0  0  0  0  0  0  0
   -0.3206    0.1231    0.0000 C   0  0  0  0  0  0  0  0  0  0  0  0
    0.8686   -0.7911    0.0000 O   0  0  0  0  0  0  0  0  0  0  0  0
    2.2549   -0.2182    0.0000 C   0  0  0  0  0  0  0  0  0  0  0  0
    2.8301    1.1671    0.0000 C   0  0  0  0  0  0  0  0  0  0  0  0
    4.2155    0.5919    0.0000 C   0  0  0  0  0  0  0  0  0  0  0  0
    3.6403   -0.7934    0.0000 C   0  0  0  0  0  0  0  0  0  0  0  0
   -2.8962    0.4643    0.0000 C   0  0  0  0  0  0  0  0  0  0  0  0
   -2.6992    1.9513    0.0000 O   0  0  0  0  0  0  0  0  0  0  0  0
   -4.2825   -0.1085    0.0000 O   0  0  0  0  0  0  0  0  0  0  0  0
  2  1  1  6
  2  3  1  0
  3  4  1  0
  4  5  1  0
  5  6  1  0
  6  7  1  0
  7  8  1  0
  2  9  1  0
  9 10  2  0
  9 11  1  0
  8  5  1  0
M  END
>  <rName>  (3374) 
Ser_cBu

>  <PQ_SYMBOL>  (3374) 
Ser_cBu

>  <FULL_NAME>  (3374) 
O-cyclobutyl-L-serine

>  <IUPAC_CONDENSED>  (3374) 
Ser(cBu)

>  <IUPAC>  (3374) 
(2S)-2-amino-3-(cyclobutoxy)propanoic acid

>  <TYPE>  (3374) 
Backbone

>  <CLASS>  (3374) 
alpha

>  <ANALOG>  (3374) 
Ser

>  <MOL_WT>  (3374) 
159.185

>  <LOGP>  (3374) 
-0.03260000000000046

>  <TPSA>  (3374) 
72.55

>  <POPULARITY>  (3374) 
5.5

>  <PROTECTED>  (3374) 
TRUE

>  <SMILES>  (3374) 
N[C@@H](COC1(CCC1))C(=O)O

>  <INCHIKEY>  (3374) 
IYHHNZMURDQCNV-LURJTMIESA-N

$$$$
Ser_cHex
     RDKit          2D

 13 13  0  0  0  0  0  0  0  0999 V2000
   -2.6715   -1.9340    0.0000 N   0  0  0  0  0  0  0  0  0  0  0  0
   -2.4130   -0.4565    0.0000 C   0  0  0  0  0  0  0  0  0  0  0  0
   -1.0042    0.0585    0.0000 C   0  0  0  0  0  0  0  0  0  0  0  0
    0.1462   -0.9041    0.0000 O   0  0  0  0  0  0  0  0  0  0  0  0
    1.5550   -0.3891    0.0000 C   0  0  0  0  0  0  0  0  0  0  0  0
    1.8135    1.0885    0.0000 C   0  0  0  0  0  0  0  0  0  0  0  0
    3.2223    1.6034    0.0000 C   0  0  0  0  0  0  0  0  0  0  0  0
    4.3727    0.6408    0.0000 C   0  0  0  0  0  0  0  0  0  0  0  0
    4.1143   -0.8367    0.0000 C   0  0  0  0  0  0  0  0  0  0  0  0
    2.7054   -1.3517    0.0000 C   0  0  0  0  0  0  0  0  0  0  0  0
   -3.5634    0.5061    0.0000 C   0  0  0  0  0  0  0  0  0  0  0  0
   -3.3050    1.9837    0.0000 O   0  0  0  0  0  0  0  0  0  0  0  0
   -4.9723   -0.0089    0.0000 O   0  0  0  0  0  0  0  0  0  0  0  0
  2  1  1  6
  2  3  1  0
  3  4  1  0
  4  5  1  0
  5  6  1  0
  6  7  1  0
  7  8  1  0
  8  9  1  0
  9 10  1  0
  2 11  1  0
 11 12  2  0
 11 13  1  0
 10  5  1  0
M  END
>  <rName>  (3375) 
Ser_cHex

>  <PQ_SYMBOL>  (3375) 
Ser_cHex

>  <FULL_NAME>  (3375) 
(2S)-2-Amino-3-(cyclohexyloxy)propanoic acid

>  <IUPAC_CONDENSED>  (3375) 
Ser(cHex)

>  <IUPAC>  (3375) 
(2S)-2-amino-3-cyclohexyloxypropanoic acid

>  <TYPE>  (3375) 
Backbone

>  <CLASS>  (3375) 
alpha

>  <ANALOG>  (3375) 
Ser

>  <MOL_WT>  (3375) 
187.23899999999998

>  <LOGP>  (3375) 
0.7475999999999998

>  <TPSA>  (3375) 
72.55

>  <POPULARITY>  (3375) 
3.5

>  <PROTECTED>  (3375) 
TRUE

>  <SMILES>  (3375) 
N[C@@H](COC1(CCCCC1))C(=O)O

>  <INCHIKEY>  (3375) 
VCCHBJSBZQMJEF-QMMMGPOBSA-N

$$$$
Ser_cPent
     RDKit          2D

 12 12  0  0  0  0  0  0  0  0999 V2000
   -2.2999   -1.9362    0.0000 N   0  0  0  0  0  0  0  0  0  0  0  0
   -2.0700   -0.4539    0.0000 C   0  0  0  0  0  0  0  0  0  0  0  0
   -0.6714    0.0881    0.0000 C   0  0  0  0  0  0  0  0  0  0  0  0
    0.4974   -0.8521    0.0000 O   0  0  0  0  0  0  0  0  0  0  0  0
    1.8960   -0.3101    0.0000 C   0  0  0  0  0  0  0  0  0  0  0  0
    3.1566   -1.1230    0.0000 C   0  0  0  0  0  0  0  0  0  0  0  0
    4.3193   -0.1753    0.0000 C   0  0  0  0  0  0  0  0  0  0  0  0
    3.7773    1.2234    0.0000 C   0  0  0  0  0  0  0  0  0  0  0  0
    2.2796    1.1400    0.0000 C   0  0  0  0  0  0  0  0  0  0  0  0
   -3.2387    0.4863    0.0000 C   0  0  0  0  0  0  0  0  0  0  0  0
   -3.0088    1.9686    0.0000 O   0  0  0  0  0  0  0  0  0  0  0  0
   -4.6374   -0.0557    0.0000 O   0  0  0  0  0  0  0  0  0  0  0  0
  2  1  1  6
  2  3  1  0
  3  4  1  0
  4  5  1  0
  5  6  1  0
  6  7  1  0
  7  8  1  0
  8  9  1  0
  2 10  1  0
 10 11  2  0
 10 12  1  0
  9  5  1  0
M  END
>  <rName>  (3376) 
Ser_cPent

>  <PQ_SYMBOL>  (3376) 
Ser_cPent

>  <FULL_NAME>  (3376) 
(2S)-2-Amino-3-cyclopentyloxypropanoic acid

>  <IUPAC_CONDENSED>  (3376) 
Ser(cPent)

>  <IUPAC>  (3376) 
(2S)-2-amino-3-cyclopentyloxypropanoic acid

>  <TYPE>  (3376) 
Backbone

>  <CLASS>  (3376) 
alpha

>  <ANALOG>  (3376) 
Ser

>  <MOL_WT>  (3376) 
173.212

>  <LOGP>  (3376) 
0.35749999999999943

>  <TPSA>  (3376) 
72.55

>  <POPULARITY>  (3376) 
2.2

>  <PROTECTED>  (3376) 
TRUE

>  <SMILES>  (3376) 
N[C@@H](COC1(CCCC1))C(=O)O

>  <INCHIKEY>  (3376) 
ITRKPZJUWDOJSK-ZETCQYMHSA-N

$$$$
Ser_cPr
     RDKit          2D

 10 10  0  0  0  0  0  0  0  0999 V2000
   -1.4768   -1.9348    0.0000 N   0  0  0  0  0  0  0  0  0  0  0  0
   -1.3184   -0.4432    0.0000 C   0  0  0  0  0  0  0  0  0  0  0  0
    0.0526    0.1655    0.0000 C   0  0  0  0  0  0  0  0  0  0  0  0
    1.2652   -0.7175    0.0000 O   0  0  0  0  0  0  0  0  0  0  0  0
    2.6361   -0.1088    0.0000 C   0  0  0  0  0  0  0  0  0  0  0  0
    4.1277   -0.2672    0.0000 C   0  0  0  0  0  0  0  0  0  0  0  0
    3.5191    1.1037    0.0000 C   0  0  0  0  0  0  0  0  0  0  0  0
   -2.5310    0.4398    0.0000 C   0  0  0  0  0  0  0  0  0  0  0  0
   -2.3726    1.9314    0.0000 O   0  0  0  0  0  0  0  0  0  0  0  0
   -3.9019   -0.1689    0.0000 O   0  0  0  0  0  0  0  0  0  0  0  0
  2  1  1  6
  2  3  1  0
  3  4  1  0
  4  5  1  0
  5  6  1  0
  6  7  1  0
  2  8  1  0
  8  9  2  0
  8 10  1  0
  7  5  1  0
M  END
>  <rName>  (3377) 
Ser_cPr

>  <PQ_SYMBOL>  (3377) 
Ser_cPr

>  <FULL_NAME>  (3377) 
(2S)-2-amino-3-cyclopropyloxypropanoic acid

>  <IUPAC_CONDENSED>  (3377) 
Ser(cPr)

>  <IUPAC>  (3377) 
(2S)-2-amino-3-cyclopropyloxypropanoic acid

>  <TYPE>  (3377) 
Backbone

>  <CLASS>  (3377) 
alpha

>  <ANALOG>  (3377) 
Ser

>  <MOL_WT>  (3377) 
145.158

>  <LOGP>  (3377) 
-0.42270000000000035

>  <TPSA>  (3377) 
72.55

>  <POPULARITY>  (3377) 
2.2

>  <PROTECTED>  (3377) 
TRUE

>  <SMILES>  (3377) 
N[C@@H](COC1(CC1))C(=O)O

>  <INCHIKEY>  (3377) 
ICLGLBHFYBCQOD-YFKPBYRVSA-N

$$$$
Ser_decyl
     RDKit          2D

 17 16  0  0  0  0  0  0  0  0999 V2000
    5.6454   -1.8810    0.0000 N   0  0  0  0  0  0  0  0  0  0  0  0
    5.6528   -0.3810    0.0000 C   0  0  0  0  0  0  0  0  0  0  0  0
    4.3575    0.3754    0.0000 C   0  0  0  0  0  0  0  0  0  0  0  0
    3.0548   -0.3681    0.0000 O   0  0  0  0  0  0  0  0  0  0  0  0
    1.7595    0.3883    0.0000 C   0  0  0  0  0  0  0  0  0  0  0  0
    0.4567   -0.3552    0.0000 C   0  0  0  0  0  0  0  0  0  0  0  0
   -0.8386    0.4012    0.0000 C   0  0  0  0  0  0  0  0  0  0  0  0
   -2.1413   -0.3423    0.0000 C   0  0  0  0  0  0  0  0  0  0  0  0
   -3.4366    0.4141    0.0000 C   0  0  0  0  0  0  0  0  0  0  0  0
   -4.7394   -0.3294    0.0000 C   0  0  0  0  0  0  0  0  0  0  0  0
   -6.0347    0.4270    0.0000 C   0  0  0  0  0  0  0  0  0  0  0  0
   -7.3374   -0.3165    0.0000 C   0  0  0  0  0  0  0  0  0  0  0  0
   -8.6327    0.4399    0.0000 C   0  0  0  0  0  0  0  0  0  0  0  0
   -9.9355   -0.3036    0.0000 C   0  0  0  0  0  0  0  0  0  0  0  0
    6.9556    0.3625    0.0000 C   0  0  0  0  0  0  0  0  0  0  0  0
    6.9630    1.8625    0.0000 O   0  0  0  0  0  0  0  0  0  0  0  0
    8.2509   -0.3939    0.0000 O   0  0  0  0  0  0  0  0  0  0  0  0
  2  1  1  1
  2  3  1  0
  3  4  1  0
  4  5  1  0
  5  6  1  0
  6  7  1  0
  7  8  1  0
  8  9  1  0
  9 10  1  0
 10 11  1  0
 11 12  1  0
 12 13  1  0
 13 14  1  0
  2 15  1  0
 15 16  2  0
 15 17  1  0
M  END
>  <rName>  (3378) 
Ser_decyl

>  <PQ_SYMBOL>  (3378) 
Ser_decyl

>  <FULL_NAME>  (3378) 
Ser(decyl)

>  <IUPAC_CONDENSED>  (3378) 
Ser(decyl)

>  <IUPAC>  (3378) 
(2S)-2-amino-3-(decyloxy)propanoic acid

>  <TYPE>  (3378) 
Backbone

>  <CLASS>  (3378) 
alpha

>  <ANALOG>  (3378) 
Ser

>  <MOL_WT>  (3378) 
245.36299999999994

>  <LOGP>  (3378) 
2.5556

>  <TPSA>  (3378) 
72.55

>  <POPULARITY>  (3378) 
3.5

>  <PROTECTED>  (3378) 
TRUE

>  <SMILES>  (3378) 
N[C@@H](COCCCCCCCCCC)C(=O)O

>  <INCHIKEY>  (3378) 
SLVKVPLSFLVIOD-LBPRGKRZSA-N

$$$$
Ser_iBu
     RDKit          2D

 11 10  0  0  0  0  0  0  0  0999 V2000
    1.6269   -1.8430    0.0000 N   0  0  0  0  0  0  0  0  0  0  0  0
    1.7489   -0.3480    0.0000 C   0  0  0  0  0  0  0  0  0  0  0  0
    0.5152    0.5052    0.0000 C   0  0  0  0  0  0  0  0  0  0  0  0
   -0.8406   -0.1366    0.0000 O   0  0  0  0  0  0  0  0  0  0  0  0
   -2.0743    0.7166    0.0000 C   0  0  0  0  0  0  0  0  0  0  0  0
   -3.4300    0.0748    0.0000 C   0  0  0  0  0  0  0  0  0  0  0  0
   -4.6637    0.9280    0.0000 C   0  0  0  0  0  0  0  0  0  0  0  0
   -3.5521   -1.4203    0.0000 C   0  0  0  0  0  0  0  0  0  0  0  0
    3.1047    0.2938    0.0000 C   0  0  0  0  0  0  0  0  0  0  0  0
    3.2267    1.7889    0.0000 O   0  0  0  0  0  0  0  0  0  0  0  0
    4.3384   -0.5594    0.0000 O   0  0  0  0  0  0  0  0  0  0  0  0
  2  1  1  1
  2  3  1  0
  3  4  1  0
  4  5  1  0
  5  6  1  0
  6  7  1  0
  6  8  1  0
  2  9  1  0
  9 10  2  0
  9 11  1  0
M  END
>  <rName>  (3379) 
Ser_iBu

>  <PQ_SYMBOL>  (3379) 
Ser_iBu

>  <FULL_NAME>  (3379) 
(2S)-2-Amino-3-(2-methylpropoxy)propanoic acid

>  <IUPAC_CONDENSED>  (3379) 
Ser(iBu)

>  <IUPAC>  (3379) 
(2S)-2-amino-3-isobutoxypropanoic acid

>  <TYPE>  (3379) 
Backbone

>  <CLASS>  (3379) 
alpha

>  <ANALOG>  (3379) 
Ser

>  <MOL_WT>  (3379) 
161.201

>  <LOGP>  (3379) 
0.07089999999999946

>  <TPSA>  (3379) 
72.55

>  <POPULARITY>  (3379) 
9.0

>  <PROTECTED>  (3379) 
TRUE

>  <SMILES>  (3379) 
N[C@@H](COCC(C)C)C(=O)O

>  <INCHIKEY>  (3379) 
WOWUEKKBANWFSQ-LURJTMIESA-N

$$$$
Ser_iPr
     RDKit          2D

 10  9  0  0  0  0  0  0  0  0999 V2000
    1.2717    1.9622    0.0000 N   0  0  0  0  0  0  0  0  0  0  0  0
    1.1946    0.4642    0.0000 C   0  0  0  0  0  0  0  0  0  0  0  0
   -0.1413   -0.2180    0.0000 C   0  0  0  0  0  0  0  0  0  0  0  0
   -1.4001    0.5978    0.0000 O   0  0  0  0  0  0  0  0  0  0  0  0
   -2.7359   -0.0845    0.0000 C   0  0  0  0  0  0  0  0  0  0  0  0
   -3.9947    0.7313    0.0000 C   0  0  0  0  0  0  0  0  0  0  0  0
   -2.8131   -1.5825    0.0000 C   0  0  0  0  0  0  0  0  0  0  0  0
    2.4533   -0.3516    0.0000 C   0  0  0  0  0  0  0  0  0  0  0  0
    2.3762   -1.8496    0.0000 O   0  0  0  0  0  0  0  0  0  0  0  0
    3.7892    0.3306    0.0000 O   0  0  0  0  0  0  0  0  0  0  0  0
  2  1  1  6
  2  3  1  0
  3  4  1  0
  4  5  1  0
  5  6  1  0
  5  7  1  0
  2  8  1  0
  8  9  2  0
  8 10  1  0
M  END
>  <rName>  (3380) 
Ser_iPr

>  <PQ_SYMBOL>  (3380) 
Ser_iPr

>  <FULL_NAME>  (3380) 
O-isopropyl-L-serine

>  <IUPAC_CONDENSED>  (3380) 
Ser(iPr)

>  <IUPAC>  (3380) 
(2S)-2-amino-3-isopropoxypropanoic acid

>  <TYPE>  (3380) 
Backbone

>  <CLASS>  (3380) 
alpha

>  <ANALOG>  (3380) 
Ser

>  <MOL_WT>  (3380) 
147.17399999999998

>  <LOGP>  (3380) 
-0.17670000000000036

>  <TPSA>  (3380) 
72.55

>  <POPULARITY>  (3380) 
8.7

>  <PROTECTED>  (3380) 
TRUE

>  <SMILES>  (3380) 
N[C@@H](COC(C)C)C(=O)O

>  <INCHIKEY>  (3380) 
RWPNRIDPFQODSJ-YFKPBYRVSA-N

$$$$
Ser_isoamyl
     RDKit          2D

 12 11  0  0  0  0  0  0  0  0999 V2000
    2.4617    1.9005    0.0000 N   0  0  0  0  0  0  0  0  0  0  0  0
    2.4001    0.4018    0.0000 C   0  0  0  0  0  0  0  0  0  0  0  0
    1.0713   -0.2943    0.0000 C   0  0  0  0  0  0  0  0  0  0  0  0
   -0.1958    0.5085    0.0000 O   0  0  0  0  0  0  0  0  0  0  0  0
   -1.5245   -0.1875    0.0000 C   0  0  0  0  0  0  0  0  0  0  0  0
   -2.7917    0.6152    0.0000 C   0  0  0  0  0  0  0  0  0  0  0  0
   -4.1204   -0.0808    0.0000 C   0  0  0  0  0  0  0  0  0  0  0  0
   -5.3876    0.7219    0.0000 C   0  0  0  0  0  0  0  0  0  0  0  0
   -4.1820   -1.5796    0.0000 C   0  0  0  0  0  0  0  0  0  0  0  0
    3.6672   -0.4010    0.0000 C   0  0  0  0  0  0  0  0  0  0  0  0
    3.6056   -1.8997    0.0000 O   0  0  0  0  0  0  0  0  0  0  0  0
    4.9960    0.2950    0.0000 O   0  0  0  0  0  0  0  0  0  0  0  0
  2  1  1  6
  2  3  1  0
  3  4  1  0
  4  5  1  0
  5  6  1  0
  6  7  1  0
  7  8  1  0
  7  9  1  0
  2 10  1  0
 10 11  2  0
 10 12  1  0
M  END
>  <rName>  (3381) 
Ser_isoamyl

>  <PQ_SYMBOL>  (3381) 
Ser_isoamyl

>  <FULL_NAME>  (3381) 
O-(3-methylbutyl)-L-serine

>  <IUPAC_CONDENSED>  (3381) 
Ser(isoamyl)

>  <IUPAC>  (3381) 
(2S)-2-amino-3-((3-methylbutyl)oxy)propanoic acid

>  <TYPE>  (3381) 
Backbone

>  <CLASS>  (3381) 
alpha

>  <ANALOG>  (3381) 
Ser

>  <MOL_WT>  (3381) 
175.22799999999998

>  <LOGP>  (3381) 
0.46099999999999935

>  <TPSA>  (3381) 
72.55

>  <POPULARITY>  (3381) 
8.1

>  <PROTECTED>  (3381) 
TRUE

>  <SMILES>  (3381) 
N[C@@H](COCCC(C)C)C(=O)O

>  <INCHIKEY>  (3381) 
LTOLPHMZFDRDOS-ZETCQYMHSA-N

$$$$
Ser_octanoyl
     RDKit          2D

 16 15  0  0  0  0  0  0  0  0999 V2000
    4.3638   -2.0137    0.0000 N   0  0  0  0  0  0  0  0  0  0  0  0
    4.3792   -0.5138    0.0000 C   0  0  0  0  0  0  0  0  0  0  0  0
    3.0879    0.2495    0.0000 C   0  0  0  0  0  0  0  0  0  0  0  0
    1.7813   -0.4871    0.0000 O   0  0  0  0  0  0  0  0  0  0  0  0
    0.4900    0.2762    0.0000 C   0  0  0  0  0  0  0  0  0  0  0  0
    0.5054    1.7761    0.0000 O   0  0  0  0  0  0  0  0  0  0  0  0
   -0.8167   -0.4604    0.0000 C   0  0  0  0  0  0  0  0  0  0  0  0
   -2.1079    0.3029    0.0000 C   0  0  0  0  0  0  0  0  0  0  0  0
   -3.4146   -0.4337    0.0000 C   0  0  0  0  0  0  0  0  0  0  0  0
   -4.7059    0.3297    0.0000 C   0  0  0  0  0  0  0  0  0  0  0  0
   -6.0126   -0.4069    0.0000 C   0  0  0  0  0  0  0  0  0  0  0  0
   -7.3038    0.3564    0.0000 C   0  0  0  0  0  0  0  0  0  0  0  0
   -8.6105   -0.3802    0.0000 C   0  0  0  0  0  0  0  0  0  0  0  0
    5.6859    0.2228    0.0000 C   0  0  0  0  0  0  0  0  0  0  0  0
    5.7013    1.7227    0.0000 O   0  0  0  0  0  0  0  0  0  0  0  0
    6.9771   -0.5405    0.0000 O   0  0  0  0  0  0  0  0  0  0  0  0
  2  1  1  1
  2  3  1  0
  3  4  1  0
  4  5  1  0
  5  6  2  0
  5  7  1  0
  7  8  1  0
  8  9  1  0
  9 10  1  0
 10 11  1  0
 11 12  1  0
 12 13  1  0
  2 14  1  0
 14 15  2  0
 14 16  1  0
M  END
>  <rName>  (3382) 
Ser_octanoyl

>  <PQ_SYMBOL>  (3382) 
Ser_octanoyl

>  <FULL_NAME>  (3382) 
(2S)-2-amino-3-octanoyloxypropanoic acid

>  <IUPAC_CONDENSED>  (3382) 
Ser(octanoyl)

>  <IUPAC>  (3382) 
(2S)-2-amino-3-(heptylcarbonyloxy)propanoic acid

>  <TYPE>  (3382) 
Backbone

>  <CLASS>  (3382) 
alpha

>  <ANALOG>  (3382) 
Ser

>  <MOL_WT>  (3382) 
231.29199999999994

>  <LOGP>  (3382) 
1.3019999999999996

>  <TPSA>  (3382) 
89.62

>  <POPULARITY>  (3382) 
16.7

>  <PROTECTED>  (3382) 
TRUE

>  <SMILES>  (3382) 
N[C@@H](COC(=O)CCCCCCC)C(=O)O

>  <INCHIKEY>  (3382) 
QQWGFKGHHSBYPK-VIFPVBQESA-N

$$$$
Ser_prop2ynyl
     RDKit          2D

 10  9  0  0  0  0  0  0  0  0999 V2000
   -1.2340   -1.8694    0.0000 N   0  0  0  0  0  0  0  0  0  0  0  0
   -1.3962   -0.3782    0.0000 C   0  0  0  0  0  0  0  0  0  0  0  0
   -0.1859    0.5079    0.0000 C   0  0  0  0  0  0  0  0  0  0  0  0
    1.1866   -0.0973    0.0000 O   0  0  0  0  0  0  0  0  0  0  0  0
    2.3969    0.7888    0.0000 C   0  0  0  0  0  0  0  0  0  0  0  0
    3.7695    0.1837    0.0000 C   0  0  0  0  0  0  0  0  0  0  0  0
    5.1420   -0.4214    0.0000 C   0  0  0  0  0  0  0  0  0  0  0  0
   -2.7688    0.2269    0.0000 C   0  0  0  0  0  0  0  0  0  0  0  0
   -2.9310    1.7181    0.0000 O   0  0  0  0  0  0  0  0  0  0  0  0
   -3.9791   -0.6591    0.0000 O   0  0  0  0  0  0  0  0  0  0  0  0
  2  1  1  6
  2  3  1  0
  3  4  1  0
  4  5  1  0
  5  6  1  0
  6  7  3  0
  2  8  1  0
  8  9  2  0
  8 10  1  0
M  END
>  <rName>  (3383) 
Ser_prop2ynyl

>  <PQ_SYMBOL>  (3383) 
Ser_prop2ynyl

>  <FULL_NAME>  (3383) 
O-(prop-2-yn-1-yl)-L-serine

>  <IUPAC_CONDENSED>  (3383) 
Ser(prop-2-ynyl)

>  <IUPAC>  (3383) 
(2S)-2-amino-3-((prop-2-yn-1-yl)oxy)propanoic acid

>  <TYPE>  (3383) 
Backbone

>  <CLASS>  (3383) 
alpha

>  <ANALOG>  (3383) 
Ser

>  <MOL_WT>  (3383) 
143.142

>  <LOGP>  (3383) 
-0.9518999999999997

>  <TPSA>  (3383) 
72.55

>  <POPULARITY>  (3383) 
6.8

>  <PROTECTED>  (3383) 
TRUE

>  <SMILES>  (3383) 
N[C@@H](COCC#C)C(=O)O

>  <INCHIKEY>  (3383) 
CBKWZMZSOKUORR-YFKPBYRVSA-N

$$$$
Ser_tetrahydropyran4yl
     RDKit          2D

 13 13  0  0  0  0  0  0  0  0999 V2000
   -2.6715   -1.9340    0.0000 N   0  0  0  0  0  0  0  0  0  0  0  0
   -2.4130   -0.4565    0.0000 C   0  0  0  0  0  0  0  0  0  0  0  0
   -1.0042    0.0585    0.0000 C   0  0  0  0  0  0  0  0  0  0  0  0
    0.1462   -0.9041    0.0000 O   0  0  0  0  0  0  0  0  0  0  0  0
    1.5550   -0.3891    0.0000 C   0  0  0  0  0  0  0  0  0  0  0  0
    1.8135    1.0885    0.0000 C   0  0  0  0  0  0  0  0  0  0  0  0
    3.2223    1.6034    0.0000 C   0  0  0  0  0  0  0  0  0  0  0  0
    4.3727    0.6408    0.0000 O   0  0  0  0  0  0  0  0  0  0  0  0
    4.1143   -0.8367    0.0000 C   0  0  0  0  0  0  0  0  0  0  0  0
    2.7054   -1.3517    0.0000 C   0  0  0  0  0  0  0  0  0  0  0  0
   -3.5634    0.5061    0.0000 C   0  0  0  0  0  0  0  0  0  0  0  0
   -3.3050    1.9837    0.0000 O   0  0  0  0  0  0  0  0  0  0  0  0
   -4.9723   -0.0089    0.0000 O   0  0  0  0  0  0  0  0  0  0  0  0
  2  1  1  6
  2  3  1  0
  3  4  1  0
  4  5  1  0
  5  6  1  0
  6  7  1  0
  7  8  1  0
  8  9  1  0
  9 10  1  0
  2 11  1  0
 11 12  2  0
 11 13  1  0
 10  5  1  0
M  END
>  <rName>  (3384) 
Ser_tetrahydropyran4yl

>  <PQ_SYMBOL>  (3384) 
Ser_tetrahydropyran4yl

>  <FULL_NAME>  (3384) 
O-(Tetrahydro-2H-pyran-4-yl)-L-serine

>  <IUPAC_CONDENSED>  (3384) 
Ser(tetrahydropyran-4-yl)

>  <IUPAC>  (3384) 
(2S)-2-amino-3-((oxan-4-yl)oxy)propanoic acid

>  <TYPE>  (3384) 
Backbone

>  <CLASS>  (3384) 
alpha

>  <ANALOG>  (3384) 
Ser

>  <MOL_WT>  (3384) 
189.21099999999996

>  <LOGP>  (3384) 
-0.4061000000000002

>  <TPSA>  (3384) 
81.78

>  <POPULARITY>  (3384) 
3.4

>  <PROTECTED>  (3384) 
TRUE

>  <SMILES>  (3384) 
N[C@@H](COC1(CCOCC1))C(=O)O

>  <INCHIKEY>  (3384) 
AGZGBTYKFITHFS-ZETCQYMHSA-N

$$$$
Serhexanoyl-al
     RDKit          2D

 13 12  0  0  0  0  0  0  0  0999 V2000
   -3.6642    1.7097    0.0000 N   0  0  0  0  0  0  0  0  0  0  0  0
   -3.6078    0.2107    0.0000 C   0  0  0  0  0  0  0  0  0  0  0  0
   -4.8777   -0.5875    0.0000 C   0  0  0  0  0  0  0  0  0  0  0  0
   -6.2040    0.1131    0.0000 O   0  0  0  0  0  0  0  0  0  0  0  0
   -2.2815   -0.4899    0.0000 C   0  0  0  0  0  0  0  0  0  0  0  0
   -1.0116    0.3084    0.0000 O   0  0  0  0  0  0  0  0  0  0  0  0
    0.3147   -0.3923    0.0000 C   0  0  0  0  0  0  0  0  0  0  0  0
    0.3711   -1.8912    0.0000 O   0  0  0  0  0  0  0  0  0  0  0  0
    1.5847    0.4060    0.0000 C   0  0  0  0  0  0  0  0  0  0  0  0
    2.9110   -0.2947    0.0000 C   0  0  0  0  0  0  0  0  0  0  0  0
    4.1809    0.5036    0.0000 C   0  0  0  0  0  0  0  0  0  0  0  0
    5.5072   -0.1971    0.0000 C   0  0  0  0  0  0  0  0  0  0  0  0
    6.7772    0.6012    0.0000 C   0  0  0  0  0  0  0  0  0  0  0  0
  2  1  1  1
  2  3  1  0
  3  4  2  0
  2  5  1  0
  5  6  1  0
  6  7  1  0
  7  8  2  0
  7  9  1  0
  9 10  1  0
 10 11  1  0
 11 12  1  0
 12 13  1  0
M  END
>  <rName>  (3385) 
Serhexanoyl-al

>  <PQ_SYMBOL>  (3385) 
Serhexanoyl-al

>  <FULL_NAME>  (3385) 
(2S)-2-amino-3-oxopropyl hexanoate

>  <IUPAC_CONDENSED>  (3385) 
Ser(hexanoyl)-al

>  <IUPAC>  (3385) 
(2S)-2-amino-3-oxopropyl hexanoate

>  <TYPE>  (3385) 
C-term cap

>  <CLASS>  (3385) 
c_cap

>  <ANALOG>  (3385) 
X

>  <MOL_WT>  (3385) 
187.23899999999995

>  <LOGP>  (3385) 
0.6360999999999992

>  <TPSA>  (3385) 
69.39000000000001

>  <POPULARITY>  (3385) 
7.0

>  <PROTECTED>  (3385) 
FALSE

>  <SMILES>  (3385) 
N[C@H](C=O)COC(=O)CCCCC

>  <INCHIKEY>  (3385) 
TWFYCPDKEVVTJF-MRVPVSSYSA-N

$$$$
Sta
     RDKit          2D

 12 11  0  0  0  0  0  0  0  0999 V2000
   -0.9360   -1.7497    0.0000 N   0  0  0  0  0  0  0  0  0  0  0  0
   -0.7004   -0.2683    0.0000 C   0  0  0  0  0  0  0  0  0  0  0  0
   -1.8655    0.6764    0.0000 C   0  0  0  0  0  0  0  0  0  0  0  0
   -3.2662    0.1397    0.0000 C   0  0  0  0  0  0  0  0  0  0  0  0
   -4.4313    1.0845    0.0000 C   0  0  0  0  0  0  0  0  0  0  0  0
   -3.5018   -1.3417    0.0000 C   0  0  0  0  0  0  0  0  0  0  0  0
    0.7004    0.2683    0.0000 C   0  0  0  0  0  0  0  0  0  0  0  0
    0.9360    1.7497    0.0000 O   0  0  0  0  0  0  0  0  0  0  0  0
    1.8655   -0.6764    0.0000 C   0  0  0  0  0  0  0  0  0  0  0  0
    3.2662   -0.1397    0.0000 C   0  0  0  0  0  0  0  0  0  0  0  0
    3.5018    1.3417    0.0000 O   0  0  0  0  0  0  0  0  0  0  0  0
    4.4313   -1.0845    0.0000 O   0  0  0  0  0  0  0  0  0  0  0  0
  2  1  1  1
  2  3  1  0
  3  4  1  0
  4  5  1  0
  4  6  1  0
  2  7  1  0
  7  8  1  1
  7  9  1  0
  9 10  1  0
 10 11  2  0
 10 12  1  0
M  END
>  <rName>  (3386) 
Sta

>  <PQ_SYMBOL>  (3386) 
Sta

>  <FULL_NAME>  (3386) 
Statine

>  <IUPAC_CONDENSED>  (3386) 
Sta

>  <IUPAC>  (3386) 
(3S,4S)-4-amino-3-hydroxy-6-methylheptanoic acid

>  <TYPE>  (3386) 
Backbone

>  <CLASS>  (3386) 
gamma

>  <ANALOG>  (3386) 
Leu

>  <MOL_WT>  (3386) 
175.22799999999998

>  <LOGP>  (3386) 
0.19539999999999957

>  <TPSA>  (3386) 
83.55

>  <POPULARITY>  (3386) 
10.4

>  <PROTECTED>  (3386) 
TRUE

>  <SMILES>  (3386) 
N[C@@H](CC(C)C)[C@@H](O)CC(=O)O

>  <INCHIKEY>  (3386) 
DFVFTMTWCUHJBL-BQBZGAKWSA-N

$$$$
Sta-OEt
     RDKit          2D

 14 13  0  0  0  0  0  0  0  0999 V2000
   -1.7226   -1.7426    0.0000 N   0  0  0  0  0  0  0  0  0  0  0  0
   -1.6024   -0.2474    0.0000 C   0  0  0  0  0  0  0  0  0  0  0  0
   -2.8371    0.6043    0.0000 C   0  0  0  0  0  0  0  0  0  0  0  0
   -4.1921   -0.0392    0.0000 C   0  0  0  0  0  0  0  0  0  0  0  0
   -5.4269    0.8125    0.0000 C   0  0  0  0  0  0  0  0  0  0  0  0
   -4.3123   -1.5344    0.0000 C   0  0  0  0  0  0  0  0  0  0  0  0
   -0.2474    0.3961    0.0000 C   0  0  0  0  0  0  0  0  0  0  0  0
   -0.1272    1.8913    0.0000 O   0  0  0  0  0  0  0  0  0  0  0  0
    0.9873   -0.4556    0.0000 C   0  0  0  0  0  0  0  0  0  0  0  0
    2.3423    0.1879    0.0000 C   0  0  0  0  0  0  0  0  0  0  0  0
    2.4625    1.6831    0.0000 O   0  0  0  0  0  0  0  0  0  0  0  0
    3.5771   -0.6638    0.0000 O   0  0  0  0  0  0  0  0  0  0  0  0
    4.9320   -0.0203    0.0000 C   0  0  0  0  0  0  0  0  0  0  0  0
    6.1668   -0.8720    0.0000 C   0  0  0  0  0  0  0  0  0  0  0  0
  2  1  1  1
  2  3  1  0
  3  4  1  0
  4  5  1  0
  4  6  1  0
  2  7  1  0
  7  8  1  1
  7  9  1  0
  9 10  1  0
 10 11  2  0
 10 12  1  0
 12 13  1  0
 13 14  1  0
M  END
>  <rName>  (3387) 
Sta-OEt

>  <PQ_SYMBOL>  (3387) 
Sta-OEt

>  <FULL_NAME>  (3387) 
ethyl (3S,4S)-4-amino-3-hydroxy-6-methylheptanoate

>  <IUPAC_CONDENSED>  (3387) 
Sta-OEt

>  <IUPAC>  (3387) 
ethyl (3S,4S)-4-amino-3-hydroxy-6-methylheptanoate

>  <TYPE>  (3387) 
C-term cap

>  <CLASS>  (3387) 
c_cap

>  <ANALOG>  (3387) 
X

>  <MOL_WT>  (3387) 
203.28199999999995

>  <LOGP>  (3387) 
0.6738999999999997

>  <TPSA>  (3387) 
72.55

>  <POPULARITY>  (3387) 
5.0

>  <PROTECTED>  (3387) 
FALSE

>  <SMILES>  (3387) 
N[C@@H](CC(C)C)[C@@H](O)CC(=O)OCC

>  <INCHIKEY>  (3387) 
WHQQUBMCFYWHIS-IUCAKERBSA-N

$$$$
Sta_3xi_4xi
     RDKit          2D

 12 11  0  0  0  0  0  0  0  0999 V2000
   -0.9360   -1.7497    0.0000 N   0  0  0  0  0  0  0  0  0  0  0  0
   -0.7004   -0.2683    0.0000 C   0  0  0  0  0  0  0  0  0  0  0  0
   -1.8655    0.6764    0.0000 C   0  0  0  0  0  0  0  0  0  0  0  0
   -3.2662    0.1397    0.0000 C   0  0  0  0  0  0  0  0  0  0  0  0
   -4.4313    1.0845    0.0000 C   0  0  0  0  0  0  0  0  0  0  0  0
   -3.5018   -1.3417    0.0000 C   0  0  0  0  0  0  0  0  0  0  0  0
    0.7004    0.2683    0.0000 C   0  0  0  0  0  0  0  0  0  0  0  0
    0.9360    1.7497    0.0000 O   0  0  0  0  0  0  0  0  0  0  0  0
    1.8655   -0.6764    0.0000 C   0  0  0  0  0  0  0  0  0  0  0  0
    3.2662   -0.1397    0.0000 C   0  0  0  0  0  0  0  0  0  0  0  0
    3.5018    1.3417    0.0000 O   0  0  0  0  0  0  0  0  0  0  0  0
    4.4313   -1.0845    0.0000 O   0  0  0  0  0  0  0  0  0  0  0  0
  1  2  1  0
  2  3  1  0
  3  4  1  0
  4  5  1  0
  4  6  1  0
  2  7  1  0
  7  8  1  0
  7  9  1  0
  9 10  1  0
 10 11  2  0
 10 12  1  0
M  END
>  <rName>  (3388) 
Sta_3xi_4xi

>  <PQ_SYMBOL>  (3388) 
Sta_3xi_4xi

>  <FULL_NAME>  (3388) 
4-amino-3-hydroxy-6-methylheptanoic acid

>  <IUPAC_CONDENSED>  (3388) 
Sta(3xi,4xi)

>  <IUPAC>  (3388) 
4-amino-3-hydroxy-6-methylheptanoic acid

>  <TYPE>  (3388) 
Backbone

>  <CLASS>  (3388) 
gamma

>  <ANALOG>  (3388) 
Leu

>  <MOL_WT>  (3388) 
175.22799999999998

>  <LOGP>  (3388) 
0.19539999999999957

>  <TPSA>  (3388) 
83.55

>  <POPULARITY>  (3388) 
6.9

>  <PROTECTED>  (3388) 
FALSE

>  <SMILES>  (3388) 
NC(CC(C)C)C(O)CC(=O)O

>  <INCHIKEY>  (3388) 
DFVFTMTWCUHJBL-UHFFFAOYSA-N

$$$$
T
     RDKit          2D

  8  7  0  0  0  0  0  0  0  0999 V2000
    0.0000   -2.0625    0.0000 N   0  0  0  0  0  0  0  0  0  0  0  0
    0.0000   -0.5625    0.0000 C   0  0  0  0  0  0  0  0  0  0  0  0
   -1.2990    0.1875    0.0000 C   0  0  0  0  0  0  0  0  0  0  0  0
   -1.2990    1.6875    0.0000 O   0  0  0  0  0  0  0  0  0  0  0  0
   -2.5981   -0.5625    0.0000 C   0  0  0  0  0  0  0  0  0  0  0  0
    1.2990    0.1875    0.0000 C   0  0  0  0  0  0  0  0  0  0  0  0
    1.2990    1.6875    0.0000 O   0  0  0  0  0  0  0  0  0  0  0  0
    2.5981   -0.5625    0.0000 O   0  0  0  0  0  0  0  0  0  0  0  0
  2  1  1  1
  2  3  1  0
  3  4  1  0
  3  5  1  1
  2  6  1  0
  6  7  2  0
  6  8  1  0
M  END
>  <rName>  (3389) 
T

>  <PQ_SYMBOL>  (3389) 
T

>  <FULL_NAME>  (3389) 
L-Threonine, (2S,3R)-Threonine

>  <IUPAC_CONDENSED>  (3389) 
Thr

>  <IUPAC>  (3389) 
(2S,3R)-2-amino-3-hydroxybutanoic acid

>  <TYPE>  (3389) 
Backbone

>  <CLASS>  (3389) 
alpha

>  <ANALOG>  (3389) 
Thr

>  <MOL_WT>  (3389) 
119.11999999999999

>  <LOGP>  (3389) 
-1.2209

>  <TPSA>  (3389) 
83.55

>  <POPULARITY>  (3389) 
94.0

>  <PROTECTED>  (3389) 
TRUE

>  <SMILES>  (3389) 
N[C@@H]([C@H](O)C)C(=O)O

>  <INCHIKEY>  (3389) 
AYFVYJQAPQTCCC-GBXIJSLDSA-N

$$$$
THIQ-4-CO2H
     RDKit          2D

 13 14  0  0  0  0  0  0  0  0999 V2000
   -0.5237    2.7266    0.0000 N   0  0  0  0  0  0  0  0  0  0  0  0
   -1.5843    1.6659    0.0000 C   0  0  0  0  0  0  0  0  0  0  0  0
   -1.1961    0.2170    0.0000 C   0  0  0  0  0  0  0  0  0  0  0  0
    0.2528   -0.1712    0.0000 C   0  0  0  0  0  0  0  0  0  0  0  0
    0.6410   -1.6201    0.0000 C   0  0  0  0  0  0  0  0  0  0  0  0
    2.0899   -2.0083    0.0000 C   0  0  0  0  0  0  0  0  0  0  0  0
    3.1505   -0.9476    0.0000 C   0  0  0  0  0  0  0  0  0  0  0  0
    2.7623    0.5013    0.0000 C   0  0  0  0  0  0  0  0  0  0  0  0
    1.3134    0.8895    0.0000 C   0  0  0  0  0  0  0  0  0  0  0  0
    0.9252    2.3384    0.0000 C   0  0  0  0  0  0  0  0  0  0  0  0
   -2.2568   -0.8436    0.0000 C   0  0  0  0  0  0  0  0  0  0  0  0
   -1.8686   -2.2925    0.0000 O   0  0  0  0  0  0  0  0  0  0  0  0
   -3.7057   -0.4554    0.0000 O   0  0  0  0  0  0  0  0  0  0  0  0
  1  2  1  0
  2  3  1  0
  3  4  1  0
  4  5  2  0
  5  6  1  0
  6  7  2  0
  7  8  1  0
  8  9  2  0
  9 10  1  0
  3 11  1  0
 11 12  2  0
 11 13  1  0
  9  4  1  0
 10  1  1  0
M  END
>  <rName>  (3390) 
THIQ-4-CO2H

>  <PQ_SYMBOL>  (3390) 
THIQ-4-CO2H

>  <FULL_NAME>  (3390) 
1,2,3,4-Tetrahydroisoquinoline-4-carboxylic acid

>  <IUPAC_CONDENSED>  (3390) 
THIQ-4-CO2H

>  <IUPAC>  (3390) 
3-azabicyclo[4.4.0]deca-1(10),6,8-triene-5-carboxylic acid

>  <TYPE>  (3390) 
Backbone

>  <CLASS>  (3390) 
beta

>  <ANALOG>  (3390) 
Pro

>  <MOL_WT>  (3390) 
177.20299999999995

>  <LOGP>  (3390) 
0.958

>  <TPSA>  (3390) 
49.33

>  <POPULARITY>  (3390) 
9.4

>  <PROTECTED>  (3390) 
TRUE

>  <SMILES>  (3390) 
N2CC(c1(ccccc1C2))C(=O)O

>  <INCHIKEY>  (3390) 
UZNKRPSOIPMUBF-UHFFFAOYSA-N

$$$$
THIQ1R-1-CO2H
     RDKit          2D

 13 14  0  0  0  0  0  0  0  0999 V2000
   -1.5843    1.6659    0.0000 N   0  0  0  0  0  0  0  0  0  0  0  0
   -1.1961    0.2170    0.0000 C   0  0  0  0  0  0  0  0  0  0  0  0
    0.2528   -0.1712    0.0000 C   0  0  0  0  0  0  0  0  0  0  0  0
    0.6410   -1.6201    0.0000 C   0  0  0  0  0  0  0  0  0  0  0  0
    2.0899   -2.0083    0.0000 C   0  0  0  0  0  0  0  0  0  0  0  0
    3.1505   -0.9476    0.0000 C   0  0  0  0  0  0  0  0  0  0  0  0
    2.7623    0.5013    0.0000 C   0  0  0  0  0  0  0  0  0  0  0  0
    1.3134    0.8895    0.0000 C   0  0  0  0  0  0  0  0  0  0  0  0
    0.9252    2.3384    0.0000 C   0  0  0  0  0  0  0  0  0  0  0  0
   -0.5237    2.7266    0.0000 C   0  0  0  0  0  0  0  0  0  0  0  0
   -2.2568   -0.8436    0.0000 C   0  0  0  0  0  0  0  0  0  0  0  0
   -1.8686   -2.2925    0.0000 O   0  0  0  0  0  0  0  0  0  0  0  0
   -3.7057   -0.4554    0.0000 O   0  0  0  0  0  0  0  0  0  0  0  0
  1  2  1  0
  2  3  1  0
  3  4  2  0
  4  5  1  0
  5  6  2  0
  6  7  1  0
  7  8  2  0
  8  9  1  0
  9 10  1  0
  2 11  1  6
 11 12  2  0
 11 13  1  0
  8  3  1  0
 10  1  1  0
M  END
>  <rName>  (3391) 
THIQ1R-1-CO2H

>  <PQ_SYMBOL>  (3391) 
THIQ1R-1-CO2H

>  <FULL_NAME>  (3391) 
(1R)-1,2,3,4-tetrahydroisoquinoline-1-carboxylic acid

>  <IUPAC_CONDENSED>  (3391) 
THIQ(1R)-1-CO2H

>  <IUPAC>  (3391) 
(2R)-3-azabicyclo[4.4.0]deca-1(10),6,8-triene-2-carboxylic acid

>  <TYPE>  (3391) 
Backbone

>  <CLASS>  (3391) 
alpha

>  <ANALOG>  (3391) 
Pro

>  <MOL_WT>  (3391) 
177.20299999999997

>  <LOGP>  (3391) 
0.958

>  <TPSA>  (3391) 
49.33

>  <POPULARITY>  (3391) 
12.9

>  <PROTECTED>  (3391) 
TRUE

>  <SMILES>  (3391) 
N2[C@H](c1(ccccc1CC2))C(=O)O

>  <INCHIKEY>  (3391) 
OXFGRWIKQDSSLY-SECBINFHSA-N

$$$$
THIQ1S-1-CO2H
     RDKit          2D

 13 14  0  0  0  0  0  0  0  0999 V2000
   -1.5843    1.6659    0.0000 N   0  0  0  0  0  0  0  0  0  0  0  0
   -1.1961    0.2170    0.0000 C   0  0  0  0  0  0  0  0  0  0  0  0
    0.2528   -0.1712    0.0000 C   0  0  0  0  0  0  0  0  0  0  0  0
    0.6410   -1.6201    0.0000 C   0  0  0  0  0  0  0  0  0  0  0  0
    2.0899   -2.0083    0.0000 C   0  0  0  0  0  0  0  0  0  0  0  0
    3.1505   -0.9476    0.0000 C   0  0  0  0  0  0  0  0  0  0  0  0
    2.7623    0.5013    0.0000 C   0  0  0  0  0  0  0  0  0  0  0  0
    1.3134    0.8895    0.0000 C   0  0  0  0  0  0  0  0  0  0  0  0
    0.9252    2.3384    0.0000 C   0  0  0  0  0  0  0  0  0  0  0  0
   -0.5237    2.7266    0.0000 C   0  0  0  0  0  0  0  0  0  0  0  0
   -2.2568   -0.8436    0.0000 C   0  0  0  0  0  0  0  0  0  0  0  0
   -1.8686   -2.2925    0.0000 O   0  0  0  0  0  0  0  0  0  0  0  0
   -3.7057   -0.4554    0.0000 O   0  0  0  0  0  0  0  0  0  0  0  0
  1  2  1  0
  2  3  1  0
  3  4  2  0
  4  5  1  0
  5  6  2  0
  6  7  1  0
  7  8  2  0
  8  9  1  0
  9 10  1  0
  2 11  1  1
 11 12  2  0
 11 13  1  0
  8  3  1  0
 10  1  1  0
M  END
>  <rName>  (3392) 
THIQ1S-1-CO2H

>  <PQ_SYMBOL>  (3392) 
THIQ1S-1-CO2H

>  <FULL_NAME>  (3392) 
(1S)-1,2,3,4-tetrahydroisoquinoline-1-carboxylic acid

>  <IUPAC_CONDENSED>  (3392) 
THIQ(1S)-1-CO2H

>  <IUPAC>  (3392) 
(2S)-3-azabicyclo[4.4.0]deca-1(10),6,8-triene-2-carboxylic acid

>  <TYPE>  (3392) 
Backbone

>  <CLASS>  (3392) 
alpha

>  <ANALOG>  (3392) 
Pro

>  <MOL_WT>  (3392) 
177.20299999999997

>  <LOGP>  (3392) 
0.958

>  <TPSA>  (3392) 
49.33

>  <POPULARITY>  (3392) 
13.8

>  <PROTECTED>  (3392) 
TRUE

>  <SMILES>  (3392) 
N2[C@@H](c1(ccccc1CC2))C(=O)O

>  <INCHIKEY>  (3392) 
OXFGRWIKQDSSLY-VIFPVBQESA-N

$$$$
THIQ3-bAla
     RDKit          2D

 14 15  0  0  0  0  0  0  0  0999 V2000
   -0.9977    1.0836    0.0000 N   0  0  0  0  0  0  0  0  0  0  0  0
   -1.1667   -0.4068    0.0000 C   0  0  0  0  0  0  0  0  0  0  0  0
    0.0395   -1.2984    0.0000 C   0  0  0  0  0  0  0  0  0  0  0  0
    1.4148   -0.6996    0.0000 C   0  0  0  0  0  0  0  0  0  0  0  0
    2.6210   -1.5912    0.0000 C   0  0  0  0  0  0  0  0  0  0  0  0
    3.9963   -0.9924    0.0000 C   0  0  0  0  0  0  0  0  0  0  0  0
    4.1654    0.4980    0.0000 C   0  0  0  0  0  0  0  0  0  0  0  0
    2.9591    1.3897    0.0000 C   0  0  0  0  0  0  0  0  0  0  0  0
    1.5838    0.7908    0.0000 C   0  0  0  0  0  0  0  0  0  0  0  0
    0.3776    1.6825    0.0000 C   0  0  0  0  0  0  0  0  0  0  0  0
   -2.5420   -1.0056    0.0000 C   0  0  0  0  0  0  0  0  0  0  0  0
   -3.7483   -0.1140    0.0000 C   0  0  0  0  0  0  0  0  0  0  0  0
   -3.5792    1.3764    0.0000 O   0  0  0  0  0  0  0  0  0  0  0  0
   -5.1235   -0.7129    0.0000 O   0  0  0  0  0  0  0  0  0  0  0  0
  1  2  1  0
  2  3  1  0
  3  4  1  0
  4  5  2  0
  5  6  1  0
  6  7  2  0
  7  8  1  0
  8  9  2  0
  9 10  1  0
  2 11  1  0
 11 12  1  0
 12 13  2  0
 12 14  1  0
  9  4  1  0
 10  1  1  0
M  END
>  <rName>  (3393) 
THIQ3-bAla

>  <PQ_SYMBOL>  (3393) 
THIQ3-bAla

>  <FULL_NAME>  (3393) 
2-(1,2,3,4-tetrahydroisoquinolin-3-yl)acetic acid

>  <IUPAC_CONDENSED>  (3393) 
THIQ(3)-bAla

>  <IUPAC>  (3393) 
2-(3-azabicyclo[4.4.0]deca-1(10),6,8-trien-4-yl)acetic acid

>  <TYPE>  (3393) 
Backbone

>  <CLASS>  (3393) 
beta

>  <ANALOG>  (3393) 
Pro

>  <MOL_WT>  (3393) 
191.22999999999993

>  <LOGP>  (3393) 
1.1756

>  <TPSA>  (3393) 
49.33

>  <POPULARITY>  (3393) 
7.1

>  <PROTECTED>  (3393) 
TRUE

>  <SMILES>  (3393) 
N2C(Cc1(ccccc1C2))CC(=O)O

>  <INCHIKEY>  (3393) 
QYYIBCOJRFOBDJ-UHFFFAOYSA-N

$$$$
THIQ3R-bAla
     RDKit          2D

 14 15  0  0  0  0  0  0  0  0999 V2000
   -0.9977    1.0836    0.0000 N   0  0  0  0  0  0  0  0  0  0  0  0
   -1.1667   -0.4068    0.0000 C   0  0  0  0  0  0  0  0  0  0  0  0
    0.0395   -1.2984    0.0000 C   0  0  0  0  0  0  0  0  0  0  0  0
    1.4148   -0.6996    0.0000 C   0  0  0  0  0  0  0  0  0  0  0  0
    2.6210   -1.5912    0.0000 C   0  0  0  0  0  0  0  0  0  0  0  0
    3.9963   -0.9924    0.0000 C   0  0  0  0  0  0  0  0  0  0  0  0
    4.1654    0.4980    0.0000 C   0  0  0  0  0  0  0  0  0  0  0  0
    2.9591    1.3897    0.0000 C   0  0  0  0  0  0  0  0  0  0  0  0
    1.5838    0.7908    0.0000 C   0  0  0  0  0  0  0  0  0  0  0  0
    0.3776    1.6825    0.0000 C   0  0  0  0  0  0  0  0  0  0  0  0
   -2.5420   -1.0056    0.0000 C   0  0  0  0  0  0  0  0  0  0  0  0
   -3.7483   -0.1140    0.0000 C   0  0  0  0  0  0  0  0  0  0  0  0
   -3.5792    1.3764    0.0000 O   0  0  0  0  0  0  0  0  0  0  0  0
   -5.1235   -0.7129    0.0000 O   0  0  0  0  0  0  0  0  0  0  0  0
  1  2  1  0
  2  3  1  0
  3  4  1  0
  4  5  2  0
  5  6  1  0
  6  7  2  0
  7  8  1  0
  8  9  2  0
  9 10  1  0
  2 11  1  6
 11 12  1  0
 12 13  2  0
 12 14  1  0
  9  4  1  0
 10  1  1  0
M  END
>  <rName>  (3394) 
THIQ3R-bAla

>  <PQ_SYMBOL>  (3394) 
THIQ3R-bAla

>  <FULL_NAME>  (3394) 
2-[(3R)-1,2,3,4-tetrahydroisoquinolin-3-yl]acetic acid

>  <IUPAC_CONDENSED>  (3394) 
THIQ(3R)-bAla

>  <IUPAC>  (3394) 
2-((4R)-3-azabicyclo[4.4.0]deca-1(10),6,8-trien-4-yl)acetic acid

>  <TYPE>  (3394) 
Backbone

>  <CLASS>  (3394) 
beta

>  <ANALOG>  (3394) 
Pro

>  <MOL_WT>  (3394) 
191.22999999999993

>  <LOGP>  (3394) 
1.1756

>  <TPSA>  (3394) 
49.33

>  <POPULARITY>  (3394) 
7.9

>  <PROTECTED>  (3394) 
TRUE

>  <SMILES>  (3394) 
N2[C@H](Cc1(ccccc1C2))CC(=O)O

>  <INCHIKEY>  (3394) 
QYYIBCOJRFOBDJ-SNVBAGLBSA-N

$$$$
THIQ3S-bAla
     RDKit          2D

 14 15  0  0  0  0  0  0  0  0999 V2000
   -0.9977    1.0836    0.0000 N   0  0  0  0  0  0  0  0  0  0  0  0
   -1.1667   -0.4068    0.0000 C   0  0  0  0  0  0  0  0  0  0  0  0
    0.0395   -1.2984    0.0000 C   0  0  0  0  0  0  0  0  0  0  0  0
    1.4148   -0.6996    0.0000 C   0  0  0  0  0  0  0  0  0  0  0  0
    2.6210   -1.5912    0.0000 C   0  0  0  0  0  0  0  0  0  0  0  0
    3.9963   -0.9924    0.0000 C   0  0  0  0  0  0  0  0  0  0  0  0
    4.1654    0.4980    0.0000 C   0  0  0  0  0  0  0  0  0  0  0  0
    2.9591    1.3897    0.0000 C   0  0  0  0  0  0  0  0  0  0  0  0
    1.5838    0.7908    0.0000 C   0  0  0  0  0  0  0  0  0  0  0  0
    0.3776    1.6825    0.0000 C   0  0  0  0  0  0  0  0  0  0  0  0
   -2.5420   -1.0056    0.0000 C   0  0  0  0  0  0  0  0  0  0  0  0
   -3.7483   -0.1140    0.0000 C   0  0  0  0  0  0  0  0  0  0  0  0
   -3.5792    1.3764    0.0000 O   0  0  0  0  0  0  0  0  0  0  0  0
   -5.1235   -0.7129    0.0000 O   0  0  0  0  0  0  0  0  0  0  0  0
  1  2  1  0
  2  3  1  0
  3  4  1  0
  4  5  2  0
  5  6  1  0
  6  7  2  0
  7  8  1  0
  8  9  2  0
  9 10  1  0
  2 11  1  1
 11 12  1  0
 12 13  2  0
 12 14  1  0
  9  4  1  0
 10  1  1  0
M  END
>  <rName>  (3395) 
THIQ3S-bAla

>  <PQ_SYMBOL>  (3395) 
THIQ3S-bAla

>  <FULL_NAME>  (3395) 
(S)-2-(1,2,3,4-tetrahydroisoquinolin-3-yl)acetic acid

>  <IUPAC_CONDENSED>  (3395) 
THIQ(3S)-bAla

>  <IUPAC>  (3395) 
2-((4S)-3-azabicyclo[4.4.0]deca-1(10),6,8-trien-4-yl)acetic acid

>  <TYPE>  (3395) 
Backbone

>  <CLASS>  (3395) 
beta

>  <ANALOG>  (3395) 
Pro

>  <MOL_WT>  (3395) 
191.22999999999993

>  <LOGP>  (3395) 
1.1756

>  <TPSA>  (3395) 
49.33

>  <POPULARITY>  (3395) 
7.2

>  <PROTECTED>  (3395) 
TRUE

>  <SMILES>  (3395) 
N2[C@@H](Cc1(ccccc1C2))CC(=O)O

>  <INCHIKEY>  (3395) 
QYYIBCOJRFOBDJ-JTQLQIEISA-N

$$$$
Tf-Val
     RDKit          2D

 15 14  0  0  0  0  0  0  0  0999 V2000
    1.9607   -1.4064    0.0000 F   0  0  0  0  0  0  0  0  0  0  0  0
    2.5357   -0.0209    0.0000 C   0  0  0  0  0  0  0  0  0  0  0  0
    3.1106    1.3645    0.0000 F   0  0  0  0  0  0  0  0  0  0  0  0
    3.9211   -0.5959    0.0000 F   0  0  0  0  0  0  0  0  0  0  0  0
    1.1502    0.5540    0.0000 S   0  0  0  0  0  0  0  0  0  0  0  0
    0.5753   -0.8314    0.0000 O   0  0  0  0  0  0  0  0  0  0  0  0
    1.7252    1.9395    0.0000 O   0  0  0  0  0  0  0  0  0  0  0  0
   -0.2352    1.1290    0.0000 N   0  0  0  0  0  0  0  0  0  0  0  0
   -1.4258    0.2167    0.0000 C   0  0  0  0  0  0  0  0  0  0  0  0
   -2.8113    0.7917    0.0000 C   0  0  0  0  0  0  0  0  0  0  0  0
   -3.0060    2.2790    0.0000 C   0  0  0  0  0  0  0  0  0  0  0  0
   -4.0019   -0.1206    0.0000 C   0  0  0  0  0  0  0  0  0  0  0  0
   -1.2311   -1.2706    0.0000 C   0  0  0  0  0  0  0  0  0  0  0  0
   -2.4217   -2.1829    0.0000 O   0  0  0  0  0  0  0  0  0  0  0  0
    0.1543   -1.8456    0.0000 O   0  0  0  0  0  0  0  0  0  0  0  0
  1  2  1  0
  2  3  1  0
  2  4  1  0
  2  5  1  0
  5  6  2  0
  5  7  2  0
  5  8  1  0
  9  8  1  6
  9 10  1  0
 10 11  1  0
 10 12  1  0
  9 13  1  0
 13 14  2  0
 13 15  1  0
M  END
>  <rName>  (3396) 
Tf-Val

>  <PQ_SYMBOL>  (3396) 
Tf-Val

>  <FULL_NAME>  (3396) 
(2S)-3-methyl-2-(trifluoromethylsulfonylamino)butanoic acid

>  <IUPAC_CONDENSED>  (3396) 
Tf-Val

>  <IUPAC>  (3396) 
(2S)-3-methyl-2-(trifluoromethylsulfonylamino)butanoic acid

>  <TYPE>  (3396) 
N-term cap

>  <CLASS>  (3396) 
n_cap

>  <ANALOG>  (3396) 
X

>  <MOL_WT>  (3396) 
249.21

>  <LOGP>  (3396) 
0.5347999999999999

>  <TPSA>  (3396) 
83.47

>  <POPULARITY>  (3396) 
6.0

>  <PROTECTED>  (3396) 
TRUE

>  <SMILES>  (3396) 
FC(F)(F)S(=O)(=O)N[C@@H](C(C)C)C(=O)O

>  <INCHIKEY>  (3396) 
UJMLUEWCAMFOKZ-BYPYZUCNSA-N

$$$$
Thr-Gly
     RDKit          2D

 12 11  0  0  0  0  0  0  0  0999 V2000
   -0.8979    0.2905    0.0000 N   0  0  0  0  0  0  0  0  0  0  0  0
    0.4669   -0.3319    0.0000 C   0  0  0  0  0  0  0  0  0  0  0  0
    0.6102   -1.8250    0.0000 O   0  0  0  0  0  0  0  0  0  0  0  0
    1.6883    0.5388    0.0000 C   0  0  0  0  0  0  0  0  0  0  0  0
    1.5449    2.0319    0.0000 N   0  0  0  0  0  0  0  0  0  0  0  0
    3.0531   -0.0836    0.0000 C   0  0  0  0  0  0  0  0  0  0  0  0
    3.1964   -1.5768    0.0000 O   0  0  0  0  0  0  0  0  0  0  0  0
    4.2745    0.7871    0.0000 C   0  0  0  0  0  0  0  0  0  0  0  0
   -2.1193   -0.5802    0.0000 C   0  0  0  0  0  0  0  0  0  0  0  0
   -3.4841    0.0422    0.0000 C   0  0  0  0  0  0  0  0  0  0  0  0
   -3.6274    1.5354    0.0000 O   0  0  0  0  0  0  0  0  0  0  0  0
   -4.7055   -0.8285    0.0000 O   0  0  0  0  0  0  0  0  0  0  0  0
  1  2  1  0
  2  3  2  0
  2  4  1  0
  4  5  1  1
  4  6  1  0
  6  7  1  0
  6  8  1  1
  1  9  1  0
  9 10  1  0
 10 11  2  0
 10 12  1  0
M  END
>  <rName>  (3397) 
Thr-Gly

>  <PQ_SYMBOL>  (3397) 
Thr-Gly

>  <FULL_NAME>  (3397) 
L-threonylglycine

>  <IUPAC_CONDENSED>  (3397) 
Thr-Gly

>  <IUPAC>  (3397) 
2-((1S,2R)-1-amino-2-hydroxypropylcarbonylamino)acetic acid

>  <TYPE>  (3397) 
Backbone

>  <CLASS>  (3397) 
alpha

>  <ANALOG>  (3397) 
Gly

>  <MOL_WT>  (3397) 
176.17199999999997

>  <LOGP>  (3397) 
-2.1046999999999993

>  <TPSA>  (3397) 
112.65000000000002

>  <POPULARITY>  (3397) 
13.4

>  <PROTECTED>  (3397) 
TRUE

>  <SMILES>  (3397) 
N(C(=O)[C@@H](N)[C@H](O)C)CC(=O)O

>  <INCHIKEY>  (3397) 
BIYXEUAFGLTAEM-WUJLRWPWSA-N

$$$$
Thr-NH2
     RDKit          2D

  8  7  0  0  0  0  0  0  0  0999 V2000
    0.0000   -2.0625    0.0000 N   0  0  0  0  0  0  0  0  0  0  0  0
    0.0000   -0.5625    0.0000 C   0  0  0  0  0  0  0  0  0  0  0  0
    1.2990    0.1875    0.0000 C   0  0  0  0  0  0  0  0  0  0  0  0
    1.2990    1.6875    0.0000 O   0  0  0  0  0  0  0  0  0  0  0  0
    2.5981   -0.5625    0.0000 N   0  0  0  0  0  0  0  0  0  0  0  0
   -1.2990    0.1875    0.0000 C   0  0  0  0  0  0  0  0  0  0  0  0
   -2.5981   -0.5625    0.0000 C   0  0  0  0  0  0  0  0  0  0  0  0
   -1.2990    1.6875    0.0000 O   0  0  0  0  0  0  0  0  0  0  0  0
  2  1  1  1
  2  3  1  0
  3  4  2  0
  3  5  1  0
  2  6  1  0
  6  7  1  1
  6  8  1  0
M  END
>  <rName>  (3398) 
Thr-NH2

>  <PQ_SYMBOL>  (3398) 
Thr-NH2

>  <FULL_NAME>  (3398) 
(2S,3R)-2-amino-3-hydroxy-butanamide

>  <IUPAC_CONDENSED>  (3398) 
Thr-NH2

>  <IUPAC>  (3398) 
(2S,3R)-2-amino-3-hydroxybutanamide

>  <TYPE>  (3398) 
C-term cap

>  <CLASS>  (3398) 
c_cap

>  <ANALOG>  (3398) 
X

>  <MOL_WT>  (3398) 
118.13599999999998

>  <LOGP>  (3398) 
-1.8202000000000003

>  <TPSA>  (3398) 
89.34

>  <POPULARITY>  (3398) 
16.7

>  <PROTECTED>  (3398) 
FALSE

>  <SMILES>  (3398) 
N[C@H](C(=O)N)[C@@H](C)O

>  <INCHIKEY>  (3398) 
PZUOEYPTQJILHP-GBXIJSLDSA-N

$$$$
Thr-OBn
     RDKit          2D

 15 15  0  0  0  0  0  0  0  0999 V2000
   -2.5285    2.0436    0.0000 N   0  0  0  0  0  0  0  0  0  0  0  0
   -2.8012    0.5686    0.0000 C   0  0  0  0  0  0  0  0  0  0  0  0
   -4.2149    0.0672    0.0000 C   0  0  0  0  0  0  0  0  0  0  0  0
   -4.4876   -1.4078    0.0000 O   0  0  0  0  0  0  0  0  0  0  0  0
   -5.3560    1.0409    0.0000 C   0  0  0  0  0  0  0  0  0  0  0  0
   -1.6601   -0.4050    0.0000 C   0  0  0  0  0  0  0  0  0  0  0  0
   -1.9328   -1.8800    0.0000 O   0  0  0  0  0  0  0  0  0  0  0  0
   -0.2464    0.0964    0.0000 O   0  0  0  0  0  0  0  0  0  0  0  0
    0.8947   -0.8772    0.0000 C   0  0  0  0  0  0  0  0  0  0  0  0
    2.3084   -0.3758    0.0000 C   0  0  0  0  0  0  0  0  0  0  0  0
    2.5811    1.0992    0.0000 C   0  0  0  0  0  0  0  0  0  0  0  0
    3.9948    1.6006    0.0000 C   0  0  0  0  0  0  0  0  0  0  0  0
    5.1359    0.6269    0.0000 C   0  0  0  0  0  0  0  0  0  0  0  0
    4.8632   -0.8481    0.0000 C   0  0  0  0  0  0  0  0  0  0  0  0
    3.4495   -1.3495    0.0000 C   0  0  0  0  0  0  0  0  0  0  0  0
  2  1  1  6
  2  3  1  0
  3  4  1  0
  3  5  1  6
  2  6  1  0
  6  7  2  0
  6  8  1  0
  8  9  1  0
  9 10  1  0
 10 11  2  0
 11 12  1  0
 12 13  2  0
 13 14  1  0
 14 15  2  0
 15 10  1  0
M  END
>  <rName>  (3399) 
Thr-OBn

>  <PQ_SYMBOL>  (3399) 
Thr-OBn

>  <FULL_NAME>  (3399) 
L-Threonine benzyl ester

>  <IUPAC_CONDENSED>  (3399) 
Thr-OBn

>  <IUPAC>  (3399) 
benzyl (2S,3R)-2-amino-3-hydroxybutanoate

>  <TYPE>  (3399) 
C-term cap

>  <CLASS>  (3399) 
c_cap

>  <ANALOG>  (3399) 
X

>  <MOL_WT>  (3399) 
209.245

>  <LOGP>  (3399) 
0.4378999999999993

>  <TPSA>  (3399) 
72.55

>  <POPULARITY>  (3399) 
6.9

>  <PROTECTED>  (3399) 
TRUE

>  <SMILES>  (3399) 
N[C@@H]([C@H](O)C)C(=O)OCc1ccccc1

>  <INCHIKEY>  (3399) 
IHRYAQVOEVWURS-SCZZXKLOSA-N

$$$$
Thr-Thr
     RDKit          2D

 15 14  0  0  0  0  0  0  0  0999 V2000
    0.3849   -0.8728    0.0000 N   0  0  0  0  0  0  0  0  0  0  0  0
   -0.8703   -0.0515    0.0000 C   0  0  0  0  0  0  0  0  0  0  0  0
   -0.7866    1.4461    0.0000 O   0  0  0  0  0  0  0  0  0  0  0  0
   -2.2091   -0.7279    0.0000 C   0  0  0  0  0  0  0  0  0  0  0  0
   -2.2927   -2.2256    0.0000 N   0  0  0  0  0  0  0  0  0  0  0  0
   -3.4643    0.0933    0.0000 C   0  0  0  0  0  0  0  0  0  0  0  0
   -3.3806    1.5910    0.0000 O   0  0  0  0  0  0  0  0  0  0  0  0
   -4.8031   -0.5831    0.0000 C   0  0  0  0  0  0  0  0  0  0  0  0
    1.7238   -0.1964    0.0000 C   0  0  0  0  0  0  0  0  0  0  0  0
    2.9790   -1.0177    0.0000 C   0  0  0  0  0  0  0  0  0  0  0  0
    2.8953   -2.5154    0.0000 O   0  0  0  0  0  0  0  0  0  0  0  0
    4.3178   -0.3413    0.0000 C   0  0  0  0  0  0  0  0  0  0  0  0
    1.8074    1.3012    0.0000 C   0  0  0  0  0  0  0  0  0  0  0  0
    0.5522    2.1225    0.0000 O   0  0  0  0  0  0  0  0  0  0  0  0
    3.1463    1.9776    0.0000 O   0  0  0  0  0  0  0  0  0  0  0  0
  1  2  1  0
  2  3  2  0
  2  4  1  0
  4  5  1  1
  4  6  1  0
  6  7  1  0
  6  8  1  1
  9  1  1  6
  9 10  1  0
 10 11  1  0
 10 12  1  1
  9 13  1  0
 13 14  2  0
 13 15  1  0
M  END
>  <rName>  (3400) 
Thr-Thr

>  <PQ_SYMBOL>  (3400) 
Thr-Thr

>  <FULL_NAME>  (3400) 
L-threonyl-L-threonine

>  <IUPAC_CONDENSED>  (3400) 
Thr-Thr

>  <IUPAC>  (3400) 
(2S,3R)-2-((1S,2R)-1-amino-2-hydroxypropylcarbonylamino)-3-hydroxybutanoic acid

>  <TYPE>  (3400) 
Backbone

>  <CLASS>  (3400) 
alpha

>  <ANALOG>  (3400) 
Thr

>  <MOL_WT>  (3400) 
220.225

>  <LOGP>  (3400) 
-2.355299999999999

>  <TPSA>  (3400) 
132.88

>  <POPULARITY>  (3400) 
7.7

>  <PROTECTED>  (3400) 
TRUE

>  <SMILES>  (3400) 
N(C(=O)[C@@H](N)[C@H](O)C)[C@@H]([C@H](O)C)C(=O)O

>  <INCHIKEY>  (3400) 
DSGIVWSDDRDJIO-ZXXMMSQZSA-N

$$$$
Thr-ol
     RDKit          2D

  7  6  0  0  0  0  0  0  0  0999 V2000
   -0.5797    1.7367    0.0000 N   0  0  0  0  0  0  0  0  0  0  0  0
   -0.2514    0.2730    0.0000 C   0  0  0  0  0  0  0  0  0  0  0  0
   -1.3548   -0.7431    0.0000 C   0  0  0  0  0  0  0  0  0  0  0  0
   -2.7865   -0.2956    0.0000 O   0  0  0  0  0  0  0  0  0  0  0  0
    1.1803   -0.1745    0.0000 C   0  0  0  0  0  0  0  0  0  0  0  0
    2.2837    0.8417    0.0000 C   0  0  0  0  0  0  0  0  0  0  0  0
    1.5086   -1.6381    0.0000 O   0  0  0  0  0  0  0  0  0  0  0  0
  2  1  1  1
  2  3  1  0
  3  4  1  0
  2  5  1  0
  5  6  1  1
  5  7  1  0
M  END
>  <rName>  (3401) 
Thr-ol

>  <PQ_SYMBOL>  (3401) 
Thr-ol

>  <FULL_NAME>  (3401) 
L-Threoninol

>  <IUPAC_CONDENSED>  (3401) 
Thr-ol

>  <IUPAC>  (3401) 
(2R,3R)-2-aminobutane-1,3-diol

>  <TYPE>  (3401) 
C-term cap

>  <CLASS>  (3401) 
c_cap

>  <ANALOG>  (3401) 
X

>  <MOL_WT>  (3401) 
105.13699999999999

>  <LOGP>  (3401) 
-1.3132

>  <TPSA>  (3401) 
66.48

>  <POPULARITY>  (3401) 
19.8

>  <PROTECTED>  (3401) 
FALSE

>  <SMILES>  (3401) 
N[C@H](CO)[C@@H](C)O

>  <INCHIKEY>  (3401) 
MUVQIIBPDFTEKM-QWWZWVQMSA-N

$$$$
Thr_2PyranoseNAc_RSSRRRRRRR
     RDKit          2D

 33 34  0  0  0  0  0  0  0  0999 V2000
    1.7201   -3.1046    0.0000 C   0  0  0  0  0  0  0  0  0  0  0  0
    0.6336   -2.0704    0.0000 C   0  0  0  0  0  0  0  0  0  0  0  0
   -0.8053   -2.4943    0.0000 O   0  0  0  0  0  0  0  0  0  0  0  0
    0.9859   -0.6124    0.0000 N   0  0  0  0  0  0  0  0  0  0  0  0
   -0.1006    0.4218    0.0000 C   0  0  0  0  0  0  0  0  0  0  0  0
   -1.5394   -0.0020    0.0000 C   0  0  0  0  0  0  0  0  0  0  0  0
   -1.8918   -1.4601    0.0000 O   0  0  0  0  0  0  0  0  0  0  0  0
   -3.3307   -1.8839    0.0000 C   0  0  0  0  0  0  0  0  0  0  0  0
   -3.6831   -3.3419    0.0000 C   0  0  0  0  0  0  0  0  0  0  0  0
   -4.4172   -0.8497    0.0000 C   0  0  0  0  0  0  0  0  0  0  0  0
   -4.0648    0.6083    0.0000 N   0  0  0  0  0  0  0  0  0  0  0  0
   -5.8560   -1.2736    0.0000 C   0  0  0  0  0  0  0  0  0  0  0  0
   -6.2084   -2.7316    0.0000 O   0  0  0  0  0  0  0  0  0  0  0  0
   -6.9425   -0.2394    0.0000 O   0  0  0  0  0  0  0  0  0  0  0  0
   -2.6259    1.0321    0.0000 O   0  0  0  0  0  0  0  0  0  0  0  0
   -2.2735    2.4902    0.0000 C   0  0  0  0  0  0  0  0  0  0  0  0
   -3.3600    3.5243    0.0000 C   0  0  0  0  0  0  0  0  0  0  0  0
   -4.7989    3.1005    0.0000 O   0  0  0  0  0  0  0  0  0  0  0  0
   -0.8347    2.9140    0.0000 C   0  0  0  0  0  0  0  0  0  0  0  0
   -0.4823    4.3720    0.0000 O   0  0  0  0  0  0  0  0  0  0  0  0
    0.2518    1.8798    0.0000 C   0  0  0  0  0  0  0  0  0  0  0  0
    1.6907    2.3036    0.0000 O   0  0  0  0  0  0  0  0  0  0  0  0
    2.7772    1.2695    0.0000 C   0  0  0  0  0  0  0  0  0  0  0  0
    2.4248   -0.1886    0.0000 O   0  0  0  0  0  0  0  0  0  0  0  0
    3.5113   -1.2227    0.0000 C   0  0  0  0  0  0  0  0  0  0  0  0
    3.1589   -2.6808    0.0000 C   0  0  0  0  0  0  0  0  0  0  0  0
    4.2454   -3.7149    0.0000 O   0  0  0  0  0  0  0  0  0  0  0  0
    4.9502   -0.7989    0.0000 C   0  0  0  0  0  0  0  0  0  0  0  0
    6.0367   -1.8331    0.0000 O   0  0  0  0  0  0  0  0  0  0  0  0
    5.3026    0.6591    0.0000 C   0  0  0  0  0  0  0  0  0  0  0  0
    6.7414    1.0830    0.0000 O   0  0  0  0  0  0  0  0  0  0  0  0
    4.2161    1.6933    0.0000 C   0  0  0  0  0  0  0  0  0  0  0  0
    4.5685    3.1513    0.0000 O   0  0  0  0  0  0  0  0  0  0  0  0
  1  2  1  0
  2  3  2  0
  2  4  1  0
  5  4  1  1
  5  6  1  0
  6  7  1  1
  7  8  1  0
  8  9  1  6
  8 10  1  0
 10 11  1  1
 10 12  1  0
 12 13  2  0
 12 14  1  0
  6 15  1  0
 15 16  1  0
 16 17  1  6
 17 18  1  0
 16 19  1  0
 19 20  1  6
 19 21  1  0
 21 22  1  6
 23 22  1  1
 23 24  1  0
 24 25  1  0
 25 26  1  1
 26 27  1  0
 25 28  1  0
 28 29  1  1
 28 30  1  0
 30 31  1  1
 30 32  1  0
 32 33  1  6
 21  5  1  0
 32 23  1  0
M  END
>  <rName>  (3402) 
Thr_2PyranoseNAc_RSSRRRRRRR

>  <PQ_SYMBOL>  (3402) 
Thr_2PyranoseNAc_RSSRRRRRRR

>  <FULL_NAME>  (3402) 
(2S,3R)-3-[(2S,3R,4R,5R,6R)-3-acetamido-5-hydroxy-6-(hydroxymethyl)-4-[(2R,3R,4S,5R,6R)-3,4,5-trihydroxy-6-(hydroxymethyl)oxan-2-yl]oxyoxan-2-yl]oxy-2-aminobutanoic acid

>  <IUPAC_CONDENSED>  (3402) 
Thr(2Pyranose-NAc(RSSRRRRRRR))

>  <IUPAC>  (3402) 
(2S,3R)-3-[(2S,3R,4R,5R,6R)-3-acetamido-5-hydroxy-6-(hydroxymethyl)-4-[(2R,3R,4S,5R,6R)-3,4,5-trihydroxy-6-(hydroxymethyl)oxan-2-yl]oxyoxan-2-yl]oxy-2-aminobutanoic acid

>  <TYPE>  (3402) 
Backbone

>  <CLASS>  (3402) 
alpha

>  <ANALOG>  (3402) 
Thr

>  <MOL_WT>  (3402) 
484.4550000000001

>  <LOGP>  (3402) 
-5.42869999999999

>  <TPSA>  (3402) 
250.7199999999999

>  <POPULARITY>  (3402) 
2.2

>  <PROTECTED>  (3402) 
TRUE

>  <SMILES>  (3402) 
CC(=O)N[C@H]1[C@@H](O[C@H](C)[C@H](N)C(=O)O)O[C@H](CO)[C@H](O)[C@@H]1O[C@@H]1O[C@H](CO)[C@H](O)[C@H](O)[C@H]1O

>  <INCHIKEY>  (3402) 
VWNOCGQJSBAAFO-RBMHVKAPSA-N

$$$$
Thr_2Pyranose_SRSRRRRSRR
     RDKit          2D

 30 31  0  0  0  0  0  0  0  0999 V2000
   -3.8876    0.9843    0.0000 N   0  0  0  0  0  0  0  0  0  0  0  0
   -5.1036    0.1059    0.0000 C   0  0  0  0  0  0  0  0  0  0  0  0
   -4.9508   -1.3863    0.0000 C   0  0  0  0  0  0  0  0  0  0  0  0
   -3.5822   -2.0001    0.0000 O   0  0  0  0  0  0  0  0  0  0  0  0
   -2.3663   -1.1218    0.0000 C   0  0  0  0  0  0  0  0  0  0  0  0
   -2.5190    0.3705    0.0000 O   0  0  0  0  0  0  0  0  0  0  0  0
   -1.3031    1.2488    0.0000 C   0  0  0  0  0  0  0  0  0  0  0  0
   -1.4558    2.7410    0.0000 C   0  0  0  0  0  0  0  0  0  0  0  0
   -0.2399    3.6194    0.0000 O   0  0  0  0  0  0  0  0  0  0  0  0
    0.0656    0.6350    0.0000 C   0  0  0  0  0  0  0  0  0  0  0  0
    1.2815    1.5133    0.0000 O   0  0  0  0  0  0  0  0  0  0  0  0
    2.6502    0.8995    0.0000 C   0  0  0  0  0  0  0  0  0  0  0  0
    2.8029   -0.5927    0.0000 O   0  0  0  0  0  0  0  0  0  0  0  0
    4.1715   -1.2065    0.0000 C   0  0  0  0  0  0  0  0  0  0  0  0
    4.3243   -2.6987    0.0000 C   0  0  0  0  0  0  0  0  0  0  0  0
    5.6929   -3.3126    0.0000 O   0  0  0  0  0  0  0  0  0  0  0  0
    5.3875   -0.3282    0.0000 C   0  0  0  0  0  0  0  0  0  0  0  0
    6.7561   -0.9420    0.0000 O   0  0  0  0  0  0  0  0  0  0  0  0
    5.2347    1.1640    0.0000 C   0  0  0  0  0  0  0  0  0  0  0  0
    6.4507    2.0424    0.0000 O   0  0  0  0  0  0  0  0  0  0  0  0
    3.8661    1.7779    0.0000 C   0  0  0  0  0  0  0  0  0  0  0  0
    3.7134    3.2701    0.0000 O   0  0  0  0  0  0  0  0  0  0  0  0
    0.2183   -0.8572    0.0000 C   0  0  0  0  0  0  0  0  0  0  0  0
    1.5870   -1.4711    0.0000 O   0  0  0  0  0  0  0  0  0  0  0  0
   -0.9976   -1.7356    0.0000 C   0  0  0  0  0  0  0  0  0  0  0  0
   -0.8449   -3.2278    0.0000 O   0  0  0  0  0  0  0  0  0  0  0  0
   -6.1668   -2.2646    0.0000 C   0  0  0  0  0  0  0  0  0  0  0  0
   -6.4722    0.7198    0.0000 C   0  0  0  0  0  0  0  0  0  0  0  0
   -7.6881   -0.1586    0.0000 O   0  0  0  0  0  0  0  0  0  0  0  0
   -6.6249    2.2120    0.0000 O   0  0  0  0  0  0  0  0  0  0  0  0
  2  1  1  1
  2  3  1  0
  3  4  1  0
  5  4  1  6
  5  6  1  0
  6  7  1  0
  7  8  1  6
  8  9  1  0
  7 10  1  0
 10 11  1  1
 12 11  1  1
 12 13  1  0
 13 14  1  0
 14 15  1  1
 15 16  1  0
 14 17  1  0
 17 18  1  1
 17 19  1  0
 19 20  1  1
 19 21  1  0
 21 22  1  6
 10 23  1  0
 23 24  1  6
 23 25  1  0
 25 26  1  1
  3 27  1  6
  2 28  1  0
 28 29  2  0
 28 30  1  0
 21 12  1  0
 25  5  1  0
M  END
>  <rName>  (3403) 
Thr_2Pyranose_SRSRRRRSRR

>  <PQ_SYMBOL>  (3403) 
Thr_2Pyranose_SRSRRRRSRR

>  <FULL_NAME>  (3403) 
O-((2R,3R,4R,5S,6R)-3,4-dihydroxy-6-(hydroxymethyl)-5-(((2S,3R,4S,5R,6R)-3,4,5-trihydroxy-6-(hydroxymethyl)tetrahydro-2H-pyran-2-yl)oxy)tetrahydro-2H-pyran-2-yl)-L-threonine

>  <IUPAC_CONDENSED>  (3403) 
Thr(2Pyranose(SRSRRRRSRR))

>  <IUPAC>  (3403) 
(2S,3R)-2-amino-3-(((2R,3R,4R,5S,6R)-3,4-dihydroxy-6-(hydroxymethyl)-5-(((2S,3R,4S,5R,6R)-3,4,5-trihydroxy-6-(hydroxymethyl)-oxan-2-yl)oxy)-oxan-2-yl)oxy)butanoic acid

>  <TYPE>  (3403) 
Backbone

>  <CLASS>  (3403) 
alpha

>  <ANALOG>  (3403) 
Thr

>  <MOL_WT>  (3403) 
443.4020000000001

>  <LOGP>  (3403) 
-5.572499999999991

>  <TPSA>  (3403) 
241.84999999999997

>  <POPULARITY>  (3403) 
2.7

>  <PROTECTED>  (3403) 
TRUE

>  <SMILES>  (3403) 
N[C@@H]([C@H](O[C@@H]2(O[C@H](CO)[C@@H](O[C@@H]1(O[C@H](CO)[C@H](O)[C@H](O)[C@H]1O))[C@H](O)[C@H]2O))C)C(=O)O

>  <INCHIKEY>  (3403) 
JOMCOFUFFXCKQO-MNQSMIPMSA-N

$$$$
Thr_Ac
     RDKit          2D

 11 10  0  0  0  0  0  0  0  0999 V2000
   -0.1540    1.5290    0.0000 N   0  0  0  0  0  0  0  0  0  0  0  0
    0.6675    0.2740    0.0000 C   0  0  0  0  0  0  0  0  0  0  0  0
   -0.0086   -1.0650    0.0000 C   0  0  0  0  0  0  0  0  0  0  0  0
   -1.5062   -1.1490    0.0000 O   0  0  0  0  0  0  0  0  0  0  0  0
   -2.3278    0.1061    0.0000 C   0  0  0  0  0  0  0  0  0  0  0  0
   -1.6517    1.4450    0.0000 O   0  0  0  0  0  0  0  0  0  0  0  0
   -3.8254    0.0221    0.0000 C   0  0  0  0  0  0  0  0  0  0  0  0
    0.8129   -2.3200    0.0000 C   0  0  0  0  0  0  0  0  0  0  0  0
    2.1652    0.3579    0.0000 C   0  0  0  0  0  0  0  0  0  0  0  0
    2.9867   -0.8971    0.0000 O   0  0  0  0  0  0  0  0  0  0  0  0
    2.8413    1.6969    0.0000 O   0  0  0  0  0  0  0  0  0  0  0  0
  2  1  1  6
  2  3  1  0
  3  4  1  0
  4  5  1  0
  5  6  2  0
  5  7  1  0
  3  8  1  1
  2  9  1  0
  9 10  2  0
  9 11  1  0
M  END
>  <rName>  (3404) 
Thr_Ac

>  <PQ_SYMBOL>  (3404) 
Thr_Ac

>  <FULL_NAME>  (3404) 
(2S,3R)-3-acetyloxy-2-aminobutanoic acid

>  <IUPAC_CONDENSED>  (3404) 
Thr(Ac)

>  <IUPAC>  (3404) 
(2S,3R)-2-amino-3-(acetoxy)butanoic acid

>  <TYPE>  (3404) 
Backbone

>  <CLASS>  (3404) 
alpha

>  <ANALOG>  (3404) 
Thr

>  <MOL_WT>  (3404) 
161.15699999999998

>  <LOGP>  (3404) 
-0.6501000000000001

>  <TPSA>  (3404) 
89.62

>  <POPULARITY>  (3404) 
18.7

>  <PROTECTED>  (3404) 
TRUE

>  <SMILES>  (3404) 
N[C@@H]([C@H](OC(=O)C)C)C(=O)O

>  <INCHIKEY>  (3404) 
GOVSRIMJZNIFHS-WUJLRWPWSA-N

$$$$
Thr_Bn
     RDKit          2D

 15 15  0  0  0  0  0  0  0  0999 V2000
   -1.6242   -1.6376    0.0000 N   0  0  0  0  0  0  0  0  0  0  0  0
   -2.4349   -0.3756    0.0000 C   0  0  0  0  0  0  0  0  0  0  0  0
   -1.7473    0.9575    0.0000 C   0  0  0  0  0  0  0  0  0  0  0  0
   -0.2490    1.0286    0.0000 O   0  0  0  0  0  0  0  0  0  0  0  0
    0.5617   -0.2335    0.0000 C   0  0  0  0  0  0  0  0  0  0  0  0
    2.0600   -0.1624    0.0000 C   0  0  0  0  0  0  0  0  0  0  0  0
    2.7476    1.1707    0.0000 C   0  0  0  0  0  0  0  0  0  0  0  0
    4.2459    1.2418    0.0000 C   0  0  0  0  0  0  0  0  0  0  0  0
    5.0566   -0.0202    0.0000 C   0  0  0  0  0  0  0  0  0  0  0  0
    4.3690   -1.3533    0.0000 C   0  0  0  0  0  0  0  0  0  0  0  0
    2.8707   -1.4244    0.0000 C   0  0  0  0  0  0  0  0  0  0  0  0
   -2.5580    2.2196    0.0000 C   0  0  0  0  0  0  0  0  0  0  0  0
   -3.9333   -0.4467    0.0000 C   0  0  0  0  0  0  0  0  0  0  0  0
   -4.7440    0.8154    0.0000 O   0  0  0  0  0  0  0  0  0  0  0  0
   -4.6209   -1.7798    0.0000 O   0  0  0  0  0  0  0  0  0  0  0  0
  2  1  1  6
  2  3  1  0
  3  4  1  0
  4  5  1  0
  5  6  1  0
  6  7  2  0
  7  8  1  0
  8  9  2  0
  9 10  1  0
 10 11  2  0
  3 12  1  1
  2 13  1  0
 13 14  2  0
 13 15  1  0
 11  6  1  0
M  END
>  <rName>  (3405) 
Thr_Bn

>  <PQ_SYMBOL>  (3405) 
Thr_Bn

>  <FULL_NAME>  (3405) 
O3-benzyl-L-threonine

>  <IUPAC_CONDENSED>  (3405) 
Thr(Bn)

>  <IUPAC>  (3405) 
(2S,3R)-2-amino-3-benzyloxybutanoic acid

>  <TYPE>  (3405) 
Backbone

>  <CLASS>  (3405) 
alpha

>  <ANALOG>  (3405) 
Thr

>  <MOL_WT>  (3405) 
209.24499999999998

>  <LOGP>  (3405) 
1.0035999999999996

>  <TPSA>  (3405) 
72.55

>  <POPULARITY>  (3405) 
21.0

>  <PROTECTED>  (3405) 
TRUE

>  <SMILES>  (3405) 
N[C@@H]([C@H](OCc1(ccccc1))C)C(=O)O

>  <INCHIKEY>  (3405) 
ONOURAAVVKGJNM-SCZZXKLOSA-N

$$$$
Thr_Et
     RDKit          2D

 10  9  0  0  0  0  0  0  0  0999 V2000
   -0.1778    1.6944    0.0000 N   0  0  0  0  0  0  0  0  0  0  0  0
    0.5357    0.3749    0.0000 C   0  0  0  0  0  0  0  0  0  0  0  0
   -0.2503   -0.9027    0.0000 C   0  0  0  0  0  0  0  0  0  0  0  0
   -1.7497   -0.8608    0.0000 O   0  0  0  0  0  0  0  0  0  0  0  0
   -2.4632    0.4586    0.0000 C   0  0  0  0  0  0  0  0  0  0  0  0
   -3.9626    0.5005    0.0000 C   0  0  0  0  0  0  0  0  0  0  0  0
    0.4632   -2.2222    0.0000 C   0  0  0  0  0  0  0  0  0  0  0  0
    2.0351    0.3331    0.0000 C   0  0  0  0  0  0  0  0  0  0  0  0
    2.7485   -0.9864    0.0000 O   0  0  0  0  0  0  0  0  0  0  0  0
    2.8210    1.6107    0.0000 O   0  0  0  0  0  0  0  0  0  0  0  0
  2  1  1  6
  2  3  1  0
  3  4  1  0
  4  5  1  0
  5  6  1  0
  3  7  1  1
  2  8  1  0
  8  9  2  0
  8 10  1  0
M  END
>  <rName>  (3406) 
Thr_Et

>  <PQ_SYMBOL>  (3406) 
Thr_Et

>  <FULL_NAME>  (3406) 
O-ethyl-L-threonine

>  <IUPAC_CONDENSED>  (3406) 
Thr(Et)

>  <IUPAC>  (3406) 
(2S,3R)-2-amino-3-ethoxybutanoic acid

>  <TYPE>  (3406) 
Backbone

>  <CLASS>  (3406) 
alpha

>  <ANALOG>  (3406) 
Thr

>  <MOL_WT>  (3406) 
147.174

>  <LOGP>  (3406) 
-0.17670000000000036

>  <TPSA>  (3406) 
72.55

>  <POPULARITY>  (3406) 
11.0

>  <PROTECTED>  (3406) 
TRUE

>  <SMILES>  (3406) 
N[C@@H]([C@H](OCC)C)C(=O)O

>  <INCHIKEY>  (3406) 
LULHTUNPBBMNSJ-UHNVWZDZSA-N

$$$$
Thr_Me
     RDKit          2D

  9  8  0  0  0  0  0  0  0  0999 V2000
    0.3500    1.8226    0.0000 N   0  0  0  0  0  0  0  0  0  0  0  0
   -0.1586    0.4115    0.0000 C   0  0  0  0  0  0  0  0  0  0  0  0
    0.8093   -0.7345    0.0000 C   0  0  0  0  0  0  0  0  0  0  0  0
    2.2856   -0.4694    0.0000 O   0  0  0  0  0  0  0  0  0  0  0  0
    2.7942    0.9418    0.0000 C   0  0  0  0  0  0  0  0  0  0  0  0
    0.3007   -2.1457    0.0000 C   0  0  0  0  0  0  0  0  0  0  0  0
   -1.6349    0.1463    0.0000 C   0  0  0  0  0  0  0  0  0  0  0  0
   -2.1435   -1.2648    0.0000 O   0  0  0  0  0  0  0  0  0  0  0  0
   -2.6028    1.2923    0.0000 O   0  0  0  0  0  0  0  0  0  0  0  0
  2  1  1  1
  2  3  1  0
  3  4  1  0
  4  5  1  0
  3  6  1  6
  2  7  1  0
  7  8  2  0
  7  9  1  0
M  END
>  <rName>  (3407) 
Thr_Me

>  <PQ_SYMBOL>  (3407) 
Thr_Me

>  <FULL_NAME>  (3407) 
(2S,3R)-2-Amino-3-methoxybutanoic acid, O-Methyl-L-Threonine

>  <IUPAC_CONDENSED>  (3407) 
Thr(Me)

>  <IUPAC>  (3407) 
(2S,3R)-2-amino-3-methoxybutanoic acid

>  <TYPE>  (3407) 
Backbone

>  <CLASS>  (3407) 
alpha

>  <ANALOG>  (3407) 
Thr

>  <MOL_WT>  (3407) 
133.147

>  <LOGP>  (3407) 
-0.5668000000000002

>  <TPSA>  (3407) 
72.55

>  <POPULARITY>  (3407) 
20.8

>  <PROTECTED>  (3407) 
TRUE

>  <SMILES>  (3407) 
N[C@@H]([C@H](OC)C)C(=O)O

>  <INCHIKEY>  (3407) 
FYCWLJLGIAUCCL-DMTCNVIQSA-N

$$$$
Thr_OAla
     RDKit          2D

 13 12  0  0  0  0  0  0  0  0999 V2000
   -0.5489    1.5324    0.0000 N   0  0  0  0  0  0  0  0  0  0  0  0
   -1.3711    0.2778    0.0000 C   0  0  0  0  0  0  0  0  0  0  0  0
   -0.6957   -1.0616    0.0000 C   0  0  0  0  0  0  0  0  0  0  0  0
    0.8019   -1.1463    0.0000 O   0  0  0  0  0  0  0  0  0  0  0  0
    1.6241    0.1082    0.0000 C   0  0  0  0  0  0  0  0  0  0  0  0
    0.9487    1.4476    0.0000 O   0  0  0  0  0  0  0  0  0  0  0  0
    3.1217    0.0235    0.0000 C   0  0  0  0  0  0  0  0  0  0  0  0
    3.9439    1.2780    0.0000 C   0  0  0  0  0  0  0  0  0  0  0  0
    3.7971   -1.3159    0.0000 N   0  0  0  0  0  0  0  0  0  0  0  0
   -1.5179   -2.3161    0.0000 C   0  0  0  0  0  0  0  0  0  0  0  0
   -2.8687    0.3626    0.0000 C   0  0  0  0  0  0  0  0  0  0  0  0
   -3.6909   -0.8920    0.0000 O   0  0  0  0  0  0  0  0  0  0  0  0
   -3.5441    1.7019    0.0000 O   0  0  0  0  0  0  0  0  0  0  0  0
  2  1  1  1
  2  3  1  0
  3  4  1  0
  4  5  1  0
  5  6  2  0
  5  7  1  0
  7  8  1  6
  7  9  1  0
  3 10  1  6
  2 11  1  0
 11 12  2  0
 11 13  1  0
M  END
>  <rName>  (3408) 
Thr_OAla

>  <PQ_SYMBOL>  (3408) 
Thr_OAla

>  <FULL_NAME>  (3408) 
O-(L-alanyl)-L-threonine

>  <IUPAC_CONDENSED>  (3408) 
Thr(O-Ala)

>  <IUPAC>  (3408) 
(2S,3R)-2-amino-3-((1S)-1-aminoethylcarbonyloxy)butanoic acid

>  <TYPE>  (3408) 
Backbone

>  <CLASS>  (3408) 
alpha

>  <ANALOG>  (3408) 
Thr

>  <MOL_WT>  (3408) 
190.19899999999996

>  <LOGP>  (3408) 
-1.3227999999999989

>  <TPSA>  (3408) 
115.64

>  <POPULARITY>  (3408) 
8.0

>  <PROTECTED>  (3408) 
TRUE

>  <SMILES>  (3408) 
N[C@@H]([C@H](OC(=O)[C@H](C)N)C)C(=O)O

>  <INCHIKEY>  (3408) 
PAXPCEGUGMQDAF-LMVFSUKVSA-N

$$$$
Thr_OAsp
     RDKit          2D

 16 15  0  0  0  0  0  0  0  0999 V2000
   -1.4986   -1.4984    0.0000 N   0  0  0  0  0  0  0  0  0  0  0  0
   -2.4612   -0.3480    0.0000 C   0  0  0  0  0  0  0  0  0  0  0  0
   -1.9462    1.0608    0.0000 C   0  0  0  0  0  0  0  0  0  0  0  0
   -0.4686    1.3192    0.0000 O   0  0  0  0  0  0  0  0  0  0  0  0
    0.4939    0.1688    0.0000 C   0  0  0  0  0  0  0  0  0  0  0  0
   -0.0211   -1.2400    0.0000 O   0  0  0  0  0  0  0  0  0  0  0  0
    1.9715    0.4272    0.0000 C   0  0  0  0  0  0  0  0  0  0  0  0
    2.4865    1.8360    0.0000 N   0  0  0  0  0  0  0  0  0  0  0  0
    2.9341   -0.7232    0.0000 C   0  0  0  0  0  0  0  0  0  0  0  0
    4.4117   -0.4648    0.0000 C   0  0  0  0  0  0  0  0  0  0  0  0
    4.9267    0.9440    0.0000 O   0  0  0  0  0  0  0  0  0  0  0  0
    5.3742   -1.6152    0.0000 O   0  0  0  0  0  0  0  0  0  0  0  0
   -2.9088    2.2112    0.0000 C   0  0  0  0  0  0  0  0  0  0  0  0
   -3.9388   -0.6064    0.0000 C   0  0  0  0  0  0  0  0  0  0  0  0
   -4.9014    0.5440    0.0000 O   0  0  0  0  0  0  0  0  0  0  0  0
   -4.4538   -2.0152    0.0000 O   0  0  0  0  0  0  0  0  0  0  0  0
  2  1  1  6
  2  3  1  0
  3  4  1  0
  4  5  1  0
  5  6  2  0
  5  7  1  0
  7  8  1  1
  7  9  1  0
  9 10  1  0
 10 11  2  0
 10 12  1  0
  3 13  1  1
  2 14  1  0
 14 15  2  0
 14 16  1  0
M  END
>  <rName>  (3409) 
Thr_OAsp

>  <PQ_SYMBOL>  (3409) 
Thr_OAsp

>  <FULL_NAME>  (3409) 
(S)-3-amino-4-(((1S,2R)-1-amino-1-carboxypropan-2-yl)oxy)-4-oxobutanoic acid

>  <IUPAC_CONDENSED>  (3409) 
Thr(O-Asp)

>  <IUPAC>  (3409) 
(2S,3R)-2-amino-3-((1S)-1-amino-3-hydroxy-3-oxopropylcarbonyloxy)butanoic acid

>  <TYPE>  (3409) 
Backbone

>  <CLASS>  (3409) 
alpha

>  <ANALOG>  (3409) 
Thr

>  <MOL_WT>  (3409) 
234.20799999999997

>  <LOGP>  (3409) 
-1.8679999999999977

>  <TPSA>  (3409) 
152.94

>  <POPULARITY>  (3409) 
2.8

>  <PROTECTED>  (3409) 
TRUE

>  <SMILES>  (3409) 
N[C@@H]([C@H](OC(=O)[C@@H](N)CC(=O)O)C)C(=O)O

>  <INCHIKEY>  (3409) 
SQMGCUCFLOKZHF-IWGUZYHVSA-N

$$$$
Thr_OGln
     RDKit          2D

 17 16  0  0  0  0  0  0  0  0999 V2000
   -1.7119   -1.4407    0.0000 N   0  0  0  0  0  0  0  0  0  0  0  0
   -2.8269   -0.4373    0.0000 C   0  0  0  0  0  0  0  0  0  0  0  0
   -2.5154    1.0300    0.0000 C   0  0  0  0  0  0  0  0  0  0  0  0
   -1.0890    1.4940    0.0000 O   0  0  0  0  0  0  0  0  0  0  0  0
    0.0260    0.4906    0.0000 C   0  0  0  0  0  0  0  0  0  0  0  0
   -0.2854   -0.9767    0.0000 O   0  0  0  0  0  0  0  0  0  0  0  0
    1.4525    0.9545    0.0000 C   0  0  0  0  0  0  0  0  0  0  0  0
    1.7639    2.4218    0.0000 N   0  0  0  0  0  0  0  0  0  0  0  0
    2.5675   -0.0489    0.0000 C   0  0  0  0  0  0  0  0  0  0  0  0
    3.9939    0.4151    0.0000 C   0  0  0  0  0  0  0  0  0  0  0  0
    5.1089   -0.5883    0.0000 C   0  0  0  0  0  0  0  0  0  0  0  0
    4.7975   -2.0556    0.0000 O   0  0  0  0  0  0  0  0  0  0  0  0
    6.5354   -0.1244    0.0000 N   0  0  0  0  0  0  0  0  0  0  0  0
   -3.6304    2.0334    0.0000 C   0  0  0  0  0  0  0  0  0  0  0  0
   -4.2533   -0.9012    0.0000 C   0  0  0  0  0  0  0  0  0  0  0  0
   -5.3683    0.1022    0.0000 O   0  0  0  0  0  0  0  0  0  0  0  0
   -4.5648   -2.3685    0.0000 O   0  0  0  0  0  0  0  0  0  0  0  0
  2  1  1  6
  2  3  1  0
  3  4  1  0
  4  5  1  0
  5  6  2  0
  5  7  1  0
  7  8  1  1
  7  9  1  0
  9 10  1  0
 10 11  1  0
 11 12  2  0
 11 13  1  0
  3 14  1  1
  2 15  1  0
 15 16  2  0
 15 17  1  0
M  END
>  <rName>  (3410) 
Thr_OGln

>  <PQ_SYMBOL>  (3410) 
Thr_OGln

>  <FULL_NAME>  (3410) 
O-(L-glutaminyl)-L-threonine

>  <IUPAC_CONDENSED>  (3410) 
Thr(O-Gln)

>  <IUPAC>  (3410) 
(2S,3R)-2-amino-3-((1S)-1,4-diamino-4-oxobutylcarbonyloxy)butanoic acid

>  <TYPE>  (3410) 
Backbone

>  <CLASS>  (3410) 
alpha

>  <ANALOG>  (3410) 
Thr

>  <MOL_WT>  (3410) 
247.25099999999995

>  <LOGP>  (3410) 
-2.077199999999997

>  <TPSA>  (3410) 
158.73

>  <POPULARITY>  (3410) 
3.8

>  <PROTECTED>  (3410) 
TRUE

>  <SMILES>  (3410) 
N[C@@H]([C@H](OC(=O)[C@@H](N)CCC(=O)N)C)C(=O)O

>  <INCHIKEY>  (3410) 
BUWNPLBPFBHBJI-ZDLURKLDSA-N

$$$$
Thr_OGlu
     RDKit          2D

 17 16  0  0  0  0  0  0  0  0999 V2000
   -1.7119   -1.4407    0.0000 N   0  0  0  0  0  0  0  0  0  0  0  0
   -2.8269   -0.4373    0.0000 C   0  0  0  0  0  0  0  0  0  0  0  0
   -2.5154    1.0300    0.0000 C   0  0  0  0  0  0  0  0  0  0  0  0
   -1.0890    1.4940    0.0000 O   0  0  0  0  0  0  0  0  0  0  0  0
    0.0260    0.4906    0.0000 C   0  0  0  0  0  0  0  0  0  0  0  0
   -0.2854   -0.9767    0.0000 O   0  0  0  0  0  0  0  0  0  0  0  0
    1.4525    0.9545    0.0000 C   0  0  0  0  0  0  0  0  0  0  0  0
    1.7639    2.4218    0.0000 N   0  0  0  0  0  0  0  0  0  0  0  0
    2.5675   -0.0489    0.0000 C   0  0  0  0  0  0  0  0  0  0  0  0
    3.9939    0.4151    0.0000 C   0  0  0  0  0  0  0  0  0  0  0  0
    5.1089   -0.5883    0.0000 C   0  0  0  0  0  0  0  0  0  0  0  0
    4.7975   -2.0556    0.0000 O   0  0  0  0  0  0  0  0  0  0  0  0
    6.5354   -0.1244    0.0000 O   0  0  0  0  0  0  0  0  0  0  0  0
   -3.6304    2.0334    0.0000 C   0  0  0  0  0  0  0  0  0  0  0  0
   -4.2533   -0.9012    0.0000 C   0  0  0  0  0  0  0  0  0  0  0  0
   -5.3683    0.1022    0.0000 O   0  0  0  0  0  0  0  0  0  0  0  0
   -4.5648   -2.3685    0.0000 O   0  0  0  0  0  0  0  0  0  0  0  0
  2  1  1  6
  2  3  1  0
  3  4  1  0
  4  5  1  0
  5  6  2  0
  5  7  1  0
  7  8  1  1
  7  9  1  0
  9 10  1  0
 10 11  1  0
 11 12  2  0
 11 13  1  0
  3 14  1  1
  2 15  1  0
 15 16  2  0
 15 17  1  0
M  END
>  <rName>  (3411) 
Thr_OGlu

>  <PQ_SYMBOL>  (3411) 
Thr_OGlu

>  <FULL_NAME>  (3411) 
(S)-4-amino-5-(((1S,2R)-1-amino-1-carboxypropan-2-yl)oxy)-5-oxopentanoic acid

>  <IUPAC_CONDENSED>  (3411) 
Thr(O-Glu)

>  <IUPAC>  (3411) 
(4S)-4-amino-4-((((2R,3S)-3-amino-4-hydroxy-4-oxobutan-2-yl)oxy)carbonyl)butanoic acid

>  <TYPE>  (3411) 
Backbone

>  <CLASS>  (3411) 
alpha

>  <ANALOG>  (3411) 
Thr

>  <MOL_WT>  (3411) 
248.23499999999996

>  <LOGP>  (3411) 
-1.4778999999999987

>  <TPSA>  (3411) 
152.94

>  <POPULARITY>  (3411) 
2.8

>  <PROTECTED>  (3411) 
TRUE

>  <SMILES>  (3411) 
N[C@@H]([C@H](OC(=O)[C@@H](N)CCC(=O)O)C)C(=O)O

>  <INCHIKEY>  (3411) 
BTXGIZJHHULWEI-ZDLURKLDSA-N

$$$$
Thr_OGly
     RDKit          2D

 12 11  0  0  0  0  0  0  0  0999 V2000
   -0.0798   -1.4394    0.0000 N   0  0  0  0  0  0  0  0  0  0  0  0
   -1.0308   -0.2794    0.0000 C   0  0  0  0  0  0  0  0  0  0  0  0
   -0.5018    1.1242    0.0000 C   0  0  0  0  0  0  0  0  0  0  0  0
    0.9783    1.3678    0.0000 O   0  0  0  0  0  0  0  0  0  0  0  0
    1.9294    0.2079    0.0000 C   0  0  0  0  0  0  0  0  0  0  0  0
    1.4003   -1.1957    0.0000 O   0  0  0  0  0  0  0  0  0  0  0  0
    3.4094    0.4515    0.0000 C   0  0  0  0  0  0  0  0  0  0  0  0
    4.3605   -0.7085    0.0000 N   0  0  0  0  0  0  0  0  0  0  0  0
   -1.4528    2.2842    0.0000 C   0  0  0  0  0  0  0  0  0  0  0  0
   -2.5109   -0.5230    0.0000 C   0  0  0  0  0  0  0  0  0  0  0  0
   -3.0400   -1.9266    0.0000 O   0  0  0  0  0  0  0  0  0  0  0  0
   -3.4619    0.6370    0.0000 O   0  0  0  0  0  0  0  0  0  0  0  0
  2  1  1  6
  2  3  1  0
  3  4  1  0
  4  5  1  0
  5  6  2  0
  5  7  1  0
  7  8  1  0
  3  9  1  1
  2 10  1  0
 10 11  2  0
 10 12  1  0
M  END
>  <rName>  (3412) 
Thr_OGly

>  <PQ_SYMBOL>  (3412) 
Thr_OGly

>  <FULL_NAME>  (3412) 
O-glycyl-L-threonine

>  <IUPAC_CONDENSED>  (3412) 
Thr(O-Gly)

>  <IUPAC>  (3412) 
(2S,3R)-2-amino-3-(aminomethylcarbonyloxy)butanoic acid

>  <TYPE>  (3412) 
Backbone

>  <CLASS>  (3412) 
alpha

>  <ANALOG>  (3412) 
Thr

>  <MOL_WT>  (3412) 
176.172

>  <LOGP>  (3412) 
-1.7112999999999987

>  <TPSA>  (3412) 
115.64

>  <POPULARITY>  (3412) 
8.1

>  <PROTECTED>  (3412) 
TRUE

>  <SMILES>  (3412) 
N[C@@H]([C@H](OC(=O)CN)C)C(=O)O

>  <INCHIKEY>  (3412) 
MIYOEFIPPDFVIH-WUJLRWPWSA-N

$$$$
Thr_OHis
     RDKit          2D

 18 18  0  0  0  0  0  0  0  0999 V2000
   -2.2507   -1.5013    0.0000 N   0  0  0  0  0  0  0  0  0  0  0  0
   -3.2172   -0.3543    0.0000 C   0  0  0  0  0  0  0  0  0  0  0  0
   -2.7071    1.0563    0.0000 C   0  0  0  0  0  0  0  0  0  0  0  0
   -1.2305    1.3199    0.0000 O   0  0  0  0  0  0  0  0  0  0  0  0
   -0.2639    0.1728    0.0000 C   0  0  0  0  0  0  0  0  0  0  0  0
   -0.7740   -1.2378    0.0000 O   0  0  0  0  0  0  0  0  0  0  0  0
    1.2128    0.4364    0.0000 C   0  0  0  0  0  0  0  0  0  0  0  0
    1.7228    1.8470    0.0000 N   0  0  0  0  0  0  0  0  0  0  0  0
    2.1793   -0.7107    0.0000 C   0  0  0  0  0  0  0  0  0  0  0  0
    3.6560   -0.4471    0.0000 C   0  0  0  0  0  0  0  0  0  0  0  0
    4.7372   -1.4869    0.0000 C   0  0  0  0  0  0  0  0  0  0  0  0
    6.0601   -0.7799    0.0000 N   0  0  0  0  0  0  0  0  0  0  0  0
    5.7966    0.6968    0.0000 C   0  0  0  0  0  0  0  0  0  0  0  0
    4.3107    0.9024    0.0000 N   0  0  0  0  0  0  0  0  0  0  0  0
   -3.6737    2.2034    0.0000 C   0  0  0  0  0  0  0  0  0  0  0  0
   -4.6939   -0.6178    0.0000 C   0  0  0  0  0  0  0  0  0  0  0  0
   -5.6605    0.5292    0.0000 O   0  0  0  0  0  0  0  0  0  0  0  0
   -5.2040   -2.0284    0.0000 O   0  0  0  0  0  0  0  0  0  0  0  0
  2  1  1  6
  2  3  1  0
  3  4  1  0
  4  5  1  0
  5  6  2  0
  5  7  1  0
  7  8  1  1
  7  9  1  0
  9 10  1  0
 10 11  2  0
 11 12  1  0
 12 13  1  0
 13 14  2  0
  3 15  1  1
  2 16  1  0
 16 17  2  0
 16 18  1  0
 14 10  1  0
M  END
>  <rName>  (3413) 
Thr_OHis

>  <PQ_SYMBOL>  (3413) 
Thr_OHis

>  <FULL_NAME>  (3413) 
O-(L-histidyl)-L-threonine

>  <IUPAC_CONDENSED>  (3413) 
Thr(O-His)

>  <IUPAC>  (3413) 
(2S,3R)-2-amino-3-((1S)-1-amino-2-(1H-imidazol-4-yl)ethylcarbonyloxy)butanoic acid

>  <TYPE>  (3413) 
Backbone

>  <CLASS>  (3413) 
alpha

>  <ANALOG>  (3413) 
Thr

>  <MOL_WT>  (3413) 
256.262

>  <LOGP>  (3413) 
-1.376899999999999

>  <TPSA>  (3413) 
144.32

>  <POPULARITY>  (3413) 
2.2

>  <PROTECTED>  (3413) 
TRUE

>  <SMILES>  (3413) 
N[C@@H]([C@H](OC(=O)[C@@H](N)Cc1(c[nH]cn1))C)C(=O)O

>  <INCHIKEY>  (3413) 
PKLXWVCVNVHDQL-DTLFHODZSA-N

$$$$
Thr_OIle
     RDKit          2D

 16 15  0  0  0  0  0  0  0  0999 V2000
    0.9947   -1.3139    0.0000 N   0  0  0  0  0  0  0  0  0  0  0  0
    2.0186   -0.2177    0.0000 C   0  0  0  0  0  0  0  0  0  0  0  0
    1.5811    1.2171    0.0000 C   0  0  0  0  0  0  0  0  0  0  0  0
    0.1198    1.5557    0.0000 O   0  0  0  0  0  0  0  0  0  0  0  0
   -0.9040    0.4595    0.0000 C   0  0  0  0  0  0  0  0  0  0  0  0
   -0.4666   -0.9753    0.0000 O   0  0  0  0  0  0  0  0  0  0  0  0
   -2.3653    0.7980    0.0000 C   0  0  0  0  0  0  0  0  0  0  0  0
   -2.8027    2.2328    0.0000 N   0  0  0  0  0  0  0  0  0  0  0  0
   -3.3891   -0.2982    0.0000 C   0  0  0  0  0  0  0  0  0  0  0  0
   -4.8504    0.0403    0.0000 C   0  0  0  0  0  0  0  0  0  0  0  0
   -2.9517   -1.7330    0.0000 C   0  0  0  0  0  0  0  0  0  0  0  0
   -1.4904   -2.0716    0.0000 C   0  0  0  0  0  0  0  0  0  0  0  0
    2.6050    2.3134    0.0000 C   0  0  0  0  0  0  0  0  0  0  0  0
    3.4799   -0.5562    0.0000 C   0  0  0  0  0  0  0  0  0  0  0  0
    4.5037    0.5400    0.0000 O   0  0  0  0  0  0  0  0  0  0  0  0
    3.9173   -1.9910    0.0000 O   0  0  0  0  0  0  0  0  0  0  0  0
  2  1  1  1
  2  3  1  0
  3  4  1  0
  4  5  1  0
  5  6  2  0
  5  7  1  0
  7  8  1  6
  7  9  1  0
  9 10  1  6
  9 11  1  0
 11 12  1  0
  3 13  1  6
  2 14  1  0
 14 15  2  0
 14 16  1  0
M  END
>  <rName>  (3414) 
Thr_OIle

>  <PQ_SYMBOL>  (3414) 
Thr_OIle

>  <FULL_NAME>  (3414) 
O-(L-isoleucyl)-L-threonine

>  <IUPAC_CONDENSED>  (3414) 
Thr(O-Ile)

>  <IUPAC>  (3414) 
(2S,3R)-2-amino-3-((1S,2S)-1-amino-2-methylbutylcarbonyloxy)butanoic acid

>  <TYPE>  (3414) 
Backbone

>  <CLASS>  (3414) 
alpha

>  <ANALOG>  (3414) 
Thr

>  <MOL_WT>  (3414) 
232.27999999999997

>  <LOGP>  (3414) 
-0.2965999999999998

>  <TPSA>  (3414) 
115.64

>  <POPULARITY>  (3414) 
5.4

>  <PROTECTED>  (3414) 
TRUE

>  <SMILES>  (3414) 
N[C@@H]([C@H](OC(=O)[C@@H](N)[C@@H](C)CC)C)C(=O)O

>  <INCHIKEY>  (3414) 
UUKZOJWIRCCKAB-YWIQKCBGSA-N

$$$$
Thr_OLeu
     RDKit          2D

 16 15  0  0  0  0  0  0  0  0999 V2000
    1.4986    1.4984    0.0000 N   0  0  0  0  0  0  0  0  0  0  0  0
    2.4612    0.3480    0.0000 C   0  0  0  0  0  0  0  0  0  0  0  0
    1.9462   -1.0608    0.0000 C   0  0  0  0  0  0  0  0  0  0  0  0
    0.4686   -1.3192    0.0000 O   0  0  0  0  0  0  0  0  0  0  0  0
   -0.4939   -0.1688    0.0000 C   0  0  0  0  0  0  0  0  0  0  0  0
    0.0211    1.2400    0.0000 O   0  0  0  0  0  0  0  0  0  0  0  0
   -1.9715   -0.4272    0.0000 C   0  0  0  0  0  0  0  0  0  0  0  0
   -2.4865   -1.8360    0.0000 N   0  0  0  0  0  0  0  0  0  0  0  0
   -2.9341    0.7232    0.0000 C   0  0  0  0  0  0  0  0  0  0  0  0
   -4.4117    0.4648    0.0000 C   0  0  0  0  0  0  0  0  0  0  0  0
   -5.3742    1.6152    0.0000 C   0  0  0  0  0  0  0  0  0  0  0  0
   -4.9267   -0.9440    0.0000 C   0  0  0  0  0  0  0  0  0  0  0  0
    2.9088   -2.2112    0.0000 C   0  0  0  0  0  0  0  0  0  0  0  0
    3.9388    0.6064    0.0000 C   0  0  0  0  0  0  0  0  0  0  0  0
    4.9014   -0.5440    0.0000 O   0  0  0  0  0  0  0  0  0  0  0  0
    4.4538    2.0152    0.0000 O   0  0  0  0  0  0  0  0  0  0  0  0
  2  1  1  6
  2  3  1  0
  3  4  1  0
  4  5  1  0
  5  6  2  0
  5  7  1  0
  7  8  1  1
  7  9  1  0
  9 10  1  0
 10 11  1  0
 10 12  1  0
  3 13  1  1
  2 14  1  0
 14 15  2  0
 14 16  1  0
M  END
>  <rName>  (3415) 
Thr_OLeu

>  <PQ_SYMBOL>  (3415) 
Thr_OLeu

>  <FULL_NAME>  (3415) 
O-(L-leucyl)-L-threonine

>  <IUPAC_CONDENSED>  (3415) 
Thr(O-Leu)

>  <IUPAC>  (3415) 
(2S,3R)-2-amino-3-((1S)-1-amino-3-methylbutylcarbonyloxy)butanoic acid

>  <TYPE>  (3415) 
Backbone

>  <CLASS>  (3415) 
alpha

>  <ANALOG>  (3415) 
Thr

>  <MOL_WT>  (3415) 
232.27999999999997

>  <LOGP>  (3415) 
-0.2965999999999998

>  <TPSA>  (3415) 
115.64

>  <POPULARITY>  (3415) 
5.3

>  <PROTECTED>  (3415) 
TRUE

>  <SMILES>  (3415) 
N[C@@H]([C@H](OC(=O)[C@@H](N)CC(C)C)C)C(=O)O

>  <INCHIKEY>  (3415) 
DYNITRWDUHBGGK-CSMHCCOUSA-N

$$$$
Thr_OLys
     RDKit          2D

 17 16  0  0  0  0  0  0  0  0999 V2000
   -1.8868   -1.4863    0.0000 N   0  0  0  0  0  0  0  0  0  0  0  0
   -2.9970   -0.4777    0.0000 C   0  0  0  0  0  0  0  0  0  0  0  0
   -2.6786    0.9881    0.0000 C   0  0  0  0  0  0  0  0  0  0  0  0
   -1.2500    1.4453    0.0000 O   0  0  0  0  0  0  0  0  0  0  0  0
   -0.1397    0.4367    0.0000 C   0  0  0  0  0  0  0  0  0  0  0  0
   -0.4581   -1.0292    0.0000 O   0  0  0  0  0  0  0  0  0  0  0  0
    1.2889    0.8939    0.0000 C   0  0  0  0  0  0  0  0  0  0  0  0
    1.6073    2.3597    0.0000 N   0  0  0  0  0  0  0  0  0  0  0  0
    2.3991   -0.1148    0.0000 C   0  0  0  0  0  0  0  0  0  0  0  0
    3.8278    0.3424    0.0000 C   0  0  0  0  0  0  0  0  0  0  0  0
    4.9380   -0.6662    0.0000 C   0  0  0  0  0  0  0  0  0  0  0  0
    6.3666   -0.2091    0.0000 C   0  0  0  0  0  0  0  0  0  0  0  0
    7.4769   -1.2177    0.0000 N   0  0  0  0  0  0  0  0  0  0  0  0
   -3.7889    1.9968    0.0000 C   0  0  0  0  0  0  0  0  0  0  0  0
   -4.4256   -0.9349    0.0000 C   0  0  0  0  0  0  0  0  0  0  0  0
   -5.5359    0.0738    0.0000 O   0  0  0  0  0  0  0  0  0  0  0  0
   -4.7440   -2.4007    0.0000 O   0  0  0  0  0  0  0  0  0  0  0  0
  2  1  1  6
  2  3  1  0
  3  4  1  0
  4  5  1  0
  5  6  2  0
  5  7  1  0
  7  8  1  1
  7  9  1  0
  9 10  1  0
 10 11  1  0
 11 12  1  0
 12 13  1  0
  3 14  1  1
  2 15  1  0
 15 16  2  0
 15 17  1  0
M  END
>  <rName>  (3416) 
Thr_OLys

>  <PQ_SYMBOL>  (3416) 
Thr_OLys

>  <FULL_NAME>  (3416) 
O-(L-lysyl)-L-threonine

>  <IUPAC_CONDENSED>  (3416) 
Thr(O-Lys)

>  <IUPAC>  (3416) 
(2S,3R)-2-amino-3-((1S)-1,5-diaminopentylcarbonyloxy)butanoic acid

>  <TYPE>  (3416) 
Backbone

>  <CLASS>  (3416) 
alpha

>  <ANALOG>  (3416) 
Thr

>  <MOL_WT>  (3416) 
247.29499999999993

>  <LOGP>  (3416) 
-1.2136999999999973

>  <TPSA>  (3416) 
141.66

>  <POPULARITY>  (3416) 
3.3

>  <PROTECTED>  (3416) 
TRUE

>  <SMILES>  (3416) 
N[C@@H]([C@H](OC(=O)[C@@H](N)CCCCN)C)C(=O)O

>  <INCHIKEY>  (3416) 
YXWOQGIBMMTCMO-CSMHCCOUSA-N

$$$$
Thr_OMet
     RDKit          2D

 16 15  0  0  0  0  0  0  0  0999 V2000
    1.5055    1.4798    0.0000 N   0  0  0  0  0  0  0  0  0  0  0  0
    2.5569    0.4100    0.0000 C   0  0  0  0  0  0  0  0  0  0  0  0
    2.1563   -1.0355    0.0000 C   0  0  0  0  0  0  0  0  0  0  0  0
    0.7041   -1.4112    0.0000 O   0  0  0  0  0  0  0  0  0  0  0  0
   -0.3474   -0.3415    0.0000 C   0  0  0  0  0  0  0  0  0  0  0  0
    0.0533    1.1040    0.0000 O   0  0  0  0  0  0  0  0  0  0  0  0
   -1.7996   -0.7172    0.0000 C   0  0  0  0  0  0  0  0  0  0  0  0
   -2.2003   -2.1627    0.0000 N   0  0  0  0  0  0  0  0  0  0  0  0
   -2.8511    0.3525    0.0000 C   0  0  0  0  0  0  0  0  0  0  0  0
   -4.3033   -0.0232    0.0000 C   0  0  0  0  0  0  0  0  0  0  0  0
   -5.3547    1.0465    0.0000 S   0  0  0  0  0  0  0  0  0  0  0  0
   -6.8069    0.6708    0.0000 C   0  0  0  0  0  0  0  0  0  0  0  0
    3.2077   -2.1052    0.0000 C   0  0  0  0  0  0  0  0  0  0  0  0
    4.0091    0.7857    0.0000 C   0  0  0  0  0  0  0  0  0  0  0  0
    5.0606   -0.2840    0.0000 O   0  0  0  0  0  0  0  0  0  0  0  0
    4.4098    2.2312    0.0000 O   0  0  0  0  0  0  0  0  0  0  0  0
  2  1  1  6
  2  3  1  0
  3  4  1  0
  4  5  1  0
  5  6  2  0
  5  7  1  0
  7  8  1  1
  7  9  1  0
  9 10  1  0
 10 11  1  0
 11 12  1  0
  3 13  1  1
  2 14  1  0
 14 15  2  0
 14 16  1  0
M  END
>  <rName>  (3417) 
Thr_OMet

>  <PQ_SYMBOL>  (3417) 
Thr_OMet

>  <FULL_NAME>  (3417) 
O-(L-methionyl)-L-threonine

>  <IUPAC_CONDENSED>  (3417) 
Thr(O-Met)

>  <IUPAC>  (3417) 
(2S,3R)-2-amino-3-((1S)-1-amino-3-(methylsulfanyl)propylcarbonyloxy)butanoic acid

>  <TYPE>  (3417) 
Backbone

>  <CLASS>  (3417) 
alpha

>  <ANALOG>  (3417) 
Thr

>  <MOL_WT>  (3417) 
250.31999999999996

>  <LOGP>  (3417) 
-0.5895999999999995

>  <TPSA>  (3417) 
115.64

>  <POPULARITY>  (3417) 
2.8

>  <PROTECTED>  (3417) 
TRUE

>  <SMILES>  (3417) 
N[C@@H]([C@H](OC(=O)[C@@H](N)CCSC)C)C(=O)O

>  <INCHIKEY>  (3417) 
POJUOPTXKKQYKO-VQVTYTSYSA-N

$$$$
Thr_OPhe
     RDKit          2D

 19 19  0  0  0  0  0  0  0  0999 V2000
   -2.5778   -1.5038    0.0000 N   0  0  0  0  0  0  0  0  0  0  0  0
   -3.5452   -0.3574    0.0000 C   0  0  0  0  0  0  0  0  0  0  0  0
   -3.0361    1.0535    0.0000 C   0  0  0  0  0  0  0  0  0  0  0  0
   -1.5596    1.3181    0.0000 O   0  0  0  0  0  0  0  0  0  0  0  0
   -0.5922    0.1717    0.0000 C   0  0  0  0  0  0  0  0  0  0  0  0
   -1.1013   -1.2392    0.0000 O   0  0  0  0  0  0  0  0  0  0  0  0
    0.8843    0.4363    0.0000 C   0  0  0  0  0  0  0  0  0  0  0  0
    1.3934    1.8472    0.0000 N   0  0  0  0  0  0  0  0  0  0  0  0
    1.8516   -0.7101    0.0000 C   0  0  0  0  0  0  0  0  0  0  0  0
    3.3281   -0.4455    0.0000 C   0  0  0  0  0  0  0  0  0  0  0  0
    3.8372    0.9654    0.0000 C   0  0  0  0  0  0  0  0  0  0  0  0
    5.3137    1.2300    0.0000 C   0  0  0  0  0  0  0  0  0  0  0  0
    6.2811    0.0836    0.0000 C   0  0  0  0  0  0  0  0  0  0  0  0
    5.7720   -1.3273    0.0000 C   0  0  0  0  0  0  0  0  0  0  0  0
    4.2955   -1.5919    0.0000 C   0  0  0  0  0  0  0  0  0  0  0  0
   -4.0034    2.1999    0.0000 C   0  0  0  0  0  0  0  0  0  0  0  0
   -5.0217   -0.6220    0.0000 C   0  0  0  0  0  0  0  0  0  0  0  0
   -5.9890    0.5244    0.0000 O   0  0  0  0  0  0  0  0  0  0  0  0
   -5.5308   -2.0329    0.0000 O   0  0  0  0  0  0  0  0  0  0  0  0
  2  1  1  6
  2  3  1  0
  3  4  1  0
  4  5  1  0
  5  6  2  0
  5  7  1  0
  7  8  1  1
  7  9  1  0
  9 10  1  0
 10 11  2  0
 11 12  1  0
 12 13  2  0
 13 14  1  0
 14 15  2  0
  3 16  1  1
  2 17  1  0
 17 18  2  0
 17 19  1  0
 15 10  1  0
M  END
>  <rName>  (3418) 
Thr_OPhe

>  <PQ_SYMBOL>  (3418) 
Thr_OPhe

>  <FULL_NAME>  (3418) 
O-(L-phenylalanyl)-L-threonine

>  <IUPAC_CONDENSED>  (3418) 
Thr(O-Phe)

>  <IUPAC>  (3418) 
(2S,3R)-2-amino-3-((1S)-1-amino-2-phenylethylcarbonyloxy)butanoic acid

>  <TYPE>  (3418) 
Backbone

>  <CLASS>  (3418) 
alpha

>  <ANALOG>  (3418) 
Thr

>  <MOL_WT>  (3418) 
266.29699999999997

>  <LOGP>  (3418) 
-0.09999999999999926

>  <TPSA>  (3418) 
115.64

>  <POPULARITY>  (3418) 
5.1

>  <PROTECTED>  (3418) 
TRUE

>  <SMILES>  (3418) 
N[C@@H]([C@H](OC(=O)[C@@H](N)Cc1(ccccc1))C)C(=O)O

>  <INCHIKEY>  (3418) 
IKQYHLGTABGTFX-MIMYLULJSA-N

$$$$
Thr_OSer
     RDKit          2D

 14 13  0  0  0  0  0  0  0  0999 V2000
   -0.8391   -1.5064    0.0000 N   0  0  0  0  0  0  0  0  0  0  0  0
   -1.7431   -0.3093    0.0000 C   0  0  0  0  0  0  0  0  0  0  0  0
   -1.1584    1.0720    0.0000 C   0  0  0  0  0  0  0  0  0  0  0  0
    0.3303    1.2564    0.0000 O   0  0  0  0  0  0  0  0  0  0  0  0
    1.2342    0.0593    0.0000 C   0  0  0  0  0  0  0  0  0  0  0  0
    0.6495   -1.3220    0.0000 O   0  0  0  0  0  0  0  0  0  0  0  0
    2.7228    0.2437    0.0000 C   0  0  0  0  0  0  0  0  0  0  0  0
    3.3075    1.6250    0.0000 N   0  0  0  0  0  0  0  0  0  0  0  0
    3.6268   -0.9534    0.0000 C   0  0  0  0  0  0  0  0  0  0  0  0
    5.1154   -0.7690    0.0000 O   0  0  0  0  0  0  0  0  0  0  0  0
   -2.0623    2.2691    0.0000 C   0  0  0  0  0  0  0  0  0  0  0  0
   -3.2317   -0.4937    0.0000 C   0  0  0  0  0  0  0  0  0  0  0  0
   -4.1356    0.7034    0.0000 O   0  0  0  0  0  0  0  0  0  0  0  0
   -3.8164   -1.8750    0.0000 O   0  0  0  0  0  0  0  0  0  0  0  0
  2  1  1  6
  2  3  1  0
  3  4  1  0
  4  5  1  0
  5  6  2  0
  5  7  1  0
  7  8  1  1
  7  9  1  0
  9 10  1  0
  3 11  1  1
  2 12  1  0
 12 13  2  0
 12 14  1  0
M  END
>  <rName>  (3419) 
Thr_OSer

>  <PQ_SYMBOL>  (3419) 
Thr_OSer

>  <FULL_NAME>  (3419) 
O-(L-seryl)-L-threonine

>  <IUPAC_CONDENSED>  (3419) 
Thr(O-Ser)

>  <IUPAC>  (3419) 
(2S,3R)-2-amino-3-((1S)-1-amino-2-hydroxyethylcarbonyloxy)butanoic acid

>  <TYPE>  (3419) 
Backbone

>  <CLASS>  (3419) 
alpha

>  <ANALOG>  (3419) 
Thr

>  <MOL_WT>  (3419) 
206.19799999999998

>  <LOGP>  (3419) 
-2.3503999999999987

>  <TPSA>  (3419) 
135.87

>  <POPULARITY>  (3419) 
5.0

>  <PROTECTED>  (3419) 
TRUE

>  <SMILES>  (3419) 
N[C@@H]([C@H](OC(=O)[C@@H](N)CO)C)C(=O)O

>  <INCHIKEY>  (3419) 
OTAJDSDBSOANJV-WISUUJSJSA-N

$$$$
Thr_OTrp
     RDKit          2D

 22 23  0  0  0  0  0  0  0  0999 V2000
   -3.1917    1.5277    0.0000 N   0  0  0  0  0  0  0  0  0  0  0  0
   -4.3335    0.5549    0.0000 C   0  0  0  0  0  0  0  0  0  0  0  0
   -4.0620   -0.9203    0.0000 C   0  0  0  0  0  0  0  0  0  0  0  0
   -2.6486   -1.4228    0.0000 O   0  0  0  0  0  0  0  0  0  0  0  0
   -1.5068   -0.4500    0.0000 C   0  0  0  0  0  0  0  0  0  0  0  0
   -1.7783    1.0252    0.0000 O   0  0  0  0  0  0  0  0  0  0  0  0
   -0.0935   -0.9525    0.0000 C   0  0  0  0  0  0  0  0  0  0  0  0
    0.1780   -2.4277    0.0000 N   0  0  0  0  0  0  0  0  0  0  0  0
    1.0483    0.0203    0.0000 C   0  0  0  0  0  0  0  0  0  0  0  0
    2.4617   -0.4822    0.0000 C   0  0  0  0  0  0  0  0  0  0  0  0
    2.8859   -1.9210    0.0000 C   0  0  0  0  0  0  0  0  0  0  0  0
    4.3854   -1.9621    0.0000 N   0  0  0  0  0  0  0  0  0  0  0  0
    4.8878   -0.5487    0.0000 C   0  0  0  0  0  0  0  0  0  0  0  0
    6.2743    0.0236    0.0000 C   0  0  0  0  0  0  0  0  0  0  0  0
    6.4720    1.5105    0.0000 C   0  0  0  0  0  0  0  0  0  0  0  0
    5.2831    2.4251    0.0000 C   0  0  0  0  0  0  0  0  0  0  0  0
    3.8966    1.8528    0.0000 C   0  0  0  0  0  0  0  0  0  0  0  0
    3.6989    0.3659    0.0000 C   0  0  0  0  0  0  0  0  0  0  0  0
   -5.2038   -1.8931    0.0000 C   0  0  0  0  0  0  0  0  0  0  0  0
   -5.7468    1.0574    0.0000 C   0  0  0  0  0  0  0  0  0  0  0  0
   -6.8887    0.0846    0.0000 O   0  0  0  0  0  0  0  0  0  0  0  0
   -6.0184    2.5326    0.0000 O   0  0  0  0  0  0  0  0  0  0  0  0
  2  1  1  1
  2  3  1  0
  3  4  1  0
  4  5  1  0
  5  6  2  0
  5  7  1  0
  7  8  1  6
  7  9  1  0
  9 10  1  0
 10 11  2  0
 11 12  1  0
 12 13  1  0
 13 14  2  0
 14 15  1  0
 15 16  2  0
 16 17  1  0
 17 18  2  0
  3 19  1  6
  2 20  1  0
 20 21  2  0
 20 22  1  0
 18 13  1  0
 18 10  1  0
M  END
>  <rName>  (3420) 
Thr_OTrp

>  <PQ_SYMBOL>  (3420) 
Thr_OTrp

>  <FULL_NAME>  (3420) 
O-(L-tryptophyl)-L-threonine

>  <IUPAC_CONDENSED>  (3420) 
Thr(O-Trp)

>  <IUPAC>  (3420) 
(2S,3R)-2-amino-3-((1S)-1-amino-2-(1H-indol-3-yl)ethylcarbonyloxy)butanoic acid

>  <TYPE>  (3420) 
Backbone

>  <CLASS>  (3420) 
alpha

>  <ANALOG>  (3420) 
Thr

>  <MOL_WT>  (3420) 
305.33400000000006

>  <LOGP>  (3420) 
0.38130000000000036

>  <TPSA>  (3420) 
131.42999999999998

>  <POPULARITY>  (3420) 
3.8

>  <PROTECTED>  (3420) 
TRUE

>  <SMILES>  (3420) 
N[C@@H]([C@H](OC(=O)[C@@H](N)Cc2(c[nH]c1(ccccc12)))C)C(=O)O

>  <INCHIKEY>  (3420) 
PBUAOWPNXMSGKY-WLTAIBSBSA-N

$$$$
Thr_OTyr
     RDKit          2D

 20 20  0  0  0  0  0  0  0  0999 V2000
   -2.9777   -1.4975    0.0000 N   0  0  0  0  0  0  0  0  0  0  0  0
   -3.9359   -0.3434    0.0000 C   0  0  0  0  0  0  0  0  0  0  0  0
   -3.4155    1.0635    0.0000 C   0  0  0  0  0  0  0  0  0  0  0  0
   -1.9370    1.3162    0.0000 O   0  0  0  0  0  0  0  0  0  0  0  0
   -0.9788    0.1621    0.0000 C   0  0  0  0  0  0  0  0  0  0  0  0
   -1.4992   -1.2447    0.0000 O   0  0  0  0  0  0  0  0  0  0  0  0
    0.4997    0.4149    0.0000 C   0  0  0  0  0  0  0  0  0  0  0  0
    1.0201    1.8217    0.0000 N   0  0  0  0  0  0  0  0  0  0  0  0
    1.4579   -0.7392    0.0000 C   0  0  0  0  0  0  0  0  0  0  0  0
    2.9365   -0.4864    0.0000 C   0  0  0  0  0  0  0  0  0  0  0  0
    3.4568    0.9204    0.0000 C   0  0  0  0  0  0  0  0  0  0  0  0
    4.9354    1.1732    0.0000 C   0  0  0  0  0  0  0  0  0  0  0  0
    5.8936    0.0191    0.0000 C   0  0  0  0  0  0  0  0  0  0  0  0
    7.3721    0.2719    0.0000 O   0  0  0  0  0  0  0  0  0  0  0  0
    5.3732   -1.3877    0.0000 C   0  0  0  0  0  0  0  0  0  0  0  0
    3.8946   -1.6405    0.0000 C   0  0  0  0  0  0  0  0  0  0  0  0
   -4.3737    2.2175    0.0000 C   0  0  0  0  0  0  0  0  0  0  0  0
   -5.4145   -0.5962    0.0000 C   0  0  0  0  0  0  0  0  0  0  0  0
   -6.3726    0.5579    0.0000 O   0  0  0  0  0  0  0  0  0  0  0  0
   -5.9348   -2.0030    0.0000 O   0  0  0  0  0  0  0  0  0  0  0  0
  2  1  1  6
  2  3  1  0
  3  4  1  0
  4  5  1  0
  5  6  2  0
  5  7  1  0
  7  8  1  1
  7  9  1  0
  9 10  1  0
 10 11  1  0
 11 12  2  0
 12 13  1  0
 13 14  1  0
 13 15  2  0
 15 16  1  0
  3 17  1  1
  2 18  1  0
 18 19  2  0
 18 20  1  0
 16 10  2  0
M  END
>  <rName>  (3421) 
Thr_OTyr

>  <PQ_SYMBOL>  (3421) 
Thr_OTyr

>  <FULL_NAME>  (3421) 
O-(L-tyrosyl)-L-threonine

>  <IUPAC_CONDENSED>  (3421) 
Thr(O-Tyr)

>  <IUPAC>  (3421) 
(2S,3R)-2-amino-3-((1S)-1-amino-2-(4-hydroxyphenyl)ethylcarbonyloxy)butanoic acid

>  <TYPE>  (3421) 
Backbone

>  <CLASS>  (3421) 
alpha

>  <ANALOG>  (3421) 
Thr

>  <MOL_WT>  (3421) 
282.296

>  <LOGP>  (3421) 
-0.39439999999999925

>  <TPSA>  (3421) 
135.87

>  <POPULARITY>  (3421) 
5.0

>  <PROTECTED>  (3421) 
TRUE

>  <SMILES>  (3421) 
N[C@@H]([C@H](OC(=O)[C@@H](N)Cc1(ccc(O)cc1))C)C(=O)O

>  <INCHIKEY>  (3421) 
LJCSZIJLALGPLZ-GGVZMXCHSA-N

$$$$
Thr_OVal
     RDKit          2D

 15 14  0  0  0  0  0  0  0  0999 V2000
    0.9451   -1.4201    0.0000 N   0  0  0  0  0  0  0  0  0  0  0  0
    1.9304   -0.2891    0.0000 C   0  0  0  0  0  0  0  0  0  0  0  0
    1.4435    1.1297    0.0000 C   0  0  0  0  0  0  0  0  0  0  0  0
   -0.0286    1.4175    0.0000 O   0  0  0  0  0  0  0  0  0  0  0  0
   -1.0139    0.2864    0.0000 C   0  0  0  0  0  0  0  0  0  0  0  0
   -0.5270   -1.1324    0.0000 O   0  0  0  0  0  0  0  0  0  0  0  0
   -2.4860    0.5742    0.0000 C   0  0  0  0  0  0  0  0  0  0  0  0
   -2.9729    1.9930    0.0000 N   0  0  0  0  0  0  0  0  0  0  0  0
   -3.4713   -0.5568    0.0000 C   0  0  0  0  0  0  0  0  0  0  0  0
   -4.9434   -0.2690    0.0000 C   0  0  0  0  0  0  0  0  0  0  0  0
   -2.9845   -1.9756    0.0000 C   0  0  0  0  0  0  0  0  0  0  0  0
    2.4288    2.2607    0.0000 C   0  0  0  0  0  0  0  0  0  0  0  0
    3.4025   -0.5769    0.0000 C   0  0  0  0  0  0  0  0  0  0  0  0
    4.3878    0.5541    0.0000 O   0  0  0  0  0  0  0  0  0  0  0  0
    3.8894   -1.9957    0.0000 O   0  0  0  0  0  0  0  0  0  0  0  0
  2  1  1  1
  2  3  1  0
  3  4  1  0
  4  5  1  0
  5  6  2  0
  5  7  1  0
  7  8  1  6
  7  9  1  0
  9 10  1  0
  9 11  1  0
  3 12  1  6
  2 13  1  0
 13 14  2  0
 13 15  1  0
M  END
>  <rName>  (3422) 
Thr_OVal

>  <PQ_SYMBOL>  (3422) 
Thr_OVal

>  <FULL_NAME>  (3422) 
O-(L-valyl)-L-threonine

>  <IUPAC_CONDENSED>  (3422) 
Thr(O-Val)

>  <IUPAC>  (3422) 
(2S,3R)-2-amino-3-((1S)-1-amino-2-methylpropylcarbonyloxy)butanoic acid

>  <TYPE>  (3422) 
Backbone

>  <CLASS>  (3422) 
alpha

>  <ANALOG>  (3422) 
Thr

>  <MOL_WT>  (3422) 
218.253

>  <LOGP>  (3422) 
-0.6866999999999994

>  <TPSA>  (3422) 
115.64

>  <POPULARITY>  (3422) 
8.5

>  <PROTECTED>  (3422) 
TRUE

>  <SMILES>  (3422) 
N[C@@H]([C@H](OC(=O)[C@@H](N)C(C)C)C)C(=O)O

>  <INCHIKEY>  (3422) 
KLFVKVGMKBUROO-VQVTYTSYSA-N

$$$$
Thr_PO3H2
     RDKit          2D

 12 11  0  0  0  0  0  0  0  0999 V2000
   -0.0306   -1.5204    0.0000 N   0  0  0  0  0  0  0  0  0  0  0  0
   -0.8599   -0.2705    0.0000 C   0  0  0  0  0  0  0  0  0  0  0  0
   -0.1920    1.0727    0.0000 C   0  0  0  0  0  0  0  0  0  0  0  0
    1.3051    1.1659    0.0000 O   0  0  0  0  0  0  0  0  0  0  0  0
    2.1343   -0.0841    0.0000 P   0  0  0  0  0  0  0  0  0  0  0  0
    3.3843    0.7452    0.0000 O   0  0  0  0  0  0  0  0  0  0  0  0
    0.8844   -0.9133    0.0000 O   0  0  0  0  0  0  0  0  0  0  0  0
    2.9636   -1.3340    0.0000 O   0  0  0  0  0  0  0  0  0  0  0  0
   -1.0213    2.3226    0.0000 C   0  0  0  0  0  0  0  0  0  0  0  0
   -2.3570   -0.3637    0.0000 C   0  0  0  0  0  0  0  0  0  0  0  0
   -3.1862    0.8863    0.0000 O   0  0  0  0  0  0  0  0  0  0  0  0
   -3.0248   -1.7068    0.0000 O   0  0  0  0  0  0  0  0  0  0  0  0
  2  1  1  6
  2  3  1  0
  3  4  1  0
  4  5  1  0
  5  6  2  0
  5  7  1  0
  5  8  1  0
  3  9  1  1
  2 10  1  0
 10 11  2  0
 10 12  1  0
M  END
>  <rName>  (3423) 
Thr_PO3H2

>  <PQ_SYMBOL>  (3423) 
Thr_PO3H2

>  <FULL_NAME>  (3423) 
O-Phospho-L-Threonine, (2S,3R)-O-Phosphothreonine

>  <IUPAC_CONDENSED>  (3423) 
Thr(PO3H2)

>  <IUPAC>  (3423) 
(2R,3S)-3-amino-4-hydroxy-4-oxobutan-2-yl dihydrogen phosphate

>  <TYPE>  (3423) 
Backbone

>  <CLASS>  (3423) 
alpha

>  <ANALOG>  (3423) 
Thr

>  <MOL_WT>  (3423) 
199.099

>  <LOGP>  (3423) 
-1.1039000000000005

>  <TPSA>  (3423) 
130.07999999999998

>  <POPULARITY>  (3423) 
49.8

>  <PROTECTED>  (3423) 
TRUE

>  <SMILES>  (3423) 
N[C@@H]([C@H](OP(=O)(O)O)C)C(=O)O

>  <INCHIKEY>  (3423) 
USRGIUJOYOXOQJ-GBXIJSLDSA-N

$$$$
Thr_PyranoseNAc_RR
     RDKit          2D

 22 22  0  0  0  0  0  0  0  0999 V2000
   -4.6957   -3.0915    0.0000 C   0  0  0  0  0  0  0  0  0  0  0  0
   -3.9352   -1.7986    0.0000 C   0  0  0  0  0  0  0  0  0  0  0  0
   -4.6746   -0.4935    0.0000 O   0  0  0  0  0  0  0  0  0  0  0  0
   -2.4352   -1.8108    0.0000 N   0  0  0  0  0  0  0  0  0  0  0  0
   -1.6747   -0.5179    0.0000 C   0  0  0  0  0  0  0  0  0  0  0  0
   -2.4142    0.7872    0.0000 C   0  0  0  0  0  0  0  0  0  0  0  0
   -3.9141    0.7994    0.0000 O   0  0  0  0  0  0  0  0  0  0  0  0
   -1.6536    2.0801    0.0000 C   0  0  0  0  0  0  0  0  0  0  0  0
   -2.3931    3.3852    0.0000 O   0  0  0  0  0  0  0  0  0  0  0  0
   -0.1537    2.0680    0.0000 C   0  0  0  0  0  0  0  0  0  0  0  0
    0.6068    3.3609    0.0000 C   0  0  0  0  0  0  0  0  0  0  0  0
    2.1068    3.3487    0.0000 O   0  0  0  0  0  0  0  0  0  0  0  0
    0.5857    0.7629    0.0000 O   0  0  0  0  0  0  0  0  0  0  0  0
   -0.1748   -0.5300    0.0000 C   0  0  0  0  0  0  0  0  0  0  0  0
    0.5647   -1.8351    0.0000 O   0  0  0  0  0  0  0  0  0  0  0  0
    2.0646   -1.8473    0.0000 C   0  0  0  0  0  0  0  0  0  0  0  0
    2.8041   -3.1523    0.0000 C   0  0  0  0  0  0  0  0  0  0  0  0
    2.8251   -0.5543    0.0000 C   0  0  0  0  0  0  0  0  0  0  0  0
    2.0857    0.7507    0.0000 N   0  0  0  0  0  0  0  0  0  0  0  0
    4.3251   -0.5665    0.0000 C   0  0  0  0  0  0  0  0  0  0  0  0
    5.0645   -1.8716    0.0000 O   0  0  0  0  0  0  0  0  0  0  0  0
    5.0856    0.7264    0.0000 O   0  0  0  0  0  0  0  0  0  0  0  0
  1  2  1  0
  2  3  2  0
  2  4  1  0
  4  5  1  0
  5  6  1  0
  6  7  1  0
  6  8  1  0
  8  9  1  1
  8 10  1  0
 10 11  1  0
 11 12  1  0
 10 13  1  0
 13 14  1  0
 14 15  1  1
 15 16  1  0
 16 17  1  1
 16 18  1  0
 18 19  1  6
 18 20  1  0
 20 21  2  0
 20 22  1  0
 14  5  1  0
M  END
>  <rName>  (3424) 
Thr_PyranoseNAc_RR

>  <PQ_SYMBOL>  (3424) 
Thr_PyranoseNAc_RR

>  <FULL_NAME>  (3424) 
Thr(Pyranose-NAc(R))

>  <IUPAC_CONDENSED>  (3424) 
Thr(Pyranose-NAc(RR))

>  <IUPAC>  (3424) 
(2S,3R)-2-amino-3-(((2R,5R)-4,5-dihydroxy-6-(hydroxymethyl)-3-methylcarbonylamino-oxan-2-yl)oxy)butanoic acid

>  <TYPE>  (3424) 
Backbone

>  <CLASS>  (3424) 
alpha

>  <ANALOG>  (3424) 
Thr

>  <MOL_WT>  (3424) 
322.314

>  <LOGP>  (3424) 
-3.252899999999994

>  <TPSA>  (3424) 
171.57

>  <POPULARITY>  (3424) 
2.2

>  <PROTECTED>  (3424) 
TRUE

>  <SMILES>  (3424) 
CC(=O)NC1C(O)[C@@H](O)C(CO)O[C@H]1O[C@H](C)[C@H](N)C(=O)O

>  <INCHIKEY>  (3424) 
KUIFHYPNNRVEKZ-IORBFWHTSA-N

$$$$
Thr_PyranoseNAc_RRRRR
     RDKit          2D

 22 22  0  0  0  0  0  0  0  0999 V2000
   -1.5284    1.2091    0.0000 N   0  0  0  0  0  0  0  0  0  0  0  0
   -2.4383    0.0166    0.0000 C   0  0  0  0  0  0  0  0  0  0  0  0
   -1.8606   -1.3677    0.0000 C   0  0  0  0  0  0  0  0  0  0  0  0
   -0.3729   -1.5594    0.0000 O   0  0  0  0  0  0  0  0  0  0  0  0
    0.5370   -0.3669    0.0000 C   0  0  0  0  0  0  0  0  0  0  0  0
   -0.0407    1.0174    0.0000 O   0  0  0  0  0  0  0  0  0  0  0  0
    0.8692    2.2099    0.0000 C   0  0  0  0  0  0  0  0  0  0  0  0
    0.2914    3.5941    0.0000 C   0  0  0  0  0  0  0  0  0  0  0  0
   -1.1963    3.7859    0.0000 O   0  0  0  0  0  0  0  0  0  0  0  0
    2.3569    2.0181    0.0000 C   0  0  0  0  0  0  0  0  0  0  0  0
    3.2668    3.2106    0.0000 O   0  0  0  0  0  0  0  0  0  0  0  0
    2.9346    0.6339    0.0000 C   0  0  0  0  0  0  0  0  0  0  0  0
    4.4223    0.4421    0.0000 O   0  0  0  0  0  0  0  0  0  0  0  0
    2.0247   -0.5586    0.0000 C   0  0  0  0  0  0  0  0  0  0  0  0
    2.6025   -1.9429    0.0000 N   0  0  0  0  0  0  0  0  0  0  0  0
    1.6926   -3.1354    0.0000 C   0  0  0  0  0  0  0  0  0  0  0  0
    0.2049   -2.9437    0.0000 O   0  0  0  0  0  0  0  0  0  0  0  0
    2.2704   -4.5197    0.0000 C   0  0  0  0  0  0  0  0  0  0  0  0
   -2.7705   -2.5602    0.0000 C   0  0  0  0  0  0  0  0  0  0  0  0
   -3.9260    0.2083    0.0000 C   0  0  0  0  0  0  0  0  0  0  0  0
   -4.8359   -0.9842    0.0000 O   0  0  0  0  0  0  0  0  0  0  0  0
   -4.5038    1.5926    0.0000 O   0  0  0  0  0  0  0  0  0  0  0  0
  2  1  1  1
  2  3  1  0
  3  4  1  0
  5  4  1  6
  5  6  1  0
  6  7  1  0
  7  8  1  6
  8  9  1  0
  7 10  1  0
 10 11  1  6
 10 12  1  0
 12 13  1  6
 12 14  1  0
 14 15  1  1
 15 16  1  0
 16 17  2  0
 16 18  1  0
  3 19  1  6
  2 20  1  0
 20 21  2  0
 20 22  1  0
 14  5  1  0
M  END
>  <rName>  (3425) 
Thr_PyranoseNAc_RRRRR

>  <PQ_SYMBOL>  (3425) 
Thr_PyranoseNAc_RRRRR

>  <FULL_NAME>  (3425) 
(2S,3R)-3-[(2R,3R,4R,5R,6R)-3-acetamido-4,5-dihydroxy-6-(hydroxymethyl)oxan-2-yl]oxy-2-aminobutanoic acid

>  <IUPAC_CONDENSED>  (3425) 
Thr(Pyranose-NAc(RRRRR))

>  <IUPAC>  (3425) 
(2S,3R)-3-[(2R,3R,4R,5R,6R)-3-acetamido-4,5-dihydroxy-6-(hydroxymethyl)oxan-2-yl]oxy-2-aminobutanoic acid

>  <TYPE>  (3425) 
Backbone

>  <CLASS>  (3425) 
alpha

>  <ANALOG>  (3425) 
Thr

>  <MOL_WT>  (3425) 
322.31400000000014

>  <LOGP>  (3425) 
-3.2528999999999932

>  <TPSA>  (3425) 
171.57

>  <POPULARITY>  (3425) 
2.2

>  <PROTECTED>  (3425) 
TRUE

>  <SMILES>  (3425) 
N[C@@H]([C@H](O[C@@H]1(O[C@H](CO)[C@H](O)[C@H](O)[C@H]1NC(=O)C))C)C(=O)O

>  <INCHIKEY>  (3425) 
KUIFHYPNNRVEKZ-CXCQTHNJSA-N

$$$$
Thr_PyranoseNAc_RRSRR
     RDKit          2D

 22 22  0  0  0  0  0  0  0  0999 V2000
    2.2704   -4.5197    0.0000 C   0  0  0  0  0  0  0  0  0  0  0  0
    1.6926   -3.1354    0.0000 C   0  0  0  0  0  0  0  0  0  0  0  0
    0.2049   -2.9437    0.0000 O   0  0  0  0  0  0  0  0  0  0  0  0
    2.6025   -1.9429    0.0000 N   0  0  0  0  0  0  0  0  0  0  0  0
    2.0247   -0.5586    0.0000 C   0  0  0  0  0  0  0  0  0  0  0  0
    0.5370   -0.3669    0.0000 C   0  0  0  0  0  0  0  0  0  0  0  0
   -0.3729   -1.5594    0.0000 O   0  0  0  0  0  0  0  0  0  0  0  0
   -1.8606   -1.3677    0.0000 C   0  0  0  0  0  0  0  0  0  0  0  0
   -2.7705   -2.5602    0.0000 C   0  0  0  0  0  0  0  0  0  0  0  0
   -2.4383    0.0166    0.0000 C   0  0  0  0  0  0  0  0  0  0  0  0
   -1.5284    1.2091    0.0000 N   0  0  0  0  0  0  0  0  0  0  0  0
   -3.9260    0.2083    0.0000 C   0  0  0  0  0  0  0  0  0  0  0  0
   -4.8359   -0.9842    0.0000 O   0  0  0  0  0  0  0  0  0  0  0  0
   -4.5038    1.5926    0.0000 O   0  0  0  0  0  0  0  0  0  0  0  0
   -0.0407    1.0174    0.0000 O   0  0  0  0  0  0  0  0  0  0  0  0
    0.8692    2.2099    0.0000 C   0  0  0  0  0  0  0  0  0  0  0  0
    0.2914    3.5941    0.0000 C   0  0  0  0  0  0  0  0  0  0  0  0
   -1.1963    3.7859    0.0000 O   0  0  0  0  0  0  0  0  0  0  0  0
    2.3569    2.0181    0.0000 C   0  0  0  0  0  0  0  0  0  0  0  0
    3.2668    3.2106    0.0000 O   0  0  0  0  0  0  0  0  0  0  0  0
    2.9346    0.6339    0.0000 C   0  0  0  0  0  0  0  0  0  0  0  0
    4.4223    0.4421    0.0000 O   0  0  0  0  0  0  0  0  0  0  0  0
  1  2  1  0
  2  3  2  0
  2  4  1  0
  5  4  1  1
  5  6  1  0
  6  7  1  6
  7  8  1  0
  8  9  1  6
  8 10  1  0
 10 11  1  1
 10 12  1  0
 12 13  2  0
 12 14  1  0
  6 15  1  0
 15 16  1  0
 16 17  1  6
 17 18  1  0
 16 19  1  0
 19 20  1  1
 19 21  1  0
 21 22  1  6
 21  5  1  0
M  END
>  <rName>  (3426) 
Thr_PyranoseNAc_RRSRR

>  <PQ_SYMBOL>  (3426) 
Thr_PyranoseNAc_RRSRR

>  <FULL_NAME>  (3426) 
(2S,3R)-3-[(2R,3R,4R,5S,6R)-3-acetamido-4,5-dihydroxy-6-(hydroxymethyl)oxan-2-yl]oxy-2-aminobutanoic acid

>  <IUPAC_CONDENSED>  (3426) 
Thr(Pyranose-NAc(RRSRR))

>  <IUPAC>  (3426) 
(2S,3R)-3-[(2R,3R,4R,5S,6R)-3-acetamido-4,5-dihydroxy-6-(hydroxymethyl)oxan-2-yl]oxy-2-aminobutanoic acid

>  <TYPE>  (3426) 
Backbone

>  <CLASS>  (3426) 
alpha

>  <ANALOG>  (3426) 
Thr

>  <MOL_WT>  (3426) 
322.31399999999996

>  <LOGP>  (3426) 
-3.2528999999999972

>  <TPSA>  (3426) 
171.56999999999996

>  <POPULARITY>  (3426) 
3.5

>  <PROTECTED>  (3426) 
TRUE

>  <SMILES>  (3426) 
CC(=O)N[C@H]1[C@H](O[C@H](C)[C@H](N)C(=O)O)O[C@H](CO)[C@@H](O)[C@@H]1O

>  <INCHIKEY>  (3426) 
KUIFHYPNNRVEKZ-BIORGJIFSA-N

$$$$
Thr_PyranoseNAc_SRRRR
     RDKit          2D

 22 22  0  0  0  0  0  0  0  0999 V2000
    2.2704   -4.5197    0.0000 C   0  0  0  0  0  0  0  0  0  0  0  0
    1.6926   -3.1354    0.0000 C   0  0  0  0  0  0  0  0  0  0  0  0
    0.2049   -2.9437    0.0000 O   0  0  0  0  0  0  0  0  0  0  0  0
    2.6025   -1.9429    0.0000 N   0  0  0  0  0  0  0  0  0  0  0  0
    2.0247   -0.5586    0.0000 C   0  0  0  0  0  0  0  0  0  0  0  0
    0.5370   -0.3669    0.0000 C   0  0  0  0  0  0  0  0  0  0  0  0
   -0.3729   -1.5594    0.0000 O   0  0  0  0  0  0  0  0  0  0  0  0
   -1.8606   -1.3677    0.0000 C   0  0  0  0  0  0  0  0  0  0  0  0
   -2.7705   -2.5602    0.0000 C   0  0  0  0  0  0  0  0  0  0  0  0
   -2.4383    0.0166    0.0000 C   0  0  0  0  0  0  0  0  0  0  0  0
   -1.5284    1.2091    0.0000 N   0  0  0  0  0  0  0  0  0  0  0  0
   -3.9260    0.2083    0.0000 C   0  0  0  0  0  0  0  0  0  0  0  0
   -4.8359   -0.9842    0.0000 O   0  0  0  0  0  0  0  0  0  0  0  0
   -4.5038    1.5926    0.0000 O   0  0  0  0  0  0  0  0  0  0  0  0
   -0.0407    1.0174    0.0000 O   0  0  0  0  0  0  0  0  0  0  0  0
    0.8692    2.2099    0.0000 C   0  0  0  0  0  0  0  0  0  0  0  0
    0.2914    3.5941    0.0000 C   0  0  0  0  0  0  0  0  0  0  0  0
   -1.1963    3.7859    0.0000 O   0  0  0  0  0  0  0  0  0  0  0  0
    2.3569    2.0181    0.0000 C   0  0  0  0  0  0  0  0  0  0  0  0
    3.2668    3.2106    0.0000 O   0  0  0  0  0  0  0  0  0  0  0  0
    2.9346    0.6339    0.0000 C   0  0  0  0  0  0  0  0  0  0  0  0
    4.4223    0.4421    0.0000 O   0  0  0  0  0  0  0  0  0  0  0  0
  1  2  1  0
  2  3  2  0
  2  4  1  0
  5  4  1  1
  5  6  1  0
  6  7  1  1
  7  8  1  0
  8  9  1  6
  8 10  1  0
 10 11  1  1
 10 12  1  0
 12 13  2  0
 12 14  1  0
  6 15  1  0
 15 16  1  0
 16 17  1  6
 17 18  1  0
 16 19  1  0
 19 20  1  6
 19 21  1  0
 21 22  1  6
 21  5  1  0
M  END
>  <rName>  (3427) 
Thr_PyranoseNAc_SRRRR

>  <PQ_SYMBOL>  (3427) 
Thr_PyranoseNAc_SRRRR

>  <FULL_NAME>  (3427) 
(2S,3R)-3-[(2S,3R,4R,5R,6R)-3-acetamido-4,5-dihydroxy-6-(hydroxymethyl)oxan-2-yl]oxy-2-aminobutanoic acid

>  <IUPAC_CONDENSED>  (3427) 
Thr(Pyranose-NAc(SRRRR))

>  <IUPAC>  (3427) 
(2S,3R)-3-[(2S,3R,4R,5R,6R)-3-acetamido-4,5-dihydroxy-6-(hydroxymethyl)oxan-2-yl]oxy-2-aminobutanoic acid

>  <TYPE>  (3427) 
Backbone

>  <CLASS>  (3427) 
alpha

>  <ANALOG>  (3427) 
Thr

>  <MOL_WT>  (3427) 
322.31399999999996

>  <LOGP>  (3427) 
-3.2528999999999972

>  <TPSA>  (3427) 
171.56999999999996

>  <POPULARITY>  (3427) 
3.5

>  <PROTECTED>  (3427) 
TRUE

>  <SMILES>  (3427) 
CC(=O)N[C@H]1[C@@H](O[C@H](C)[C@H](N)C(=O)O)O[C@H](CO)[C@H](O)[C@@H]1O

>  <INCHIKEY>  (3427) 
KUIFHYPNNRVEKZ-VIJRYAKMSA-N

$$$$
Thr_Pyranose_RSRRR
     RDKit          2D

 19 19  0  0  0  0  0  0  0  0999 V2000
   -1.1225    0.9369    0.0000 N   0  0  0  0  0  0  0  0  0  0  0  0
   -2.2840   -0.0122    0.0000 C   0  0  0  0  0  0  0  0  0  0  0  0
   -2.0427   -1.4927    0.0000 C   0  0  0  0  0  0  0  0  0  0  0  0
   -0.6400   -2.0240    0.0000 O   0  0  0  0  0  0  0  0  0  0  0  0
    0.5215   -1.0749    0.0000 C   0  0  0  0  0  0  0  0  0  0  0  0
    0.2803    0.4056    0.0000 O   0  0  0  0  0  0  0  0  0  0  0  0
    1.4418    1.3548    0.0000 C   0  0  0  0  0  0  0  0  0  0  0  0
    1.2005    2.8353    0.0000 C   0  0  0  0  0  0  0  0  0  0  0  0
   -0.2023    3.3666    0.0000 O   0  0  0  0  0  0  0  0  0  0  0  0
    2.8445    0.8235    0.0000 C   0  0  0  0  0  0  0  0  0  0  0  0
    4.0060    1.7727    0.0000 O   0  0  0  0  0  0  0  0  0  0  0  0
    3.0858   -0.6570    0.0000 C   0  0  0  0  0  0  0  0  0  0  0  0
    4.4885   -1.1883    0.0000 O   0  0  0  0  0  0  0  0  0  0  0  0
    1.9243   -1.6062    0.0000 C   0  0  0  0  0  0  0  0  0  0  0  0
    2.1655   -3.0866    0.0000 O   0  0  0  0  0  0  0  0  0  0  0  0
   -3.2042   -2.4419    0.0000 C   0  0  0  0  0  0  0  0  0  0  0  0
   -3.6867    0.5191    0.0000 C   0  0  0  0  0  0  0  0  0  0  0  0
   -4.8482   -0.4301    0.0000 O   0  0  0  0  0  0  0  0  0  0  0  0
   -3.9280    1.9995    0.0000 O   0  0  0  0  0  0  0  0  0  0  0  0
  2  1  1  1
  2  3  1  0
  3  4  1  0
  5  4  1  6
  5  6  1  0
  6  7  1  0
  7  8  1  6
  8  9  1  0
  7 10  1  0
 10 11  1  6
 10 12  1  0
 12 13  1  6
 12 14  1  0
 14 15  1  1
  3 16  1  6
  2 17  1  0
 17 18  2  0
 17 19  1  0
 14  5  1  0
M  END
>  <rName>  (3428) 
Thr_Pyranose_RSRRR

>  <PQ_SYMBOL>  (3428) 
Thr_Pyranose_RSRRR

>  <FULL_NAME>  (3428) 
Thr(Pyranose(RSRRR))

>  <IUPAC_CONDENSED>  (3428) 
Thr(Pyranose(RSRRR))

>  <IUPAC>  (3428) 
(2S,3R)-2-amino-3-(((2R,3R,4S,5R,6R)-3,4,5-trihydroxy-6-(hydroxymethyl)-oxan-2-yl)oxy)butanoic acid

>  <TYPE>  (3428) 
Backbone

>  <CLASS>  (3428) 
alpha

>  <ANALOG>  (3428) 
Thr

>  <MOL_WT>  (3428) 
281.261

>  <LOGP>  (3428) 
-3.3966999999999974

>  <TPSA>  (3428) 
162.70000000000002

>  <POPULARITY>  (3428) 
2.2

>  <PROTECTED>  (3428) 
TRUE

>  <SMILES>  (3428) 
N[C@@H]([C@H](O[C@@H]1(O[C@H](CO)[C@H](O)[C@H](O)[C@H]1O))C)C(=O)O

>  <INCHIKEY>  (3428) 
DHIKRLNYEAMDOC-RQGUHJILSA-N

$$$$
Thr_Pyranose_RSRSR
     RDKit          2D

 19 19  0  0  0  0  0  0  0  0999 V2000
   -1.1225    0.9369    0.0000 N   0  0  0  0  0  0  0  0  0  0  0  0
   -2.2840   -0.0122    0.0000 C   0  0  0  0  0  0  0  0  0  0  0  0
   -2.0427   -1.4927    0.0000 C   0  0  0  0  0  0  0  0  0  0  0  0
   -0.6400   -2.0240    0.0000 O   0  0  0  0  0  0  0  0  0  0  0  0
    0.5215   -1.0749    0.0000 C   0  0  0  0  0  0  0  0  0  0  0  0
    0.2803    0.4056    0.0000 O   0  0  0  0  0  0  0  0  0  0  0  0
    1.4418    1.3548    0.0000 C   0  0  0  0  0  0  0  0  0  0  0  0
    1.2005    2.8353    0.0000 C   0  0  0  0  0  0  0  0  0  0  0  0
   -0.2023    3.3666    0.0000 O   0  0  0  0  0  0  0  0  0  0  0  0
    2.8445    0.8235    0.0000 C   0  0  0  0  0  0  0  0  0  0  0  0
    4.0060    1.7727    0.0000 O   0  0  0  0  0  0  0  0  0  0  0  0
    3.0858   -0.6570    0.0000 C   0  0  0  0  0  0  0  0  0  0  0  0
    4.4885   -1.1883    0.0000 O   0  0  0  0  0  0  0  0  0  0  0  0
    1.9243   -1.6062    0.0000 C   0  0  0  0  0  0  0  0  0  0  0  0
    2.1655   -3.0866    0.0000 O   0  0  0  0  0  0  0  0  0  0  0  0
   -3.2042   -2.4419    0.0000 C   0  0  0  0  0  0  0  0  0  0  0  0
   -3.6867    0.5191    0.0000 C   0  0  0  0  0  0  0  0  0  0  0  0
   -4.8482   -0.4301    0.0000 O   0  0  0  0  0  0  0  0  0  0  0  0
   -3.9280    1.9995    0.0000 O   0  0  0  0  0  0  0  0  0  0  0  0
  2  1  1  1
  2  3  1  0
  3  4  1  0
  5  4  1  6
  5  6  1  0
  6  7  1  0
  7  8  1  6
  8  9  1  0
  7 10  1  0
 10 11  1  1
 10 12  1  0
 12 13  1  6
 12 14  1  0
 14 15  1  1
  3 16  1  6
  2 17  1  0
 17 18  2  0
 17 19  1  0
 14  5  1  0
M  END
>  <rName>  (3429) 
Thr_Pyranose_RSRSR

>  <PQ_SYMBOL>  (3429) 
Thr_Pyranose_RSRSR

>  <FULL_NAME>  (3429) 
O-((2R,3R,4S,5S,6R)-3,4,5-trihydroxy-6-(hydroxymethyl)tetrahydro-2H-pyran-2-yl)-L-threonine

>  <IUPAC_CONDENSED>  (3429) 
Thr(Pyranose(RSRSR))

>  <IUPAC>  (3429) 
(2S,3R)-2-amino-3-(((2R,3R,4S,5S,6R)-3,4,5-trihydroxy-6-(hydroxymethyl)-oxan-2-yl)oxy)butanoic acid

>  <TYPE>  (3429) 
Backbone

>  <CLASS>  (3429) 
alpha

>  <ANALOG>  (3429) 
Thr

>  <MOL_WT>  (3429) 
281.261

>  <LOGP>  (3429) 
-3.3966999999999974

>  <TPSA>  (3429) 
162.70000000000002

>  <POPULARITY>  (3429) 
4.6

>  <PROTECTED>  (3429) 
TRUE

>  <SMILES>  (3429) 
N[C@@H]([C@H](O[C@@H]1(O[C@H](CO)[C@@H](O)[C@H](O)[C@H]1O))C)C(=O)O

>  <INCHIKEY>  (3429) 
DHIKRLNYEAMDOC-VUQUFYOQSA-N

$$$$
Thr_Pyranose_SSSSR
     RDKit          2D

 19 19  0  0  0  0  0  0  0  0999 V2000
   -1.1225    0.9369    0.0000 N   0  0  0  0  0  0  0  0  0  0  0  0
   -2.2840   -0.0122    0.0000 C   0  0  0  0  0  0  0  0  0  0  0  0
   -2.0427   -1.4927    0.0000 C   0  0  0  0  0  0  0  0  0  0  0  0
   -0.6400   -2.0240    0.0000 O   0  0  0  0  0  0  0  0  0  0  0  0
    0.5215   -1.0749    0.0000 C   0  0  0  0  0  0  0  0  0  0  0  0
    0.2803    0.4056    0.0000 O   0  0  0  0  0  0  0  0  0  0  0  0
    1.4418    1.3548    0.0000 C   0  0  0  0  0  0  0  0  0  0  0  0
    1.2005    2.8353    0.0000 C   0  0  0  0  0  0  0  0  0  0  0  0
   -0.2023    3.3666    0.0000 O   0  0  0  0  0  0  0  0  0  0  0  0
    2.8445    0.8235    0.0000 C   0  0  0  0  0  0  0  0  0  0  0  0
    4.0060    1.7727    0.0000 O   0  0  0  0  0  0  0  0  0  0  0  0
    3.0858   -0.6570    0.0000 C   0  0  0  0  0  0  0  0  0  0  0  0
    4.4885   -1.1883    0.0000 O   0  0  0  0  0  0  0  0  0  0  0  0
    1.9243   -1.6062    0.0000 C   0  0  0  0  0  0  0  0  0  0  0  0
    2.1655   -3.0866    0.0000 O   0  0  0  0  0  0  0  0  0  0  0  0
   -3.2042   -2.4419    0.0000 C   0  0  0  0  0  0  0  0  0  0  0  0
   -3.6867    0.5191    0.0000 C   0  0  0  0  0  0  0  0  0  0  0  0
   -4.8482   -0.4301    0.0000 O   0  0  0  0  0  0  0  0  0  0  0  0
   -3.9280    1.9995    0.0000 O   0  0  0  0  0  0  0  0  0  0  0  0
  2  1  1  1
  2  3  1  0
  3  4  1  0
  5  4  1  1
  5  6  1  0
  6  7  1  0
  7  8  1  6
  8  9  1  0
  7 10  1  0
 10 11  1  1
 10 12  1  0
 12 13  1  6
 12 14  1  0
 14 15  1  6
  3 16  1  6
  2 17  1  0
 17 18  2  0
 17 19  1  0
 14  5  1  0
M  END
>  <rName>  (3430) 
Thr_Pyranose_SSSSR

>  <PQ_SYMBOL>  (3430) 
Thr_Pyranose_SSSSR

>  <FULL_NAME>  (3430) 
O-((2S,3S,4S,5S,6R)-3,4,5-trihydroxy-6-(hydroxymethyl)tetrahydro-2H-pyran-2-yl)-L-threonine

>  <IUPAC_CONDENSED>  (3430) 
Thr(Pyranose(SSSSR))

>  <IUPAC>  (3430) 
(2S,3R)-2-amino-3-(((2S,3S,4S,5S,6R)-3,4,5-trihydroxy-6-(hydroxymethyl)-oxan-2-yl)oxy)butanoic acid

>  <TYPE>  (3430) 
Backbone

>  <CLASS>  (3430) 
alpha

>  <ANALOG>  (3430) 
Thr

>  <MOL_WT>  (3430) 
281.261

>  <LOGP>  (3430) 
-3.3966999999999974

>  <TPSA>  (3430) 
162.70000000000002

>  <POPULARITY>  (3430) 
3.3

>  <PROTECTED>  (3430) 
TRUE

>  <SMILES>  (3430) 
N[C@@H]([C@H](O[C@H]1(O[C@H](CO)[C@@H](O)[C@H](O)[C@@H]1O))C)C(=O)O

>  <INCHIKEY>  (3430) 
DHIKRLNYEAMDOC-RBCVCIGJSA-N

$$$$
Thr_SO3H
     RDKit          2D

 12 11  0  0  0  0  0  0  0  0999 V2000
   -0.0306   -1.5204    0.0000 N   0  0  0  0  0  0  0  0  0  0  0  0
   -0.8599   -0.2705    0.0000 C   0  0  0  0  0  0  0  0  0  0  0  0
   -0.1920    1.0727    0.0000 C   0  0  0  0  0  0  0  0  0  0  0  0
    1.3051    1.1659    0.0000 O   0  0  0  0  0  0  0  0  0  0  0  0
    2.1343   -0.0841    0.0000 S   0  0  0  0  0  0  0  0  0  0  0  0
    0.8844   -0.9133    0.0000 O   0  0  0  0  0  0  0  0  0  0  0  0
    3.3843    0.7452    0.0000 O   0  0  0  0  0  0  0  0  0  0  0  0
    2.9636   -1.3340    0.0000 O   0  0  0  0  0  0  0  0  0  0  0  0
   -1.0213    2.3226    0.0000 C   0  0  0  0  0  0  0  0  0  0  0  0
   -2.3570   -0.3637    0.0000 C   0  0  0  0  0  0  0  0  0  0  0  0
   -3.1862    0.8863    0.0000 O   0  0  0  0  0  0  0  0  0  0  0  0
   -3.0248   -1.7068    0.0000 O   0  0  0  0  0  0  0  0  0  0  0  0
  2  1  1  6
  2  3  1  0
  3  4  1  0
  4  5  1  0
  5  6  2  0
  5  7  2  0
  5  8  1  0
  3  9  1  1
  2 10  1  0
 10 11  2  0
 10 12  1  0
M  END
>  <rName>  (3431) 
Thr_SO3H

>  <PQ_SYMBOL>  (3431) 
Thr_SO3H

>  <FULL_NAME>  (3431) 
(2S,3R)-2-amino-3-sulfooxybutanoic acid

>  <IUPAC_CONDENSED>  (3431) 
Thr(SO3H)

>  <IUPAC>  (3431) 
(2R,3S)-3-amino-4-hydroxy-4-oxobutan-2-yl hydrogen sulfate

>  <TYPE>  (3431) 
Backbone

>  <CLASS>  (3431) 
alpha

>  <ANALOG>  (3431) 
Thr

>  <MOL_WT>  (3431) 
199.184

>  <LOGP>  (3431) 
-1.3937999999999995

>  <TPSA>  (3431) 
126.92

>  <POPULARITY>  (3431) 
8.0

>  <PROTECTED>  (3431) 
TRUE

>  <SMILES>  (3431) 
N[C@@H]([C@H](OS(=O)(=O)O)C)C(=O)O

>  <INCHIKEY>  (3431) 
SJSQTARGNAQQKY-GBXIJSLDSA-N

$$$$
Thr_allyl
     RDKit          2D

 11 10  0  0  0  0  0  0  0  0999 V2000
   -0.0083    1.5488    0.0000 N   0  0  0  0  0  0  0  0  0  0  0  0
   -0.9169    0.3553    0.0000 C   0  0  0  0  0  0  0  0  0  0  0  0
   -0.3376   -1.0284    0.0000 C   0  0  0  0  0  0  0  0  0  0  0  0
    1.1503   -1.2185    0.0000 O   0  0  0  0  0  0  0  0  0  0  0  0
    2.0589   -0.0250    0.0000 C   0  0  0  0  0  0  0  0  0  0  0  0
    3.5468   -0.2151    0.0000 C   0  0  0  0  0  0  0  0  0  0  0  0
    4.4554    0.9784    0.0000 C   0  0  0  0  0  0  0  0  0  0  0  0
   -1.2462   -2.2218    0.0000 C   0  0  0  0  0  0  0  0  0  0  0  0
   -2.4048    0.5454    0.0000 C   0  0  0  0  0  0  0  0  0  0  0  0
   -3.3134   -0.6481    0.0000 O   0  0  0  0  0  0  0  0  0  0  0  0
   -2.9841    1.9290    0.0000 O   0  0  0  0  0  0  0  0  0  0  0  0
  2  1  1  1
  2  3  1  0
  3  4  1  0
  4  5  1  0
  5  6  1  0
  6  7  2  0
  3  8  1  6
  2  9  1  0
  9 10  2  0
  9 11  1  0
M  END
>  <rName>  (3432) 
Thr_allyl

>  <PQ_SYMBOL>  (3432) 
Thr_allyl

>  <FULL_NAME>  (3432) 
O-allyl-L-threonine

>  <IUPAC_CONDENSED>  (3432) 
Thr(allyl)

>  <IUPAC>  (3432) 
(2S,3R)-2-amino-3-((prop-2-en-1-yl)oxy)butanoic acid

>  <TYPE>  (3432) 
Backbone

>  <CLASS>  (3432) 
alpha

>  <ANALOG>  (3432) 
Thr

>  <MOL_WT>  (3432) 
159.185

>  <LOGP>  (3432) 
-0.01060000000000022

>  <TPSA>  (3432) 
72.55

>  <POPULARITY>  (3432) 
5.4

>  <PROTECTED>  (3432) 
TRUE

>  <SMILES>  (3432) 
N[C@@H]([C@H](OCC=C)C)C(=O)O

>  <INCHIKEY>  (3432) 
DSQHMLACRFGVEJ-RITPCOANSA-N

$$$$
Thz
     RDKit          2D

  8  8  0  0  0  0  0  0  0  0999 V2000
   -0.8342   -1.2135    0.0000 N   0  0  0  0  0  0  0  0  0  0  0  0
    0.0475   -0.0000    0.0000 C   0  0  0  0  0  0  0  0  0  0  0  0
   -0.8342    1.2135    0.0000 C   0  0  0  0  0  0  0  0  0  0  0  0
   -2.2608    0.7500    0.0000 S   0  0  0  0  0  0  0  0  0  0  0  0
   -2.2608   -0.7500    0.0000 C   0  0  0  0  0  0  0  0  0  0  0  0
    1.5475    0.0000    0.0000 C   0  0  0  0  0  0  0  0  0  0  0  0
    2.2975    1.2990    0.0000 O   0  0  0  0  0  0  0  0  0  0  0  0
    2.2975   -1.2990    0.0000 O   0  0  0  0  0  0  0  0  0  0  0  0
  1  2  1  0
  2  3  1  0
  3  4  1  0
  4  5  1  0
  2  6  1  1
  6  7  2  0
  6  8  1  0
  5  1  1  0
M  END
>  <rName>  (3433) 
Thz

>  <PQ_SYMBOL>  (3433) 
Thz

>  <FULL_NAME>  (3433) 
L-Thioproline

>  <IUPAC_CONDENSED>  (3433) 
Thz

>  <IUPAC>  (3433) 
(4R)-thiazolidine-4-carboxylic acid

>  <TYPE>  (3433) 
Backbone

>  <CLASS>  (3433) 
alpha

>  <ANALOG>  (3433) 
Pro

>  <MOL_WT>  (3433) 
133.172

>  <LOGP>  (3433) 
-0.2665

>  <TPSA>  (3433) 
49.33

>  <POPULARITY>  (3433) 
30.7

>  <PROTECTED>  (3433) 
TRUE

>  <SMILES>  (3433) 
N1[C@@H](CSC1)C(=O)O

>  <INCHIKEY>  (3433) 
DZLNHFMRPBPULJ-VKHMYHEASA-N

$$$$
Thz_Me2
     RDKit          2D

 10 10  0  0  0  0  0  0  0  0999 V2000
   -0.3816   -0.8744    0.0000 N   0  0  0  0  0  0  0  0  0  0  0  0
    0.7221    0.1414    0.0000 C   0  0  0  0  0  0  0  0  0  0  0  0
    0.0971    1.5050    0.0000 C   0  0  0  0  0  0  0  0  0  0  0  0
   -1.3929    1.3319    0.0000 S   0  0  0  0  0  0  0  0  0  0  0  0
   -1.6888   -0.1386    0.0000 C   0  0  0  0  0  0  0  0  0  0  0  0
   -2.2839   -1.5155    0.0000 C   0  0  0  0  0  0  0  0  0  0  0  0
   -3.1203    0.3093    0.0000 C   0  0  0  0  0  0  0  0  0  0  0  0
    2.1926   -0.1544    0.0000 C   0  0  0  0  0  0  0  0  0  0  0  0
    3.1841    0.9712    0.0000 O   0  0  0  0  0  0  0  0  0  0  0  0
    2.6717   -1.5759    0.0000 O   0  0  0  0  0  0  0  0  0  0  0  0
  1  2  1  0
  2  3  1  0
  3  4  1  0
  4  5  1  0
  5  6  1  0
  5  7  1  0
  2  8  1  1
  8  9  2  0
  8 10  1  0
  5  1  1  0
M  END
>  <rName>  (3434) 
Thz_Me2

>  <PQ_SYMBOL>  (3434) 
Thz_Me2

>  <FULL_NAME>  (3434) 
(4R)-2,2-dimethyl-1,3-thiazolidine-4-carboxylic acid

>  <IUPAC_CONDENSED>  (3434) 
Thz(Me2)

>  <IUPAC>  (3434) 
(4R)-2,2-dimethyl-thiazolidine-4-carboxylic acid

>  <TYPE>  (3434) 
Backbone

>  <CLASS>  (3434) 
alpha

>  <ANALOG>  (3434) 
Pro

>  <MOL_WT>  (3434) 
161.226

>  <LOGP>  (3434) 
0.5121

>  <TPSA>  (3434) 
49.33

>  <POPULARITY>  (3434) 
18.1

>  <PROTECTED>  (3434) 
TRUE

>  <SMILES>  (3434) 
N1[C@@H](CSC1(C)C)C(=O)O

>  <INCHIKEY>  (3434) 
OCQICQZUUHJWGZ-BYPYZUCNSA-N

$$$$
Thz_NH2
     RDKit          2D

  9  9  0  0  0  0  0  0  0  0999 V2000
   -3.3052   -0.8467    0.0000 N   0  0  0  0  0  0  0  0  0  0  0  0
   -1.9481   -0.2077    0.0000 C   0  0  0  0  0  0  0  0  0  0  0  0
   -0.6334   -0.9301    0.0000 N   0  0  0  0  0  0  0  0  0  0  0  0
    0.4598    0.0969    0.0000 C   0  0  0  0  0  0  0  0  0  0  0  0
   -0.1792    1.4541    0.0000 C   0  0  0  0  0  0  0  0  0  0  0  0
   -1.6673    1.2657    0.0000 S   0  0  0  0  0  0  0  0  0  0  0  0
    1.9333   -0.1838    0.0000 C   0  0  0  0  0  0  0  0  0  0  0  0
    2.9132    0.9519    0.0000 O   0  0  0  0  0  0  0  0  0  0  0  0
    2.4269   -1.6003    0.0000 O   0  0  0  0  0  0  0  0  0  0  0  0
  1  2  2  0
  2  3  1  0
  3  4  1  0
  4  5  1  0
  5  6  1  0
  4  7  1  1
  7  8  2  0
  7  9  1  0
  6  2  1  0
M  END
>  <rName>  (3435) 
Thz_NH2

>  <PQ_SYMBOL>  (3435) 
Thz_NH2

>  <FULL_NAME>  (3435) 
(4R)-2-amino-4,5-dihydro-1,3-thiazole-4-carboxylic acid

>  <IUPAC_CONDENSED>  (3435) 
Thz(NH2)

>  <IUPAC>  (3435) 
(4R)-2-imino-thiazolidine-4-carboxylic acid

>  <TYPE>  (3435) 
N-term cap

>  <CLASS>  (3435) 
n_cap

>  <ANALOG>  (3435) 
X

>  <MOL_WT>  (3435) 
146.17100000000002

>  <LOGP>  (3435) 
-0.28923000000000015

>  <TPSA>  (3435) 
73.18

>  <POPULARITY>  (3435) 
6.0

>  <PROTECTED>  (3435) 
TRUE

>  <SMILES>  (3435) 
N=C1N[C@@H](CS1)C(=O)O

>  <INCHIKEY>  (3435) 
VHPXSBIFWDAFMB-REOHCLBHSA-N

$$$$
Thz_Ph_4CF3
     RDKit          2D

 18 19  0  0  0  0  0  0  0  0999 V2000
   -2.3855    0.5900    0.0000 N   0  0  0  0  0  0  0  0  0  0  0  0
   -3.7404   -0.0535    0.0000 C   0  0  0  0  0  0  0  0  0  0  0  0
   -3.5471   -1.5410    0.0000 C   0  0  0  0  0  0  0  0  0  0  0  0
   -2.0726   -1.8168    0.0000 S   0  0  0  0  0  0  0  0  0  0  0  0
   -1.3547   -0.4997    0.0000 C   0  0  0  0  0  0  0  0  0  0  0  0
    0.1328   -0.3064    0.0000 C   0  0  0  0  0  0  0  0  0  0  0  0
    1.0439   -1.4979    0.0000 C   0  0  0  0  0  0  0  0  0  0  0  0
    2.5314   -1.3046    0.0000 C   0  0  0  0  0  0  0  0  0  0  0  0
    3.1077    0.0803    0.0000 C   0  0  0  0  0  0  0  0  0  0  0  0
    2.1965    1.2719    0.0000 C   0  0  0  0  0  0  0  0  0  0  0  0
    0.7091    1.0785    0.0000 C   0  0  0  0  0  0  0  0  0  0  0  0
    4.5952    0.2737    0.0000 C   0  0  0  0  0  0  0  0  0  0  0  0
    6.0827    0.4670    0.0000 F   0  0  0  0  0  0  0  0  0  0  0  0
    4.7886   -1.2138    0.0000 F   0  0  0  0  0  0  0  0  0  0  0  0
    4.4019    1.7612    0.0000 F   0  0  0  0  0  0  0  0  0  0  0  0
   -5.0575    0.6644    0.0000 C   0  0  0  0  0  0  0  0  0  0  0  0
   -6.3377   -0.1173    0.0000 O   0  0  0  0  0  0  0  0  0  0  0  0
   -5.0943    2.1639    0.0000 O   0  0  0  0  0  0  0  0  0  0  0  0
  1  2  1  0
  2  3  1  0
  3  4  1  0
  4  5  1  0
  5  6  1  0
  6  7  1  0
  7  8  2  0
  8  9  1  0
  9 10  2  0
 10 11  1  0
  9 12  1  0
 12 13  1  0
 12 14  1  0
 12 15  1  0
  2 16  1  1
 16 17  2  0
 16 18  1  0
  5  1  1  0
 11  6  2  0
M  END
>  <rName>  (3436) 
Thz_Ph_4CF3

>  <PQ_SYMBOL>  (3436) 
Thz_Ph_4CF3

>  <FULL_NAME>  (3436) 
(4R)-2-[4-(trifluoromethyl)phenyl]-1,3-thiazolidine-4-carboxylic acid

>  <IUPAC_CONDENSED>  (3436) 
Thz(Ph(4-CF3))

>  <IUPAC>  (3436) 
(4R)-2-(4-(trifluoromethyl)phenyl)-thiazolidine-4-carboxylic acid

>  <TYPE>  (3436) 
Backbone

>  <CLASS>  (3436) 
alpha

>  <ANALOG>  (3436) 
Pro

>  <MOL_WT>  (3436) 
277.26699999999994

>  <LOGP>  (3436) 
2.4936

>  <TPSA>  (3436) 
49.33

>  <POPULARITY>  (3436) 
3.7

>  <PROTECTED>  (3436) 
TRUE

>  <SMILES>  (3436) 
N1[C@@H](CSC1c2(ccc(cc2)C(F)(F)F))C(=O)O

>  <INCHIKEY>  (3436) 
IYXKNSQXIDNVDV-IENPIDJESA-N

$$$$
Thz_b_bdiMe
     RDKit          2D

 10 10  0  0  0  0  0  0  0  0999 V2000
   -0.3795   -1.7836    0.0000 N   0  0  0  0  0  0  0  0  0  0  0  0
    0.2354   -0.4154    0.0000 C   0  0  0  0  0  0  0  0  0  0  0  0
   -0.8759    0.5922    0.0000 C   0  0  0  0  0  0  0  0  0  0  0  0
   -1.7533    1.8087    0.0000 C   0  0  0  0  0  0  0  0  0  0  0  0
    0.2423    1.5920    0.0000 C   0  0  0  0  0  0  0  0  0  0  0  0
   -2.1775   -0.1533    0.0000 S   0  0  0  0  0  0  0  0  0  0  0  0
   -1.8707   -1.6216    0.0000 C   0  0  0  0  0  0  0  0  0  0  0  0
    1.7037   -0.1086    0.0000 C   0  0  0  0  0  0  0  0  0  0  0  0
    2.1721    1.3164    0.0000 O   0  0  0  0  0  0  0  0  0  0  0  0
    2.7035   -1.2268    0.0000 O   0  0  0  0  0  0  0  0  0  0  0  0
  1  2  1  0
  2  3  1  0
  3  4  1  0
  3  5  1  0
  3  6  1  0
  6  7  1  0
  2  8  1  1
  8  9  2  0
  8 10  1  0
  7  1  1  0
M  END
>  <rName>  (3437) 
Thz_b_bdiMe

>  <PQ_SYMBOL>  (3437) 
Thz_b_bdiMe

>  <FULL_NAME>  (3437) 
(R)-5,5-dimethylthiazolidine-4-carboxylic acid

>  <IUPAC_CONDENSED>  (3437) 
Thz(b,b-diMe)

>  <IUPAC>  (3437) 
(4R)-5,5-dimethyl-thiazolidine-4-carboxylic acid

>  <TYPE>  (3437) 
Backbone

>  <CLASS>  (3437) 
alpha

>  <ANALOG>  (3437) 
Pro

>  <MOL_WT>  (3437) 
161.226

>  <LOGP>  (3437) 
0.5121

>  <TPSA>  (3437) 
49.33

>  <POPULARITY>  (3437) 
11.7

>  <PROTECTED>  (3437) 
TRUE

>  <SMILES>  (3437) 
N1[C@@H](C(C)(C)SC1)C(=O)O

>  <INCHIKEY>  (3437) 
PMQQFSDIECYOQV-SCSAIBSYSA-N

$$$$
Thz_carbonyl
     RDKit          2D

  9  9  0  0  0  0  0  0  0  0999 V2000
   -3.3052   -0.8467    0.0000 O   0  0  0  0  0  0  0  0  0  0  0  0
   -1.9481   -0.2077    0.0000 C   0  0  0  0  0  0  0  0  0  0  0  0
   -0.6334   -0.9301    0.0000 N   0  0  0  0  0  0  0  0  0  0  0  0
    0.4598    0.0969    0.0000 C   0  0  0  0  0  0  0  0  0  0  0  0
   -0.1792    1.4541    0.0000 C   0  0  0  0  0  0  0  0  0  0  0  0
   -1.6673    1.2657    0.0000 S   0  0  0  0  0  0  0  0  0  0  0  0
    1.9333   -0.1838    0.0000 C   0  0  0  0  0  0  0  0  0  0  0  0
    2.9132    0.9519    0.0000 O   0  0  0  0  0  0  0  0  0  0  0  0
    2.4269   -1.6003    0.0000 O   0  0  0  0  0  0  0  0  0  0  0  0
  1  2  2  0
  2  3  1  0
  3  4  1  0
  4  5  1  0
  5  6  1  0
  4  7  1  1
  7  8  2  0
  7  9  1  0
  6  2  1  0
M  END
>  <rName>  (3438) 
Thz_carbonyl

>  <PQ_SYMBOL>  (3438) 
Thz_carbonyl

>  <FULL_NAME>  (3438) 
(4R)-2-oxo-1,3-thiazolidine-4-carboxylic acid

>  <IUPAC_CONDENSED>  (3438) 
Thz(carbonyl)

>  <IUPAC>  (3438) 
(4R)-2-oxo-thiazolidine-4-carboxylic acid

>  <TYPE>  (3438) 
N-term cap

>  <CLASS>  (3438) 
n_cap

>  <ANALOG>  (3438) 
X

>  <MOL_WT>  (3438) 
147.155

>  <LOGP>  (3438) 
-0.10399999999999993

>  <TPSA>  (3438) 
66.4

>  <POPULARITY>  (3438) 
8.2

>  <PROTECTED>  (3438) 
TRUE

>  <SMILES>  (3438) 
O=C1N[C@@H](CS1)C(=O)O

>  <INCHIKEY>  (3438) 
BMLMGCPTLHPWPY-REOHCLBHSA-N

$$$$
Tic
     RDKit          2D

 13 14  0  0  0  0  0  0  0  0999 V2000
   -1.2457    1.5283    0.0000 N   0  0  0  0  0  0  0  0  0  0  0  0
   -1.6339    0.0794    0.0000 C   0  0  0  0  0  0  0  0  0  0  0  0
   -0.5733   -0.9812    0.0000 C   0  0  0  0  0  0  0  0  0  0  0  0
    0.8756   -0.5930    0.0000 C   0  0  0  0  0  0  0  0  0  0  0  0
    1.9363   -1.6536    0.0000 C   0  0  0  0  0  0  0  0  0  0  0  0
    3.3852   -1.2654    0.0000 C   0  0  0  0  0  0  0  0  0  0  0  0
    3.7734    0.1835    0.0000 C   0  0  0  0  0  0  0  0  0  0  0  0
    2.7127    1.2441    0.0000 C   0  0  0  0  0  0  0  0  0  0  0  0
    1.2638    0.8559    0.0000 C   0  0  0  0  0  0  0  0  0  0  0  0
    0.2032    1.9166    0.0000 C   0  0  0  0  0  0  0  0  0  0  0  0
   -3.0828   -0.3088    0.0000 C   0  0  0  0  0  0  0  0  0  0  0  0
   -3.4710   -1.7577    0.0000 O   0  0  0  0  0  0  0  0  0  0  0  0
   -4.1435    0.7519    0.0000 O   0  0  0  0  0  0  0  0  0  0  0  0
  1  2  1  0
  2  3  1  0
  3  4  1  0
  4  5  2  0
  5  6  1  0
  6  7  2  0
  7  8  1  0
  8  9  2  0
  9 10  1  0
  2 11  1  1
 11 12  2  0
 11 13  1  0
  9  4  1  0
 10  1  1  0
M  END
>  <rName>  (3439) 
Tic

>  <PQ_SYMBOL>  (3439) 
Tic

>  <FULL_NAME>  (3439) 
L-Porretine

>  <IUPAC_CONDENSED>  (3439) 
Tic

>  <IUPAC>  (3439) 
(4S)-3-azabicyclo[4.4.0]deca-1(10),6,8-triene-4-carboxylic acid

>  <TYPE>  (3439) 
Backbone

>  <CLASS>  (3439) 
alpha

>  <ANALOG>  (3439) 
Pro

>  <MOL_WT>  (3439) 
177.20299999999995

>  <LOGP>  (3439) 
0.7855000000000001

>  <TPSA>  (3439) 
49.33

>  <POPULARITY>  (3439) 
39.4

>  <PROTECTED>  (3439) 
TRUE

>  <SMILES>  (3439) 
N2[C@@H](Cc1(ccccc1C2))C(=O)O

>  <INCHIKEY>  (3439) 
BWKMGYQJPOAASG-VIFPVBQESA-N

$$$$
Tic_5Me
     RDKit          2D

 14 15  0  0  0  0  0  0  0  0999 V2000
   -1.4856   -1.6416    0.0000 N   0  0  0  0  0  0  0  0  0  0  0  0
   -1.7624   -0.1673    0.0000 C   0  0  0  0  0  0  0  0  0  0  0  0
   -0.6240    0.8095    0.0000 C   0  0  0  0  0  0  0  0  0  0  0  0
    0.7911    0.3120    0.0000 C   0  0  0  0  0  0  0  0  0  0  0  0
    1.9295    1.2888    0.0000 C   0  0  0  0  0  0  0  0  0  0  0  0
    1.6527    2.7631    0.0000 C   0  0  0  0  0  0  0  0  0  0  0  0
    3.3446    0.7913    0.0000 C   0  0  0  0  0  0  0  0  0  0  0  0
    3.6213   -0.6829    0.0000 C   0  0  0  0  0  0  0  0  0  0  0  0
    2.4830   -1.6597    0.0000 C   0  0  0  0  0  0  0  0  0  0  0  0
    1.0678   -1.1622    0.0000 C   0  0  0  0  0  0  0  0  0  0  0  0
   -0.0705   -2.1390    0.0000 C   0  0  0  0  0  0  0  0  0  0  0  0
   -3.1775    0.3302    0.0000 C   0  0  0  0  0  0  0  0  0  0  0  0
   -4.3158   -0.6466    0.0000 O   0  0  0  0  0  0  0  0  0  0  0  0
   -3.4542    1.8044    0.0000 O   0  0  0  0  0  0  0  0  0  0  0  0
  1  2  1  0
  2  3  1  0
  3  4  1  0
  4  5  2  0
  5  6  1  0
  5  7  1  0
  7  8  2  0
  8  9  1  0
  9 10  2  0
 10 11  1  0
  2 12  1  6
 12 13  2  0
 12 14  1  0
 10  4  1  0
 11  1  1  0
M  END
>  <rName>  (3440) 
Tic_5Me

>  <PQ_SYMBOL>  (3440) 
Tic_5Me

>  <FULL_NAME>  (3440) 
(3S)-5-methyl-1,2,3,4-tetrahydroisoquinoline-3-carboxylic acid

>  <IUPAC_CONDENSED>  (3440) 
Tic(5-Me)

>  <IUPAC>  (3440) 
(4S)-7-methyl-3-azabicyclo[4.4.0]deca-1(10),6,8-triene-4-carboxylic acid

>  <TYPE>  (3440) 
Backbone

>  <CLASS>  (3440) 
alpha

>  <ANALOG>  (3440) 
Pro

>  <MOL_WT>  (3440) 
191.22999999999996

>  <LOGP>  (3440) 
1.09392

>  <TPSA>  (3440) 
49.33

>  <POPULARITY>  (3440) 
3.1

>  <PROTECTED>  (3440) 
TRUE

>  <SMILES>  (3440) 
N2[C@@H](Cc1(c(C)cccc1C2))C(=O)O

>  <INCHIKEY>  (3440) 
QLFCCSYNIFSINY-JTQLQIEISA-N

$$$$
Tic_68diI_7OH
     RDKit          2D

 16 17  0  0  0  0  0  0  0  0999 V2000
   -2.0401   -1.4748    0.0000 N   0  0  0  0  0  0  0  0  0  0  0  0
   -2.4319   -0.0269    0.0000 C   0  0  0  0  0  0  0  0  0  0  0  0
   -1.3739    1.0364    0.0000 C   0  0  0  0  0  0  0  0  0  0  0  0
    0.0759    0.6518    0.0000 C   0  0  0  0  0  0  0  0  0  0  0  0
    1.1339    1.7152    0.0000 C   0  0  0  0  0  0  0  0  0  0  0  0
    2.5838    1.3306    0.0000 C   0  0  0  0  0  0  0  0  0  0  0  0
    3.6418    2.3939    0.0000 I   0  0  0  0  0  0  0  0  0  0  0  0
    2.9756   -0.1174    0.0000 C   0  0  0  0  0  0  0  0  0  0  0  0
    4.4255   -0.5020    0.0000 O   0  0  0  0  0  0  0  0  0  0  0  0
    1.9176   -1.1807    0.0000 C   0  0  0  0  0  0  0  0  0  0  0  0
    2.3095   -2.6286    0.0000 I   0  0  0  0  0  0  0  0  0  0  0  0
    0.4678   -0.7961    0.0000 C   0  0  0  0  0  0  0  0  0  0  0  0
   -0.5902   -1.8594    0.0000 C   0  0  0  0  0  0  0  0  0  0  0  0
   -3.8818    0.3577    0.0000 C   0  0  0  0  0  0  0  0  0  0  0  0
   -4.9398   -0.7056    0.0000 O   0  0  0  0  0  0  0  0  0  0  0  0
   -4.2736    1.8056    0.0000 O   0  0  0  0  0  0  0  0  0  0  0  0
  1  2  1  0
  2  3  1  0
  3  4  1  0
  4  5  1  0
  5  6  2  0
  6  7  1  0
  6  8  1  0
  8  9  1  0
  8 10  2  0
 10 11  1  0
 10 12  1  0
 12 13  1  0
  2 14  1  6
 14 15  2  0
 14 16  1  0
 12  4  2  0
 13  1  1  0
M  END
>  <rName>  (3441) 
Tic_68diI_7OH

>  <PQ_SYMBOL>  (3441) 
Tic_68diI_7OH

>  <FULL_NAME>  (3441) 
(3S)-7-hydroxy-6,8-diiodo-1,2,3,4-tetrahydroisoquinoline-3-carboxylic acid

>  <IUPAC_CONDENSED>  (3441) 
Tic(6,8-diI,7-OH)

>  <IUPAC>  (3441) 
(4S)-9-hydroxy-8,10-diiodo-3-azabicyclo[4.4.0]deca-1(10),6,8-triene-4-carboxylic acid

>  <TYPE>  (3441) 
Backbone

>  <CLASS>  (3441) 
alpha

>  <ANALOG>  (3441) 
Pro

>  <MOL_WT>  (3441) 
444.9940000000001

>  <LOGP>  (3441) 
1.7003000000000001

>  <TPSA>  (3441) 
69.56

>  <POPULARITY>  (3441) 
5.4

>  <PROTECTED>  (3441) 
TRUE

>  <SMILES>  (3441) 
N2[C@@H](Cc1(cc(I)c(O)c(I)c1C2))C(=O)O

>  <INCHIKEY>  (3441) 
FGHLNNQVWGFFNZ-ZETCQYMHSA-N

$$$$
Tic_6Br
     RDKit          2D

 14 15  0  0  0  0  0  0  0  0999 V2000
   -1.7557   -1.4941    0.0000 N   0  0  0  0  0  0  0  0  0  0  0  0
   -1.9669   -0.0091    0.0000 C   0  0  0  0  0  0  0  0  0  0  0  0
   -0.7863    0.9163    0.0000 C   0  0  0  0  0  0  0  0  0  0  0  0
    0.6054    0.3566    0.0000 C   0  0  0  0  0  0  0  0  0  0  0  0
    1.7859    1.2820    0.0000 C   0  0  0  0  0  0  0  0  0  0  0  0
    3.1776    0.7223    0.0000 C   0  0  0  0  0  0  0  0  0  0  0  0
    4.3581    1.6476    0.0000 Br  0  0  0  0  0  0  0  0  0  0  0  0
    3.3887   -0.7628    0.0000 C   0  0  0  0  0  0  0  0  0  0  0  0
    2.2081   -1.6882    0.0000 C   0  0  0  0  0  0  0  0  0  0  0  0
    0.8165   -1.1285    0.0000 C   0  0  0  0  0  0  0  0  0  0  0  0
   -0.3641   -2.0538    0.0000 C   0  0  0  0  0  0  0  0  0  0  0  0
   -3.3585    0.5507    0.0000 C   0  0  0  0  0  0  0  0  0  0  0  0
   -4.5391   -0.3747    0.0000 O   0  0  0  0  0  0  0  0  0  0  0  0
   -3.5696    2.0357    0.0000 O   0  0  0  0  0  0  0  0  0  0  0  0
  1  2  1  0
  2  3  1  0
  3  4  1  0
  4  5  1  0
  5  6  2  0
  6  7  1  0
  6  8  1  0
  8  9  2  0
  9 10  1  0
 10 11  1  0
  2 12  1  6
 12 13  2  0
 12 14  1  0
 10  4  2  0
 11  1  1  0
M  END
>  <rName>  (3442) 
Tic_6Br

>  <PQ_SYMBOL>  (3442) 
Tic_6Br

>  <FULL_NAME>  (3442) 
(S)-6-Bromo-1,2,3,4-tetrahydroisoquinoline-3-carboxylic Acid

>  <IUPAC_CONDENSED>  (3442) 
Tic(6-Br)

>  <IUPAC>  (3442) 
(4S)-8-bromo-3-azabicyclo[4.4.0]deca-1(10),6,8-triene-4-carboxylic acid

>  <TYPE>  (3442) 
Backbone

>  <CLASS>  (3442) 
alpha

>  <ANALOG>  (3442) 
Pro

>  <MOL_WT>  (3442) 
256.09899999999993

>  <LOGP>  (3442) 
1.548

>  <TPSA>  (3442) 
49.33

>  <POPULARITY>  (3442) 
4.0

>  <PROTECTED>  (3442) 
TRUE

>  <SMILES>  (3442) 
N2[C@@H](Cc1(cc(Br)ccc1C2))C(=O)O

>  <INCHIKEY>  (3442) 
ABTKHLULIDKVRJ-VIFPVBQESA-N

$$$$
Tic_6F
     RDKit          2D

 14 15  0  0  0  0  0  0  0  0999 V2000
   -1.7557   -1.4941    0.0000 N   0  0  0  0  0  0  0  0  0  0  0  0
   -1.9669   -0.0091    0.0000 C   0  0  0  0  0  0  0  0  0  0  0  0
   -0.7863    0.9163    0.0000 C   0  0  0  0  0  0  0  0  0  0  0  0
    0.6054    0.3566    0.0000 C   0  0  0  0  0  0  0  0  0  0  0  0
    1.7859    1.2820    0.0000 C   0  0  0  0  0  0  0  0  0  0  0  0
    3.1776    0.7223    0.0000 C   0  0  0  0  0  0  0  0  0  0  0  0
    4.3581    1.6476    0.0000 F   0  0  0  0  0  0  0  0  0  0  0  0
    3.3887   -0.7628    0.0000 C   0  0  0  0  0  0  0  0  0  0  0  0
    2.2081   -1.6882    0.0000 C   0  0  0  0  0  0  0  0  0  0  0  0
    0.8165   -1.1285    0.0000 C   0  0  0  0  0  0  0  0  0  0  0  0
   -0.3641   -2.0538    0.0000 C   0  0  0  0  0  0  0  0  0  0  0  0
   -3.3585    0.5507    0.0000 C   0  0  0  0  0  0  0  0  0  0  0  0
   -4.5391   -0.3747    0.0000 O   0  0  0  0  0  0  0  0  0  0  0  0
   -3.5696    2.0357    0.0000 O   0  0  0  0  0  0  0  0  0  0  0  0
  1  2  1  0
  2  3  1  0
  3  4  1  0
  4  5  1  0
  5  6  2  0
  6  7  1  0
  6  8  1  0
  8  9  2  0
  9 10  1  0
 10 11  1  0
  2 12  1  6
 12 13  2  0
 12 14  1  0
 10  4  2  0
 11  1  1  0
M  END
>  <rName>  (3443) 
Tic_6F

>  <PQ_SYMBOL>  (3443) 
Tic_6F

>  <FULL_NAME>  (3443) 
(3S)-6-fluoro-1,2,3,4-tetrahydroisoquinoline-3-carboxylic acid

>  <IUPAC_CONDENSED>  (3443) 
Tic(6-F)

>  <IUPAC>  (3443) 
(3S)-6-fluoro-1,2,3,4-tetrahydroisoquinoline-3-carboxylic acid

>  <TYPE>  (3443) 
Backbone

>  <CLASS>  (3443) 
alpha

>  <ANALOG>  (3443) 
Pro

>  <MOL_WT>  (3443) 
195.19299999999996

>  <LOGP>  (3443) 
0.9246000000000001

>  <TPSA>  (3443) 
49.33

>  <POPULARITY>  (3443) 
2.2

>  <PROTECTED>  (3443) 
TRUE

>  <SMILES>  (3443) 
N2[C@@H](Cc1(cc(F)ccc1C2))C(=O)O

>  <INCHIKEY>  (3443) 
SRLSCFGRFIBSHD-VIFPVBQESA-N

$$$$
Tic_6OH
     RDKit          2D

 14 15  0  0  0  0  0  0  0  0999 V2000
   -1.7557   -1.4941    0.0000 N   0  0  0  0  0  0  0  0  0  0  0  0
   -1.9669   -0.0091    0.0000 C   0  0  0  0  0  0  0  0  0  0  0  0
   -0.7863    0.9163    0.0000 C   0  0  0  0  0  0  0  0  0  0  0  0
    0.6054    0.3566    0.0000 C   0  0  0  0  0  0  0  0  0  0  0  0
    1.7859    1.2820    0.0000 C   0  0  0  0  0  0  0  0  0  0  0  0
    3.1776    0.7223    0.0000 C   0  0  0  0  0  0  0  0  0  0  0  0
    4.3581    1.6476    0.0000 O   0  0  0  0  0  0  0  0  0  0  0  0
    3.3887   -0.7628    0.0000 C   0  0  0  0  0  0  0  0  0  0  0  0
    2.2081   -1.6882    0.0000 C   0  0  0  0  0  0  0  0  0  0  0  0
    0.8165   -1.1285    0.0000 C   0  0  0  0  0  0  0  0  0  0  0  0
   -0.3641   -2.0538    0.0000 C   0  0  0  0  0  0  0  0  0  0  0  0
   -3.3585    0.5507    0.0000 C   0  0  0  0  0  0  0  0  0  0  0  0
   -4.5391   -0.3747    0.0000 O   0  0  0  0  0  0  0  0  0  0  0  0
   -3.5696    2.0357    0.0000 O   0  0  0  0  0  0  0  0  0  0  0  0
  1  2  1  0
  2  3  1  0
  3  4  1  0
  4  5  1  0
  5  6  2  0
  6  7  1  0
  6  8  1  0
  8  9  2  0
  9 10  1  0
 10 11  1  0
  2 12  1  6
 12 13  2  0
 12 14  1  0
 10  4  2  0
 11  1  1  0
M  END
>  <rName>  (3444) 
Tic_6OH

>  <PQ_SYMBOL>  (3444) 
Tic_6OH

>  <FULL_NAME>  (3444) 
(3S)-6-hydroxy-1,2,3,4-tetrahydroisoquinoline-3-carboxylic acid

>  <IUPAC_CONDENSED>  (3444) 
Tic(6-OH)

>  <IUPAC>  (3444) 
(4S)-8-hydroxy-3-azabicyclo[4.4.0]deca-1(10),6,8-triene-4-carboxylic acid

>  <TYPE>  (3444) 
Backbone

>  <CLASS>  (3444) 
alpha

>  <ANALOG>  (3444) 
Pro

>  <MOL_WT>  (3444) 
193.20199999999994

>  <LOGP>  (3444) 
0.49109999999999987

>  <TPSA>  (3444) 
69.56

>  <POPULARITY>  (3444) 
15.2

>  <PROTECTED>  (3444) 
TRUE

>  <SMILES>  (3444) 
N2[C@@H](Cc1(cc(O)ccc1C2))C(=O)O

>  <INCHIKEY>  (3444) 
CRAGDYRHPWTZJL-VIFPVBQESA-N

$$$$
Tic_7Br
     RDKit          2D

 14 15  0  0  0  0  0  0  0  0999 V2000
   -1.5721   -1.5367    0.0000 N   0  0  0  0  0  0  0  0  0  0  0  0
   -2.0048   -0.1005    0.0000 C   0  0  0  0  0  0  0  0  0  0  0  0
   -0.9774    0.9924    0.0000 C   0  0  0  0  0  0  0  0  0  0  0  0
    0.4828    0.6490    0.0000 C   0  0  0  0  0  0  0  0  0  0  0  0
    1.5103    1.7419    0.0000 C   0  0  0  0  0  0  0  0  0  0  0  0
    2.9704    1.3985    0.0000 C   0  0  0  0  0  0  0  0  0  0  0  0
    3.4032   -0.0377    0.0000 C   0  0  0  0  0  0  0  0  0  0  0  0
    4.8633   -0.3811    0.0000 Br  0  0  0  0  0  0  0  0  0  0  0  0
    2.3757   -1.1306    0.0000 C   0  0  0  0  0  0  0  0  0  0  0  0
    0.9155   -0.7872    0.0000 C   0  0  0  0  0  0  0  0  0  0  0  0
   -0.1119   -1.8801    0.0000 C   0  0  0  0  0  0  0  0  0  0  0  0
   -3.4650    0.2429    0.0000 C   0  0  0  0  0  0  0  0  0  0  0  0
   -4.4924   -0.8500    0.0000 O   0  0  0  0  0  0  0  0  0  0  0  0
   -3.8977    1.6791    0.0000 O   0  0  0  0  0  0  0  0  0  0  0  0
  1  2  1  0
  2  3  1  0
  3  4  1  0
  4  5  1  0
  5  6  2  0
  6  7  1  0
  7  8  1  0
  7  9  2  0
  9 10  1  0
 10 11  1  0
  2 12  1  6
 12 13  2  0
 12 14  1  0
 10  4  2  0
 11  1  1  0
M  END
>  <rName>  (3445) 
Tic_7Br

>  <PQ_SYMBOL>  (3445) 
Tic_7Br

>  <FULL_NAME>  (3445) 
(S)-7-bromo-1,2,3,4-tetrahydroisoquinoline-3-carboxylic acid

>  <IUPAC_CONDENSED>  (3445) 
Tic(7-Br)

>  <IUPAC>  (3445) 
(4S)-9-bromo-3-azabicyclo[4.4.0]deca-1(10),6,8-triene-4-carboxylic acid

>  <TYPE>  (3445) 
Backbone

>  <CLASS>  (3445) 
alpha

>  <ANALOG>  (3445) 
Pro

>  <MOL_WT>  (3445) 
256.09899999999993

>  <LOGP>  (3445) 
1.548

>  <TPSA>  (3445) 
49.33

>  <POPULARITY>  (3445) 
4.3

>  <PROTECTED>  (3445) 
TRUE

>  <SMILES>  (3445) 
N2[C@@H](Cc1(ccc(Br)cc1C2))C(=O)O

>  <INCHIKEY>  (3445) 
MRRCQSLPXUIPDE-VIFPVBQESA-N

$$$$
Tic_7Cl
     RDKit          2D

 14 15  0  0  0  0  0  0  0  0999 V2000
   -1.5721   -1.5367    0.0000 N   0  0  0  0  0  0  0  0  0  0  0  0
   -2.0048   -0.1005    0.0000 C   0  0  0  0  0  0  0  0  0  0  0  0
   -0.9774    0.9924    0.0000 C   0  0  0  0  0  0  0  0  0  0  0  0
    0.4828    0.6490    0.0000 C   0  0  0  0  0  0  0  0  0  0  0  0
    1.5103    1.7419    0.0000 C   0  0  0  0  0  0  0  0  0  0  0  0
    2.9704    1.3985    0.0000 C   0  0  0  0  0  0  0  0  0  0  0  0
    3.4032   -0.0377    0.0000 C   0  0  0  0  0  0  0  0  0  0  0  0
    4.8633   -0.3811    0.0000 Cl  0  0  0  0  0  0  0  0  0  0  0  0
    2.3757   -1.1306    0.0000 C   0  0  0  0  0  0  0  0  0  0  0  0
    0.9155   -0.7872    0.0000 C   0  0  0  0  0  0  0  0  0  0  0  0
   -0.1119   -1.8801    0.0000 C   0  0  0  0  0  0  0  0  0  0  0  0
   -3.4650    0.2429    0.0000 C   0  0  0  0  0  0  0  0  0  0  0  0
   -4.4924   -0.8500    0.0000 O   0  0  0  0  0  0  0  0  0  0  0  0
   -3.8977    1.6791    0.0000 O   0  0  0  0  0  0  0  0  0  0  0  0
  1  2  1  0
  2  3  1  0
  3  4  1  0
  4  5  1  0
  5  6  2  0
  6  7  1  0
  7  8  1  0
  7  9  2  0
  9 10  1  0
 10 11  1  0
  2 12  1  6
 12 13  2  0
 12 14  1  0
 10  4  2  0
 11  1  1  0
M  END
>  <rName>  (3446) 
Tic_7Cl

>  <PQ_SYMBOL>  (3446) 
Tic_7Cl

>  <FULL_NAME>  (3446) 
(S)-7-Chloro-1,2,3,4-tetrahydroisoquinoline-3-carboxylic acid

>  <IUPAC_CONDENSED>  (3446) 
Tic(7-Cl)

>  <IUPAC>  (3446) 
(4S)-9-chloro-3-azabicyclo[4.4.0]deca-1(10),6,8-triene-4-carboxylic acid

>  <TYPE>  (3446) 
Backbone

>  <CLASS>  (3446) 
alpha

>  <ANALOG>  (3446) 
Pro

>  <MOL_WT>  (3446) 
211.64799999999997

>  <LOGP>  (3446) 
1.4389

>  <TPSA>  (3446) 
49.33

>  <POPULARITY>  (3446) 
4.3

>  <PROTECTED>  (3446) 
TRUE

>  <SMILES>  (3446) 
N2[C@@H](Cc1(ccc(Cl)cc1C2))C(=O)O

>  <INCHIKEY>  (3446) 
JCIOLAVNXSFZSH-VIFPVBQESA-N

$$$$
Tic_7Me
     RDKit          2D

 14 15  0  0  0  0  0  0  0  0999 V2000
   -1.5721   -1.5367    0.0000 N   0  0  0  0  0  0  0  0  0  0  0  0
   -2.0048   -0.1005    0.0000 C   0  0  0  0  0  0  0  0  0  0  0  0
   -0.9774    0.9924    0.0000 C   0  0  0  0  0  0  0  0  0  0  0  0
    0.4828    0.6490    0.0000 C   0  0  0  0  0  0  0  0  0  0  0  0
    1.5103    1.7419    0.0000 C   0  0  0  0  0  0  0  0  0  0  0  0
    2.9704    1.3985    0.0000 C   0  0  0  0  0  0  0  0  0  0  0  0
    3.4032   -0.0377    0.0000 C   0  0  0  0  0  0  0  0  0  0  0  0
    4.8633   -0.3811    0.0000 C   0  0  0  0  0  0  0  0  0  0  0  0
    2.3757   -1.1306    0.0000 C   0  0  0  0  0  0  0  0  0  0  0  0
    0.9155   -0.7872    0.0000 C   0  0  0  0  0  0  0  0  0  0  0  0
   -0.1119   -1.8801    0.0000 C   0  0  0  0  0  0  0  0  0  0  0  0
   -3.4650    0.2429    0.0000 C   0  0  0  0  0  0  0  0  0  0  0  0
   -4.4924   -0.8500    0.0000 O   0  0  0  0  0  0  0  0  0  0  0  0
   -3.8977    1.6791    0.0000 O   0  0  0  0  0  0  0  0  0  0  0  0
  1  2  1  0
  2  3  1  0
  3  4  1  0
  4  5  1  0
  5  6  2  0
  6  7  1  0
  7  8  1  0
  7  9  2  0
  9 10  1  0
 10 11  1  0
  2 12  1  6
 12 13  2  0
 12 14  1  0
 10  4  2  0
 11  1  1  0
M  END
>  <rName>  (3447) 
Tic_7Me

>  <PQ_SYMBOL>  (3447) 
Tic_7Me

>  <FULL_NAME>  (3447) 
(S)-7-Methyl-1,2,3,4-tetrahydroisoquinoline-3-carboxylic Acid

>  <IUPAC_CONDENSED>  (3447) 
Tic(7-Me)

>  <IUPAC>  (3447) 
(3S)-7-methyl-1,2,3,4-tetrahydroisoquinoline-3-carboxylic acid

>  <TYPE>  (3447) 
Backbone

>  <CLASS>  (3447) 
alpha

>  <ANALOG>  (3447) 
Pro

>  <MOL_WT>  (3447) 
191.22999999999996

>  <LOGP>  (3447) 
1.09392

>  <TPSA>  (3447) 
49.33

>  <POPULARITY>  (3447) 
2.2

>  <PROTECTED>  (3447) 
TRUE

>  <SMILES>  (3447) 
N2[C@@H](Cc1(ccc(C)cc1C2))C(=O)O

>  <INCHIKEY>  (3447) 
IFKNWIVAOLUMOT-JTQLQIEISA-N

$$$$
Tic_7OH
     RDKit          2D

 14 15  0  0  0  0  0  0  0  0999 V2000
   -1.5721   -1.5367    0.0000 N   0  0  0  0  0  0  0  0  0  0  0  0
   -2.0048   -0.1005    0.0000 C   0  0  0  0  0  0  0  0  0  0  0  0
   -0.9774    0.9924    0.0000 C   0  0  0  0  0  0  0  0  0  0  0  0
    0.4828    0.6490    0.0000 C   0  0  0  0  0  0  0  0  0  0  0  0
    1.5103    1.7419    0.0000 C   0  0  0  0  0  0  0  0  0  0  0  0
    2.9704    1.3985    0.0000 C   0  0  0  0  0  0  0  0  0  0  0  0
    3.4032   -0.0377    0.0000 C   0  0  0  0  0  0  0  0  0  0  0  0
    4.8633   -0.3811    0.0000 O   0  0  0  0  0  0  0  0  0  0  0  0
    2.3757   -1.1306    0.0000 C   0  0  0  0  0  0  0  0  0  0  0  0
    0.9155   -0.7872    0.0000 C   0  0  0  0  0  0  0  0  0  0  0  0
   -0.1119   -1.8801    0.0000 C   0  0  0  0  0  0  0  0  0  0  0  0
   -3.4650    0.2429    0.0000 C   0  0  0  0  0  0  0  0  0  0  0  0
   -4.4924   -0.8500    0.0000 O   0  0  0  0  0  0  0  0  0  0  0  0
   -3.8977    1.6791    0.0000 O   0  0  0  0  0  0  0  0  0  0  0  0
  1  2  1  0
  2  3  1  0
  3  4  1  0
  4  5  1  0
  5  6  2  0
  6  7  1  0
  7  8  1  0
  7  9  2  0
  9 10  1  0
 10 11  1  0
  2 12  1  6
 12 13  2  0
 12 14  1  0
 10  4  2  0
 11  1  1  0
M  END
>  <rName>  (3448) 
Tic_7OH

>  <PQ_SYMBOL>  (3448) 
Tic_7OH

>  <FULL_NAME>  (3448) 
(S)-7-Hydroxy-1,2,3,4-Tetrahydroisoquinoline-3-Carboxylic acid

>  <IUPAC_CONDENSED>  (3448) 
Tic(7-OH)

>  <IUPAC>  (3448) 
(4S)-9-hydroxy-3-azabicyclo[4.4.0]deca-1(10),6,8-triene-4-carboxylic acid

>  <TYPE>  (3448) 
Backbone

>  <CLASS>  (3448) 
alpha

>  <ANALOG>  (3448) 
Pro

>  <MOL_WT>  (3448) 
193.20199999999994

>  <LOGP>  (3448) 
0.49109999999999987

>  <TPSA>  (3448) 
69.56

>  <POPULARITY>  (3448) 
11.6

>  <PROTECTED>  (3448) 
TRUE

>  <SMILES>  (3448) 
N2[C@@H](Cc1(ccc(O)cc1C2))C(=O)O

>  <INCHIKEY>  (3448) 
HIKCRLDSCSWXML-VIFPVBQESA-N

$$$$
Tic_7OH-
     RDKit          2D

 14 15  0  0  0  0  0  0  0  0999 V2000
   -1.5721   -1.5367    0.0000 N   0  0  0  0  0  0  0  0  0  0  0  0
   -2.0048   -0.1005    0.0000 C   0  0  0  0  0  0  0  0  0  0  0  0
   -0.9774    0.9924    0.0000 C   0  0  0  0  0  0  0  0  0  0  0  0
    0.4828    0.6490    0.0000 C   0  0  0  0  0  0  0  0  0  0  0  0
    1.5103    1.7419    0.0000 C   0  0  0  0  0  0  0  0  0  0  0  0
    2.9704    1.3985    0.0000 C   0  0  0  0  0  0  0  0  0  0  0  0
    3.4032   -0.0377    0.0000 C   0  0  0  0  0  0  0  0  0  0  0  0
    4.8633   -0.3811    0.0000 O   0  0  0  0  0  0  0  0  0  0  0  0
    2.3757   -1.1306    0.0000 C   0  0  0  0  0  0  0  0  0  0  0  0
    0.9155   -0.7872    0.0000 C   0  0  0  0  0  0  0  0  0  0  0  0
   -0.1119   -1.8801    0.0000 C   0  0  0  0  0  0  0  0  0  0  0  0
   -3.4650    0.2429    0.0000 C   0  0  0  0  0  0  0  0  0  0  0  0
   -4.4924   -0.8500    0.0000 O   0  0  0  0  0  0  0  0  0  0  0  0
   -3.8977    1.6791    0.0000 O   0  0  0  0  0  0  0  0  0  0  0  0
  1  2  1  0
  2  3  1  0
  3  4  1  0
  4  5  1  0
  5  6  2  0
  6  7  1  0
  7  8  1  0
  7  9  2  0
  9 10  1  0
 10 11  1  0
  2 12  1  6
 12 13  2  0
 12 14  1  0
 10  4  2  0
 11  1  1  0
M  END
>  <rName>  (3449) 
Tic_7OH-

>  <PQ_SYMBOL>  (3449) 
Tic_7OH-

>  <FULL_NAME>  (3449) 
(3S)-7-hydroxy-1,2,3,4-tetrahydroisoquinoline-3-carboxylic acid

>  <IUPAC_CONDENSED>  (3449) 
Tic(7-OH)-

>  <IUPAC>  (3449) 
(4S)-9-hydroxy-3-azabicyclo[4.4.0]deca-1(10),6,8-triene-4-carboxylic acid

>  <TYPE>  (3449) 
N-term cap

>  <CLASS>  (3449) 
n_cap

>  <ANALOG>  (3449) 
X

>  <MOL_WT>  (3449) 
193.20199999999994

>  <LOGP>  (3449) 
0.49109999999999987

>  <TPSA>  (3449) 
69.56

>  <POPULARITY>  (3449) 
12.8

>  <PROTECTED>  (3449) 
TRUE

>  <SMILES>  (3449) 
N2[C@@H](Cc1(ccc(O)cc1C2))C(=O)O

>  <INCHIKEY>  (3449) 
HIKCRLDSCSWXML-VIFPVBQESA-N

$$$$
Tos
     RDKit          2D

 11 11  0  0  0  0  0  0  0  0999 V2000
    3.9545    0.0000    0.0000 C   0  0  0  0  0  0  0  0  0  0  0  0
    2.4545   -0.0000    0.0000 C   0  0  0  0  0  0  0  0  0  0  0  0
    1.7045   -1.2990    0.0000 C   0  0  0  0  0  0  0  0  0  0  0  0
    0.2045   -1.2990    0.0000 C   0  0  0  0  0  0  0  0  0  0  0  0
   -0.5455    0.0000    0.0000 C   0  0  0  0  0  0  0  0  0  0  0  0
    0.2045    1.2990    0.0000 C   0  0  0  0  0  0  0  0  0  0  0  0
    1.7045    1.2990    0.0000 C   0  0  0  0  0  0  0  0  0  0  0  0
   -2.0455    0.0000    0.0000 S   0  0  0  0  0  0  0  0  0  0  0  0
   -2.0455    1.5000    0.0000 O   0  0  0  0  0  0  0  0  0  0  0  0
   -2.0455   -1.5000    0.0000 O   0  0  0  0  0  0  0  0  0  0  0  0
   -3.5455   -0.0000    0.0000 O   0  0  0  0  0  0  0  0  0  0  0  0
  1  2  1  0
  2  3  1  0
  3  4  2  0
  4  5  1  0
  5  6  2  0
  6  7  1  0
  5  8  1  0
  8  9  2  0
  8 10  2  0
  8 11  1  0
  7  2  2  0
M  END
>  <rName>  (3450) 
Tos

>  <PQ_SYMBOL>  (3450) 
Tos

>  <FULL_NAME>  (3450) 
Tosyl

>  <IUPAC_CONDENSED>  (3450) 
Tos

>  <IUPAC>  (3450) 
4-methylbenzene-1-sulfonic acid

>  <TYPE>  (3450) 
N-term cap

>  <CLASS>  (3450) 
n_cap

>  <ANALOG>  (3450) 
X

>  <MOL_WT>  (3450) 
172.20499999999998

>  <LOGP>  (3450) 
1.24172

>  <TPSA>  (3450) 
54.370000000000005

>  <POPULARITY>  (3450) 
12.0

>  <PROTECTED>  (3450) 
FALSE

>  <SMILES>  (3450) 
Cc1ccc(cc1)S(=O)(=O)O

>  <INCHIKEY>  (3450) 
JOXIMZWYDAKGHI-UHFFFAOYSA-N

$$$$
Tpi
     RDKit          2D

 16 18  0  0  0  0  0  0  0  0999 V2000
   -2.5143   -1.4629    0.0000 N   0  0  0  0  0  0  0  0  0  0  0  0
   -2.4824    0.0368    0.0000 C   0  0  0  0  0  0  0  0  0  0  0  0
   -1.1676    0.7589    0.0000 C   0  0  0  0  0  0  0  0  0  0  0  0
    0.1151   -0.0186    0.0000 C   0  0  0  0  0  0  0  0  0  0  0  0
    0.0831   -1.5183    0.0000 C   0  0  0  0  0  0  0  0  0  0  0  0
   -1.2316   -2.2404    0.0000 C   0  0  0  0  0  0  0  0  0  0  0  0
    1.4995   -2.0121    0.0000 N   0  0  0  0  0  0  0  0  0  0  0  0
    2.4069   -0.8176    0.0000 C   0  0  0  0  0  0  0  0  0  0  0  0
    3.9017   -0.6927    0.0000 C   0  0  0  0  0  0  0  0  0  0  0  0
    4.5408    0.6643    0.0000 C   0  0  0  0  0  0  0  0  0  0  0  0
    3.6852    1.8964    0.0000 C   0  0  0  0  0  0  0  0  0  0  0  0
    2.1904    1.7714    0.0000 C   0  0  0  0  0  0  0  0  0  0  0  0
    1.5513    0.4144    0.0000 C   0  0  0  0  0  0  0  0  0  0  0  0
   -3.7651    0.8143    0.0000 C   0  0  0  0  0  0  0  0  0  0  0  0
   -5.0799    0.0921    0.0000 O   0  0  0  0  0  0  0  0  0  0  0  0
   -3.7332    2.3139    0.0000 O   0  0  0  0  0  0  0  0  0  0  0  0
  1  2  1  0
  2  3  1  0
  3  4  1  0
  4  5  2  0
  5  6  1  0
  5  7  1  0
  7  8  1  0
  8  9  2  0
  9 10  1  0
 10 11  2  0
 11 12  1  0
 12 13  2  0
  2 14  1  6
 14 15  2  0
 14 16  1  0
  6  1  1  0
 13  4  1  0
 13  8  1  0
M  END
>  <rName>  (3451) 
Tpi

>  <PQ_SYMBOL>  (3451) 
Tpi

>  <FULL_NAME>  (3451) 
(3S)-2,3,4,9-tetrahydro-1H-pyrido[3,4-b]indole-3-carboxylic acid

>  <IUPAC_CONDENSED>  (3451) 
Tpi

>  <IUPAC>  (3451) 
(12S)-8,11-diazatricyclo[7.4.0.0^{2,7}]trideca-1(9),2,4,6-tetraene-12-carboxylic acid

>  <TYPE>  (3451) 
Backbone

>  <CLASS>  (3451) 
alpha

>  <ANALOG>  (3451) 
Pro

>  <MOL_WT>  (3451) 
216.24

>  <LOGP>  (3451) 
1.2668

>  <TPSA>  (3451) 
65.12

>  <POPULARITY>  (3451) 
30.3

>  <PROTECTED>  (3451) 
TRUE

>  <SMILES>  (3451) 
N1[C@@H](Cc2(c(C1)[nH]c3(ccccc23)))C(=O)O

>  <INCHIKEY>  (3451) 
FSNCEEGOMTYXKY-JTQLQIEISA-N

$$$$
Trp-OBn
     RDKit          2D

 22 24  0  0  0  0  0  0  0  0999 V2000
    0.0709   -1.5459    0.0000 N   0  0  0  0  0  0  0  0  0  0  0  0
    0.2042   -0.0518    0.0000 C   0  0  0  0  0  0  0  0  0  0  0  0
    1.5648    0.5798    0.0000 C   0  0  0  0  0  0  0  0  0  0  0  0
    2.7920   -0.2827    0.0000 C   0  0  0  0  0  0  0  0  0  0  0  0
    2.8156   -1.7825    0.0000 C   0  0  0  0  0  0  0  0  0  0  0  0
    4.2493   -2.2235    0.0000 N   0  0  0  0  0  0  0  0  0  0  0  0
    5.1118   -0.9963    0.0000 C   0  0  0  0  0  0  0  0  0  0  0  0
    6.6009   -0.8160    0.0000 C   0  0  0  0  0  0  0  0  0  0  0  0
    7.1894    0.5637    0.0000 C   0  0  0  0  0  0  0  0  0  0  0  0
    6.2887    1.7632    0.0000 C   0  0  0  0  0  0  0  0  0  0  0  0
    4.7996    1.5830    0.0000 C   0  0  0  0  0  0  0  0  0  0  0  0
    4.2111    0.2032    0.0000 C   0  0  0  0  0  0  0  0  0  0  0  0
   -1.0230    0.8106    0.0000 C   0  0  0  0  0  0  0  0  0  0  0  0
   -0.8897    2.3047    0.0000 O   0  0  0  0  0  0  0  0  0  0  0  0
   -2.3836    0.1790    0.0000 O   0  0  0  0  0  0  0  0  0  0  0  0
   -3.6108    1.0415    0.0000 C   0  0  0  0  0  0  0  0  0  0  0  0
   -4.9714    0.4099    0.0000 C   0  0  0  0  0  0  0  0  0  0  0  0
   -6.1986    1.2724    0.0000 C   0  0  0  0  0  0  0  0  0  0  0  0
   -7.5592    0.6408    0.0000 C   0  0  0  0  0  0  0  0  0  0  0  0
   -7.6925   -0.8533    0.0000 C   0  0  0  0  0  0  0  0  0  0  0  0
   -6.4652   -1.7157    0.0000 C   0  0  0  0  0  0  0  0  0  0  0  0
   -5.1047   -1.0841    0.0000 C   0  0  0  0  0  0  0  0  0  0  0  0
  2  1  1  6
  2  3  1  0
  3  4  1  0
  4  5  2  0
  5  6  1  0
  6  7  1  0
  7  8  2  0
  8  9  1  0
  9 10  2  0
 10 11  1  0
 11 12  2  0
  2 13  1  0
 13 14  2  0
 13 15  1  0
 15 16  1  0
 16 17  1  0
 17 18  2  0
 18 19  1  0
 19 20  2  0
 20 21  1  0
 21 22  2  0
 22 17  1  0
 12  4  1  0
 12  7  1  0
M  END
>  <rName>  (3452) 
Trp-OBn

>  <PQ_SYMBOL>  (3452) 
Trp-OBn

>  <FULL_NAME>  (3452) 
Tryptophan benzyl ester

>  <IUPAC_CONDENSED>  (3452) 
Trp-OBn

>  <IUPAC>  (3452) 
benzyl (2S)-2-amino-3-(1H-indol-3-yl)propanoate

>  <TYPE>  (3452) 
C-term cap

>  <CLASS>  (3452) 
c_cap

>  <ANALOG>  (3452) 
X

>  <MOL_WT>  (3452) 
294.354

>  <LOGP>  (3452) 
2.7811000000000012

>  <TPSA>  (3452) 
68.11

>  <POPULARITY>  (3452) 
14.9

>  <PROTECTED>  (3452) 
TRUE

>  <SMILES>  (3452) 
N[C@@H](Cc2(c[nH]c3(ccccc23)))C(=O)OCc1ccccc1

>  <INCHIKEY>  (3452) 
TYQYRKDGHAPZRF-INIZCTEOSA-N

$$$$
Trp-OEt
     RDKit          2D

 17 18  0  0  0  0  0  0  0  0999 V2000
   -1.7497    1.7769    0.0000 N   0  0  0  0  0  0  0  0  0  0  0  0
   -1.7228    0.2772    0.0000 C   0  0  0  0  0  0  0  0  0  0  0  0
   -3.0082   -0.4960    0.0000 C   0  0  0  0  0  0  0  0  0  0  0  0
   -2.9813   -1.9958    0.0000 O   0  0  0  0  0  0  0  0  0  0  0  0
   -4.3205    0.2306    0.0000 O   0  0  0  0  0  0  0  0  0  0  0  0
   -5.6058   -0.5426    0.0000 C   0  0  0  0  0  0  0  0  0  0  0  0
   -6.9181    0.1840    0.0000 C   0  0  0  0  0  0  0  0  0  0  0  0
   -0.4105   -0.4494    0.0000 C   0  0  0  0  0  0  0  0  0  0  0  0
    0.8749    0.3238    0.0000 C   0  0  0  0  0  0  0  0  0  0  0  0
    2.2559   -0.2617    0.0000 C   0  0  0  0  0  0  0  0  0  0  0  0
    2.7449   -1.6797    0.0000 C   0  0  0  0  0  0  0  0  0  0  0  0
    4.2175   -1.9652    0.0000 C   0  0  0  0  0  0  0  0  0  0  0  0
    5.2011   -0.8327    0.0000 C   0  0  0  0  0  0  0  0  0  0  0  0
    4.7120    0.5854    0.0000 C   0  0  0  0  0  0  0  0  0  0  0  0
    3.2394    0.8709    0.0000 C   0  0  0  0  0  0  0  0  0  0  0  0
    2.4663    2.1563    0.0000 N   0  0  0  0  0  0  0  0  0  0  0  0
    1.0049    1.8181    0.0000 C   0  0  0  0  0  0  0  0  0  0  0  0
  2  1  1  1
  2  3  1  0
  3  4  2  0
  3  5  1  0
  5  6  1  0
  6  7  1  0
  2  8  1  0
  8  9  1  0
  9 10  1  0
 10 11  2  0
 11 12  1  0
 12 13  2  0
 13 14  1  0
 14 15  2  0
 15 16  1  0
 16 17  1  0
 15 10  1  0
 17  9  2  0
M  END
>  <rName>  (3453) 
Trp-OEt

>  <PQ_SYMBOL>  (3453) 
Trp-OEt

>  <FULL_NAME>  (3453) 
ethyl (2S)-2-amino-3-(1H-indol-3-yl)propanoate

>  <IUPAC_CONDENSED>  (3453) 
Trp-OEt

>  <IUPAC>  (3453) 
ethyl (2S)-2-amino-3-(1H-indol-3-yl)propanoate

>  <TYPE>  (3453) 
C-term cap

>  <CLASS>  (3453) 
c_cap

>  <ANALOG>  (3453) 
X

>  <MOL_WT>  (3453) 
232.28300000000004

>  <LOGP>  (3453) 
1.6008

>  <TPSA>  (3453) 
68.11000000000001

>  <POPULARITY>  (3453) 
9.5

>  <PROTECTED>  (3453) 
TRUE

>  <SMILES>  (3453) 
N[C@H](C(=O)OCC)Cc2c1ccccc1[nH]c2

>  <INCHIKEY>  (3453) 
DABYEOZXRSTEGL-NSHDSACASA-N

$$$$
Trp-OMe
     RDKit          2D

 16 17  0  0  0  0  0  0  0  0999 V2000
   -2.1653    1.8088    0.0000 N   0  0  0  0  0  0  0  0  0  0  0  0
   -2.1524    0.3088    0.0000 C   0  0  0  0  0  0  0  0  0  0  0  0
   -3.4449   -0.4523    0.0000 C   0  0  0  0  0  0  0  0  0  0  0  0
   -3.4321   -1.9523    0.0000 O   0  0  0  0  0  0  0  0  0  0  0  0
   -4.7504    0.2865    0.0000 O   0  0  0  0  0  0  0  0  0  0  0  0
   -6.0429   -0.4746    0.0000 C   0  0  0  0  0  0  0  0  0  0  0  0
   -0.8470   -0.4300    0.0000 C   0  0  0  0  0  0  0  0  0  0  0  0
    0.4456    0.3311    0.0000 C   0  0  0  0  0  0  0  0  0  0  0  0
    1.8211   -0.2672    0.0000 C   0  0  0  0  0  0  0  0  0  0  0  0
    2.2969   -1.6898    0.0000 C   0  0  0  0  0  0  0  0  0  0  0  0
    3.7667   -1.9890    0.0000 C   0  0  0  0  0  0  0  0  0  0  0  0
    4.7608   -0.8657    0.0000 C   0  0  0  0  0  0  0  0  0  0  0  0
    4.2850    0.5568    0.0000 C   0  0  0  0  0  0  0  0  0  0  0  0
    2.8152    0.8561    0.0000 C   0  0  0  0  0  0  0  0  0  0  0  0
    2.0541    2.1486    0.0000 N   0  0  0  0  0  0  0  0  0  0  0  0
    0.5896    1.8242    0.0000 C   0  0  0  0  0  0  0  0  0  0  0  0
  2  1  1  1
  2  3  1  0
  3  4  2  0
  3  5  1  0
  5  6  1  0
  2  7  1  0
  7  8  1  0
  8  9  1  0
  9 10  2  0
 10 11  1  0
 11 12  2  0
 12 13  1  0
 13 14  2  0
 14 15  1  0
 15 16  1  0
 14  9  1  0
 16  8  2  0
M  END
>  <rName>  (3454) 
Trp-OMe

>  <PQ_SYMBOL>  (3454) 
Trp-OMe

>  <FULL_NAME>  (3454) 
L-Tryptophan methyl ester

>  <IUPAC_CONDENSED>  (3454) 
Trp-OMe

>  <IUPAC>  (3454) 
methyl (2S)-2-amino-3-(1H-indol-3-yl)propanoate

>  <TYPE>  (3454) 
C-term cap

>  <CLASS>  (3454) 
c_cap

>  <ANALOG>  (3454) 
X

>  <MOL_WT>  (3454) 
218.25600000000003

>  <LOGP>  (3454) 
1.2106999999999994

>  <TPSA>  (3454) 
68.11000000000001

>  <POPULARITY>  (3454) 
14.2

>  <PROTECTED>  (3454) 
TRUE

>  <SMILES>  (3454) 
N[C@H](C(=O)OC)Cc2c1ccccc1[nH]c2

>  <INCHIKEY>  (3454) 
KCUNTYMNJVXYKZ-JTQLQIEISA-N

$$$$
Trp-ol
     RDKit          2D

 14 15  0  0  0  0  0  0  0  0999 V2000
   -3.0130    1.2937    0.0000 N   0  0  0  0  0  0  0  0  0  0  0  0
   -2.8257   -0.1946    0.0000 C   0  0  0  0  0  0  0  0  0  0  0  0
   -4.0210   -1.1009    0.0000 C   0  0  0  0  0  0  0  0  0  0  0  0
   -5.4035   -0.5189    0.0000 O   0  0  0  0  0  0  0  0  0  0  0  0
   -1.4432   -0.7765    0.0000 C   0  0  0  0  0  0  0  0  0  0  0  0
   -0.2480    0.1298    0.0000 C   0  0  0  0  0  0  0  0  0  0  0  0
    1.1878   -0.3045    0.0000 C   0  0  0  0  0  0  0  0  0  0  0  0
    1.8258   -1.6620    0.0000 C   0  0  0  0  0  0  0  0  0  0  0  0
    3.3205   -1.7883    0.0000 C   0  0  0  0  0  0  0  0  0  0  0  0
    4.1771   -0.5570    0.0000 C   0  0  0  0  0  0  0  0  0  0  0  0
    3.5391    0.8006    0.0000 C   0  0  0  0  0  0  0  0  0  0  0  0
    2.0445    0.9269    0.0000 C   0  0  0  0  0  0  0  0  0  0  0  0
    1.1382    2.1221    0.0000 N   0  0  0  0  0  0  0  0  0  0  0  0
   -0.2787    1.6295    0.0000 C   0  0  0  0  0  0  0  0  0  0  0  0
  2  1  1  1
  2  3  1  0
  3  4  1  0
  2  5  1  0
  5  6  1  0
  6  7  1  0
  7  8  2  0
  8  9  1  0
  9 10  2  0
 10 11  1  0
 11 12  2  0
 12 13  1  0
 13 14  1  0
 12  7  1  0
 14  6  2  0
M  END
>  <rName>  (3455) 
Trp-ol

>  <PQ_SYMBOL>  (3455) 
Trp-ol

>  <FULL_NAME>  (3455) 
TRYPTOPHANOL

>  <IUPAC_CONDENSED>  (3455) 
Trp-ol

>  <IUPAC>  (3455) 
(2S)-2-amino-3-(1H-indol-3-yl)propan-1-ol

>  <TYPE>  (3455) 
C-term cap

>  <CLASS>  (3455) 
c_cap

>  <ANALOG>  (3455) 
X

>  <MOL_WT>  (3455) 
190.246

>  <LOGP>  (3455) 
1.03

>  <TPSA>  (3455) 
62.04

>  <POPULARITY>  (3455) 
11.8

>  <PROTECTED>  (3455) 
FALSE

>  <SMILES>  (3455) 
N[C@H](CO)Cc2c1ccccc1[nH]c2

>  <INCHIKEY>  (3455) 
UDQCRUSSQAXPJY-VIFPVBQESA-N

$$$$
Trp6-NNHPh7-OH-al
     RDKit          2D

 23 25  0  0  0  0  0  0  0  0999 V2000
   -6.4041    0.7177    0.0000 N   0  0  0  0  0  0  0  0  0  0  0  0
   -5.9374   -0.7078    0.0000 C   0  0  0  0  0  0  0  0  0  0  0  0
   -6.9385   -1.8248    0.0000 C   0  0  0  0  0  0  0  0  0  0  0  0
   -8.4065   -1.5163    0.0000 O   0  0  0  0  0  0  0  0  0  0  0  0
   -4.4694   -1.0164    0.0000 C   0  0  0  0  0  0  0  0  0  0  0  0
   -3.4683    0.1006    0.0000 C   0  0  0  0  0  0  0  0  0  0  0  0
   -1.9762   -0.0527    0.0000 C   0  0  0  0  0  0  0  0  0  0  0  0
   -1.0917   -1.2643    0.0000 C   0  0  0  0  0  0  0  0  0  0  0  0
    0.3997   -1.1041    0.0000 C   0  0  0  0  0  0  0  0  0  0  0  0
    1.0067    0.2676    0.0000 C   0  0  0  0  0  0  0  0  0  0  0  0
    0.1223    1.4791    0.0000 C   0  0  0  0  0  0  0  0  0  0  0  0
    0.7292    2.8508    0.0000 O   0  0  0  0  0  0  0  0  0  0  0  0
   -1.3692    1.3190    0.0000 C   0  0  0  0  0  0  0  0  0  0  0  0
   -2.4862    2.3201    0.0000 N   0  0  0  0  0  0  0  0  0  0  0  0
   -3.7835    1.5672    0.0000 C   0  0  0  0  0  0  0  0  0  0  0  0
    2.4981    0.4278    0.0000 N   0  0  0  0  0  0  0  0  0  0  0  0
    3.3826   -0.7837    0.0000 N   0  0  0  0  0  0  0  0  0  0  0  0
    4.8740   -0.6235    0.0000 C   0  0  0  0  0  0  0  0  0  0  0  0
    5.7584   -1.8350    0.0000 C   0  0  0  0  0  0  0  0  0  0  0  0
    7.2498   -1.6748    0.0000 C   0  0  0  0  0  0  0  0  0  0  0  0
    7.8568   -0.3031    0.0000 C   0  0  0  0  0  0  0  0  0  0  0  0
    6.9724    0.9084    0.0000 C   0  0  0  0  0  0  0  0  0  0  0  0
    5.4810    0.7482    0.0000 C   0  0  0  0  0  0  0  0  0  0  0  0
  2  1  1  1
  2  3  1  0
  3  4  2  0
  2  5  1  0
  5  6  1  0
  6  7  1  0
  7  8  1  0
  8  9  2  0
  9 10  1  0
 10 11  2  0
 11 12  1  0
 11 13  1  0
 13 14  1  0
 14 15  1  0
 10 16  1  0
 16 17  1  0
 17 18  1  0
 18 19  2  0
 19 20  1  0
 20 21  2  0
 21 22  1  0
 22 23  2  0
 23 18  1  0
 13  7  2  0
 15  6  2  0
M  END
>  <rName>  (3456) 
Trp6-NNHPh7-OH-al

>  <PQ_SYMBOL>  (3456) 
Trp6-NNHPh7-OH-al

>  <FULL_NAME>  (3456) 
TRW3-(2-AMINO-3-HYDROXY-PROPYL)-6-(N'-CYCLOHEXYL-HYDRAZINO)OCTAHYDRO-INDOL-7-OL

>  <IUPAC_CONDENSED>  (3456) 
Trp(6-NNHPh,7-OH)-al

>  <IUPAC>  (3456) 
(2S)-2-amino-3-(7-hydroxy-6-(phenylhydrazinyl)-1H-indol-3-yl)propanal

>  <TYPE>  (3456) 
C-term cap

>  <CLASS>  (3456) 
c_cap

>  <ANALOG>  (3456) 
X

>  <MOL_WT>  (3456) 
310.357

>  <LOGP>  (3456) 
2.3811999999999998

>  <TPSA>  (3456) 
103.17000000000002

>  <POPULARITY>  (3456) 
5.0

>  <PROTECTED>  (3456) 
FALSE

>  <SMILES>  (3456) 
N[C@H](C=O)Cc3c2ccc(c(O)c2[nH]c3)NNc1ccccc1

>  <INCHIKEY>  (3456) 
PSUOZWHAKZSNOB-LBPRGKRZSA-N

$$$$
Trp_25_7tritBu
     RDKit          2D

 27 28  0  0  0  0  0  0  0  0999 V2000
   -1.3723    2.3857    0.0000 N   0  0  0  0  0  0  0  0  0  0  0  0
   -2.6832    1.6565    0.0000 C   0  0  0  0  0  0  0  0  0  0  0  0
   -2.7070    0.1567    0.0000 C   0  0  0  0  0  0  0  0  0  0  0  0
   -1.4201   -0.6139    0.0000 C   0  0  0  0  0  0  0  0  0  0  0  0
   -1.2870   -2.1080    0.0000 C   0  0  0  0  0  0  0  0  0  0  0  0
    0.1750   -2.4432    0.0000 N   0  0  0  0  0  0  0  0  0  0  0  0
    0.9456   -1.1562    0.0000 C   0  0  0  0  0  0  0  0  0  0  0  0
    2.4176   -0.8677    0.0000 C   0  0  0  0  0  0  0  0  0  0  0  0
    2.9038    0.5513    0.0000 C   0  0  0  0  0  0  0  0  0  0  0  0
    1.9179    1.6818    0.0000 C   0  0  0  0  0  0  0  0  0  0  0  0
    0.4459    1.3933    0.0000 C   0  0  0  0  0  0  0  0  0  0  0  0
   -0.0402   -0.0257    0.0000 C   0  0  0  0  0  0  0  0  0  0  0  0
    2.4041    3.1009    0.0000 C   0  0  0  0  0  0  0  0  0  0  0  0
    3.8231    2.6147    0.0000 C   0  0  0  0  0  0  0  0  0  0  0  0
    0.9851    3.5870    0.0000 C   0  0  0  0  0  0  0  0  0  0  0  0
    2.8903    4.5199    0.0000 C   0  0  0  0  0  0  0  0  0  0  0  0
    3.4034   -1.9983    0.0000 C   0  0  0  0  0  0  0  0  0  0  0  0
    4.5340   -1.0125    0.0000 C   0  0  0  0  0  0  0  0  0  0  0  0
    2.2729   -2.9841    0.0000 C   0  0  0  0  0  0  0  0  0  0  0  0
    4.3893   -3.1288    0.0000 C   0  0  0  0  0  0  0  0  0  0  0  0
   -2.4176   -3.0938    0.0000 C   0  0  0  0  0  0  0  0  0  0  0  0
   -3.4034   -1.9633    0.0000 C   0  0  0  0  0  0  0  0  0  0  0  0
   -1.4318   -4.2244    0.0000 C   0  0  0  0  0  0  0  0  0  0  0  0
   -3.5481   -4.0797    0.0000 C   0  0  0  0  0  0  0  0  0  0  0  0
   -3.9701    2.4271    0.0000 C   0  0  0  0  0  0  0  0  0  0  0  0
   -5.2809    1.6978    0.0000 O   0  0  0  0  0  0  0  0  0  0  0  0
   -3.9462    3.9269    0.0000 O   0  0  0  0  0  0  0  0  0  0  0  0
  2  1  1  1
  2  3  1  0
  3  4  1  0
  4  5  2  0
  5  6  1  0
  6  7  1  0
  7  8  2  0
  8  9  1  0
  9 10  2  0
 10 11  1  0
 11 12  2  0
 10 13  1  0
 13 14  1  0
 13 15  1  0
 13 16  1  0
  8 17  1  0
 17 18  1  0
 17 19  1  0
 17 20  1  0
  5 21  1  0
 21 22  1  0
 21 23  1  0
 21 24  1  0
  2 25  1  0
 25 26  2  0
 25 27  1  0
 12  4  1  0
 12  7  1  0
M  END
>  <rName>  (3457) 
Trp_25_7tritBu

>  <PQ_SYMBOL>  (3457) 
Trp_25_7tritBu

>  <FULL_NAME>  (3457) 
(2S)-2-amino-3-(2,5,7-tritert-butyl-1H-indol-3-yl)propanoic acid

>  <IUPAC_CONDENSED>  (3457) 
Trp(2,5,7-tritBu)

>  <IUPAC>  (3457) 
(2S)-2-amino-3-(2,5,7-tris(tert-butyl)-1H-indol-3-yl)propanoic acid

>  <TYPE>  (3457) 
Backbone

>  <CLASS>  (3457) 
alpha

>  <ANALOG>  (3457) 
Trp

>  <MOL_WT>  (3457) 
372.5530000000001

>  <LOGP>  (3457) 
5.014800000000005

>  <TPSA>  (3457) 
79.11

>  <POPULARITY>  (3457) 
8.4

>  <PROTECTED>  (3457) 
TRUE

>  <SMILES>  (3457) 
N[C@@H](Cc1(c([nH]c2(c(cc(cc12)C(C)(C)C)C(C)(C)C))C(C)(C)C))C(=O)O

>  <INCHIKEY>  (3457) 
IQMAPACPGQFJNG-KRWDZBQOSA-N

$$$$
Trp_2CF3
     RDKit          2D

 19 20  0  0  0  0  0  0  0  0999 V2000
   -1.8585    1.8665    0.0000 N   0  0  0  0  0  0  0  0  0  0  0  0
   -2.3122    0.4368    0.0000 C   0  0  0  0  0  0  0  0  0  0  0  0
   -1.3009   -0.6710    0.0000 C   0  0  0  0  0  0  0  0  0  0  0  0
    0.1641   -0.3491    0.0000 C   0  0  0  0  0  0  0  0  0  0  0  0
    1.2857   -1.3451    0.0000 C   0  0  0  0  0  0  0  0  0  0  0  0
    2.5796   -0.5862    0.0000 N   0  0  0  0  0  0  0  0  0  0  0  0
    2.2577    0.8789    0.0000 C   0  0  0  0  0  0  0  0  0  0  0  0
    3.1310    2.0984    0.0000 C   0  0  0  0  0  0  0  0  0  0  0  0
    2.5115    3.4645    0.0000 C   0  0  0  0  0  0  0  0  0  0  0  0
    1.0187    3.6111    0.0000 C   0  0  0  0  0  0  0  0  0  0  0  0
    0.1453    2.3915    0.0000 C   0  0  0  0  0  0  0  0  0  0  0  0
    0.7648    1.0254    0.0000 C   0  0  0  0  0  0  0  0  0  0  0  0
    1.1392   -2.8379    0.0000 C   0  0  0  0  0  0  0  0  0  0  0  0
    0.9926   -4.3307    0.0000 F   0  0  0  0  0  0  0  0  0  0  0  0
   -0.3537   -2.6914    0.0000 F   0  0  0  0  0  0  0  0  0  0  0  0
    2.6320   -2.9845    0.0000 F   0  0  0  0  0  0  0  0  0  0  0  0
   -3.7773    0.1149    0.0000 C   0  0  0  0  0  0  0  0  0  0  0  0
   -4.2310   -1.3148    0.0000 O   0  0  0  0  0  0  0  0  0  0  0  0
   -4.7886    1.2227    0.0000 O   0  0  0  0  0  0  0  0  0  0  0  0
  2  1  1  1
  2  3  1  0
  3  4  1  0
  4  5  2  0
  5  6  1  0
  6  7  1  0
  7  8  2  0
  8  9  1  0
  9 10  2  0
 10 11  1  0
 11 12  2  0
  5 13  1  0
 13 14  1  0
 13 15  1  0
 13 16  1  0
  2 17  1  0
 17 18  2  0
 17 19  1  0
 12  4  1  0
 12  7  1  0
M  END
>  <rName>  (3458) 
Trp_2CF3

>  <PQ_SYMBOL>  (3458) 
Trp_2CF3

>  <FULL_NAME>  (3458) 
(2S)-2-amino-3-[2-(trifluoromethyl)-1H-indol-3-yl]propanoic acid

>  <IUPAC_CONDENSED>  (3458) 
Trp(2-CF3)

>  <IUPAC>  (3458) 
(2S)-2-amino-3-[2-(trifluoromethyl)-1H-indol-3-yl]propanoic acid

>  <TYPE>  (3458) 
Backbone

>  <CLASS>  (3458) 
alpha

>  <ANALOG>  (3458) 
Trp

>  <MOL_WT>  (3458) 
272.22599999999994

>  <LOGP>  (3458) 
2.1411000000000002

>  <TPSA>  (3458) 
79.11

>  <POPULARITY>  (3458) 
2.2

>  <PROTECTED>  (3458) 
TRUE

>  <SMILES>  (3458) 
N[C@@H](Cc1(c([nH]c2(ccccc12))C(F)(F)F))C(=O)O

>  <INCHIKEY>  (3458) 
ATRPUTOFTBOXLM-QMMMGPOBSA-N

$$$$
Trp_2CO2H
     RDKit          2D

 18 19  0  0  0  0  0  0  0  0999 V2000
   -1.5384    1.9433    0.0000 N   0  0  0  0  0  0  0  0  0  0  0  0
   -2.1877    0.5912    0.0000 C   0  0  0  0  0  0  0  0  0  0  0  0
   -1.3414   -0.6473    0.0000 C   0  0  0  0  0  0  0  0  0  0  0  0
    0.1543   -0.5336    0.0000 C   0  0  0  0  0  0  0  0  0  0  0  0
    1.1254   -1.6768    0.0000 C   0  0  0  0  0  0  0  0  0  0  0  0
    2.5127   -1.1064    0.0000 N   0  0  0  0  0  0  0  0  0  0  0  0
    2.3990    0.3893    0.0000 C   0  0  0  0  0  0  0  0  0  0  0  0
    3.4344    1.4746    0.0000 C   0  0  0  0  0  0  0  0  0  0  0  0
    3.0122    2.9139    0.0000 C   0  0  0  0  0  0  0  0  0  0  0  0
    1.5546    3.2680    0.0000 C   0  0  0  0  0  0  0  0  0  0  0  0
    0.5192    2.1827    0.0000 C   0  0  0  0  0  0  0  0  0  0  0  0
    0.9414    0.7433    0.0000 C   0  0  0  0  0  0  0  0  0  0  0  0
    0.7714   -3.1344    0.0000 C   0  0  0  0  0  0  0  0  0  0  0  0
   -0.6680   -3.5566    0.0000 O   0  0  0  0  0  0  0  0  0  0  0  0
    1.8567   -4.1698    0.0000 O   0  0  0  0  0  0  0  0  0  0  0  0
   -3.6834    0.4774    0.0000 C   0  0  0  0  0  0  0  0  0  0  0  0
   -4.3328   -0.8747    0.0000 O   0  0  0  0  0  0  0  0  0  0  0  0
   -4.5297    1.7159    0.0000 O   0  0  0  0  0  0  0  0  0  0  0  0
  2  1  1  1
  2  3  1  0
  3  4  1  0
  4  5  2  0
  5  6  1  0
  6  7  1  0
  7  8  2  0
  8  9  1  0
  9 10  2  0
 10 11  1  0
 11 12  2  0
  5 13  1  0
 13 14  2  0
 13 15  1  0
  2 16  1  0
 16 17  2  0
 16 18  1  0
 12  7  1  0
 12  4  1  0
M  END
>  <rName>  (3459) 
Trp_2CO2H

>  <PQ_SYMBOL>  (3459) 
Trp_2CO2H

>  <FULL_NAME>  (3459) 
(S)-3-(2-amino-2-carboxyethyl)-1H-indole-2-carboxylic acid

>  <IUPAC_CONDENSED>  (3459) 
Trp(2-CO2H)

>  <IUPAC>  (3459) 
3-((2S)-2-amino-3-hydroxy-3-oxopropyl)-1H-indole-2-carboxylic acid

>  <TYPE>  (3459) 
Backbone

>  <CLASS>  (3459) 
alpha

>  <ANALOG>  (3459) 
Trp

>  <MOL_WT>  (3459) 
248.23799999999997

>  <LOGP>  (3459) 
0.8205000000000002

>  <TPSA>  (3459) 
116.41000000000001

>  <POPULARITY>  (3459) 
2.9

>  <PROTECTED>  (3459) 
TRUE

>  <SMILES>  (3459) 
N[C@@H](Cc2(c([nH]c1(ccccc12))C(=O)O))C(=O)O

>  <INCHIKEY>  (3459) 
PPSIMJYXLLXZSK-QMMMGPOBSA-N

$$$$
Trp_2Me
     RDKit          2D

 16 17  0  0  0  0  0  0  0  0999 V2000
   -2.5941   -1.4623    0.0000 N   0  0  0  0  0  0  0  0  0  0  0  0
   -2.4986    0.0347    0.0000 C   0  0  0  0  0  0  0  0  0  0  0  0
   -1.1544    0.7005    0.0000 C   0  0  0  0  0  0  0  0  0  0  0  0
    0.0942   -0.1307    0.0000 C   0  0  0  0  0  0  0  0  0  0  0  0
    0.1557   -1.6294    0.0000 C   0  0  0  0  0  0  0  0  0  0  0  0
   -1.0206   -2.5601    0.0000 C   0  0  0  0  0  0  0  0  0  0  0  0
    1.6001   -2.0341    0.0000 N   0  0  0  0  0  0  0  0  0  0  0  0
    2.4313   -0.7854    0.0000 C   0  0  0  0  0  0  0  0  0  0  0  0
    3.9154   -0.5676    0.0000 C   0  0  0  0  0  0  0  0  0  0  0  0
    4.4688    0.8266    0.0000 C   0  0  0  0  0  0  0  0  0  0  0  0
    3.5381    2.0030    0.0000 C   0  0  0  0  0  0  0  0  0  0  0  0
    2.0540    1.7851    0.0000 C   0  0  0  0  0  0  0  0  0  0  0  0
    1.5006    0.3909    0.0000 C   0  0  0  0  0  0  0  0  0  0  0  0
   -3.7473    0.8659    0.0000 C   0  0  0  0  0  0  0  0  0  0  0  0
   -3.6518    2.3628    0.0000 O   0  0  0  0  0  0  0  0  0  0  0  0
   -5.0914    0.2001    0.0000 O   0  0  0  0  0  0  0  0  0  0  0  0
  2  1  1  6
  2  3  1  0
  3  4  1  0
  4  5  2  0
  5  6  1  0
  5  7  1  0
  7  8  1  0
  8  9  2  0
  9 10  1  0
 10 11  2  0
 11 12  1  0
 12 13  2  0
  2 14  1  0
 14 15  2  0
 14 16  1  0
 13  4  1  0
 13  8  1  0
M  END
>  <rName>  (3460) 
Trp_2Me

>  <PQ_SYMBOL>  (3460) 
Trp_2Me

>  <FULL_NAME>  (3460) 
2-Methyl-L-Tryptophan

>  <IUPAC_CONDENSED>  (3460) 
Trp(2-Me)

>  <IUPAC>  (3460) 
(2S)-2-amino-3-(2-methyl-1H-indol-3-yl)propanoic acid

>  <TYPE>  (3460) 
Backbone

>  <CLASS>  (3460) 
alpha

>  <ANALOG>  (3460) 
Trp

>  <MOL_WT>  (3460) 
218.256

>  <LOGP>  (3460) 
1.4307200000000002

>  <TPSA>  (3460) 
79.11

>  <POPULARITY>  (3460) 
15.6

>  <PROTECTED>  (3460) 
TRUE

>  <SMILES>  (3460) 
N[C@@H](Cc1(c(C)[nH]c2(ccccc12)))C(=O)O

>  <INCHIKEY>  (3460) 
BXJSOEWOQDVGJW-JTQLQIEISA-N

$$$$
Trp_2Me_7OMe
     RDKit          2D

 18 19  0  0  0  0  0  0  0  0999 V2000
   -3.0642   -1.6083    0.0000 N   0  0  0  0  0  0  0  0  0  0  0  0
   -3.1251   -0.1096    0.0000 C   0  0  0  0  0  0  0  0  0  0  0  0
   -1.8575    0.6925    0.0000 C   0  0  0  0  0  0  0  0  0  0  0  0
   -0.5291   -0.0041    0.0000 C   0  0  0  0  0  0  0  0  0  0  0  0
   -0.3119   -1.4883    0.0000 C   0  0  0  0  0  0  0  0  0  0  0  0
   -1.3850   -2.5364    0.0000 C   0  0  0  0  0  0  0  0  0  0  0  0
    1.1667   -1.7404    0.0000 N   0  0  0  0  0  0  0  0  0  0  0  0
    1.8634   -0.4120    0.0000 C   0  0  0  0  0  0  0  0  0  0  0  0
    3.3168   -0.0408    0.0000 C   0  0  0  0  0  0  0  0  0  0  0  0
    4.3649   -1.1139    0.0000 O   0  0  0  0  0  0  0  0  0  0  0  0
    5.8182   -0.7427    0.0000 C   0  0  0  0  0  0  0  0  0  0  0  0
    3.7220    1.4034    0.0000 C   0  0  0  0  0  0  0  0  0  0  0  0
    2.6739    2.4765    0.0000 C   0  0  0  0  0  0  0  0  0  0  0  0
    1.2205    2.1053    0.0000 C   0  0  0  0  0  0  0  0  0  0  0  0
    0.8153    0.6611    0.0000 C   0  0  0  0  0  0  0  0  0  0  0  0
   -4.4535    0.5871    0.0000 C   0  0  0  0  0  0  0  0  0  0  0  0
   -4.5144    2.0858    0.0000 O   0  0  0  0  0  0  0  0  0  0  0  0
   -5.7210   -0.2150    0.0000 O   0  0  0  0  0  0  0  0  0  0  0  0
  2  1  1  6
  2  3  1  0
  3  4  1  0
  4  5  2  0
  5  6  1  0
  5  7  1  0
  7  8  1  0
  8  9  2  0
  9 10  1  0
 10 11  1  0
  9 12  1  0
 12 13  2  0
 13 14  1  0
 14 15  2  0
  2 16  1  0
 16 17  2  0
 16 18  1  0
 15  4  1  0
 15  8  1  0
M  END
>  <rName>  (3461) 
Trp_2Me_7OMe

>  <PQ_SYMBOL>  (3461) 
Trp_2Me_7OMe

>  <FULL_NAME>  (3461) 
7-methoxy-2-methyl-L-tryptophan

>  <IUPAC_CONDENSED>  (3461) 
Trp(2-Me,7-OMe)

>  <IUPAC>  (3461) 
(2S)-2-amino-3-(7-methoxy-2-methyl-1H-indol-3-yl)propanoic acid

>  <TYPE>  (3461) 
Backbone

>  <CLASS>  (3461) 
alpha

>  <ANALOG>  (3461) 
Trp

>  <MOL_WT>  (3461) 
248.28199999999998

>  <LOGP>  (3461) 
1.4393200000000002

>  <TPSA>  (3461) 
88.34000000000002

>  <POPULARITY>  (3461) 
3.1

>  <PROTECTED>  (3461) 
TRUE

>  <SMILES>  (3461) 
N[C@@H](Cc1(c(C)[nH]c2(c(OC)cccc12)))C(=O)O

>  <INCHIKEY>  (3461) 
LLOALCBXUKWYGP-JTQLQIEISA-N

$$$$
Trp_4Aza
     RDKit          2D

 15 16  0  0  0  0  0  0  0  0999 V2000
   -2.6183   -1.7023    0.0000 N   0  0  0  0  0  0  0  0  0  0  0  0
   -2.5622   -0.2034    0.0000 C   0  0  0  0  0  0  0  0  0  0  0  0
   -1.2360    0.4975    0.0000 C   0  0  0  0  0  0  0  0  0  0  0  0
    0.0341   -0.3006    0.0000 C   0  0  0  0  0  0  0  0  0  0  0  0
    0.1349   -1.7972    0.0000 C   0  0  0  0  0  0  0  0  0  0  0  0
    1.5895   -2.1637    0.0000 N   0  0  0  0  0  0  0  0  0  0  0  0
    2.3875   -0.8937    0.0000 C   0  0  0  0  0  0  0  0  0  0  0  0
    3.8654   -0.6369    0.0000 C   0  0  0  0  0  0  0  0  0  0  0  0
    4.3820    0.7713    0.0000 C   0  0  0  0  0  0  0  0  0  0  0  0
    3.4207    1.9228    0.0000 C   0  0  0  0  0  0  0  0  0  0  0  0
    1.9429    1.6661    0.0000 N   0  0  0  0  0  0  0  0  0  0  0  0
    1.4263    0.2578    0.0000 C   0  0  0  0  0  0  0  0  0  0  0  0
   -3.8322    0.5947    0.0000 C   0  0  0  0  0  0  0  0  0  0  0  0
   -3.7761    2.0937    0.0000 O   0  0  0  0  0  0  0  0  0  0  0  0
   -5.1584   -0.1061    0.0000 O   0  0  0  0  0  0  0  0  0  0  0  0
  2  1  1  6
  2  3  1  0
  3  4  1  0
  4  5  2  0
  5  6  1  0
  6  7  1  0
  7  8  2  0
  8  9  1  0
  9 10  2  0
 10 11  1  0
 11 12  2  0
  2 13  1  0
 13 14  2  0
 13 15  1  0
 12  7  1  0
 12  4  1  0
M  END
>  <rName>  (3462) 
Trp_4Aza

>  <PQ_SYMBOL>  (3462) 
Trp_4Aza

>  <FULL_NAME>  (3462) 
4-AZATRYPTOPHAN

>  <IUPAC_CONDENSED>  (3462) 
Trp(4-Aza)

>  <IUPAC>  (3462) 
(2S)-2-amino-3-(2,7-diazabicyclo[4.3.0]nona-1,3,5,8-tetraen-9-yl)propanoic acid

>  <TYPE>  (3462) 
Backbone

>  <CLASS>  (3462) 
alpha

>  <ANALOG>  (3462) 
Phe

>  <MOL_WT>  (3462) 
205.21699999999998

>  <LOGP>  (3462) 
0.5173000000000003

>  <TPSA>  (3462) 
92.00000000000001

>  <POPULARITY>  (3462) 
8.3

>  <PROTECTED>  (3462) 
TRUE

>  <SMILES>  (3462) 
N[C@@H](Cc2(c[nH]c1(cccnc12)))C(=O)O

>  <INCHIKEY>  (3462) 
FICCYWIDRZLXIS-ZETCQYMHSA-N

$$$$
Trp_4Aza_5OMe
     RDKit          2D

 17 18  0  0  0  0  0  0  0  0999 V2000
   -3.5469   -1.3812    0.0000 N   0  0  0  0  0  0  0  0  0  0  0  0
   -3.1708    0.0709    0.0000 C   0  0  0  0  0  0  0  0  0  0  0  0
   -1.7252    0.4712    0.0000 C   0  0  0  0  0  0  0  0  0  0  0  0
   -0.6557   -0.5805    0.0000 C   0  0  0  0  0  0  0  0  0  0  0  0
   -0.8780   -2.0640    0.0000 C   0  0  0  0  0  0  0  0  0  0  0  0
    0.4642   -2.7337    0.0000 N   0  0  0  0  0  0  0  0  0  0  0  0
    1.5159   -1.6643    0.0000 C   0  0  0  0  0  0  0  0  0  0  0  0
    3.0145   -1.7302    0.0000 C   0  0  0  0  0  0  0  0  0  0  0  0
    3.8209   -0.4654    0.0000 C   0  0  0  0  0  0  0  0  0  0  0  0
    3.1288    0.8653    0.0000 C   0  0  0  0  0  0  0  0  0  0  0  0
    3.9352    2.1301    0.0000 O   0  0  0  0  0  0  0  0  0  0  0  0
    5.4337    2.0641    0.0000 C   0  0  0  0  0  0  0  0  0  0  0  0
    1.6302    0.9313    0.0000 N   0  0  0  0  0  0  0  0  0  0  0  0
    0.8238   -0.3335    0.0000 C   0  0  0  0  0  0  0  0  0  0  0  0
   -4.2403    1.1227    0.0000 C   0  0  0  0  0  0  0  0  0  0  0  0
   -3.8642    2.5748    0.0000 O   0  0  0  0  0  0  0  0  0  0  0  0
   -5.6859    0.7223    0.0000 O   0  0  0  0  0  0  0  0  0  0  0  0
  2  1  1  6
  2  3  1  0
  3  4  1  0
  4  5  2  0
  5  6  1  0
  6  7  1  0
  7  8  1  0
  8  9  2  0
  9 10  1  0
 10 11  1  0
 11 12  1  0
 10 13  2  0
 13 14  1  0
  2 15  1  0
 15 16  2  0
 15 17  1  0
 14  7  2  0
 14  4  1  0
M  END
>  <rName>  (3463) 
Trp_4Aza_5OMe

>  <PQ_SYMBOL>  (3463) 
Trp_4Aza_5OMe

>  <FULL_NAME>  (3463) 
(S)-2-amino-3-(5-methoxy-1H-pyrrolo[3,2-b]pyridin-3-yl)propanoic acid

>  <IUPAC_CONDENSED>  (3463) 
Trp(4-Aza,5-OMe)

>  <IUPAC>  (3463) 
(2S)-2-amino-3-(3-methoxy-2,7-diazabicyclo[4.3.0]nona-1,3,5,8-tetraen-9-yl)propanoic acid

>  <TYPE>  (3463) 
Backbone

>  <CLASS>  (3463) 
alpha

>  <ANALOG>  (3463) 
Phe

>  <MOL_WT>  (3463) 
235.24299999999997

>  <LOGP>  (3463) 
0.5259000000000003

>  <TPSA>  (3463) 
101.23

>  <POPULARITY>  (3463) 
2.3

>  <PROTECTED>  (3463) 
TRUE

>  <SMILES>  (3463) 
N[C@@H](Cc2(c[nH]c1(ccc(OC)nc12)))C(=O)O

>  <INCHIKEY>  (3463) 
VUEWDUUANSVCOW-ZETCQYMHSA-N

$$$$
Trp_4Aza_Me_Aza
     RDKit          2D

 16 17  0  0  0  0  0  0  0  0999 V2000
   -2.6387   -1.6746    0.0000 N   0  0  0  0  0  0  0  0  0  0  0  0
   -2.6908   -0.1755    0.0000 C   0  0  0  0  0  0  0  0  0  0  0  0
   -1.4185    0.6191    0.0000 C   0  0  0  0  0  0  0  0  0  0  0  0
   -0.0943   -0.0853    0.0000 C   0  0  0  0  0  0  0  0  0  0  0  0
    0.1142   -1.5708    0.0000 N   0  0  0  0  0  0  0  0  0  0  0  0
    1.5913   -1.8316    0.0000 N   0  0  0  0  0  0  0  0  0  0  0  0
    2.2486   -3.1799    0.0000 C   0  0  0  0  0  0  0  0  0  0  0  0
    2.2958   -0.5073    0.0000 C   0  0  0  0  0  0  0  0  0  0  0  0
    3.7514   -0.1448    0.0000 C   0  0  0  0  0  0  0  0  0  0  0  0
    4.1651    1.2970    0.0000 C   0  0  0  0  0  0  0  0  0  0  0  0
    3.1234    2.3763    0.0000 C   0  0  0  0  0  0  0  0  0  0  0  0
    1.6678    2.0137    0.0000 N   0  0  0  0  0  0  0  0  0  0  0  0
    1.2541    0.5719    0.0000 C   0  0  0  0  0  0  0  0  0  0  0  0
   -4.0150    0.5290    0.0000 C   0  0  0  0  0  0  0  0  0  0  0  0
   -4.0671    2.0281    0.0000 O   0  0  0  0  0  0  0  0  0  0  0  0
   -5.2873   -0.2656    0.0000 O   0  0  0  0  0  0  0  0  0  0  0  0
  2  1  1  6
  2  3  1  0
  3  4  1  0
  4  5  2  0
  5  6  1  0
  6  7  1  0
  6  8  1  0
  8  9  2  0
  9 10  1  0
 10 11  2  0
 11 12  1  0
 12 13  2  0
  2 14  1  0
 14 15  2  0
 14 16  1  0
 13  4  1  0
 13  8  1  0
M  END
>  <rName>  (3464) 
Trp_4Aza_Me_Aza

>  <PQ_SYMBOL>  (3464) 
Trp_4Aza_Me_Aza

>  <FULL_NAME>  (3464) 
(S)-2-amino-3-(1-methyl-1H-pyrazolo[4,3-b]pyridin-3-yl)propanoic acid

>  <IUPAC_CONDENSED>  (3464) 
Trp(4-Aza,Me,Aza)

>  <IUPAC>  (3464) 
(2S)-2-amino-3-(7-methyl-2,7,8-triazabicyclo[4.3.0]nona-1,3,5,8-tetraen-9-yl)propanoic acid

>  <TYPE>  (3464) 
Backbone

>  <CLASS>  (3464) 
alpha

>  <ANALOG>  (3464) 
Phe

>  <MOL_WT>  (3464) 
220.232

>  <LOGP>  (3464) 
-0.07730000000000087

>  <TPSA>  (3464) 
94.03

>  <POPULARITY>  (3464) 
2.2

>  <PROTECTED>  (3464) 
TRUE

>  <SMILES>  (3464) 
N[C@@H](Cc1(nn(C)c2(cccnc12)))C(=O)O

>  <INCHIKEY>  (3464) 
NYOSLHSYEKHVOL-LURJTMIESA-N

$$$$
Trp_4Br
     RDKit          2D

 16 17  0  0  0  0  0  0  0  0999 V2000
   -2.7276   -1.8081    0.0000 N   0  0  0  0  0  0  0  0  0  0  0  0
   -2.6325   -0.3111    0.0000 C   0  0  0  0  0  0  0  0  0  0  0  0
   -1.2885    0.3550    0.0000 C   0  0  0  0  0  0  0  0  0  0  0  0
   -0.0397   -0.4758    0.0000 C   0  0  0  0  0  0  0  0  0  0  0  0
    0.0222   -1.9745    0.0000 C   0  0  0  0  0  0  0  0  0  0  0  0
    1.4667   -2.3788    0.0000 N   0  0  0  0  0  0  0  0  0  0  0  0
    2.2976   -1.1299    0.0000 C   0  0  0  0  0  0  0  0  0  0  0  0
    3.7816   -0.9117    0.0000 C   0  0  0  0  0  0  0  0  0  0  0  0
    4.3347    0.4826    0.0000 C   0  0  0  0  0  0  0  0  0  0  0  0
    3.4037    1.6587    0.0000 C   0  0  0  0  0  0  0  0  0  0  0  0
    1.9196    1.4405    0.0000 C   0  0  0  0  0  0  0  0  0  0  0  0
    0.9886    2.6166    0.0000 Br  0  0  0  0  0  0  0  0  0  0  0  0
    1.3666    0.0462    0.0000 C   0  0  0  0  0  0  0  0  0  0  0  0
   -3.8814    0.5198    0.0000 C   0  0  0  0  0  0  0  0  0  0  0  0
   -3.7863    2.0167    0.0000 O   0  0  0  0  0  0  0  0  0  0  0  0
   -5.2254   -0.1464    0.0000 O   0  0  0  0  0  0  0  0  0  0  0  0
  2  1  1  6
  2  3  1  0
  3  4  1  0
  4  5  2  0
  5  6  1  0
  6  7  1  0
  7  8  2  0
  8  9  1  0
  9 10  2  0
 10 11  1  0
 11 12  1  0
 11 13  2  0
  2 14  1  0
 14 15  2  0
 14 16  1  0
 13  4  1  0
 13  7  1  0
M  END
>  <rName>  (3465) 
Trp_4Br

>  <PQ_SYMBOL>  (3465) 
Trp_4Br

>  <FULL_NAME>  (3465) 
4-Bromo-L-Tryptophan

>  <IUPAC_CONDENSED>  (3465) 
Trp(4-Br)

>  <IUPAC>  (3465) 
(2S)-2-amino-3-(4-bromo-1H-indol-3-yl)propanoic acid

>  <TYPE>  (3465) 
Backbone

>  <CLASS>  (3465) 
alpha

>  <ANALOG>  (3465) 
Trp

>  <MOL_WT>  (3465) 
283.125

>  <LOGP>  (3465) 
1.8848000000000003

>  <TPSA>  (3465) 
79.11

>  <POPULARITY>  (3465) 
5.5

>  <PROTECTED>  (3465) 
TRUE

>  <SMILES>  (3465) 
N[C@@H](Cc1(c[nH]c2(cccc(Br)c12)))C(=O)O

>  <INCHIKEY>  (3465) 
OFKIVYVSESEHFZ-QMMMGPOBSA-N

$$$$
Trp_4CN
     RDKit          2D

 17 18  0  0  0  0  0  0  0  0999 V2000
   -2.7358   -2.0247    0.0000 N   0  0  0  0  0  0  0  0  0  0  0  0
   -2.6372   -0.5279    0.0000 C   0  0  0  0  0  0  0  0  0  0  0  0
   -1.2916    0.1350    0.0000 C   0  0  0  0  0  0  0  0  0  0  0  0
   -0.0447   -0.6988    0.0000 C   0  0  0  0  0  0  0  0  0  0  0  0
    0.0136   -2.1977    0.0000 C   0  0  0  0  0  0  0  0  0  0  0  0
    1.4571   -2.6054    0.0000 N   0  0  0  0  0  0  0  0  0  0  0  0
    2.2910   -1.3585    0.0000 C   0  0  0  0  0  0  0  0  0  0  0  0
    3.7755   -1.1438    0.0000 C   0  0  0  0  0  0  0  0  0  0  0  0
    4.3319    0.2492    0.0000 C   0  0  0  0  0  0  0  0  0  0  0  0
    3.4037    1.4275    0.0000 C   0  0  0  0  0  0  0  0  0  0  0  0
    1.9191    1.2128    0.0000 C   0  0  0  0  0  0  0  0  0  0  0  0
    0.9909    2.3912    0.0000 C   0  0  0  0  0  0  0  0  0  0  0  0
    0.0627    3.5695    0.0000 N   0  0  0  0  0  0  0  0  0  0  0  0
    1.3628   -0.1802    0.0000 C   0  0  0  0  0  0  0  0  0  0  0  0
   -3.8841    0.3059    0.0000 C   0  0  0  0  0  0  0  0  0  0  0  0
   -3.7854    1.8027    0.0000 O   0  0  0  0  0  0  0  0  0  0  0  0
   -5.2296   -0.3570    0.0000 O   0  0  0  0  0  0  0  0  0  0  0  0
  2  1  1  6
  2  3  1  0
  3  4  1  0
  4  5  2  0
  5  6  1  0
  6  7  1  0
  7  8  2  0
  8  9  1  0
  9 10  2  0
 10 11  1  0
 11 12  1  0
 12 13  3  0
 11 14  2  0
  2 15  1  0
 15 16  2  0
 15 17  1  0
 14  7  1  0
 14  4  1  0
M  END
>  <rName>  (3466) 
Trp_4CN

>  <PQ_SYMBOL>  (3466) 
Trp_4CN

>  <FULL_NAME>  (3466) 
4-cyano-L-tryptophan

>  <IUPAC_CONDENSED>  (3466) 
Trp(4-CN)

>  <IUPAC>  (3466) 
(2S)-2-amino-3-(4-(nitrilomethyl)-1H-indol-3-yl)propanoic acid

>  <TYPE>  (3466) 
Backbone

>  <CLASS>  (3466) 
alpha

>  <ANALOG>  (3466) 
Trp

>  <MOL_WT>  (3466) 
229.23899999999998

>  <LOGP>  (3466) 
0.9939800000000001

>  <TPSA>  (3466) 
102.89999999999999

>  <POPULARITY>  (3466) 
8.3

>  <PROTECTED>  (3466) 
TRUE

>  <SMILES>  (3466) 
N[C@@H](Cc2(c[nH]c1(cccc(C#N)c12)))C(=O)O

>  <INCHIKEY>  (3466) 
UOPSYGYZOBPCLD-VIFPVBQESA-N

$$$$
Trp_4Cl
     RDKit          2D

 16 17  0  0  0  0  0  0  0  0999 V2000
   -2.7276   -1.8081    0.0000 N   0  0  0  0  0  0  0  0  0  0  0  0
   -2.6325   -0.3111    0.0000 C   0  0  0  0  0  0  0  0  0  0  0  0
   -1.2885    0.3550    0.0000 C   0  0  0  0  0  0  0  0  0  0  0  0
   -0.0397   -0.4758    0.0000 C   0  0  0  0  0  0  0  0  0  0  0  0
    0.0222   -1.9745    0.0000 C   0  0  0  0  0  0  0  0  0  0  0  0
    1.4667   -2.3788    0.0000 N   0  0  0  0  0  0  0  0  0  0  0  0
    2.2976   -1.1299    0.0000 C   0  0  0  0  0  0  0  0  0  0  0  0
    3.7816   -0.9117    0.0000 C   0  0  0  0  0  0  0  0  0  0  0  0
    4.3347    0.4826    0.0000 C   0  0  0  0  0  0  0  0  0  0  0  0
    3.4037    1.6587    0.0000 C   0  0  0  0  0  0  0  0  0  0  0  0
    1.9196    1.4405    0.0000 C   0  0  0  0  0  0  0  0  0  0  0  0
    0.9886    2.6166    0.0000 Cl  0  0  0  0  0  0  0  0  0  0  0  0
    1.3666    0.0462    0.0000 C   0  0  0  0  0  0  0  0  0  0  0  0
   -3.8814    0.5198    0.0000 C   0  0  0  0  0  0  0  0  0  0  0  0
   -3.7863    2.0167    0.0000 O   0  0  0  0  0  0  0  0  0  0  0  0
   -5.2254   -0.1464    0.0000 O   0  0  0  0  0  0  0  0  0  0  0  0
  2  1  1  6
  2  3  1  0
  3  4  1  0
  4  5  2  0
  5  6  1  0
  6  7  1  0
  7  8  2  0
  8  9  1  0
  9 10  2  0
 10 11  1  0
 11 12  1  0
 11 13  2  0
  2 14  1  0
 14 15  2  0
 14 16  1  0
 13  4  1  0
 13  7  1  0
M  END
>  <rName>  (3467) 
Trp_4Cl

>  <PQ_SYMBOL>  (3467) 
Trp_4Cl

>  <FULL_NAME>  (3467) 
4-Chloro-L-Tryptophan

>  <IUPAC_CONDENSED>  (3467) 
Trp(4-Cl)

>  <IUPAC>  (3467) 
(2S)-2-amino-3-(4-chloro-1H-indol-3-yl)propanoic acid

>  <TYPE>  (3467) 
Backbone

>  <CLASS>  (3467) 
alpha

>  <ANALOG>  (3467) 
Trp

>  <MOL_WT>  (3467) 
238.67399999999998

>  <LOGP>  (3467) 
1.7757000000000003

>  <TPSA>  (3467) 
79.11

>  <POPULARITY>  (3467) 
10.3

>  <PROTECTED>  (3467) 
TRUE

>  <SMILES>  (3467) 
N[C@@H](Cc1(c[nH]c2(cccc(Cl)c12)))C(=O)O

>  <INCHIKEY>  (3467) 
NRTHKYABOMUPSC-QMMMGPOBSA-N

$$$$
Trp_4F
     RDKit          2D

 16 17  0  0  0  0  0  0  0  0999 V2000
   -2.7276   -1.8081    0.0000 N   0  0  0  0  0  0  0  0  0  0  0  0
   -2.6325   -0.3111    0.0000 C   0  0  0  0  0  0  0  0  0  0  0  0
   -1.2885    0.3550    0.0000 C   0  0  0  0  0  0  0  0  0  0  0  0
   -0.0397   -0.4758    0.0000 C   0  0  0  0  0  0  0  0  0  0  0  0
    0.0222   -1.9745    0.0000 C   0  0  0  0  0  0  0  0  0  0  0  0
    1.4667   -2.3788    0.0000 N   0  0  0  0  0  0  0  0  0  0  0  0
    2.2976   -1.1299    0.0000 C   0  0  0  0  0  0  0  0  0  0  0  0
    3.7816   -0.9117    0.0000 C   0  0  0  0  0  0  0  0  0  0  0  0
    4.3347    0.4826    0.0000 C   0  0  0  0  0  0  0  0  0  0  0  0
    3.4037    1.6587    0.0000 C   0  0  0  0  0  0  0  0  0  0  0  0
    1.9196    1.4405    0.0000 C   0  0  0  0  0  0  0  0  0  0  0  0
    0.9886    2.6166    0.0000 F   0  0  0  0  0  0  0  0  0  0  0  0
    1.3666    0.0462    0.0000 C   0  0  0  0  0  0  0  0  0  0  0  0
   -3.8814    0.5198    0.0000 C   0  0  0  0  0  0  0  0  0  0  0  0
   -3.7863    2.0167    0.0000 O   0  0  0  0  0  0  0  0  0  0  0  0
   -5.2254   -0.1464    0.0000 O   0  0  0  0  0  0  0  0  0  0  0  0
  2  1  1  6
  2  3  1  0
  3  4  1  0
  4  5  2  0
  5  6  1  0
  6  7  1  0
  7  8  2  0
  8  9  1  0
  9 10  2  0
 10 11  1  0
 11 12  1  0
 11 13  2  0
  2 14  1  0
 14 15  2  0
 14 16  1  0
 13  7  1  0
 13  4  1  0
M  END
>  <rName>  (3468) 
Trp_4F

>  <PQ_SYMBOL>  (3468) 
Trp_4F

>  <FULL_NAME>  (3468) 
4-Fluoro-L-Tryptophan

>  <IUPAC_CONDENSED>  (3468) 
Trp(4-F)

>  <IUPAC>  (3468) 
(2S)-2-amino-3-(4-fluoro-1H-indol-3-yl)propanoic acid

>  <TYPE>  (3468) 
Backbone

>  <CLASS>  (3468) 
alpha

>  <ANALOG>  (3468) 
Trp

>  <MOL_WT>  (3468) 
222.21899999999997

>  <LOGP>  (3468) 
1.2614000000000003

>  <TPSA>  (3468) 
79.11

>  <POPULARITY>  (3468) 
15.7

>  <PROTECTED>  (3468) 
TRUE

>  <SMILES>  (3468) 
N[C@@H](Cc2(c[nH]c1(cccc(F)c12)))C(=O)O

>  <INCHIKEY>  (3468) 
DEBQMEYEKKWIKC-QMMMGPOBSA-N

$$$$
Trp_4F_7Me
     RDKit          2D

 17 18  0  0  0  0  0  0  0  0999 V2000
    2.8628    1.9166    0.0000 N   0  0  0  0  0  0  0  0  0  0  0  0
    2.8859    0.4168    0.0000 C   0  0  0  0  0  0  0  0  0  0  0  0
    1.5985   -0.3531    0.0000 C   0  0  0  0  0  0  0  0  0  0  0  0
    0.2881    0.3768    0.0000 C   0  0  0  0  0  0  0  0  0  0  0  0
    0.1084    1.8660    0.0000 C   0  0  0  0  0  0  0  0  0  0  0  0
   -1.3634    2.1553    0.0000 N   0  0  0  0  0  0  0  0  0  0  0  0
   -2.0934    0.8449    0.0000 C   0  0  0  0  0  0  0  0  0  0  0  0
   -3.5556    0.5105    0.0000 C   0  0  0  0  0  0  0  0  0  0  0  0
   -4.5764    1.6097    0.0000 C   0  0  0  0  0  0  0  0  0  0  0  0
   -3.9972   -0.9230    0.0000 C   0  0  0  0  0  0  0  0  0  0  0  0
   -2.9765   -2.0222    0.0000 C   0  0  0  0  0  0  0  0  0  0  0  0
   -1.5142   -1.6878    0.0000 C   0  0  0  0  0  0  0  0  0  0  0  0
   -0.4935   -2.7869    0.0000 F   0  0  0  0  0  0  0  0  0  0  0  0
   -1.0727   -0.2543    0.0000 C   0  0  0  0  0  0  0  0  0  0  0  0
    4.1963   -0.3132    0.0000 C   0  0  0  0  0  0  0  0  0  0  0  0
    4.2193   -1.8130    0.0000 O   0  0  0  0  0  0  0  0  0  0  0  0
    5.4836    0.4567    0.0000 O   0  0  0  0  0  0  0  0  0  0  0  0
  2  1  1  6
  2  3  1  0
  3  4  1  0
  4  5  2  0
  5  6  1  0
  6  7  1  0
  7  8  2  0
  8  9  1  0
  8 10  1  0
 10 11  2  0
 11 12  1  0
 12 13  1  0
 12 14  2  0
  2 15  1  0
 15 16  2  0
 15 17  1  0
 14  4  1  0
 14  7  1  0
M  END
>  <rName>  (3469) 
Trp_4F_7Me

>  <PQ_SYMBOL>  (3469) 
Trp_4F_7Me

>  <FULL_NAME>  (3469) 
4-fluoro-7-methyl-L-tryptophan

>  <IUPAC_CONDENSED>  (3469) 
Trp(4-F,7-Me)

>  <IUPAC>  (3469) 
(2S)-2-amino-3-(4-fluoro-7-methyl-1H-indol-3-yl)propanoic acid

>  <TYPE>  (3469) 
Backbone

>  <CLASS>  (3469) 
alpha

>  <ANALOG>  (3469) 
Trp

>  <MOL_WT>  (3469) 
236.24599999999998

>  <LOGP>  (3469) 
1.5698200000000004

>  <TPSA>  (3469) 
79.11

>  <POPULARITY>  (3469) 
2.9

>  <PROTECTED>  (3469) 
TRUE

>  <SMILES>  (3469) 
N[C@@H](Cc1(c[nH]c2(c(C)ccc(F)c12)))C(=O)O

>  <INCHIKEY>  (3469) 
INTFQNQYNNINMD-VIFPVBQESA-N

$$$$
Trp_4F_Me
     RDKit          2D

 17 18  0  0  0  0  0  0  0  0999 V2000
   -2.7122   -1.8026    0.0000 N   0  0  0  0  0  0  0  0  0  0  0  0
   -2.7342   -0.3027    0.0000 C   0  0  0  0  0  0  0  0  0  0  0  0
   -1.4463    0.4663    0.0000 C   0  0  0  0  0  0  0  0  0  0  0  0
   -0.1364   -0.2646    0.0000 C   0  0  0  0  0  0  0  0  0  0  0  0
    0.0422   -1.7539    0.0000 C   0  0  0  0  0  0  0  0  0  0  0  0
    1.5139   -2.0442    0.0000 N   0  0  0  0  0  0  0  0  0  0  0  0
    2.1440   -3.4055    0.0000 C   0  0  0  0  0  0  0  0  0  0  0  0
    2.2447   -0.7343    0.0000 C   0  0  0  0  0  0  0  0  0  0  0  0
    3.7072   -0.4010    0.0000 C   0  0  0  0  0  0  0  0  0  0  0  0
    4.1498    1.0322    0.0000 C   0  0  0  0  0  0  0  0  0  0  0  0
    3.1298    2.1321    0.0000 C   0  0  0  0  0  0  0  0  0  0  0  0
    1.6674    1.7988    0.0000 C   0  0  0  0  0  0  0  0  0  0  0  0
    0.6474    2.8986    0.0000 F   0  0  0  0  0  0  0  0  0  0  0  0
    1.2248    0.3655    0.0000 C   0  0  0  0  0  0  0  0  0  0  0  0
   -4.0441    0.4281    0.0000 C   0  0  0  0  0  0  0  0  0  0  0  0
   -4.0661    1.9280    0.0000 O   0  0  0  0  0  0  0  0  0  0  0  0
   -5.3320   -0.3408    0.0000 O   0  0  0  0  0  0  0  0  0  0  0  0
  2  1  1  6
  2  3  1  0
  3  4  1  0
  4  5  2  0
  5  6  1  0
  6  7  1  0
  6  8  1  0
  8  9  2  0
  9 10  1  0
 10 11  2  0
 11 12  1  0
 12 13  1  0
 12 14  2  0
  2 15  1  0
 15 16  2  0
 15 17  1  0
 14  4  1  0
 14  8  1  0
M  END
>  <rName>  (3470) 
Trp_4F_Me

>  <PQ_SYMBOL>  (3470) 
Trp_4F_Me

>  <FULL_NAME>  (3470) 
4-fluoro-1-methyl-L-tryptophan

>  <IUPAC_CONDENSED>  (3470) 
Trp(4-F,Me)

>  <IUPAC>  (3470) 
(2S)-2-amino-3-(4-fluoro-1-methyl-1H-indol-3-yl)propanoic acid

>  <TYPE>  (3470) 
Backbone

>  <CLASS>  (3470) 
alpha

>  <ANALOG>  (3470) 
Trp

>  <MOL_WT>  (3470) 
236.24599999999998

>  <LOGP>  (3470) 
1.2718

>  <TPSA>  (3470) 
68.25

>  <POPULARITY>  (3470) 
3.1

>  <PROTECTED>  (3470) 
TRUE

>  <SMILES>  (3470) 
N[C@@H](Cc1(cn(C)c2(cccc(F)c12)))C(=O)O

>  <INCHIKEY>  (3470) 
XEEVIJGNUUHSHD-VIFPVBQESA-N

$$$$
Trp_4I
     RDKit          2D

 16 17  0  0  0  0  0  0  0  0999 V2000
   -2.7276   -1.8081    0.0000 N   0  0  0  0  0  0  0  0  0  0  0  0
   -2.6325   -0.3111    0.0000 C   0  0  0  0  0  0  0  0  0  0  0  0
   -1.2885    0.3550    0.0000 C   0  0  0  0  0  0  0  0  0  0  0  0
   -0.0397   -0.4758    0.0000 C   0  0  0  0  0  0  0  0  0  0  0  0
    0.0222   -1.9745    0.0000 C   0  0  0  0  0  0  0  0  0  0  0  0
    1.4667   -2.3788    0.0000 N   0  0  0  0  0  0  0  0  0  0  0  0
    2.2976   -1.1299    0.0000 C   0  0  0  0  0  0  0  0  0  0  0  0
    3.7816   -0.9117    0.0000 C   0  0  0  0  0  0  0  0  0  0  0  0
    4.3347    0.4826    0.0000 C   0  0  0  0  0  0  0  0  0  0  0  0
    3.4037    1.6587    0.0000 C   0  0  0  0  0  0  0  0  0  0  0  0
    1.9196    1.4405    0.0000 C   0  0  0  0  0  0  0  0  0  0  0  0
    0.9886    2.6166    0.0000 I   0  0  0  0  0  0  0  0  0  0  0  0
    1.3666    0.0462    0.0000 C   0  0  0  0  0  0  0  0  0  0  0  0
   -3.8814    0.5198    0.0000 C   0  0  0  0  0  0  0  0  0  0  0  0
   -3.7863    2.0167    0.0000 O   0  0  0  0  0  0  0  0  0  0  0  0
   -5.2254   -0.1464    0.0000 O   0  0  0  0  0  0  0  0  0  0  0  0
  2  1  1  6
  2  3  1  0
  3  4  1  0
  4  5  2  0
  5  6  1  0
  6  7  1  0
  7  8  2  0
  8  9  1  0
  9 10  2  0
 10 11  1  0
 11 12  1  0
 11 13  2  0
  2 14  1  0
 14 15  2  0
 14 16  1  0
 13  4  1  0
 13  7  1  0
M  END
>  <rName>  (3471) 
Trp_4I

>  <PQ_SYMBOL>  (3471) 
Trp_4I

>  <FULL_NAME>  (3471) 
4-iodo-L-tryptophan

>  <IUPAC_CONDENSED>  (3471) 
Trp(4-I)

>  <IUPAC>  (3471) 
(2S)-2-amino-3-(4-iodo-1H-indol-3-yl)propanoic acid

>  <TYPE>  (3471) 
Backbone

>  <CLASS>  (3471) 
alpha

>  <ANALOG>  (3471) 
Trp

>  <MOL_WT>  (3471) 
330.12500000000006

>  <LOGP>  (3471) 
1.7269000000000003

>  <TPSA>  (3471) 
79.11

>  <POPULARITY>  (3471) 
2.9

>  <PROTECTED>  (3471) 
TRUE

>  <SMILES>  (3471) 
N[C@@H](Cc1(c[nH]c2(cccc(I)c12)))C(=O)O

>  <INCHIKEY>  (3471) 
DXZHXESNRKDEQX-QMMMGPOBSA-N

$$$$
Trp_4Me
     RDKit          2D

 16 17  0  0  0  0  0  0  0  0999 V2000
   -2.7276   -1.8081    0.0000 N   0  0  0  0  0  0  0  0  0  0  0  0
   -2.6325   -0.3111    0.0000 C   0  0  0  0  0  0  0  0  0  0  0  0
   -1.2885    0.3550    0.0000 C   0  0  0  0  0  0  0  0  0  0  0  0
   -0.0397   -0.4758    0.0000 C   0  0  0  0  0  0  0  0  0  0  0  0
    0.0222   -1.9745    0.0000 C   0  0  0  0  0  0  0  0  0  0  0  0
    1.4667   -2.3788    0.0000 N   0  0  0  0  0  0  0  0  0  0  0  0
    2.2976   -1.1299    0.0000 C   0  0  0  0  0  0  0  0  0  0  0  0
    3.7816   -0.9117    0.0000 C   0  0  0  0  0  0  0  0  0  0  0  0
    4.3347    0.4826    0.0000 C   0  0  0  0  0  0  0  0  0  0  0  0
    3.4037    1.6587    0.0000 C   0  0  0  0  0  0  0  0  0  0  0  0
    1.9196    1.4405    0.0000 C   0  0  0  0  0  0  0  0  0  0  0  0
    0.9886    2.6166    0.0000 C   0  0  0  0  0  0  0  0  0  0  0  0
    1.3666    0.0462    0.0000 C   0  0  0  0  0  0  0  0  0  0  0  0
   -3.8814    0.5198    0.0000 C   0  0  0  0  0  0  0  0  0  0  0  0
   -3.7863    2.0167    0.0000 O   0  0  0  0  0  0  0  0  0  0  0  0
   -5.2254   -0.1464    0.0000 O   0  0  0  0  0  0  0  0  0  0  0  0
  2  1  1  6
  2  3  1  0
  3  4  1  0
  4  5  2  0
  5  6  1  0
  6  7  1  0
  7  8  2  0
  8  9  1  0
  9 10  2  0
 10 11  1  0
 11 12  1  0
 11 13  2  0
  2 14  1  0
 14 15  2  0
 14 16  1  0
 13  4  1  0
 13  7  1  0
M  END
>  <rName>  (3472) 
Trp_4Me

>  <PQ_SYMBOL>  (3472) 
Trp_4Me

>  <FULL_NAME>  (3472) 
4-Methyl-L-Tryptophan

>  <IUPAC_CONDENSED>  (3472) 
Trp(4-Me)

>  <IUPAC>  (3472) 
(2S)-2-amino-3-(4-methyl-1H-indol-3-yl)propanoic acid

>  <TYPE>  (3472) 
Backbone

>  <CLASS>  (3472) 
alpha

>  <ANALOG>  (3472) 
Trp

>  <MOL_WT>  (3472) 
218.25599999999997

>  <LOGP>  (3472) 
1.4307200000000002

>  <TPSA>  (3472) 
79.11

>  <POPULARITY>  (3472) 
7.7

>  <PROTECTED>  (3472) 
TRUE

>  <SMILES>  (3472) 
N[C@@H](Cc1(c[nH]c2(cccc(C)c12)))C(=O)O

>  <INCHIKEY>  (3472) 
FPJGLSZLQLNZIW-VIFPVBQESA-N

$$$$
Trp_4Me_Aza
     RDKit          2D

 16 17  0  0  0  0  0  0  0  0999 V2000
   -2.7276   -1.8081    0.0000 N   0  0  0  0  0  0  0  0  0  0  0  0
   -2.6325   -0.3111    0.0000 C   0  0  0  0  0  0  0  0  0  0  0  0
   -1.2885    0.3550    0.0000 C   0  0  0  0  0  0  0  0  0  0  0  0
   -0.0397   -0.4758    0.0000 C   0  0  0  0  0  0  0  0  0  0  0  0
    0.0222   -1.9745    0.0000 N   0  0  0  0  0  0  0  0  0  0  0  0
    1.4667   -2.3788    0.0000 N   0  0  0  0  0  0  0  0  0  0  0  0
    2.2976   -1.1299    0.0000 C   0  0  0  0  0  0  0  0  0  0  0  0
    3.7816   -0.9117    0.0000 C   0  0  0  0  0  0  0  0  0  0  0  0
    4.3347    0.4826    0.0000 C   0  0  0  0  0  0  0  0  0  0  0  0
    3.4037    1.6587    0.0000 C   0  0  0  0  0  0  0  0  0  0  0  0
    1.9196    1.4405    0.0000 C   0  0  0  0  0  0  0  0  0  0  0  0
    0.9886    2.6166    0.0000 C   0  0  0  0  0  0  0  0  0  0  0  0
    1.3666    0.0462    0.0000 C   0  0  0  0  0  0  0  0  0  0  0  0
   -3.8814    0.5198    0.0000 C   0  0  0  0  0  0  0  0  0  0  0  0
   -3.7863    2.0167    0.0000 O   0  0  0  0  0  0  0  0  0  0  0  0
   -5.2254   -0.1464    0.0000 O   0  0  0  0  0  0  0  0  0  0  0  0
  2  1  1  6
  2  3  1  0
  3  4  1  0
  4  5  1  0
  5  6  1  0
  6  7  2  0
  7  8  1  0
  8  9  2  0
  9 10  1  0
 10 11  2  0
 11 12  1  0
 11 13  1  0
  2 14  1  0
 14 15  2  0
 14 16  1  0
 13  7  1  0
 13  4  2  0
M  END
>  <rName>  (3473) 
Trp_4Me_Aza

>  <PQ_SYMBOL>  (3473) 
Trp_4Me_Aza

>  <FULL_NAME>  (3473) 
(S)-2-amino-3-(4-methyl-2H-indazol-3-yl)propanoic acid

>  <IUPAC_CONDENSED>  (3473) 
Trp(4-Me,Aza)

>  <IUPAC>  (3473) 
(2S)-2-amino-3-(2-methyl-7,8-diazabicyclo[4.3.0]nona-1(9),2,4,6-tetraen-9-yl)propanoic acid

>  <TYPE>  (3473) 
Backbone

>  <CLASS>  (3473) 
alpha

>  <ANALOG>  (3473) 
Phe

>  <MOL_WT>  (3473) 
219.24399999999997

>  <LOGP>  (3473) 
0.8257199999999998

>  <TPSA>  (3473) 
92.00000000000001

>  <POPULARITY>  (3473) 
2.6

>  <PROTECTED>  (3473) 
TRUE

>  <SMILES>  (3473) 
N[C@@H](Cc2([nH]nc1(cccc(C)c12)))C(=O)O

>  <INCHIKEY>  (3473) 
PPSMVMLVNMWRQL-ZETCQYMHSA-N

$$$$
Trp_4NO2
     RDKit          2D

 18 19  0  0  0  0  0  0  0  0999 V2000
   -2.9018   -2.0059    0.0000 N   0  0  0  0  0  0  0  0  0  0  0  0
   -2.7236   -0.5165    0.0000 C   0  0  0  0  0  0  0  0  0  0  0  0
   -1.3446    0.0739    0.0000 C   0  0  0  0  0  0  0  0  0  0  0  0
   -0.1439   -0.8252    0.0000 C   0  0  0  0  0  0  0  0  0  0  0  0
   -0.1655   -2.3250    0.0000 C   0  0  0  0  0  0  0  0  0  0  0  0
    1.2543   -2.8090    0.0000 N   0  0  0  0  0  0  0  0  0  0  0  0
    2.1533   -1.6082    0.0000 C   0  0  0  0  0  0  0  0  0  0  0  0
    3.6472   -1.4729    0.0000 C   0  0  0  0  0  0  0  0  0  0  0  0
    4.2770   -0.1115    0.0000 C   0  0  0  0  0  0  0  0  0  0  0  0
    3.4128    1.1146    0.0000 C   0  0  0  0  0  0  0  0  0  0  0  0
    1.9189    0.9792    0.0000 C   0  0  0  0  0  0  0  0  0  0  0  0
    1.2892   -0.3822    0.0000 C   0  0  0  0  0  0  0  0  0  0  0  0
    1.0548    2.2053    0.0000 N   0  0  0  0  0  0  0  0  0  0  0  0
   -0.4391    2.0700    0.0000 O   0  0  0  0  0  0  0  0  0  0  0  0
    1.6845    3.5667    0.0000 O   0  0  0  0  0  0  0  0  0  0  0  0
   -3.9243    0.3825    0.0000 C   0  0  0  0  0  0  0  0  0  0  0  0
   -3.7461    1.8719    0.0000 O   0  0  0  0  0  0  0  0  0  0  0  0
   -5.3032   -0.2078    0.0000 O   0  0  0  0  0  0  0  0  0  0  0  0
  2  1  1  6
  2  3  1  0
  3  4  1  0
  4  5  2  0
  5  6  1  0
  6  7  1  0
  7  8  2  0
  8  9  1  0
  9 10  2  0
 10 11  1  0
 11 12  2  0
 11 13  1  0
 13 14  2  0
 13 15  1  0
  2 16  1  0
 16 17  2  0
 16 18  1  0
 12  4  1  0
 12  7  1  0
M  CHG  2  13   1  15  -1
M  END
>  <rName>  (3474) 
Trp_4NO2

>  <PQ_SYMBOL>  (3474) 
Trp_4NO2

>  <FULL_NAME>  (3474) 
4-nitro-L-tryptophan

>  <IUPAC_CONDENSED>  (3474) 
Trp(4-NO2)

>  <IUPAC>  (3474) 
(2S)-2-amino-3-(4-nitro-1H-indol-3-yl)propanoic acid

>  <TYPE>  (3474) 
Backbone

>  <CLASS>  (3474) 
alpha

>  <ANALOG>  (3474) 
Trp

>  <MOL_WT>  (3474) 
249.22599999999997

>  <LOGP>  (3474) 
1.0305000000000002

>  <TPSA>  (3474) 
122.25000000000001

>  <POPULARITY>  (3474) 
4.8

>  <PROTECTED>  (3474) 
TRUE

>  <SMILES>  (3474) 
N[C@@H](Cc1(c[nH]c2(cccc(c12)[N+](=O)[O-])))C(=O)O

>  <INCHIKEY>  (3474) 
KKODYMFOTNMKRR-ZETCQYMHSA-N

$$$$
Trp_4OBn
     RDKit          2D

 23 25  0  0  0  0  0  0  0  0999 V2000
   -3.4517    2.9501    0.0000 N   0  0  0  0  0  0  0  0  0  0  0  0
   -1.9645    2.7545    0.0000 C   0  0  0  0  0  0  0  0  0  0  0  0
   -1.3903    1.3687    0.0000 C   0  0  0  0  0  0  0  0  0  0  0  0
   -2.3034    0.1786    0.0000 C   0  0  0  0  0  0  0  0  0  0  0  0
   -3.8028    0.2177    0.0000 C   0  0  0  0  0  0  0  0  0  0  0  0
   -4.3034   -1.1963    0.0000 N   0  0  0  0  0  0  0  0  0  0  0  0
   -3.1133   -2.1093    0.0000 C   0  0  0  0  0  0  0  0  0  0  0  0
   -2.9955   -3.6047    0.0000 C   0  0  0  0  0  0  0  0  0  0  0  0
   -1.6416   -4.2503    0.0000 C   0  0  0  0  0  0  0  0  0  0  0  0
   -0.4054   -3.4006    0.0000 C   0  0  0  0  0  0  0  0  0  0  0  0
   -0.5233   -1.9053    0.0000 C   0  0  0  0  0  0  0  0  0  0  0  0
    0.7128   -1.0555    0.0000 O   0  0  0  0  0  0  0  0  0  0  0  0
    2.0668   -1.7012    0.0000 C   0  0  0  0  0  0  0  0  0  0  0  0
    3.3029   -0.8515    0.0000 C   0  0  0  0  0  0  0  0  0  0  0  0
    4.6568   -1.4971    0.0000 C   0  0  0  0  0  0  0  0  0  0  0  0
    5.8929   -0.6474    0.0000 C   0  0  0  0  0  0  0  0  0  0  0  0
    5.7751    0.8480    0.0000 C   0  0  0  0  0  0  0  0  0  0  0  0
    4.4212    1.4936    0.0000 C   0  0  0  0  0  0  0  0  0  0  0  0
    3.1851    0.6439    0.0000 C   0  0  0  0  0  0  0  0  0  0  0  0
   -1.8772   -1.2596    0.0000 C   0  0  0  0  0  0  0  0  0  0  0  0
   -1.0514    3.9446    0.0000 C   0  0  0  0  0  0  0  0  0  0  0  0
    0.4357    3.7489    0.0000 O   0  0  0  0  0  0  0  0  0  0  0  0
   -1.6256    5.3303    0.0000 O   0  0  0  0  0  0  0  0  0  0  0  0
  2  1  1  6
  2  3  1  0
  3  4  1  0
  4  5  2  0
  5  6  1  0
  6  7  1  0
  7  8  2  0
  8  9  1  0
  9 10  2  0
 10 11  1  0
 11 12  1  0
 12 13  1  0
 13 14  1  0
 14 15  2  0
 15 16  1  0
 16 17  2  0
 17 18  1  0
 18 19  2  0
 11 20  2  0
  2 21  1  0
 21 22  2  0
 21 23  1  0
 19 14  1  0
 20  4  1  0
 20  7  1  0
M  END
>  <rName>  (3475) 
Trp_4OBn

>  <PQ_SYMBOL>  (3475) 
Trp_4OBn

>  <FULL_NAME>  (3475) 
4-benzyloxy-L-tryptophan

>  <IUPAC_CONDENSED>  (3475) 
Trp(4-OBn)

>  <IUPAC>  (3475) 
(2S)-2-amino-3-(4-benzyloxy-1H-indol-3-yl)propanoic acid

>  <TYPE>  (3475) 
Backbone

>  <CLASS>  (3475) 
alpha

>  <ANALOG>  (3475) 
Trp

>  <MOL_WT>  (3475) 
310.35300000000007

>  <LOGP>  (3475) 
2.7013000000000007

>  <TPSA>  (3475) 
88.34000000000002

>  <POPULARITY>  (3475) 
2.6

>  <PROTECTED>  (3475) 
TRUE

>  <SMILES>  (3475) 
N[C@@H](Cc2(c[nH]c3(cccc(OCc1(ccccc1))c23)))C(=O)O

>  <INCHIKEY>  (3475) 
CODJFBODUVBXAR-AWEZNQCLSA-N

$$$$
Trp_4OH
     RDKit          2D

 16 17  0  0  0  0  0  0  0  0999 V2000
   -2.7276   -1.8081    0.0000 N   0  0  0  0  0  0  0  0  0  0  0  0
   -2.6325   -0.3111    0.0000 C   0  0  0  0  0  0  0  0  0  0  0  0
   -1.2885    0.3550    0.0000 C   0  0  0  0  0  0  0  0  0  0  0  0
   -0.0397   -0.4758    0.0000 C   0  0  0  0  0  0  0  0  0  0  0  0
    0.0222   -1.9745    0.0000 C   0  0  0  0  0  0  0  0  0  0  0  0
    1.4667   -2.3788    0.0000 N   0  0  0  0  0  0  0  0  0  0  0  0
    2.2976   -1.1299    0.0000 C   0  0  0  0  0  0  0  0  0  0  0  0
    3.7816   -0.9117    0.0000 C   0  0  0  0  0  0  0  0  0  0  0  0
    4.3347    0.4826    0.0000 C   0  0  0  0  0  0  0  0  0  0  0  0
    3.4037    1.6587    0.0000 C   0  0  0  0  0  0  0  0  0  0  0  0
    1.9196    1.4405    0.0000 C   0  0  0  0  0  0  0  0  0  0  0  0
    0.9886    2.6166    0.0000 O   0  0  0  0  0  0  0  0  0  0  0  0
    1.3666    0.0462    0.0000 C   0  0  0  0  0  0  0  0  0  0  0  0
   -3.8814    0.5198    0.0000 C   0  0  0  0  0  0  0  0  0  0  0  0
   -3.7863    2.0167    0.0000 O   0  0  0  0  0  0  0  0  0  0  0  0
   -5.2254   -0.1464    0.0000 O   0  0  0  0  0  0  0  0  0  0  0  0
  2  1  1  6
  2  3  1  0
  3  4  1  0
  4  5  2  0
  5  6  1  0
  6  7  1  0
  7  8  2  0
  8  9  1  0
  9 10  2  0
 10 11  1  0
 11 12  1  0
 11 13  2  0
  2 14  1  0
 14 15  2  0
 14 16  1  0
 13  7  1  0
 13  4  1  0
M  END
>  <rName>  (3476) 
Trp_4OH

>  <PQ_SYMBOL>  (3476) 
Trp_4OH

>  <FULL_NAME>  (3476) 
4-Hydroxy-L-Tryptophan

>  <IUPAC_CONDENSED>  (3476) 
Trp(4-OH)

>  <IUPAC>  (3476) 
(2S)-2-amino-3-(4-hydroxy-1H-indol-3-yl)propanoic acid

>  <TYPE>  (3476) 
Backbone

>  <CLASS>  (3476) 
alpha

>  <ANALOG>  (3476) 
Trp

>  <MOL_WT>  (3476) 
220.22799999999998

>  <LOGP>  (3476) 
0.8279000000000003

>  <TPSA>  (3476) 
99.34000000000002

>  <POPULARITY>  (3476) 
12.4

>  <PROTECTED>  (3476) 
TRUE

>  <SMILES>  (3476) 
N[C@@H](Cc2(c[nH]c1(cccc(O)c12)))C(=O)O

>  <INCHIKEY>  (3476) 
QSHLMQDRPXXYEE-ZETCQYMHSA-N

$$$$
Trp_4OMe
     RDKit          2D

 17 18  0  0  0  0  0  0  0  0999 V2000
   -2.9481   -1.8518    0.0000 N   0  0  0  0  0  0  0  0  0  0  0  0
   -2.7536   -0.3645    0.0000 C   0  0  0  0  0  0  0  0  0  0  0  0
   -1.3682    0.2107    0.0000 C   0  0  0  0  0  0  0  0  0  0  0  0
   -0.1774   -0.7015    0.0000 C   0  0  0  0  0  0  0  0  0  0  0  0
   -0.2155   -2.2010    0.0000 C   0  0  0  0  0  0  0  0  0  0  0  0
    1.1989   -2.7006    0.0000 N   0  0  0  0  0  0  0  0  0  0  0  0
    2.1111   -1.5098    0.0000 C   0  0  0  0  0  0  0  0  0  0  0  0
    3.6063   -1.3909    0.0000 C   0  0  0  0  0  0  0  0  0  0  0  0
    4.2510   -0.0364    0.0000 C   0  0  0  0  0  0  0  0  0  0  0  0
    3.4004    1.1990    0.0000 C   0  0  0  0  0  0  0  0  0  0  0  0
    1.9051    1.0801    0.0000 C   0  0  0  0  0  0  0  0  0  0  0  0
    1.0545    2.3156    0.0000 O   0  0  0  0  0  0  0  0  0  0  0  0
    1.6991    3.6700    0.0000 C   0  0  0  0  0  0  0  0  0  0  0  0
    1.2604   -0.2743    0.0000 C   0  0  0  0  0  0  0  0  0  0  0  0
   -3.9444    0.5477    0.0000 C   0  0  0  0  0  0  0  0  0  0  0  0
   -3.7498    2.0350    0.0000 O   0  0  0  0  0  0  0  0  0  0  0  0
   -5.3297   -0.0275    0.0000 O   0  0  0  0  0  0  0  0  0  0  0  0
  2  1  1  6
  2  3  1  0
  3  4  1  0
  4  5  2  0
  5  6  1  0
  6  7  1  0
  7  8  2  0
  8  9  1  0
  9 10  2  0
 10 11  1  0
 11 12  1  0
 12 13  1  0
 11 14  2  0
  2 15  1  0
 15 16  2  0
 15 17  1  0
 14  4  1  0
 14  7  1  0
M  END
>  <rName>  (3477) 
Trp_4OMe

>  <PQ_SYMBOL>  (3477) 
Trp_4OMe

>  <FULL_NAME>  (3477) 
4-methoxy-L-tryptophan

>  <IUPAC_CONDENSED>  (3477) 
Trp(4-OMe)

>  <IUPAC>  (3477) 
(2S)-2-amino-3-(4-methoxy-1H-indol-3-yl)propanoic acid

>  <TYPE>  (3477) 
Backbone

>  <CLASS>  (3477) 
alpha

>  <ANALOG>  (3477) 
Trp

>  <MOL_WT>  (3477) 
234.25499999999997

>  <LOGP>  (3477) 
1.1309

>  <TPSA>  (3477) 
88.34000000000002

>  <POPULARITY>  (3477) 
7.3

>  <PROTECTED>  (3477) 
TRUE

>  <SMILES>  (3477) 
N[C@@H](Cc1(c[nH]c2(cccc(OC)c12)))C(=O)O

>  <INCHIKEY>  (3477) 
VYXPKRIKQJEAOO-QMMMGPOBSA-N

$$$$
Trp_56diCl
     RDKit          2D

 17 18  0  0  0  0  0  0  0  0999 V2000
    3.4017    1.5718    0.0000 N   0  0  0  0  0  0  0  0  0  0  0  0
    3.1707    0.0897    0.0000 C   0  0  0  0  0  0  0  0  0  0  0  0
    1.7717   -0.4513    0.0000 C   0  0  0  0  0  0  0  0  0  0  0  0
    0.6036    0.4898    0.0000 C   0  0  0  0  0  0  0  0  0  0  0  0
    0.6784    1.9879    0.0000 C   0  0  0  0  0  0  0  0  0  0  0  0
   -0.7233    2.5220    0.0000 N   0  0  0  0  0  0  0  0  0  0  0  0
   -1.6644    1.3540    0.0000 C   0  0  0  0  0  0  0  0  0  0  0  0
   -3.1621    1.2718    0.0000 C   0  0  0  0  0  0  0  0  0  0  0  0
   -3.8398   -0.0664    0.0000 C   0  0  0  0  0  0  0  0  0  0  0  0
   -5.3375   -0.1486    0.0000 Cl  0  0  0  0  0  0  0  0  0  0  0  0
   -3.0197   -1.3224    0.0000 C   0  0  0  0  0  0  0  0  0  0  0  0
   -3.6974   -2.6606    0.0000 Cl  0  0  0  0  0  0  0  0  0  0  0  0
   -1.5220   -1.2402    0.0000 C   0  0  0  0  0  0  0  0  0  0  0  0
   -0.8443    0.0980    0.0000 C   0  0  0  0  0  0  0  0  0  0  0  0
    4.3388   -0.8514    0.0000 C   0  0  0  0  0  0  0  0  0  0  0  0
    4.1078   -2.3335    0.0000 O   0  0  0  0  0  0  0  0  0  0  0  0
    5.7378   -0.3104    0.0000 O   0  0  0  0  0  0  0  0  0  0  0  0
  2  1  1  6
  2  3  1  0
  3  4  1  0
  4  5  2  0
  5  6  1  0
  6  7  1  0
  7  8  2  0
  8  9  1  0
  9 10  1  0
  9 11  2  0
 11 12  1  0
 11 13  1  0
 13 14  2  0
  2 15  1  0
 15 16  2  0
 15 17  1  0
 14  4  1  0
 14  7  1  0
M  END
>  <rName>  (3478) 
Trp_56diCl

>  <PQ_SYMBOL>  (3478) 
Trp_56diCl

>  <FULL_NAME>  (3478) 
5,6-dichloro-L-tryptophan

>  <IUPAC_CONDENSED>  (3478) 
Trp(5,6-diCl)

>  <IUPAC>  (3478) 
(2S)-2-amino-3-(5,6-dichloro-1H-indol-3-yl)propanoic acid

>  <TYPE>  (3478) 
Backbone

>  <CLASS>  (3478) 
alpha

>  <ANALOG>  (3478) 
Trp

>  <MOL_WT>  (3478) 
273.11899999999997

>  <LOGP>  (3478) 
2.4291

>  <TPSA>  (3478) 
79.11

>  <POPULARITY>  (3478) 
4.3

>  <PROTECTED>  (3478) 
TRUE

>  <SMILES>  (3478) 
N[C@@H](Cc1(c[nH]c2(cc(Cl)c(Cl)cc12)))C(=O)O

>  <INCHIKEY>  (3478) 
PZPMDEQRXQHVJZ-VIFPVBQESA-N

$$$$
Trp_56diMe
     RDKit          2D

 17 18  0  0  0  0  0  0  0  0999 V2000
    3.4017    1.5718    0.0000 N   0  0  0  0  0  0  0  0  0  0  0  0
    3.1707    0.0897    0.0000 C   0  0  0  0  0  0  0  0  0  0  0  0
    1.7717   -0.4513    0.0000 C   0  0  0  0  0  0  0  0  0  0  0  0
    0.6036    0.4898    0.0000 C   0  0  0  0  0  0  0  0  0  0  0  0
    0.6784    1.9879    0.0000 C   0  0  0  0  0  0  0  0  0  0  0  0
   -0.7233    2.5220    0.0000 N   0  0  0  0  0  0  0  0  0  0  0  0
   -1.6644    1.3540    0.0000 C   0  0  0  0  0  0  0  0  0  0  0  0
   -3.1621    1.2718    0.0000 C   0  0  0  0  0  0  0  0  0  0  0  0
   -3.8398   -0.0664    0.0000 C   0  0  0  0  0  0  0  0  0  0  0  0
   -5.3375   -0.1486    0.0000 C   0  0  0  0  0  0  0  0  0  0  0  0
   -3.0197   -1.3224    0.0000 C   0  0  0  0  0  0  0  0  0  0  0  0
   -3.6974   -2.6606    0.0000 C   0  0  0  0  0  0  0  0  0  0  0  0
   -1.5220   -1.2402    0.0000 C   0  0  0  0  0  0  0  0  0  0  0  0
   -0.8443    0.0980    0.0000 C   0  0  0  0  0  0  0  0  0  0  0  0
    4.3388   -0.8514    0.0000 C   0  0  0  0  0  0  0  0  0  0  0  0
    4.1078   -2.3335    0.0000 O   0  0  0  0  0  0  0  0  0  0  0  0
    5.7378   -0.3104    0.0000 O   0  0  0  0  0  0  0  0  0  0  0  0
  2  1  1  6
  2  3  1  0
  3  4  1  0
  4  5  2  0
  5  6  1  0
  6  7  1  0
  7  8  2  0
  8  9  1  0
  9 10  1  0
  9 11  2  0
 11 12  1  0
 11 13  1  0
 13 14  2  0
  2 15  1  0
 15 16  2  0
 15 17  1  0
 14  4  1  0
 14  7  1  0
M  END
>  <rName>  (3479) 
Trp_56diMe

>  <PQ_SYMBOL>  (3479) 
Trp_56diMe

>  <FULL_NAME>  (3479) 
5,6-dimethyl-L-tryptophan

>  <IUPAC_CONDENSED>  (3479) 
Trp(5,6-diMe)

>  <IUPAC>  (3479) 
(2S)-2-amino-3-(5,6-dimethyl-1H-indol-3-yl)propanoic acid

>  <TYPE>  (3479) 
Backbone

>  <CLASS>  (3479) 
alpha

>  <ANALOG>  (3479) 
Trp

>  <MOL_WT>  (3479) 
232.28299999999996

>  <LOGP>  (3479) 
1.7391400000000004

>  <TPSA>  (3479) 
79.11

>  <POPULARITY>  (3479) 
3.2

>  <PROTECTED>  (3479) 
TRUE

>  <SMILES>  (3479) 
N[C@@H](Cc1(c[nH]c2(cc(C)c(C)cc12)))C(=O)O

>  <INCHIKEY>  (3479) 
GKXMOSQLMFXYCS-NSHDSACASA-N

$$$$
Trp_5Aza
     RDKit          2D

 15 16  0  0  0  0  0  0  0  0999 V2000
   -2.6183   -1.7023    0.0000 N   0  0  0  0  0  0  0  0  0  0  0  0
   -2.5622   -0.2034    0.0000 C   0  0  0  0  0  0  0  0  0  0  0  0
   -1.2360    0.4975    0.0000 C   0  0  0  0  0  0  0  0  0  0  0  0
    0.0341   -0.3006    0.0000 C   0  0  0  0  0  0  0  0  0  0  0  0
    0.1349   -1.7972    0.0000 C   0  0  0  0  0  0  0  0  0  0  0  0
    1.5895   -2.1637    0.0000 N   0  0  0  0  0  0  0  0  0  0  0  0
    2.3875   -0.8937    0.0000 C   0  0  0  0  0  0  0  0  0  0  0  0
    3.8654   -0.6369    0.0000 C   0  0  0  0  0  0  0  0  0  0  0  0
    4.3820    0.7713    0.0000 C   0  0  0  0  0  0  0  0  0  0  0  0
    3.4207    1.9228    0.0000 N   0  0  0  0  0  0  0  0  0  0  0  0
    1.9429    1.6661    0.0000 C   0  0  0  0  0  0  0  0  0  0  0  0
    1.4263    0.2578    0.0000 C   0  0  0  0  0  0  0  0  0  0  0  0
   -3.8322    0.5947    0.0000 C   0  0  0  0  0  0  0  0  0  0  0  0
   -3.7761    2.0937    0.0000 O   0  0  0  0  0  0  0  0  0  0  0  0
   -5.1584   -0.1061    0.0000 O   0  0  0  0  0  0  0  0  0  0  0  0
  2  1  1  6
  2  3  1  0
  3  4  1  0
  4  5  2  0
  5  6  1  0
  6  7  1  0
  7  8  1  0
  8  9  2  0
  9 10  1  0
 10 11  2  0
 11 12  1  0
  2 13  1  0
 13 14  2  0
 13 15  1  0
 12  4  1  0
 12  7  2  0
M  END
>  <rName>  (3480) 
Trp_5Aza

>  <PQ_SYMBOL>  (3480) 
Trp_5Aza

>  <FULL_NAME>  (3480) 
5-aza-L-tryptophan

>  <IUPAC_CONDENSED>  (3480) 
Trp(5-Aza)

>  <IUPAC>  (3480) 
(2S)-2-amino-3-(3,7-diazabicyclo[4.3.0]nona-1,3,5,8-tetraen-9-yl)propanoic acid

>  <TYPE>  (3480) 
Backbone

>  <CLASS>  (3480) 
alpha

>  <ANALOG>  (3480) 
Phe

>  <MOL_WT>  (3480) 
205.21699999999996

>  <LOGP>  (3480) 
0.5172999999999999

>  <TPSA>  (3480) 
92.00000000000001

>  <POPULARITY>  (3480) 
5.2

>  <PROTECTED>  (3480) 
TRUE

>  <SMILES>  (3480) 
N[C@@H](Cc1(c[nH]c2(ccncc12)))C(=O)O

>  <INCHIKEY>  (3480) 
ANQYIRMPOYWSSM-QMMMGPOBSA-N

$$$$
Trp_5BO2
     RDKit          2D

 18 19  0  0  0  0  0  0  0  0999 V2000
   -3.8376   -1.2806    0.0000 N   0  0  0  0  0  0  0  0  0  0  0  0
   -3.3503    0.1381    0.0000 C   0  0  0  0  0  0  0  0  0  0  0  0
   -1.8781    0.4254    0.0000 C   0  0  0  0  0  0  0  0  0  0  0  0
   -0.8931   -0.7059    0.0000 C   0  0  0  0  0  0  0  0  0  0  0  0
   -1.2294   -2.1677    0.0000 C   0  0  0  0  0  0  0  0  0  0  0  0
    0.0569   -2.9392    0.0000 N   0  0  0  0  0  0  0  0  0  0  0  0
    1.1882   -1.9542    0.0000 C   0  0  0  0  0  0  0  0  0  0  0  0
    2.6772   -2.1359    0.0000 C   0  0  0  0  0  0  0  0  0  0  0  0
    3.5790   -0.9372    0.0000 C   0  0  0  0  0  0  0  0  0  0  0  0
    2.9918    0.4431    0.0000 C   0  0  0  0  0  0  0  0  0  0  0  0
    1.5028    0.6247    0.0000 C   0  0  0  0  0  0  0  0  0  0  0  0
    0.6010   -0.5739    0.0000 C   0  0  0  0  0  0  0  0  0  0  0  0
    3.8936    1.6418    0.0000 B   0  0  0  0  0  0  0  0  0  0  0  0
    5.3825    1.4601    0.0000 O   0  0  0  0  0  0  0  0  0  0  0  0
    3.3064    3.0221    0.0000 O   0  0  0  0  0  0  0  0  0  0  0  0
   -4.3353    1.2693    0.0000 C   0  0  0  0  0  0  0  0  0  0  0  0
   -3.8481    2.6880    0.0000 O   0  0  0  0  0  0  0  0  0  0  0  0
   -5.8075    0.9820    0.0000 O   0  0  0  0  0  0  0  0  0  0  0  0
  2  1  1  6
  2  3  1  0
  3  4  1  0
  4  5  2  0
  5  6  1  0
  6  7  1  0
  7  8  1  0
  8  9  2  0
  9 10  1  0
 10 11  2  0
 11 12  1  0
 10 13  1  0
 13 14  1  0
 13 15  1  0
  2 16  1  0
 16 17  2  0
 16 18  1  0
 12  4  1  0
 12  7  2  0
M  END
>  <rName>  (3481) 
Trp_5BO2

>  <PQ_SYMBOL>  (3481) 
Trp_5BO2

>  <FULL_NAME>  (3481) 
5-borono-L-tryptophan

>  <IUPAC_CONDENSED>  (3481) 
Trp(5-BO2)

>  <IUPAC>  (3481) 
(2S)-2-amino-3-(5-(dihydroxyboryl)-1H-indol-3-yl)propanoic acid

>  <TYPE>  (3481) 
Backbone

>  <CLASS>  (3481) 
alpha

>  <ANALOG>  (3481) 
Trp

>  <MOL_WT>  (3481) 
248.047

>  <LOGP>  (3481) 
-1.1979

>  <TPSA>  (3481) 
119.57000000000001

>  <POPULARITY>  (3481) 
3.0

>  <PROTECTED>  (3481) 
TRUE

>  <SMILES>  (3481) 
N[C@@H](Cc1(c[nH]c2(ccc(cc12)B(O)O)))C(=O)O

>  <INCHIKEY>  (3481) 
VOHWFYJMEORABS-VIFPVBQESA-N

$$$$
Trp_5Br
     RDKit          2D

 16 17  0  0  0  0  0  0  0  0999 V2000
   -3.0564   -1.5854    0.0000 N   0  0  0  0  0  0  0  0  0  0  0  0
   -2.8364   -0.1016    0.0000 C   0  0  0  0  0  0  0  0  0  0  0  0
   -1.4415    0.4499    0.0000 C   0  0  0  0  0  0  0  0  0  0  0  0
   -0.2664   -0.4825    0.0000 C   0  0  0  0  0  0  0  0  0  0  0  0
   -0.3301   -1.9811    0.0000 C   0  0  0  0  0  0  0  0  0  0  0  0
    1.0756   -2.5048    0.0000 N   0  0  0  0  0  0  0  0  0  0  0  0
    2.0079   -1.3297    0.0000 C   0  0  0  0  0  0  0  0  0  0  0  0
    3.5050   -1.2364    0.0000 C   0  0  0  0  0  0  0  0  0  0  0  0
    4.1727    0.1068    0.0000 C   0  0  0  0  0  0  0  0  0  0  0  0
    3.3433    1.3567    0.0000 C   0  0  0  0  0  0  0  0  0  0  0  0
    4.0110    2.6999    0.0000 Br  0  0  0  0  0  0  0  0  0  0  0  0
    1.8462    1.2633    0.0000 C   0  0  0  0  0  0  0  0  0  0  0  0
    1.1785   -0.0799    0.0000 C   0  0  0  0  0  0  0  0  0  0  0  0
   -4.0115    0.8308    0.0000 C   0  0  0  0  0  0  0  0  0  0  0  0
   -3.7915    2.3146    0.0000 O   0  0  0  0  0  0  0  0  0  0  0  0
   -5.4064    0.2794    0.0000 O   0  0  0  0  0  0  0  0  0  0  0  0
  2  1  1  6
  2  3  1  0
  3  4  1  0
  4  5  2  0
  5  6  1  0
  6  7  1  0
  7  8  1  0
  8  9  2  0
  9 10  1  0
 10 11  1  0
 10 12  2  0
 12 13  1  0
  2 14  1  0
 14 15  2  0
 14 16  1  0
 13  4  1  0
 13  7  2  0
M  END
>  <rName>  (3482) 
Trp_5Br

>  <PQ_SYMBOL>  (3482) 
Trp_5Br

>  <FULL_NAME>  (3482) 
5-Bromo-L-Tryptophan

>  <IUPAC_CONDENSED>  (3482) 
Trp(5-Br)

>  <IUPAC>  (3482) 
(2S)-2-amino-3-(5-bromo-1H-indol-3-yl)propanoic acid

>  <TYPE>  (3482) 
Backbone

>  <CLASS>  (3482) 
alpha

>  <ANALOG>  (3482) 
Trp

>  <MOL_WT>  (3482) 
283.125

>  <LOGP>  (3482) 
1.8848000000000003

>  <TPSA>  (3482) 
79.11

>  <POPULARITY>  (3482) 
7.3

>  <PROTECTED>  (3482) 
TRUE

>  <SMILES>  (3482) 
N[C@@H](Cc1(c[nH]c2(ccc(Br)cc12)))C(=O)O

>  <INCHIKEY>  (3482) 
KZDNJQUJBMDHJW-VIFPVBQESA-N

$$$$
Trp_5Br_7F
     RDKit          2D

 17 18  0  0  0  0  0  0  0  0999 V2000
    3.1848    1.7009    0.0000 N   0  0  0  0  0  0  0  0  0  0  0  0
    3.0850    0.2042    0.0000 C   0  0  0  0  0  0  0  0  0  0  0  0
    1.7389   -0.4577    0.0000 C   0  0  0  0  0  0  0  0  0  0  0  0
    0.4927    0.3771    0.0000 C   0  0  0  0  0  0  0  0  0  0  0  0
    0.4355    1.8760    0.0000 C   0  0  0  0  0  0  0  0  0  0  0  0
   -1.0077    2.2849    0.0000 N   0  0  0  0  0  0  0  0  0  0  0  0
   -1.8425    1.0386    0.0000 C   0  0  0  0  0  0  0  0  0  0  0  0
   -3.3272    0.8251    0.0000 C   0  0  0  0  0  0  0  0  0  0  0  0
   -4.2545    2.0041    0.0000 F   0  0  0  0  0  0  0  0  0  0  0  0
   -3.8847   -0.5675    0.0000 C   0  0  0  0  0  0  0  0  0  0  0  0
   -2.9574   -1.7465    0.0000 C   0  0  0  0  0  0  0  0  0  0  0  0
   -3.5148   -3.1391    0.0000 Br  0  0  0  0  0  0  0  0  0  0  0  0
   -1.4727   -1.5330    0.0000 C   0  0  0  0  0  0  0  0  0  0  0  0
   -0.9152   -0.1404    0.0000 C   0  0  0  0  0  0  0  0  0  0  0  0
    4.3312   -0.6306    0.0000 C   0  0  0  0  0  0  0  0  0  0  0  0
    4.2314   -2.1273    0.0000 O   0  0  0  0  0  0  0  0  0  0  0  0
    5.6773    0.0313    0.0000 O   0  0  0  0  0  0  0  0  0  0  0  0
  2  1  1  6
  2  3  1  0
  3  4  1  0
  4  5  2  0
  5  6  1  0
  6  7  1  0
  7  8  2  0
  8  9  1  0
  8 10  1  0
 10 11  2  0
 11 12  1  0
 11 13  1  0
 13 14  2  0
  2 15  1  0
 15 16  2  0
 15 17  1  0
 14  4  1  0
 14  7  1  0
M  END
>  <rName>  (3483) 
Trp_5Br_7F

>  <PQ_SYMBOL>  (3483) 
Trp_5Br_7F

>  <FULL_NAME>  (3483) 
5-bromo-7-fluoro-L-tryptophan

>  <IUPAC_CONDENSED>  (3483) 
Trp(5-Br,7-F)

>  <IUPAC>  (3483) 
(2S)-2-amino-3-(5-bromo-7-fluoro-1H-indol-3-yl)propanoic acid

>  <TYPE>  (3483) 
Backbone

>  <CLASS>  (3483) 
alpha

>  <ANALOG>  (3483) 
Trp

>  <MOL_WT>  (3483) 
301.11500000000007

>  <LOGP>  (3483) 
2.0239000000000003

>  <TPSA>  (3483) 
79.11

>  <POPULARITY>  (3483) 
2.9

>  <PROTECTED>  (3483) 
TRUE

>  <SMILES>  (3483) 
N[C@@H](Cc1(c[nH]c2(c(F)cc(Br)cc12)))C(=O)O

>  <INCHIKEY>  (3483) 
DITFHSSOIMWKPX-VIFPVBQESA-N

$$$$
Trp_5CN
     RDKit          2D

 17 18  0  0  0  0  0  0  0  0999 V2000
   -3.5618   -1.3180    0.0000 N   0  0  0  0  0  0  0  0  0  0  0  0
   -3.1279    0.1179    0.0000 C   0  0  0  0  0  0  0  0  0  0  0  0
   -1.6674    0.4601    0.0000 C   0  0  0  0  0  0  0  0  0  0  0  0
   -0.6409   -0.6337    0.0000 C   0  0  0  0  0  0  0  0  0  0  0  0
   -0.9223   -2.1070    0.0000 C   0  0  0  0  0  0  0  0  0  0  0  0
    0.3919   -2.8300    0.0000 N   0  0  0  0  0  0  0  0  0  0  0  0
    1.4857   -1.8034    0.0000 C   0  0  0  0  0  0  0  0  0  0  0  0
    2.9804   -1.9293    0.0000 C   0  0  0  0  0  0  0  0  0  0  0  0
    3.8367   -0.6978    0.0000 C   0  0  0  0  0  0  0  0  0  0  0  0
    3.1984    0.6596    0.0000 C   0  0  0  0  0  0  0  0  0  0  0  0
    4.0548    1.8911    0.0000 C   0  0  0  0  0  0  0  0  0  0  0  0
    4.9112    3.1226    0.0000 N   0  0  0  0  0  0  0  0  0  0  0  0
    1.7037    0.7855    0.0000 C   0  0  0  0  0  0  0  0  0  0  0  0
    0.8473   -0.4460    0.0000 C   0  0  0  0  0  0  0  0  0  0  0  0
   -4.1544    1.2116    0.0000 C   0  0  0  0  0  0  0  0  0  0  0  0
   -3.7205    2.6475    0.0000 O   0  0  0  0  0  0  0  0  0  0  0  0
   -5.6149    0.8695    0.0000 O   0  0  0  0  0  0  0  0  0  0  0  0
  2  1  1  6
  2  3  1  0
  3  4  1  0
  4  5  2  0
  5  6  1  0
  6  7  1  0
  7  8  1  0
  8  9  2  0
  9 10  1  0
 10 11  1  0
 11 12  3  0
 10 13  2  0
 13 14  1  0
  2 15  1  0
 15 16  2  0
 15 17  1  0
 14  4  1  0
 14  7  2  0
M  END
>  <rName>  (3484) 
Trp_5CN

>  <PQ_SYMBOL>  (3484) 
Trp_5CN

>  <FULL_NAME>  (3484) 
5-cyano-L-tryptophan

>  <IUPAC_CONDENSED>  (3484) 
Trp(5-CN)

>  <IUPAC>  (3484) 
(2S)-2-amino-3-(5-(nitrilomethyl)-1H-indol-3-yl)propanoic acid

>  <TYPE>  (3484) 
Backbone

>  <CLASS>  (3484) 
alpha

>  <ANALOG>  (3484) 
Trp

>  <MOL_WT>  (3484) 
229.23899999999998

>  <LOGP>  (3484) 
0.9939800000000003

>  <TPSA>  (3484) 
102.89999999999999

>  <POPULARITY>  (3484) 
5.3

>  <PROTECTED>  (3484) 
TRUE

>  <SMILES>  (3484) 
N[C@@H](Cc1(c[nH]c2(ccc(C#N)cc12)))C(=O)O

>  <INCHIKEY>  (3484) 
RWUVZHFIVNNDBO-JTQLQIEISA-N

$$$$
Trp_5CO2Me
     RDKit          2D

 19 20  0  0  0  0  0  0  0  0999 V2000
   -4.2822   -1.0273    0.0000 N   0  0  0  0  0  0  0  0  0  0  0  0
   -3.6654    0.3400    0.0000 C   0  0  0  0  0  0  0  0  0  0  0  0
   -2.1728    0.4894    0.0000 C   0  0  0  0  0  0  0  0  0  0  0  0
   -1.2971   -0.7285    0.0000 C   0  0  0  0  0  0  0  0  0  0  0  0
   -1.7677   -2.1528    0.0000 C   0  0  0  0  0  0  0  0  0  0  0  0
   -0.5586   -3.0404    0.0000 N   0  0  0  0  0  0  0  0  0  0  0  0
    0.6593   -2.1647    0.0000 C   0  0  0  0  0  0  0  0  0  0  0  0
    2.1250   -2.4839    0.0000 C   0  0  0  0  0  0  0  0  0  0  0  0
    3.1342   -1.3741    0.0000 C   0  0  0  0  0  0  0  0  0  0  0  0
    2.6777    0.0547    0.0000 C   0  0  0  0  0  0  0  0  0  0  0  0
    1.2120    0.3739    0.0000 C   0  0  0  0  0  0  0  0  0  0  0  0
    0.2028   -0.7359    0.0000 C   0  0  0  0  0  0  0  0  0  0  0  0
    3.6869    1.1645    0.0000 C   0  0  0  0  0  0  0  0  0  0  0  0
    3.2304    2.5933    0.0000 O   0  0  0  0  0  0  0  0  0  0  0  0
    5.1525    0.8454    0.0000 O   0  0  0  0  0  0  0  0  0  0  0  0
    6.1617    1.9551    0.0000 C   0  0  0  0  0  0  0  0  0  0  0  0
   -4.5410    1.5578    0.0000 C   0  0  0  0  0  0  0  0  0  0  0  0
   -3.9242    2.9251    0.0000 O   0  0  0  0  0  0  0  0  0  0  0  0
   -6.0336    1.4084    0.0000 O   0  0  0  0  0  0  0  0  0  0  0  0
  2  1  1  6
  2  3  1  0
  3  4  1  0
  4  5  2  0
  5  6  1  0
  6  7  1  0
  7  8  1  0
  8  9  2  0
  9 10  1  0
 10 11  2  0
 11 12  1  0
 10 13  1  0
 13 14  2  0
 13 15  1  0
 15 16  1  0
  2 17  1  0
 17 18  2  0
 17 19  1  0
 12  4  1  0
 12  7  2  0
M  END
>  <rName>  (3485) 
Trp_5CO2Me

>  <PQ_SYMBOL>  (3485) 
Trp_5CO2Me

>  <FULL_NAME>  (3485) 
5-(methylcarboxy)-L-tryptophan

>  <IUPAC_CONDENSED>  (3485) 
Trp(5-CO2Me)

>  <IUPAC>  (3485) 
(2S)-2-amino-3-(5-((methoxy)carbonyl)-1H-indol-3-yl)propanoic acid

>  <TYPE>  (3485) 
Backbone

>  <CLASS>  (3485) 
alpha

>  <ANALOG>  (3485) 
Trp

>  <MOL_WT>  (3485) 
262.26499999999993

>  <LOGP>  (3485) 
0.9089

>  <TPSA>  (3485) 
105.41000000000001

>  <POPULARITY>  (3485) 
3.0

>  <PROTECTED>  (3485) 
TRUE

>  <SMILES>  (3485) 
N[C@@H](Cc1(c[nH]c2(ccc(cc12)C(=O)OC)))C(=O)O

>  <INCHIKEY>  (3485) 
XEIXPJQJRZZJFW-JTQLQIEISA-N

$$$$
Trp_5CONH2
     RDKit          2D

 18 19  0  0  0  0  0  0  0  0999 V2000
   -3.8376   -1.2806    0.0000 N   0  0  0  0  0  0  0  0  0  0  0  0
   -3.3503    0.1381    0.0000 C   0  0  0  0  0  0  0  0  0  0  0  0
   -1.8781    0.4254    0.0000 C   0  0  0  0  0  0  0  0  0  0  0  0
   -0.8931   -0.7059    0.0000 C   0  0  0  0  0  0  0  0  0  0  0  0
   -1.2294   -2.1677    0.0000 C   0  0  0  0  0  0  0  0  0  0  0  0
    0.0569   -2.9392    0.0000 N   0  0  0  0  0  0  0  0  0  0  0  0
    1.1882   -1.9542    0.0000 C   0  0  0  0  0  0  0  0  0  0  0  0
    2.6772   -2.1359    0.0000 C   0  0  0  0  0  0  0  0  0  0  0  0
    3.5790   -0.9372    0.0000 C   0  0  0  0  0  0  0  0  0  0  0  0
    2.9918    0.4431    0.0000 C   0  0  0  0  0  0  0  0  0  0  0  0
    1.5028    0.6247    0.0000 C   0  0  0  0  0  0  0  0  0  0  0  0
    0.6010   -0.5739    0.0000 C   0  0  0  0  0  0  0  0  0  0  0  0
    3.8936    1.6418    0.0000 C   0  0  0  0  0  0  0  0  0  0  0  0
    3.3064    3.0221    0.0000 O   0  0  0  0  0  0  0  0  0  0  0  0
    5.3825    1.4601    0.0000 N   0  0  0  0  0  0  0  0  0  0  0  0
   -4.3353    1.2693    0.0000 C   0  0  0  0  0  0  0  0  0  0  0  0
   -3.8481    2.6880    0.0000 O   0  0  0  0  0  0  0  0  0  0  0  0
   -5.8075    0.9820    0.0000 O   0  0  0  0  0  0  0  0  0  0  0  0
  2  1  1  6
  2  3  1  0
  3  4  1  0
  4  5  2  0
  5  6  1  0
  6  7  1  0
  7  8  1  0
  8  9  2  0
  9 10  1  0
 10 11  2  0
 11 12  1  0
 10 13  1  0
 13 14  2  0
 13 15  1  0
  2 16  1  0
 16 17  2  0
 16 18  1  0
 12  4  1  0
 12  7  2  0
M  END
>  <rName>  (3486) 
Trp_5CONH2

>  <PQ_SYMBOL>  (3486) 
Trp_5CONH2

>  <FULL_NAME>  (3486) 
5-carbamoyl-L-tryptophan

>  <IUPAC_CONDENSED>  (3486) 
Trp(5-CONH2)

>  <IUPAC>  (3486) 
(2S)-2-amino-3-(5-carbamoyl-1H-indol-3-yl)propanoic acid

>  <TYPE>  (3486) 
Backbone

>  <CLASS>  (3486) 
alpha

>  <ANALOG>  (3486) 
Trp

>  <MOL_WT>  (3486) 
247.25399999999996

>  <LOGP>  (3486) 
0.2211999999999999

>  <TPSA>  (3486) 
122.2

>  <POPULARITY>  (3486) 
3.4

>  <PROTECTED>  (3486) 
TRUE

>  <SMILES>  (3486) 
N[C@@H](Cc1(c[nH]c2(ccc(cc12)C(=O)N)))C(=O)O

>  <INCHIKEY>  (3486) 
PWWXNUGNXKNXSG-VIFPVBQESA-N

$$$$
Trp_5Cl
     RDKit          2D

 16 17  0  0  0  0  0  0  0  0999 V2000
   -3.0564   -1.5854    0.0000 N   0  0  0  0  0  0  0  0  0  0  0  0
   -2.8364   -0.1016    0.0000 C   0  0  0  0  0  0  0  0  0  0  0  0
   -1.4415    0.4499    0.0000 C   0  0  0  0  0  0  0  0  0  0  0  0
   -0.2664   -0.4825    0.0000 C   0  0  0  0  0  0  0  0  0  0  0  0
   -0.3301   -1.9811    0.0000 C   0  0  0  0  0  0  0  0  0  0  0  0
    1.0756   -2.5048    0.0000 N   0  0  0  0  0  0  0  0  0  0  0  0
    2.0079   -1.3297    0.0000 C   0  0  0  0  0  0  0  0  0  0  0  0
    3.5050   -1.2364    0.0000 C   0  0  0  0  0  0  0  0  0  0  0  0
    4.1727    0.1068    0.0000 C   0  0  0  0  0  0  0  0  0  0  0  0
    3.3433    1.3567    0.0000 C   0  0  0  0  0  0  0  0  0  0  0  0
    4.0110    2.6999    0.0000 Cl  0  0  0  0  0  0  0  0  0  0  0  0
    1.8462    1.2633    0.0000 C   0  0  0  0  0  0  0  0  0  0  0  0
    1.1785   -0.0799    0.0000 C   0  0  0  0  0  0  0  0  0  0  0  0
   -4.0115    0.8308    0.0000 C   0  0  0  0  0  0  0  0  0  0  0  0
   -3.7915    2.3146    0.0000 O   0  0  0  0  0  0  0  0  0  0  0  0
   -5.4064    0.2794    0.0000 O   0  0  0  0  0  0  0  0  0  0  0  0
  2  1  1  6
  2  3  1  0
  3  4  1  0
  4  5  2  0
  5  6  1  0
  6  7  1  0
  7  8  1  0
  8  9  2  0
  9 10  1  0
 10 11  1  0
 10 12  2  0
 12 13  1  0
  2 14  1  0
 14 15  2  0
 14 16  1  0
 13  4  1  0
 13  7  2  0
M  END
>  <rName>  (3487) 
Trp_5Cl

>  <PQ_SYMBOL>  (3487) 
Trp_5Cl

>  <FULL_NAME>  (3487) 
5-Chloro-L-Tryptophan

>  <IUPAC_CONDENSED>  (3487) 
Trp(5-Cl)

>  <IUPAC>  (3487) 
(2S)-2-amino-3-(5-chloro-1H-indol-3-yl)propanoic acid

>  <TYPE>  (3487) 
Backbone

>  <CLASS>  (3487) 
alpha

>  <ANALOG>  (3487) 
Trp

>  <MOL_WT>  (3487) 
238.67399999999998

>  <LOGP>  (3487) 
1.7757000000000003

>  <TPSA>  (3487) 
79.11

>  <POPULARITY>  (3487) 
13.1

>  <PROTECTED>  (3487) 
TRUE

>  <SMILES>  (3487) 
N[C@@H](Cc1(c[nH]c2(ccc(Cl)cc12)))C(=O)O

>  <INCHIKEY>  (3487) 
TUKKZLIDCNWKIN-VIFPVBQESA-N

$$$$
Trp_5Cl_7I
     RDKit          2D

 17 18  0  0  0  0  0  0  0  0999 V2000
    3.1848    1.7009    0.0000 N   0  0  0  0  0  0  0  0  0  0  0  0
    3.0850    0.2042    0.0000 C   0  0  0  0  0  0  0  0  0  0  0  0
    1.7389   -0.4577    0.0000 C   0  0  0  0  0  0  0  0  0  0  0  0
    0.4927    0.3771    0.0000 C   0  0  0  0  0  0  0  0  0  0  0  0
    0.4355    1.8760    0.0000 C   0  0  0  0  0  0  0  0  0  0  0  0
   -1.0077    2.2849    0.0000 N   0  0  0  0  0  0  0  0  0  0  0  0
   -1.8425    1.0386    0.0000 C   0  0  0  0  0  0  0  0  0  0  0  0
   -3.3272    0.8251    0.0000 C   0  0  0  0  0  0  0  0  0  0  0  0
   -4.2545    2.0041    0.0000 I   0  0  0  0  0  0  0  0  0  0  0  0
   -3.8847   -0.5675    0.0000 C   0  0  0  0  0  0  0  0  0  0  0  0
   -2.9574   -1.7465    0.0000 C   0  0  0  0  0  0  0  0  0  0  0  0
   -3.5148   -3.1391    0.0000 Cl  0  0  0  0  0  0  0  0  0  0  0  0
   -1.4727   -1.5330    0.0000 C   0  0  0  0  0  0  0  0  0  0  0  0
   -0.9152   -0.1404    0.0000 C   0  0  0  0  0  0  0  0  0  0  0  0
    4.3312   -0.6306    0.0000 C   0  0  0  0  0  0  0  0  0  0  0  0
    4.2314   -2.1273    0.0000 O   0  0  0  0  0  0  0  0  0  0  0  0
    5.6773    0.0313    0.0000 O   0  0  0  0  0  0  0  0  0  0  0  0
  2  1  1  6
  2  3  1  0
  3  4  1  0
  4  5  2  0
  5  6  1  0
  6  7  1  0
  7  8  2  0
  8  9  1  0
  8 10  1  0
 10 11  2  0
 11 12  1  0
 11 13  1  0
 13 14  2  0
  2 15  1  0
 15 16  2  0
 15 17  1  0
 14  4  1  0
 14  7  1  0
M  END
>  <rName>  (3488) 
Trp_5Cl_7I

>  <PQ_SYMBOL>  (3488) 
Trp_5Cl_7I

>  <FULL_NAME>  (3488) 
5-chloro-7-iodo-L-tryptophan

>  <IUPAC_CONDENSED>  (3488) 
Trp(5-Cl,7-I)

>  <IUPAC>  (3488) 
(2S)-2-amino-3-(5-chloro-7-iodo-1H-indol-3-yl)propanoic acid

>  <TYPE>  (3488) 
Backbone

>  <CLASS>  (3488) 
alpha

>  <ANALOG>  (3488) 
Trp

>  <MOL_WT>  (3488) 
364.5700000000001

>  <LOGP>  (3488) 
2.3803

>  <TPSA>  (3488) 
79.11

>  <POPULARITY>  (3488) 
2.8

>  <PROTECTED>  (3488) 
TRUE

>  <SMILES>  (3488) 
N[C@@H](Cc1(c[nH]c2(c(I)cc(Cl)cc12)))C(=O)O

>  <INCHIKEY>  (3488) 
WAJNDSDIYKJOTN-VIFPVBQESA-N

$$$$
Trp_5Cl_7Me
     RDKit          2D

 17 18  0  0  0  0  0  0  0  0999 V2000
    3.1848    1.7009    0.0000 N   0  0  0  0  0  0  0  0  0  0  0  0
    3.0850    0.2042    0.0000 C   0  0  0  0  0  0  0  0  0  0  0  0
    1.7389   -0.4577    0.0000 C   0  0  0  0  0  0  0  0  0  0  0  0
    0.4927    0.3771    0.0000 C   0  0  0  0  0  0  0  0  0  0  0  0
    0.4355    1.8760    0.0000 C   0  0  0  0  0  0  0  0  0  0  0  0
   -1.0077    2.2849    0.0000 N   0  0  0  0  0  0  0  0  0  0  0  0
   -1.8425    1.0386    0.0000 C   0  0  0  0  0  0  0  0  0  0  0  0
   -3.3272    0.8251    0.0000 C   0  0  0  0  0  0  0  0  0  0  0  0
   -4.2545    2.0041    0.0000 C   0  0  0  0  0  0  0  0  0  0  0  0
   -3.8847   -0.5675    0.0000 C   0  0  0  0  0  0  0  0  0  0  0  0
   -2.9574   -1.7465    0.0000 C   0  0  0  0  0  0  0  0  0  0  0  0
   -3.5148   -3.1391    0.0000 Cl  0  0  0  0  0  0  0  0  0  0  0  0
   -1.4727   -1.5330    0.0000 C   0  0  0  0  0  0  0  0  0  0  0  0
   -0.9152   -0.1404    0.0000 C   0  0  0  0  0  0  0  0  0  0  0  0
    4.3312   -0.6306    0.0000 C   0  0  0  0  0  0  0  0  0  0  0  0
    4.2314   -2.1273    0.0000 O   0  0  0  0  0  0  0  0  0  0  0  0
    5.6773    0.0313    0.0000 O   0  0  0  0  0  0  0  0  0  0  0  0
  2  1  1  6
  2  3  1  0
  3  4  1  0
  4  5  2  0
  5  6  1  0
  6  7  1  0
  7  8  2  0
  8  9  1  0
  8 10  1  0
 10 11  2  0
 11 12  1  0
 11 13  1  0
 13 14  2  0
  2 15  1  0
 15 16  2  0
 15 17  1  0
 14  4  1  0
 14  7  1  0
M  END
>  <rName>  (3489) 
Trp_5Cl_7Me

>  <PQ_SYMBOL>  (3489) 
Trp_5Cl_7Me

>  <FULL_NAME>  (3489) 
5-chloro-7-methyl-L-tryptophan

>  <IUPAC_CONDENSED>  (3489) 
Trp(5-Cl,7-Me)

>  <IUPAC>  (3489) 
(2S)-2-amino-3-(5-chloro-7-methyl-1H-indol-3-yl)propanoic acid

>  <TYPE>  (3489) 
Backbone

>  <CLASS>  (3489) 
alpha

>  <ANALOG>  (3489) 
Trp

>  <MOL_WT>  (3489) 
252.701

>  <LOGP>  (3489) 
2.08412

>  <TPSA>  (3489) 
79.11

>  <POPULARITY>  (3489) 
2.6

>  <PROTECTED>  (3489) 
TRUE

>  <SMILES>  (3489) 
N[C@@H](Cc1(c[nH]c2(c(C)cc(Cl)cc12)))C(=O)O

>  <INCHIKEY>  (3489) 
PLKKSBZDOPJPPQ-JTQLQIEISA-N

$$$$
Trp_5F
     RDKit          2D

 16 17  0  0  0  0  0  0  0  0999 V2000
   -3.0564   -1.5854    0.0000 N   0  0  0  0  0  0  0  0  0  0  0  0
   -2.8364   -0.1016    0.0000 C   0  0  0  0  0  0  0  0  0  0  0  0
   -1.4415    0.4499    0.0000 C   0  0  0  0  0  0  0  0  0  0  0  0
   -0.2664   -0.4825    0.0000 C   0  0  0  0  0  0  0  0  0  0  0  0
   -0.3301   -1.9811    0.0000 C   0  0  0  0  0  0  0  0  0  0  0  0
    1.0756   -2.5048    0.0000 N   0  0  0  0  0  0  0  0  0  0  0  0
    2.0079   -1.3297    0.0000 C   0  0  0  0  0  0  0  0  0  0  0  0
    3.5050   -1.2364    0.0000 C   0  0  0  0  0  0  0  0  0  0  0  0
    4.1727    0.1068    0.0000 C   0  0  0  0  0  0  0  0  0  0  0  0
    3.3433    1.3567    0.0000 C   0  0  0  0  0  0  0  0  0  0  0  0
    4.0110    2.6999    0.0000 F   0  0  0  0  0  0  0  0  0  0  0  0
    1.8462    1.2633    0.0000 C   0  0  0  0  0  0  0  0  0  0  0  0
    1.1785   -0.0799    0.0000 C   0  0  0  0  0  0  0  0  0  0  0  0
   -4.0115    0.8308    0.0000 C   0  0  0  0  0  0  0  0  0  0  0  0
   -3.7915    2.3146    0.0000 O   0  0  0  0  0  0  0  0  0  0  0  0
   -5.4064    0.2794    0.0000 O   0  0  0  0  0  0  0  0  0  0  0  0
  2  1  1  6
  2  3  1  0
  3  4  1  0
  4  5  2  0
  5  6  1  0
  6  7  1  0
  7  8  1  0
  8  9  2  0
  9 10  1  0
 10 11  1  0
 10 12  2  0
 12 13  1  0
  2 14  1  0
 14 15  2  0
 14 16  1  0
 13  4  1  0
 13  7  2  0
M  END
>  <rName>  (3490) 
Trp_5F

>  <PQ_SYMBOL>  (3490) 
Trp_5F

>  <FULL_NAME>  (3490) 
5-Fluoro-L-Tryptophan

>  <IUPAC_CONDENSED>  (3490) 
Trp(5-F)

>  <IUPAC>  (3490) 
(2S)-2-amino-3-(5-fluoro-1H-indol-3-yl)propanoic acid

>  <TYPE>  (3490) 
Backbone

>  <CLASS>  (3490) 
alpha

>  <ANALOG>  (3490) 
Trp

>  <MOL_WT>  (3490) 
222.21899999999997

>  <LOGP>  (3490) 
1.2614000000000003

>  <TPSA>  (3490) 
79.11

>  <POPULARITY>  (3490) 
30.0

>  <PROTECTED>  (3490) 
TRUE

>  <SMILES>  (3490) 
N[C@@H](Cc1(c[nH]c2(ccc(F)cc12)))C(=O)O

>  <INCHIKEY>  (3490) 
INPQIVHQSQUEAJ-VIFPVBQESA-N

$$$$
Trp_5F_6Cl
     RDKit          2D

 17 18  0  0  0  0  0  0  0  0999 V2000
    3.4017    1.5718    0.0000 N   0  0  0  0  0  0  0  0  0  0  0  0
    3.1707    0.0897    0.0000 C   0  0  0  0  0  0  0  0  0  0  0  0
    1.7717   -0.4513    0.0000 C   0  0  0  0  0  0  0  0  0  0  0  0
    0.6036    0.4898    0.0000 C   0  0  0  0  0  0  0  0  0  0  0  0
    0.6784    1.9879    0.0000 C   0  0  0  0  0  0  0  0  0  0  0  0
   -0.7233    2.5220    0.0000 N   0  0  0  0  0  0  0  0  0  0  0  0
   -1.6644    1.3540    0.0000 C   0  0  0  0  0  0  0  0  0  0  0  0
   -3.1621    1.2718    0.0000 C   0  0  0  0  0  0  0  0  0  0  0  0
   -3.8398   -0.0664    0.0000 C   0  0  0  0  0  0  0  0  0  0  0  0
   -5.3375   -0.1486    0.0000 Cl  0  0  0  0  0  0  0  0  0  0  0  0
   -3.0197   -1.3224    0.0000 C   0  0  0  0  0  0  0  0  0  0  0  0
   -3.6974   -2.6606    0.0000 F   0  0  0  0  0  0  0  0  0  0  0  0
   -1.5220   -1.2402    0.0000 C   0  0  0  0  0  0  0  0  0  0  0  0
   -0.8443    0.0980    0.0000 C   0  0  0  0  0  0  0  0  0  0  0  0
    4.3388   -0.8514    0.0000 C   0  0  0  0  0  0  0  0  0  0  0  0
    4.1078   -2.3335    0.0000 O   0  0  0  0  0  0  0  0  0  0  0  0
    5.7378   -0.3104    0.0000 O   0  0  0  0  0  0  0  0  0  0  0  0
  2  1  1  6
  2  3  1  0
  3  4  1  0
  4  5  2  0
  5  6  1  0
  6  7  1  0
  7  8  2  0
  8  9  1  0
  9 10  1  0
  9 11  2  0
 11 12  1  0
 11 13  1  0
 13 14  2  0
  2 15  1  0
 15 16  2  0
 15 17  1  0
 14  4  1  0
 14  7  1  0
M  END
>  <rName>  (3491) 
Trp_5F_6Cl

>  <PQ_SYMBOL>  (3491) 
Trp_5F_6Cl

>  <FULL_NAME>  (3491) 
6-chloro-5-fluoro-L-tryptophan

>  <IUPAC_CONDENSED>  (3491) 
Trp(5-F,6-Cl)

>  <IUPAC>  (3491) 
(2S)-2-amino-3-(6-chloro-5-fluoro-1H-indol-3-yl)propanoic acid

>  <TYPE>  (3491) 
Backbone

>  <CLASS>  (3491) 
alpha

>  <ANALOG>  (3491) 
Trp

>  <MOL_WT>  (3491) 
256.66399999999993

>  <LOGP>  (3491) 
1.9148000000000003

>  <TPSA>  (3491) 
79.11

>  <POPULARITY>  (3491) 
3.0

>  <PROTECTED>  (3491) 
TRUE

>  <SMILES>  (3491) 
N[C@@H](Cc1(c[nH]c2(cc(Cl)c(F)cc12)))C(=O)O

>  <INCHIKEY>  (3491) 
NLYJYUVOYMOYBT-VIFPVBQESA-N

$$$$
Trp_5For
     RDKit          2D

 17 18  0  0  0  0  0  0  0  0999 V2000
   -3.5469   -1.3812    0.0000 N   0  0  0  0  0  0  0  0  0  0  0  0
   -3.1708    0.0709    0.0000 C   0  0  0  0  0  0  0  0  0  0  0  0
   -1.7252    0.4712    0.0000 C   0  0  0  0  0  0  0  0  0  0  0  0
   -0.6557   -0.5805    0.0000 C   0  0  0  0  0  0  0  0  0  0  0  0
   -0.8780   -2.0640    0.0000 C   0  0  0  0  0  0  0  0  0  0  0  0
    0.4642   -2.7337    0.0000 N   0  0  0  0  0  0  0  0  0  0  0  0
    1.5159   -1.6643    0.0000 C   0  0  0  0  0  0  0  0  0  0  0  0
    3.0145   -1.7302    0.0000 C   0  0  0  0  0  0  0  0  0  0  0  0
    3.8209   -0.4654    0.0000 C   0  0  0  0  0  0  0  0  0  0  0  0
    3.1288    0.8653    0.0000 C   0  0  0  0  0  0  0  0  0  0  0  0
    3.9352    2.1301    0.0000 C   0  0  0  0  0  0  0  0  0  0  0  0
    5.4337    2.0641    0.0000 O   0  0  0  0  0  0  0  0  0  0  0  0
    1.6302    0.9313    0.0000 C   0  0  0  0  0  0  0  0  0  0  0  0
    0.8238   -0.3335    0.0000 C   0  0  0  0  0  0  0  0  0  0  0  0
   -4.2403    1.1227    0.0000 C   0  0  0  0  0  0  0  0  0  0  0  0
   -3.8642    2.5748    0.0000 O   0  0  0  0  0  0  0  0  0  0  0  0
   -5.6859    0.7223    0.0000 O   0  0  0  0  0  0  0  0  0  0  0  0
  2  1  1  6
  2  3  1  0
  3  4  1  0
  4  5  2  0
  5  6  1  0
  6  7  1  0
  7  8  1  0
  8  9  2  0
  9 10  1  0
 10 11  1  0
 11 12  2  0
 10 13  2  0
 13 14  1  0
  2 15  1  0
 15 16  2  0
 15 17  1  0
 14  4  1  0
 14  7  2  0
M  END
>  <rName>  (3492) 
Trp_5For

>  <PQ_SYMBOL>  (3492) 
Trp_5For

>  <FULL_NAME>  (3492) 
5-formyl-L-tryptophan

>  <IUPAC_CONDENSED>  (3492) 
Trp(5-For)

>  <IUPAC>  (3492) 
(2S)-2-amino-3-(5-(formyl)-1H-indol-3-yl)propanoic acid

>  <TYPE>  (3492) 
Backbone

>  <CLASS>  (3492) 
alpha

>  <ANALOG>  (3492) 
Trp

>  <MOL_WT>  (3492) 
232.23899999999998

>  <LOGP>  (3492) 
0.9348000000000003

>  <TPSA>  (3492) 
96.18

>  <POPULARITY>  (3492) 
3.9

>  <PROTECTED>  (3492) 
TRUE

>  <SMILES>  (3492) 
N[C@@H](Cc1(c[nH]c2(ccc(C=O)cc12)))C(=O)O

>  <INCHIKEY>  (3492) 
PDPVFXVQVTWYIM-JTQLQIEISA-N

$$$$
Trp_5I
     RDKit          2D

 16 17  0  0  0  0  0  0  0  0999 V2000
   -3.0564   -1.5854    0.0000 N   0  0  0  0  0  0  0  0  0  0  0  0
   -2.8364   -0.1016    0.0000 C   0  0  0  0  0  0  0  0  0  0  0  0
   -1.4415    0.4499    0.0000 C   0  0  0  0  0  0  0  0  0  0  0  0
   -0.2664   -0.4825    0.0000 C   0  0  0  0  0  0  0  0  0  0  0  0
   -0.3301   -1.9811    0.0000 C   0  0  0  0  0  0  0  0  0  0  0  0
    1.0756   -2.5048    0.0000 N   0  0  0  0  0  0  0  0  0  0  0  0
    2.0079   -1.3297    0.0000 C   0  0  0  0  0  0  0  0  0  0  0  0
    3.5050   -1.2364    0.0000 C   0  0  0  0  0  0  0  0  0  0  0  0
    4.1727    0.1068    0.0000 C   0  0  0  0  0  0  0  0  0  0  0  0
    3.3433    1.3567    0.0000 C   0  0  0  0  0  0  0  0  0  0  0  0
    4.0110    2.6999    0.0000 I   0  0  0  0  0  0  0  0  0  0  0  0
    1.8462    1.2633    0.0000 C   0  0  0  0  0  0  0  0  0  0  0  0
    1.1785   -0.0799    0.0000 C   0  0  0  0  0  0  0  0  0  0  0  0
   -4.0115    0.8308    0.0000 C   0  0  0  0  0  0  0  0  0  0  0  0
   -3.7915    2.3146    0.0000 O   0  0  0  0  0  0  0  0  0  0  0  0
   -5.4064    0.2794    0.0000 O   0  0  0  0  0  0  0  0  0  0  0  0
  2  1  1  6
  2  3  1  0
  3  4  1  0
  4  5  2  0
  5  6  1  0
  6  7  1  0
  7  8  1  0
  8  9  2  0
  9 10  1  0
 10 11  1  0
 10 12  2  0
 12 13  1  0
  2 14  1  0
 14 15  2  0
 14 16  1  0
 13  4  1  0
 13  7  2  0
M  END
>  <rName>  (3493) 
Trp_5I

>  <PQ_SYMBOL>  (3493) 
Trp_5I

>  <FULL_NAME>  (3493) 
5-iodo-L-tryptophan

>  <IUPAC_CONDENSED>  (3493) 
Trp(5-I)

>  <IUPAC>  (3493) 
(2S)-2-amino-3-(5-iodo-1H-indol-3-yl)propanoic acid

>  <TYPE>  (3493) 
Backbone

>  <CLASS>  (3493) 
alpha

>  <ANALOG>  (3493) 
Trp

>  <MOL_WT>  (3493) 
330.12500000000006

>  <LOGP>  (3493) 
1.7269000000000003

>  <TPSA>  (3493) 
79.11

>  <POPULARITY>  (3493) 
3.2

>  <PROTECTED>  (3493) 
TRUE

>  <SMILES>  (3493) 
N[C@@H](Cc1(c[nH]c2(ccc(I)cc12)))C(=O)O

>  <INCHIKEY>  (3493) 
KZMSFQVSICYJHE-VIFPVBQESA-N

$$$$
Trp_5Me
     RDKit          2D

 16 17  0  0  0  0  0  0  0  0999 V2000
   -3.0564   -1.5854    0.0000 N   0  0  0  0  0  0  0  0  0  0  0  0
   -2.8364   -0.1016    0.0000 C   0  0  0  0  0  0  0  0  0  0  0  0
   -1.4415    0.4499    0.0000 C   0  0  0  0  0  0  0  0  0  0  0  0
   -0.2664   -0.4825    0.0000 C   0  0  0  0  0  0  0  0  0  0  0  0
   -0.3301   -1.9811    0.0000 C   0  0  0  0  0  0  0  0  0  0  0  0
    1.0756   -2.5048    0.0000 N   0  0  0  0  0  0  0  0  0  0  0  0
    2.0079   -1.3297    0.0000 C   0  0  0  0  0  0  0  0  0  0  0  0
    3.5050   -1.2364    0.0000 C   0  0  0  0  0  0  0  0  0  0  0  0
    4.1727    0.1068    0.0000 C   0  0  0  0  0  0  0  0  0  0  0  0
    3.3433    1.3567    0.0000 C   0  0  0  0  0  0  0  0  0  0  0  0
    4.0110    2.6999    0.0000 C   0  0  0  0  0  0  0  0  0  0  0  0
    1.8462    1.2633    0.0000 C   0  0  0  0  0  0  0  0  0  0  0  0
    1.1785   -0.0799    0.0000 C   0  0  0  0  0  0  0  0  0  0  0  0
   -4.0115    0.8308    0.0000 C   0  0  0  0  0  0  0  0  0  0  0  0
   -3.7915    2.3146    0.0000 O   0  0  0  0  0  0  0  0  0  0  0  0
   -5.4064    0.2794    0.0000 O   0  0  0  0  0  0  0  0  0  0  0  0
  2  1  1  6
  2  3  1  0
  3  4  1  0
  4  5  2  0
  5  6  1  0
  6  7  1  0
  7  8  1  0
  8  9  2  0
  9 10  1  0
 10 11  1  0
 10 12  2  0
 12 13  1  0
  2 14  1  0
 14 15  2  0
 14 16  1  0
 13  4  1  0
 13  7  2  0
M  END
>  <rName>  (3494) 
Trp_5Me

>  <PQ_SYMBOL>  (3494) 
Trp_5Me

>  <FULL_NAME>  (3494) 
5-Methyl-L-Tryptophan

>  <IUPAC_CONDENSED>  (3494) 
Trp(5-Me)

>  <IUPAC>  (3494) 
(2S)-2-amino-3-(5-methyl-1H-indol-3-yl)propanoic acid

>  <TYPE>  (3494) 
Backbone

>  <CLASS>  (3494) 
alpha

>  <ANALOG>  (3494) 
Trp

>  <MOL_WT>  (3494) 
218.25599999999997

>  <LOGP>  (3494) 
1.4307200000000002

>  <TPSA>  (3494) 
79.11

>  <POPULARITY>  (3494) 
12.4

>  <PROTECTED>  (3494) 
TRUE

>  <SMILES>  (3494) 
N[C@@H](Cc1(c[nH]c2(ccc(C)cc12)))C(=O)O

>  <INCHIKEY>  (3494) 
HUNCSWANZMJLPM-JTQLQIEISA-N

$$$$
Trp_5Me_6Cl_7Br
     RDKit          2D

 18 19  0  0  0  0  0  0  0  0999 V2000
    3.5270    1.6537    0.0000 N   0  0  0  0  0  0  0  0  0  0  0  0
    3.3885    0.1601    0.0000 C   0  0  0  0  0  0  0  0  0  0  0  0
    2.0258   -0.4668    0.0000 C   0  0  0  0  0  0  0  0  0  0  0  0
    0.8016    0.3999    0.0000 C   0  0  0  0  0  0  0  0  0  0  0  0
    0.7832    1.8998    0.0000 C   0  0  0  0  0  0  0  0  0  0  0  0
   -0.6490    2.3458    0.0000 N   0  0  0  0  0  0  0  0  0  0  0  0
   -1.5157    1.1215    0.0000 C   0  0  0  0  0  0  0  0  0  0  0  0
   -3.0055    0.9465    0.0000 C   0  0  0  0  0  0  0  0  0  0  0  0
   -3.9020    2.1491    0.0000 Br  0  0  0  0  0  0  0  0  0  0  0  0
   -3.5987   -0.4312    0.0000 C   0  0  0  0  0  0  0  0  0  0  0  0
   -5.0885   -0.6063    0.0000 Cl  0  0  0  0  0  0  0  0  0  0  0  0
   -2.7022   -1.6339    0.0000 C   0  0  0  0  0  0  0  0  0  0  0  0
   -3.2955   -3.0116    0.0000 C   0  0  0  0  0  0  0  0  0  0  0  0
   -1.2125   -1.4588    0.0000 C   0  0  0  0  0  0  0  0  0  0  0  0
   -0.6192   -0.0811    0.0000 C   0  0  0  0  0  0  0  0  0  0  0  0
    4.6128   -0.7066    0.0000 C   0  0  0  0  0  0  0  0  0  0  0  0
    4.4743   -2.2002    0.0000 O   0  0  0  0  0  0  0  0  0  0  0  0
    5.9755   -0.0798    0.0000 O   0  0  0  0  0  0  0  0  0  0  0  0
  2  1  1  6
  2  3  1  0
  3  4  1  0
  4  5  2  0
  5  6  1  0
  6  7  1  0
  7  8  2  0
  8  9  1  0
  8 10  1  0
 10 11  1  0
 10 12  2  0
 12 13  1  0
 12 14  1  0
 14 15  2  0
  2 16  1  0
 16 17  2  0
 16 18  1  0
 15  4  1  0
 15  7  1  0
M  END
>  <rName>  (3495) 
Trp_5Me_6Cl_7Br

>  <PQ_SYMBOL>  (3495) 
Trp_5Me_6Cl_7Br

>  <FULL_NAME>  (3495) 
7-bromo-6-chloro-5-methyl-L-tryptophan

>  <IUPAC_CONDENSED>  (3495) 
Trp(5-Me,6-Cl,7-Br)

>  <IUPAC>  (3495) 
(2S)-2-amino-3-(7-bromo-6-chloro-5-methyl-1H-indol-3-yl)propanoic acid

>  <TYPE>  (3495) 
Backbone

>  <CLASS>  (3495) 
alpha

>  <ANALOG>  (3495) 
Trp

>  <MOL_WT>  (3495) 
331.59700000000004

>  <LOGP>  (3495) 
2.8466200000000006

>  <TPSA>  (3495) 
79.11

>  <POPULARITY>  (3495) 
2.6

>  <PROTECTED>  (3495) 
TRUE

>  <SMILES>  (3495) 
N[C@@H](Cc1(c[nH]c2(c(Br)c(Cl)c(C)cc12)))C(=O)O

>  <INCHIKEY>  (3495) 
QSNQXENYLLWLCV-QMMMGPOBSA-N

$$$$
Trp_5N3
     RDKit          2D

 18 19  0  0  0  0  0  0  0  0999 V2000
   -4.0299   -1.2030    0.0000 N   0  0  0  0  0  0  0  0  0  0  0  0
   -3.5495    0.2180    0.0000 C   0  0  0  0  0  0  0  0  0  0  0  0
   -2.0786    0.5124    0.0000 C   0  0  0  0  0  0  0  0  0  0  0  0
   -1.0883   -0.6142    0.0000 C   0  0  0  0  0  0  0  0  0  0  0  0
   -1.4176   -2.0776    0.0000 C   0  0  0  0  0  0  0  0  0  0  0  0
   -0.1276   -2.8430    0.0000 N   0  0  0  0  0  0  0  0  0  0  0  0
    0.9990   -1.8526    0.0000 C   0  0  0  0  0  0  0  0  0  0  0  0
    2.4888   -2.0272    0.0000 C   0  0  0  0  0  0  0  0  0  0  0  0
    3.3849   -0.8242    0.0000 C   0  0  0  0  0  0  0  0  0  0  0  0
    2.7911    0.5533    0.0000 C   0  0  0  0  0  0  0  0  0  0  0  0
    1.3013    0.7278    0.0000 C   0  0  0  0  0  0  0  0  0  0  0  0
    0.4053   -0.4752    0.0000 C   0  0  0  0  0  0  0  0  0  0  0  0
    3.6872    1.7562    0.0000 N   0  0  0  0  0  0  0  0  0  0  0  0
    5.1770    1.5817    0.0000 N   0  0  0  0  0  0  0  0  0  0  0  0
    6.6668    1.4072    0.0000 N   0  0  0  0  0  0  0  0  0  0  0  0
   -4.5398    1.3446    0.0000 C   0  0  0  0  0  0  0  0  0  0  0  0
   -4.0594    2.7656    0.0000 O   0  0  0  0  0  0  0  0  0  0  0  0
   -6.0107    1.0502    0.0000 O   0  0  0  0  0  0  0  0  0  0  0  0
  2  1  1  6
  2  3  1  0
  3  4  1  0
  4  5  2  0
  5  6  1  0
  6  7  1  0
  7  8  1  0
  8  9  2  0
  9 10  1  0
 10 11  2  0
 11 12  1  0
 10 13  1  0
 13 14  2  0
 14 15  2  0
  2 16  1  0
 16 17  2  0
 16 18  1  0
 12  4  1  0
 12  7  2  0
M  CHG  2  14   1  15  -1
M  END
>  <rName>  (3496) 
Trp_5N3

>  <PQ_SYMBOL>  (3496) 
Trp_5N3

>  <FULL_NAME>  (3496) 
5-azido-L-tryptophan

>  <IUPAC_CONDENSED>  (3496) 
Trp(5-N3)

>  <IUPAC>  (3496) 
(2S)-2-amino-3-(5-azido-1H-indol-3-yl)propanoic acid

>  <TYPE>  (3496) 
Backbone

>  <CLASS>  (3496) 
alpha

>  <ANALOG>  (3496) 
Trp

>  <MOL_WT>  (3496) 
245.242

>  <LOGP>  (3496) 
2.0641

>  <TPSA>  (3496) 
127.87000000000002

>  <POPULARITY>  (3496) 
2.8

>  <PROTECTED>  (3496) 
TRUE

>  <SMILES>  (3496) 
N[C@@H](Cc1(c[nH]c2(ccc(cc12)N=[N+]=[N-])))C(=O)O

>  <INCHIKEY>  (3496) 
VEVCTKUSISWYDS-VIFPVBQESA-N

$$$$
Trp_5NO2
     RDKit          2D

 18 19  0  0  0  0  0  0  0  0999 V2000
   -3.8376   -1.2806    0.0000 N   0  0  0  0  0  0  0  0  0  0  0  0
   -3.3503    0.1381    0.0000 C   0  0  0  0  0  0  0  0  0  0  0  0
   -1.8781    0.4254    0.0000 C   0  0  0  0  0  0  0  0  0  0  0  0
   -0.8931   -0.7059    0.0000 C   0  0  0  0  0  0  0  0  0  0  0  0
   -1.2294   -2.1677    0.0000 C   0  0  0  0  0  0  0  0  0  0  0  0
    0.0569   -2.9392    0.0000 N   0  0  0  0  0  0  0  0  0  0  0  0
    1.1882   -1.9542    0.0000 C   0  0  0  0  0  0  0  0  0  0  0  0
    2.6772   -2.1359    0.0000 C   0  0  0  0  0  0  0  0  0  0  0  0
    3.5790   -0.9372    0.0000 C   0  0  0  0  0  0  0  0  0  0  0  0
    2.9918    0.4431    0.0000 C   0  0  0  0  0  0  0  0  0  0  0  0
    1.5028    0.6247    0.0000 C   0  0  0  0  0  0  0  0  0  0  0  0
    0.6010   -0.5739    0.0000 C   0  0  0  0  0  0  0  0  0  0  0  0
    3.8936    1.6418    0.0000 N   0  0  0  0  0  0  0  0  0  0  0  0
    3.3064    3.0221    0.0000 O   0  0  0  0  0  0  0  0  0  0  0  0
    5.3825    1.4601    0.0000 O   0  0  0  0  0  0  0  0  0  0  0  0
   -4.3353    1.2693    0.0000 C   0  0  0  0  0  0  0  0  0  0  0  0
   -3.8481    2.6880    0.0000 O   0  0  0  0  0  0  0  0  0  0  0  0
   -5.8075    0.9820    0.0000 O   0  0  0  0  0  0  0  0  0  0  0  0
  2  1  1  6
  2  3  1  0
  3  4  1  0
  4  5  2  0
  5  6  1  0
  6  7  1  0
  7  8  1  0
  8  9  2  0
  9 10  1  0
 10 11  2  0
 11 12  1  0
 10 13  1  0
 13 14  2  0
 13 15  1  0
  2 16  1  0
 16 17  2  0
 16 18  1  0
 12  4  1  0
 12  7  2  0
M  CHG  2  13   1  15  -1
M  END
>  <rName>  (3497) 
Trp_5NO2

>  <PQ_SYMBOL>  (3497) 
Trp_5NO2

>  <FULL_NAME>  (3497) 
5-nitro-L-tryptophan

>  <IUPAC_CONDENSED>  (3497) 
Trp(5-NO2)

>  <IUPAC>  (3497) 
(2S)-2-amino-3-(5-nitro-1H-indol-3-yl)propanoic acid

>  <TYPE>  (3497) 
Backbone

>  <CLASS>  (3497) 
alpha

>  <ANALOG>  (3497) 
Trp

>  <MOL_WT>  (3497) 
249.22599999999997

>  <LOGP>  (3497) 
1.0305

>  <TPSA>  (3497) 
122.25000000000001

>  <POPULARITY>  (3497) 
3.9

>  <PROTECTED>  (3497) 
TRUE

>  <SMILES>  (3497) 
N[C@@H](Cc1(c[nH]c2(ccc(cc12)[N+](=O)[O-])))C(=O)O

>  <INCHIKEY>  (3497) 
XKDUODGOACYEEU-VIFPVBQESA-N

$$$$
Trp_5OAc
     RDKit          2D

 19 20  0  0  0  0  0  0  0  0999 V2000
   -4.3520   -1.1070    0.0000 N   0  0  0  0  0  0  0  0  0  0  0  0
   -3.8131    0.2929    0.0000 C   0  0  0  0  0  0  0  0  0  0  0  0
   -2.3313    0.5261    0.0000 C   0  0  0  0  0  0  0  0  0  0  0  0
   -1.3885   -0.6405    0.0000 C   0  0  0  0  0  0  0  0  0  0  0  0
   -1.7781   -2.0890    0.0000 C   0  0  0  0  0  0  0  0  0  0  0  0
   -0.5208   -2.9072    0.0000 N   0  0  0  0  0  0  0  0  0  0  0  0
    0.6458   -1.9643    0.0000 C   0  0  0  0  0  0  0  0  0  0  0  0
    2.1271   -2.2004    0.0000 C   0  0  0  0  0  0  0  0  0  0  0  0
    3.0722   -1.0355    0.0000 C   0  0  0  0  0  0  0  0  0  0  0  0
    2.5359    0.3653    0.0000 C   0  0  0  0  0  0  0  0  0  0  0  0
    3.4810    1.5302    0.0000 O   0  0  0  0  0  0  0  0  0  0  0  0
    4.9623    1.2941    0.0000 C   0  0  0  0  0  0  0  0  0  0  0  0
    5.4986   -0.1068    0.0000 O   0  0  0  0  0  0  0  0  0  0  0  0
    5.9074    2.4589    0.0000 C   0  0  0  0  0  0  0  0  0  0  0  0
    1.0546    0.6014    0.0000 C   0  0  0  0  0  0  0  0  0  0  0  0
    0.1096   -0.5634    0.0000 C   0  0  0  0  0  0  0  0  0  0  0  0
   -4.7560    1.4595    0.0000 C   0  0  0  0  0  0  0  0  0  0  0  0
   -4.2171    2.8593    0.0000 O   0  0  0  0  0  0  0  0  0  0  0  0
   -6.2377    1.2262    0.0000 O   0  0  0  0  0  0  0  0  0  0  0  0
  2  1  1  6
  2  3  1  0
  3  4  1  0
  4  5  2  0
  5  6  1  0
  6  7  1  0
  7  8  1  0
  8  9  2  0
  9 10  1  0
 10 11  1  0
 11 12  1  0
 12 13  2  0
 12 14  1  0
 10 15  2  0
 15 16  1  0
  2 17  1  0
 17 18  2  0
 17 19  1  0
 16  4  1  0
 16  7  2  0
M  END
>  <rName>  (3498) 
Trp_5OAc

>  <PQ_SYMBOL>  (3498) 
Trp_5OAc

>  <FULL_NAME>  (3498) 
5-acetoxy-L-tryptophan

>  <IUPAC_CONDENSED>  (3498) 
Trp(5-O-Ac)

>  <IUPAC>  (3498) 
(2S)-3-(5-(acetoxy)-1H-indol-3-yl)-2-aminopropanoic acid

>  <TYPE>  (3498) 
Backbone

>  <CLASS>  (3498) 
alpha

>  <ANALOG>  (3498) 
Trp

>  <MOL_WT>  (3498) 
262.26499999999993

>  <LOGP>  (3498) 
1.0476

>  <TPSA>  (3498) 
105.41000000000001

>  <POPULARITY>  (3498) 
3.2

>  <PROTECTED>  (3498) 
TRUE

>  <SMILES>  (3498) 
N[C@@H](Cc1(c[nH]c2(ccc(OC(=O)C)cc12)))C(=O)O

>  <INCHIKEY>  (3498) 
RLZLTVCPMZWGRA-NSHDSACASA-N

$$$$
Trp_5OBn
     RDKit          2D

 23 25  0  0  0  0  0  0  0  0999 V2000
   -5.9678   -0.1968    0.0000 N   0  0  0  0  0  0  0  0  0  0  0  0
   -5.0397    0.9816    0.0000 C   0  0  0  0  0  0  0  0  0  0  0  0
   -3.5551    0.7669    0.0000 C   0  0  0  0  0  0  0  0  0  0  0  0
   -2.9987   -0.6261    0.0000 C   0  0  0  0  0  0  0  0  0  0  0  0
   -3.7986   -1.8950    0.0000 C   0  0  0  0  0  0  0  0  0  0  0  0
   -2.8390   -3.0479    0.0000 N   0  0  0  0  0  0  0  0  0  0  0  0
   -1.4460   -2.4915    0.0000 C   0  0  0  0  0  0  0  0  0  0  0  0
   -0.1005   -3.1544    0.0000 C   0  0  0  0  0  0  0  0  0  0  0  0
    1.1464   -2.3205    0.0000 C   0  0  0  0  0  0  0  0  0  0  0  0
    1.0477   -0.8238    0.0000 C   0  0  0  0  0  0  0  0  0  0  0  0
    2.2946    0.0101    0.0000 O   0  0  0  0  0  0  0  0  0  0  0  0
    3.6402   -0.6529    0.0000 C   0  0  0  0  0  0  0  0  0  0  0  0
    4.8871    0.1810    0.0000 C   0  0  0  0  0  0  0  0  0  0  0  0
    6.2326   -0.4819    0.0000 C   0  0  0  0  0  0  0  0  0  0  0  0
    7.4795    0.3519    0.0000 C   0  0  0  0  0  0  0  0  0  0  0  0
    7.3808    1.8487    0.0000 C   0  0  0  0  0  0  0  0  0  0  0  0
    6.0352    2.5116    0.0000 C   0  0  0  0  0  0  0  0  0  0  0  0
    4.7884    1.6777    0.0000 C   0  0  0  0  0  0  0  0  0  0  0  0
   -0.2978   -0.1609    0.0000 C   0  0  0  0  0  0  0  0  0  0  0  0
   -1.5447   -0.9947    0.0000 C   0  0  0  0  0  0  0  0  0  0  0  0
   -5.5960    2.3746    0.0000 C   0  0  0  0  0  0  0  0  0  0  0  0
   -4.6679    3.5529    0.0000 O   0  0  0  0  0  0  0  0  0  0  0  0
   -7.0806    2.5892    0.0000 O   0  0  0  0  0  0  0  0  0  0  0  0
  2  1  1  6
  2  3  1  0
  3  4  1  0
  4  5  2  0
  5  6  1  0
  6  7  1  0
  7  8  1  0
  8  9  2  0
  9 10  1  0
 10 11  1  0
 11 12  1  0
 12 13  1  0
 13 14  2  0
 14 15  1  0
 15 16  2  0
 16 17  1  0
 17 18  2  0
 10 19  2  0
 19 20  1  0
  2 21  1  0
 21 22  2  0
 21 23  1  0
 18 13  1  0
 20  4  1  0
 20  7  2  0
M  END
>  <rName>  (3499) 
Trp_5OBn

>  <PQ_SYMBOL>  (3499) 
Trp_5OBn

>  <FULL_NAME>  (3499) 
5-benzyloxy-L-tryptophan

>  <IUPAC_CONDENSED>  (3499) 
Trp(5-OBn)

>  <IUPAC>  (3499) 
(2S)-2-amino-3-(5-benzyloxy-1H-indol-3-yl)propanoic acid

>  <TYPE>  (3499) 
Backbone

>  <CLASS>  (3499) 
alpha

>  <ANALOG>  (3499) 
Trp

>  <MOL_WT>  (3499) 
310.35300000000007

>  <LOGP>  (3499) 
2.7013000000000007

>  <TPSA>  (3499) 
88.34000000000002

>  <POPULARITY>  (3499) 
2.6

>  <PROTECTED>  (3499) 
TRUE

>  <SMILES>  (3499) 
N[C@@H](Cc2(c[nH]c3(ccc(OCc1(ccccc1))cc23)))C(=O)O

>  <INCHIKEY>  (3499) 
DFGNDJBYANKHIO-INIZCTEOSA-N

$$$$
Trp_5OH
     RDKit          2D

 16 17  0  0  0  0  0  0  0  0999 V2000
   -3.0564   -1.5854    0.0000 N   0  0  0  0  0  0  0  0  0  0  0  0
   -2.8364   -0.1016    0.0000 C   0  0  0  0  0  0  0  0  0  0  0  0
   -1.4415    0.4499    0.0000 C   0  0  0  0  0  0  0  0  0  0  0  0
   -0.2664   -0.4825    0.0000 C   0  0  0  0  0  0  0  0  0  0  0  0
   -0.3301   -1.9811    0.0000 C   0  0  0  0  0  0  0  0  0  0  0  0
    1.0756   -2.5048    0.0000 N   0  0  0  0  0  0  0  0  0  0  0  0
    2.0079   -1.3297    0.0000 C   0  0  0  0  0  0  0  0  0  0  0  0
    3.5050   -1.2364    0.0000 C   0  0  0  0  0  0  0  0  0  0  0  0
    4.1727    0.1068    0.0000 C   0  0  0  0  0  0  0  0  0  0  0  0
    3.3433    1.3567    0.0000 C   0  0  0  0  0  0  0  0  0  0  0  0
    4.0110    2.6999    0.0000 O   0  0  0  0  0  0  0  0  0  0  0  0
    1.8462    1.2633    0.0000 C   0  0  0  0  0  0  0  0  0  0  0  0
    1.1785   -0.0799    0.0000 C   0  0  0  0  0  0  0  0  0  0  0  0
   -4.0115    0.8308    0.0000 C   0  0  0  0  0  0  0  0  0  0  0  0
   -3.7915    2.3146    0.0000 O   0  0  0  0  0  0  0  0  0  0  0  0
   -5.4064    0.2794    0.0000 O   0  0  0  0  0  0  0  0  0  0  0  0
  2  1  1  6
  2  3  1  0
  3  4  1  0
  4  5  2  0
  5  6  1  0
  6  7  1  0
  7  8  1  0
  8  9  2  0
  9 10  1  0
 10 11  1  0
 10 12  2  0
 12 13  1  0
  2 14  1  0
 14 15  2  0
 14 16  1  0
 13  4  1  0
 13  7  2  0
M  END
>  <rName>  (3500) 
Trp_5OH

>  <PQ_SYMBOL>  (3500) 
Trp_5OH

>  <FULL_NAME>  (3500) 
5-Hydroxy-L-Tryptophan

>  <IUPAC_CONDENSED>  (3500) 
Trp(5-OH)

>  <IUPAC>  (3500) 
(2S)-2-amino-3-(5-hydroxy-1H-indol-3-yl)propanoic acid

>  <TYPE>  (3500) 
Backbone

>  <CLASS>  (3500) 
alpha

>  <ANALOG>  (3500) 
Trp

>  <MOL_WT>  (3500) 
220.22799999999998

>  <LOGP>  (3500) 
0.8279000000000003

>  <TPSA>  (3500) 
99.34000000000002

>  <POPULARITY>  (3500) 
19.8

>  <PROTECTED>  (3500) 
TRUE

>  <SMILES>  (3500) 
N[C@@H](Cc1(c[nH]c2(ccc(O)cc12)))C(=O)O

>  <INCHIKEY>  (3500) 
LDCYZAJDBXYCGN-VIFPVBQESA-N

$$$$
Trp_5OMe
     RDKit          2D

 17 18  0  0  0  0  0  0  0  0999 V2000
   -3.5469   -1.3812    0.0000 N   0  0  0  0  0  0  0  0  0  0  0  0
   -3.1708    0.0709    0.0000 C   0  0  0  0  0  0  0  0  0  0  0  0
   -1.7252    0.4712    0.0000 C   0  0  0  0  0  0  0  0  0  0  0  0
   -0.6557   -0.5805    0.0000 C   0  0  0  0  0  0  0  0  0  0  0  0
   -0.8780   -2.0640    0.0000 C   0  0  0  0  0  0  0  0  0  0  0  0
    0.4642   -2.7337    0.0000 N   0  0  0  0  0  0  0  0  0  0  0  0
    1.5159   -1.6643    0.0000 C   0  0  0  0  0  0  0  0  0  0  0  0
    3.0145   -1.7302    0.0000 C   0  0  0  0  0  0  0  0  0  0  0  0
    3.8209   -0.4654    0.0000 C   0  0  0  0  0  0  0  0  0  0  0  0
    3.1288    0.8653    0.0000 C   0  0  0  0  0  0  0  0  0  0  0  0
    3.9352    2.1301    0.0000 O   0  0  0  0  0  0  0  0  0  0  0  0
    5.4337    2.0641    0.0000 C   0  0  0  0  0  0  0  0  0  0  0  0
    1.6302    0.9313    0.0000 C   0  0  0  0  0  0  0  0  0  0  0  0
    0.8238   -0.3335    0.0000 C   0  0  0  0  0  0  0  0  0  0  0  0
   -4.2403    1.1227    0.0000 C   0  0  0  0  0  0  0  0  0  0  0  0
   -3.8642    2.5748    0.0000 O   0  0  0  0  0  0  0  0  0  0  0  0
   -5.6859    0.7223    0.0000 O   0  0  0  0  0  0  0  0  0  0  0  0
  2  1  1  6
  2  3  1  0
  3  4  1  0
  4  5  2  0
  5  6  1  0
  6  7  1  0
  7  8  1  0
  8  9  2  0
  9 10  1  0
 10 11  1  0
 11 12  1  0
 10 13  2  0
 13 14  1  0
  2 15  1  0
 15 16  2  0
 15 17  1  0
 14  7  2  0
 14  4  1  0
M  END
>  <rName>  (3501) 
Trp_5OMe

>  <PQ_SYMBOL>  (3501) 
Trp_5OMe

>  <FULL_NAME>  (3501) 
5-Methoxy-L-Tryptophan

>  <IUPAC_CONDENSED>  (3501) 
Trp(5-OMe)

>  <IUPAC>  (3501) 
(2S)-2-amino-3-(5-methoxy-1H-indol-3-yl)propanoic acid

>  <TYPE>  (3501) 
Backbone

>  <CLASS>  (3501) 
alpha

>  <ANALOG>  (3501) 
Trp

>  <MOL_WT>  (3501) 
234.25499999999997

>  <LOGP>  (3501) 
1.1309

>  <TPSA>  (3501) 
88.34000000000002

>  <POPULARITY>  (3501) 
8.2

>  <PROTECTED>  (3501) 
TRUE

>  <SMILES>  (3501) 
N[C@@H](Cc2(c[nH]c1(ccc(OC)cc12)))C(=O)O

>  <INCHIKEY>  (3501) 
KVNPSKDDJARYKK-JTQLQIEISA-N

$$$$
Trp_6Aza
     RDKit          2D

 15 16  0  0  0  0  0  0  0  0999 V2000
   -2.6183   -1.7023    0.0000 N   0  0  0  0  0  0  0  0  0  0  0  0
   -2.5622   -0.2034    0.0000 C   0  0  0  0  0  0  0  0  0  0  0  0
   -1.2360    0.4975    0.0000 C   0  0  0  0  0  0  0  0  0  0  0  0
    0.0341   -0.3006    0.0000 C   0  0  0  0  0  0  0  0  0  0  0  0
    0.1349   -1.7972    0.0000 C   0  0  0  0  0  0  0  0  0  0  0  0
    1.5895   -2.1637    0.0000 N   0  0  0  0  0  0  0  0  0  0  0  0
    2.3875   -0.8937    0.0000 C   0  0  0  0  0  0  0  0  0  0  0  0
    3.8654   -0.6369    0.0000 C   0  0  0  0  0  0  0  0  0  0  0  0
    4.3820    0.7713    0.0000 N   0  0  0  0  0  0  0  0  0  0  0  0
    3.4207    1.9228    0.0000 C   0  0  0  0  0  0  0  0  0  0  0  0
    1.9429    1.6661    0.0000 C   0  0  0  0  0  0  0  0  0  0  0  0
    1.4263    0.2578    0.0000 C   0  0  0  0  0  0  0  0  0  0  0  0
   -3.8322    0.5947    0.0000 C   0  0  0  0  0  0  0  0  0  0  0  0
   -3.7761    2.0937    0.0000 O   0  0  0  0  0  0  0  0  0  0  0  0
   -5.1584   -0.1061    0.0000 O   0  0  0  0  0  0  0  0  0  0  0  0
  2  1  1  6
  2  3  1  0
  3  4  1  0
  4  5  2  0
  5  6  1  0
  6  7  1  0
  7  8  1  0
  8  9  2  0
  9 10  1  0
 10 11  2  0
 11 12  1  0
  2 13  1  0
 13 14  2  0
 13 15  1  0
 12  4  1  0
 12  7  2  0
M  END
>  <rName>  (3502) 
Trp_6Aza

>  <PQ_SYMBOL>  (3502) 
Trp_6Aza

>  <FULL_NAME>  (3502) 
6-aza-L-tryptophan

>  <IUPAC_CONDENSED>  (3502) 
Trp(6-Aza)

>  <IUPAC>  (3502) 
(2S)-2-amino-3-(3,9-diazabicyclo[4.3.0]nona-1,3,5,7-tetraen-7-yl)propanoic acid

>  <TYPE>  (3502) 
Backbone

>  <CLASS>  (3502) 
alpha

>  <ANALOG>  (3502) 
Phe

>  <MOL_WT>  (3502) 
205.21699999999998

>  <LOGP>  (3502) 
0.5172999999999999

>  <TPSA>  (3502) 
92.00000000000001

>  <POPULARITY>  (3502) 
5.3

>  <PROTECTED>  (3502) 
TRUE

>  <SMILES>  (3502) 
N[C@@H](Cc1(c[nH]c2(cnccc12)))C(=O)O

>  <INCHIKEY>  (3502) 
IJMJEEWBYMCJQL-QMMMGPOBSA-N

$$$$
Trp_6BO2
     RDKit          2D

 18 19  0  0  0  0  0  0  0  0999 V2000
   -3.8235   -1.5704    0.0000 N   0  0  0  0  0  0  0  0  0  0  0  0
   -3.6408   -0.0815    0.0000 C   0  0  0  0  0  0  0  0  0  0  0  0
   -2.2602    0.5047    0.0000 C   0  0  0  0  0  0  0  0  0  0  0  0
   -1.0621   -0.3978    0.0000 C   0  0  0  0  0  0  0  0  0  0  0  0
   -1.0881   -1.8976    0.0000 C   0  0  0  0  0  0  0  0  0  0  0  0
    0.3303   -2.3858    0.0000 N   0  0  0  0  0  0  0  0  0  0  0  0
    1.2328   -1.1877    0.0000 C   0  0  0  0  0  0  0  0  0  0  0  0
    2.7271   -1.0568    0.0000 C   0  0  0  0  0  0  0  0  0  0  0  0
    3.3609    0.3027    0.0000 C   0  0  0  0  0  0  0  0  0  0  0  0
    2.5003    1.5314    0.0000 C   0  0  0  0  0  0  0  0  0  0  0  0
    1.0061    1.4004    0.0000 C   0  0  0  0  0  0  0  0  0  0  0  0
    0.3723    0.0409    0.0000 C   0  0  0  0  0  0  0  0  0  0  0  0
    4.8551    0.4337    0.0000 B   0  0  0  0  0  0  0  0  0  0  0  0
    5.7157   -0.7950    0.0000 O   0  0  0  0  0  0  0  0  0  0  0  0
    5.4889    1.7932    0.0000 O   0  0  0  0  0  0  0  0  0  0  0  0
   -4.8389    0.8210    0.0000 C   0  0  0  0  0  0  0  0  0  0  0  0
   -4.6563    2.3099    0.0000 O   0  0  0  0  0  0  0  0  0  0  0  0
   -6.2196    0.2348    0.0000 O   0  0  0  0  0  0  0  0  0  0  0  0
  2  1  1  6
  2  3  1  0
  3  4  1  0
  4  5  2  0
  5  6  1  0
  6  7  1  0
  7  8  1  0
  8  9  2  0
  9 10  1  0
 10 11  2  0
 11 12  1  0
  9 13  1  0
 13 14  1  0
 13 15  1  0
  2 16  1  0
 16 17  2  0
 16 18  1  0
 12  4  1  0
 12  7  2  0
M  END
>  <rName>  (3503) 
Trp_6BO2

>  <PQ_SYMBOL>  (3503) 
Trp_6BO2

>  <FULL_NAME>  (3503) 
6-borono-L-tryptophan

>  <IUPAC_CONDENSED>  (3503) 
Trp(6-BO2)

>  <IUPAC>  (3503) 
(2S)-2-amino-3-(6-(dihydroxyboryl)-1H-indol-3-yl)propanoic acid

>  <TYPE>  (3503) 
Backbone

>  <CLASS>  (3503) 
alpha

>  <ANALOG>  (3503) 
Trp

>  <MOL_WT>  (3503) 
248.047

>  <LOGP>  (3503) 
-1.1979

>  <TPSA>  (3503) 
119.57000000000001

>  <POPULARITY>  (3503) 
3.0

>  <PROTECTED>  (3503) 
TRUE

>  <SMILES>  (3503) 
N[C@@H](Cc1(c[nH]c2(cc(ccc12)B(O)O)))C(=O)O

>  <INCHIKEY>  (3503) 
XHLRZRYCYVHONN-VIFPVBQESA-N

$$$$
Trp_6Br
     RDKit          2D

 16 17  0  0  0  0  0  0  0  0999 V2000
   -3.0545   -1.6426    0.0000 N   0  0  0  0  0  0  0  0  0  0  0  0
   -2.9369   -0.1473    0.0000 C   0  0  0  0  0  0  0  0  0  0  0  0
   -1.5831    0.4986    0.0000 C   0  0  0  0  0  0  0  0  0  0  0  0
   -0.3468   -0.3509    0.0000 C   0  0  0  0  0  0  0  0  0  0  0  0
   -0.3075   -1.8504    0.0000 C   0  0  0  0  0  0  0  0  0  0  0  0
    1.1308   -2.2763    0.0000 N   0  0  0  0  0  0  0  0  0  0  0  0
    1.9803   -1.0400    0.0000 C   0  0  0  0  0  0  0  0  0  0  0  0
    3.4675   -0.8441    0.0000 C   0  0  0  0  0  0  0  0  0  0  0  0
    4.0414    0.5417    0.0000 C   0  0  0  0  0  0  0  0  0  0  0  0
    5.5285    0.7376    0.0000 Br  0  0  0  0  0  0  0  0  0  0  0  0
    3.1281    1.7317    0.0000 C   0  0  0  0  0  0  0  0  0  0  0  0
    1.6410    1.5358    0.0000 C   0  0  0  0  0  0  0  0  0  0  0  0
    1.0671    0.1499    0.0000 C   0  0  0  0  0  0  0  0  0  0  0  0
   -4.1732    0.7023    0.0000 C   0  0  0  0  0  0  0  0  0  0  0  0
   -4.0556    2.1976    0.0000 O   0  0  0  0  0  0  0  0  0  0  0  0
   -5.5270    0.0564    0.0000 O   0  0  0  0  0  0  0  0  0  0  0  0
  2  1  1  6
  2  3  1  0
  3  4  1  0
  4  5  2  0
  5  6  1  0
  6  7  1  0
  7  8  1  0
  8  9  2  0
  9 10  1  0
  9 11  1  0
 11 12  2  0
 12 13  1  0
  2 14  1  0
 14 15  2  0
 14 16  1  0
 13  7  2  0
 13  4  1  0
M  END
>  <rName>  (3504) 
Trp_6Br

>  <PQ_SYMBOL>  (3504) 
Trp_6Br

>  <FULL_NAME>  (3504) 
6-Bromo-L-Tryptophan

>  <IUPAC_CONDENSED>  (3504) 
Trp(6-Br)

>  <IUPAC>  (3504) 
(2S)-2-amino-3-(6-bromo-1H-indol-3-yl)propanoic acid

>  <TYPE>  (3504) 
Backbone

>  <CLASS>  (3504) 
alpha

>  <ANALOG>  (3504) 
Trp

>  <MOL_WT>  (3504) 
283.125

>  <LOGP>  (3504) 
1.8848000000000003

>  <TPSA>  (3504) 
79.11

>  <POPULARITY>  (3504) 
13.9

>  <PROTECTED>  (3504) 
TRUE

>  <SMILES>  (3504) 
N[C@@H](Cc2(c[nH]c1(cc(Br)ccc12)))C(=O)O

>  <INCHIKEY>  (3504) 
OAORYCZPERQARS-VIFPVBQESA-N

$$$$
Trp_6CF3
     RDKit          2D

 19 20  0  0  0  0  0  0  0  0999 V2000
   -4.0929   -1.5572    0.0000 N   0  0  0  0  0  0  0  0  0  0  0  0
   -3.8971   -0.0700    0.0000 C   0  0  0  0  0  0  0  0  0  0  0  0
   -2.5113    0.5041    0.0000 C   0  0  0  0  0  0  0  0  0  0  0  0
   -1.3213   -0.4090    0.0000 C   0  0  0  0  0  0  0  0  0  0  0  0
   -1.3605   -1.9085    0.0000 C   0  0  0  0  0  0  0  0  0  0  0  0
    0.0535   -2.4092    0.0000 N   0  0  0  0  0  0  0  0  0  0  0  0
    0.9666   -1.2191    0.0000 C   0  0  0  0  0  0  0  0  0  0  0  0
    2.4620   -1.1014    0.0000 C   0  0  0  0  0  0  0  0  0  0  0  0
    3.1077    0.2525    0.0000 C   0  0  0  0  0  0  0  0  0  0  0  0
    2.2580    1.4887    0.0000 C   0  0  0  0  0  0  0  0  0  0  0  0
    0.7627    1.3709    0.0000 C   0  0  0  0  0  0  0  0  0  0  0  0
    0.1169    0.0170    0.0000 C   0  0  0  0  0  0  0  0  0  0  0  0
    4.6030    0.3703    0.0000 C   0  0  0  0  0  0  0  0  0  0  0  0
    6.0984    0.4880    0.0000 F   0  0  0  0  0  0  0  0  0  0  0  0
    4.7208   -1.1251    0.0000 F   0  0  0  0  0  0  0  0  0  0  0  0
    4.4853    1.8656    0.0000 F   0  0  0  0  0  0  0  0  0  0  0  0
   -5.0872    0.8431    0.0000 C   0  0  0  0  0  0  0  0  0  0  0  0
   -4.8915    2.3303    0.0000 O   0  0  0  0  0  0  0  0  0  0  0  0
   -6.4730    0.2690    0.0000 O   0  0  0  0  0  0  0  0  0  0  0  0
  2  1  1  6
  2  3  1  0
  3  4  1  0
  4  5  2  0
  5  6  1  0
  6  7  1  0
  7  8  1  0
  8  9  2  0
  9 10  1  0
 10 11  2  0
 11 12  1  0
  9 13  1  0
 13 14  1  0
 13 15  1  0
 13 16  1  0
  2 17  1  0
 17 18  2  0
 17 19  1  0
 12  4  1  0
 12  7  2  0
M  END
>  <rName>  (3505) 
Trp_6CF3

>  <PQ_SYMBOL>  (3505) 
Trp_6CF3

>  <FULL_NAME>  (3505) 
6-Trifluoromethyl-L-Tryptophan

>  <IUPAC_CONDENSED>  (3505) 
Trp(6-CF3)

>  <IUPAC>  (3505) 
(2S)-2-amino-3-(6-(trifluoromethyl)-1H-indol-3-yl)propanoic acid

>  <TYPE>  (3505) 
Backbone

>  <CLASS>  (3505) 
alpha

>  <ANALOG>  (3505) 
Trp

>  <MOL_WT>  (3505) 
272.22599999999994

>  <LOGP>  (3505) 
2.1411000000000002

>  <TPSA>  (3505) 
79.11

>  <POPULARITY>  (3505) 
3.4

>  <PROTECTED>  (3505) 
TRUE

>  <SMILES>  (3505) 
N[C@@H](Cc1(c[nH]c2(cc(ccc12)C(F)(F)F)))C(=O)O

>  <INCHIKEY>  (3505) 
JXLKNMYKLNHNNN-VIFPVBQESA-N

$$$$
Trp_6CN
     RDKit          2D

 17 18  0  0  0  0  0  0  0  0999 V2000
   -3.5222   -1.5802    0.0000 N   0  0  0  0  0  0  0  0  0  0  0  0
   -3.3545   -0.0896    0.0000 C   0  0  0  0  0  0  0  0  0  0  0  0
   -1.9798    0.5105    0.0000 C   0  0  0  0  0  0  0  0  0  0  0  0
   -0.7727   -0.3801    0.0000 C   0  0  0  0  0  0  0  0  0  0  0  0
   -0.7837   -1.8800    0.0000 C   0  0  0  0  0  0  0  0  0  0  0  0
    0.6394   -2.3540    0.0000 N   0  0  0  0  0  0  0  0  0  0  0  0
    1.5300   -1.1470    0.0000 C   0  0  0  0  0  0  0  0  0  0  0  0
    3.0229   -1.0011    0.0000 C   0  0  0  0  0  0  0  0  0  0  0  0
    3.6430    0.3647    0.0000 C   0  0  0  0  0  0  0  0  0  0  0  0
    5.1359    0.5106    0.0000 C   0  0  0  0  0  0  0  0  0  0  0  0
    6.6288    0.6564    0.0000 N   0  0  0  0  0  0  0  0  0  0  0  0
    2.7702    1.5847    0.0000 C   0  0  0  0  0  0  0  0  0  0  0  0
    1.2773    1.4388    0.0000 C   0  0  0  0  0  0  0  0  0  0  0  0
    0.6572    0.0730    0.0000 C   0  0  0  0  0  0  0  0  0  0  0  0
   -4.5616    0.8009    0.0000 C   0  0  0  0  0  0  0  0  0  0  0  0
   -4.3938    2.2915    0.0000 O   0  0  0  0  0  0  0  0  0  0  0  0
   -5.9363    0.2009    0.0000 O   0  0  0  0  0  0  0  0  0  0  0  0
  2  1  1  6
  2  3  1  0
  3  4  1  0
  4  5  2  0
  5  6  1  0
  6  7  1  0
  7  8  1  0
  8  9  2  0
  9 10  1  0
 10 11  3  0
  9 12  1  0
 12 13  2  0
 13 14  1  0
  2 15  1  0
 15 16  2  0
 15 17  1  0
 14  4  1  0
 14  7  2  0
M  END
>  <rName>  (3506) 
Trp_6CN

>  <PQ_SYMBOL>  (3506) 
Trp_6CN

>  <FULL_NAME>  (3506) 
6-cyano-L-tryptophan

>  <IUPAC_CONDENSED>  (3506) 
Trp(6-CN)

>  <IUPAC>  (3506) 
(2S)-2-amino-3-(6-(nitrilomethyl)-1H-indol-3-yl)propanoic acid

>  <TYPE>  (3506) 
Backbone

>  <CLASS>  (3506) 
alpha

>  <ANALOG>  (3506) 
Trp

>  <MOL_WT>  (3506) 
229.23899999999998

>  <LOGP>  (3506) 
0.9939800000000003

>  <TPSA>  (3506) 
102.89999999999999

>  <POPULARITY>  (3506) 
4.2

>  <PROTECTED>  (3506) 
TRUE

>  <SMILES>  (3506) 
N[C@@H](Cc1(c[nH]c2(cc(C#N)ccc12)))C(=O)O

>  <INCHIKEY>  (3506) 
QFVPXIGESRCWHK-JTQLQIEISA-N

$$$$
Trp_6CO2Me
     RDKit          2D

 19 20  0  0  0  0  0  0  0  0999 V2000
   -4.1747   -1.6106    0.0000 N   0  0  0  0  0  0  0  0  0  0  0  0
   -4.0188   -0.1187    0.0000 C   0  0  0  0  0  0  0  0  0  0  0  0
   -2.6489    0.4923    0.0000 C   0  0  0  0  0  0  0  0  0  0  0  0
   -1.4348   -0.3887    0.0000 C   0  0  0  0  0  0  0  0  0  0  0  0
   -1.4339   -1.8887    0.0000 C   0  0  0  0  0  0  0  0  0  0  0  0
   -0.0071   -2.3513    0.0000 N   0  0  0  0  0  0  0  0  0  0  0  0
    0.8739   -1.1373    0.0000 C   0  0  0  0  0  0  0  0  0  0  0  0
    2.3656   -0.9796    0.0000 C   0  0  0  0  0  0  0  0  0  0  0  0
    2.9749    0.3911    0.0000 C   0  0  0  0  0  0  0  0  0  0  0  0
    2.0924    1.6041    0.0000 C   0  0  0  0  0  0  0  0  0  0  0  0
    0.6008    1.4464    0.0000 C   0  0  0  0  0  0  0  0  0  0  0  0
   -0.0085    0.0757    0.0000 C   0  0  0  0  0  0  0  0  0  0  0  0
    4.4665    0.5488    0.0000 C   0  0  0  0  0  0  0  0  0  0  0  0
    5.0758    1.9195    0.0000 O   0  0  0  0  0  0  0  0  0  0  0  0
    5.3490   -0.6642    0.0000 O   0  0  0  0  0  0  0  0  0  0  0  0
    6.8406   -0.5065    0.0000 C   0  0  0  0  0  0  0  0  0  0  0  0
   -5.2329    0.7623    0.0000 C   0  0  0  0  0  0  0  0  0  0  0  0
   -5.0770    2.2541    0.0000 O   0  0  0  0  0  0  0  0  0  0  0  0
   -6.6028    0.1513    0.0000 O   0  0  0  0  0  0  0  0  0  0  0  0
  2  1  1  6
  2  3  1  0
  3  4  1  0
  4  5  2  0
  5  6  1  0
  6  7  1  0
  7  8  1  0
  8  9  2  0
  9 10  1  0
 10 11  2  0
 11 12  1  0
  9 13  1  0
 13 14  2  0
 13 15  1  0
 15 16  1  0
  2 17  1  0
 17 18  2  0
 17 19  1  0
 12  4  1  0
 12  7  2  0
M  END
>  <rName>  (3507) 
Trp_6CO2Me

>  <PQ_SYMBOL>  (3507) 
Trp_6CO2Me

>  <FULL_NAME>  (3507) 
6-(methylcarboxy)-L-tryptophan

>  <IUPAC_CONDENSED>  (3507) 
Trp(6-CO2Me)

>  <IUPAC>  (3507) 
(2S)-2-amino-3-(6-((methoxy)carbonyl)-1H-indol-3-yl)propanoic acid

>  <TYPE>  (3507) 
Backbone

>  <CLASS>  (3507) 
alpha

>  <ANALOG>  (3507) 
Trp

>  <MOL_WT>  (3507) 
262.26499999999993

>  <LOGP>  (3507) 
0.9089

>  <TPSA>  (3507) 
105.41000000000001

>  <POPULARITY>  (3507) 
3.0

>  <PROTECTED>  (3507) 
TRUE

>  <SMILES>  (3507) 
N[C@@H](Cc1(c[nH]c2(cc(ccc12)C(=O)OC)))C(=O)O

>  <INCHIKEY>  (3507) 
AGIMXRSEMJMXCY-JTQLQIEISA-N

$$$$
Trp_6CONH2
     RDKit          2D

 18 19  0  0  0  0  0  0  0  0999 V2000
   -3.8235   -1.5704    0.0000 N   0  0  0  0  0  0  0  0  0  0  0  0
   -3.6408   -0.0815    0.0000 C   0  0  0  0  0  0  0  0  0  0  0  0
   -2.2602    0.5047    0.0000 C   0  0  0  0  0  0  0  0  0  0  0  0
   -1.0621   -0.3978    0.0000 C   0  0  0  0  0  0  0  0  0  0  0  0
   -1.0881   -1.8976    0.0000 C   0  0  0  0  0  0  0  0  0  0  0  0
    0.3303   -2.3858    0.0000 N   0  0  0  0  0  0  0  0  0  0  0  0
    1.2328   -1.1877    0.0000 C   0  0  0  0  0  0  0  0  0  0  0  0
    2.7271   -1.0568    0.0000 C   0  0  0  0  0  0  0  0  0  0  0  0
    3.3609    0.3027    0.0000 C   0  0  0  0  0  0  0  0  0  0  0  0
    2.5003    1.5314    0.0000 C   0  0  0  0  0  0  0  0  0  0  0  0
    1.0061    1.4004    0.0000 C   0  0  0  0  0  0  0  0  0  0  0  0
    0.3723    0.0409    0.0000 C   0  0  0  0  0  0  0  0  0  0  0  0
    4.8551    0.4337    0.0000 C   0  0  0  0  0  0  0  0  0  0  0  0
    5.4889    1.7932    0.0000 O   0  0  0  0  0  0  0  0  0  0  0  0
    5.7157   -0.7950    0.0000 N   0  0  0  0  0  0  0  0  0  0  0  0
   -4.8389    0.8210    0.0000 C   0  0  0  0  0  0  0  0  0  0  0  0
   -4.6563    2.3099    0.0000 O   0  0  0  0  0  0  0  0  0  0  0  0
   -6.2196    0.2348    0.0000 O   0  0  0  0  0  0  0  0  0  0  0  0
  2  1  1  6
  2  3  1  0
  3  4  1  0
  4  5  2  0
  5  6  1  0
  6  7  1  0
  7  8  1  0
  8  9  2  0
  9 10  1  0
 10 11  2  0
 11 12  1  0
  9 13  1  0
 13 14  2  0
 13 15  1  0
  2 16  1  0
 16 17  2  0
 16 18  1  0
 12  4  1  0
 12  7  2  0
M  END
>  <rName>  (3508) 
Trp_6CONH2

>  <PQ_SYMBOL>  (3508) 
Trp_6CONH2

>  <FULL_NAME>  (3508) 
6-carbamoyl-L-tryptophan

>  <IUPAC_CONDENSED>  (3508) 
Trp(6-CONH2)

>  <IUPAC>  (3508) 
(2S)-2-amino-3-(6-carbamoyl-1H-indol-3-yl)propanoic acid

>  <TYPE>  (3508) 
Backbone

>  <CLASS>  (3508) 
alpha

>  <ANALOG>  (3508) 
Trp

>  <MOL_WT>  (3508) 
247.25399999999996

>  <LOGP>  (3508) 
0.2211999999999999

>  <TPSA>  (3508) 
122.2

>  <POPULARITY>  (3508) 
2.9

>  <PROTECTED>  (3508) 
TRUE

>  <SMILES>  (3508) 
N[C@@H](Cc1(c[nH]c2(cc(ccc12)C(=O)N)))C(=O)O

>  <INCHIKEY>  (3508) 
GBOTYJQAWPBESN-VIFPVBQESA-N

$$$$
Trp_6Cl
     RDKit          2D

 16 17  0  0  0  0  0  0  0  0999 V2000
   -3.0545   -1.6426    0.0000 N   0  0  0  0  0  0  0  0  0  0  0  0
   -2.9369   -0.1473    0.0000 C   0  0  0  0  0  0  0  0  0  0  0  0
   -1.5831    0.4986    0.0000 C   0  0  0  0  0  0  0  0  0  0  0  0
   -0.3468   -0.3509    0.0000 C   0  0  0  0  0  0  0  0  0  0  0  0
   -0.3075   -1.8504    0.0000 C   0  0  0  0  0  0  0  0  0  0  0  0
    1.1308   -2.2763    0.0000 N   0  0  0  0  0  0  0  0  0  0  0  0
    1.9803   -1.0400    0.0000 C   0  0  0  0  0  0  0  0  0  0  0  0
    3.4675   -0.8441    0.0000 C   0  0  0  0  0  0  0  0  0  0  0  0
    4.0414    0.5417    0.0000 C   0  0  0  0  0  0  0  0  0  0  0  0
    5.5285    0.7376    0.0000 Cl  0  0  0  0  0  0  0  0  0  0  0  0
    3.1281    1.7317    0.0000 C   0  0  0  0  0  0  0  0  0  0  0  0
    1.6410    1.5358    0.0000 C   0  0  0  0  0  0  0  0  0  0  0  0
    1.0671    0.1499    0.0000 C   0  0  0  0  0  0  0  0  0  0  0  0
   -4.1732    0.7023    0.0000 C   0  0  0  0  0  0  0  0  0  0  0  0
   -4.0556    2.1976    0.0000 O   0  0  0  0  0  0  0  0  0  0  0  0
   -5.5270    0.0564    0.0000 O   0  0  0  0  0  0  0  0  0  0  0  0
  2  1  1  6
  2  3  1  0
  3  4  1  0
  4  5  2  0
  5  6  1  0
  6  7  1  0
  7  8  1  0
  8  9  2  0
  9 10  1  0
  9 11  1  0
 11 12  2  0
 12 13  1  0
  2 14  1  0
 14 15  2  0
 14 16  1  0
 13  4  1  0
 13  7  2  0
M  END
>  <rName>  (3509) 
Trp_6Cl

>  <PQ_SYMBOL>  (3509) 
Trp_6Cl

>  <FULL_NAME>  (3509) 
6-Chloro-L-Tryptophan

>  <IUPAC_CONDENSED>  (3509) 
Trp(6-Cl)

>  <IUPAC>  (3509) 
(2S)-2-amino-3-(6-chloro-1H-indol-3-yl)propanoic acid

>  <TYPE>  (3509) 
Backbone

>  <CLASS>  (3509) 
alpha

>  <ANALOG>  (3509) 
Trp

>  <MOL_WT>  (3509) 
238.67399999999998

>  <LOGP>  (3509) 
1.7757

>  <TPSA>  (3509) 
79.11

>  <POPULARITY>  (3509) 
20.4

>  <PROTECTED>  (3509) 
TRUE

>  <SMILES>  (3509) 
N[C@@H](Cc1(c[nH]c2(cc(Cl)ccc12)))C(=O)O

>  <INCHIKEY>  (3509) 
FICLVQOYKYBXFN-VIFPVBQESA-N

$$$$
Trp_6Cl_7F
     RDKit          2D

 17 18  0  0  0  0  0  0  0  0999 V2000
    3.2235    1.7027    0.0000 N   0  0  0  0  0  0  0  0  0  0  0  0
    3.1883    0.2031    0.0000 C   0  0  0  0  0  0  0  0  0  0  0  0
    1.8720   -0.5162    0.0000 C   0  0  0  0  0  0  0  0  0  0  0  0
    0.5909    0.2641    0.0000 C   0  0  0  0  0  0  0  0  0  0  0  0
    0.4692    1.7592    0.0000 C   0  0  0  0  0  0  0  0  0  0  0  0
   -0.9903    2.1054    0.0000 N   0  0  0  0  0  0  0  0  0  0  0  0
   -1.7706    0.8244    0.0000 C   0  0  0  0  0  0  0  0  0  0  0  0
   -3.2447    0.5470    0.0000 C   0  0  0  0  0  0  0  0  0  0  0  0
   -4.2220    1.6850    0.0000 F   0  0  0  0  0  0  0  0  0  0  0  0
   -3.7416   -0.8683    0.0000 C   0  0  0  0  0  0  0  0  0  0  0  0
   -5.2158   -1.1456    0.0000 Cl  0  0  0  0  0  0  0  0  0  0  0  0
   -2.7644   -2.0062    0.0000 C   0  0  0  0  0  0  0  0  0  0  0  0
   -1.2903   -1.7289    0.0000 C   0  0  0  0  0  0  0  0  0  0  0  0
   -0.7934   -0.3136    0.0000 C   0  0  0  0  0  0  0  0  0  0  0  0
    4.4693   -0.5772    0.0000 C   0  0  0  0  0  0  0  0  0  0  0  0
    4.4341   -2.0768    0.0000 O   0  0  0  0  0  0  0  0  0  0  0  0
    5.7856    0.1420    0.0000 O   0  0  0  0  0  0  0  0  0  0  0  0
  2  1  1  6
  2  3  1  0
  3  4  1  0
  4  5  2  0
  5  6  1  0
  6  7  1  0
  7  8  1  0
  8  9  1  0
  8 10  2  0
 10 11  1  0
 10 12  1  0
 12 13  2  0
 13 14  1  0
  2 15  1  0
 15 16  2  0
 15 17  1  0
 14  4  1  0
 14  7  2  0
M  END
>  <rName>  (3510) 
Trp_6Cl_7F

>  <PQ_SYMBOL>  (3510) 
Trp_6Cl_7F

>  <FULL_NAME>  (3510) 
6-chloro-7-fluoro-L-tryptophan

>  <IUPAC_CONDENSED>  (3510) 
Trp(6-Cl,7-F)

>  <IUPAC>  (3510) 
(2S)-2-amino-3-(6-chloro-7-fluoro-1H-indol-3-yl)propanoic acid

>  <TYPE>  (3510) 
Backbone

>  <CLASS>  (3510) 
alpha

>  <ANALOG>  (3510) 
Trp

>  <MOL_WT>  (3510) 
256.664

>  <LOGP>  (3510) 
1.9148000000000003

>  <TPSA>  (3510) 
79.11

>  <POPULARITY>  (3510) 
2.6

>  <PROTECTED>  (3510) 
TRUE

>  <SMILES>  (3510) 
N[C@@H](Cc1(c[nH]c2(c(F)c(Cl)ccc12)))C(=O)O

>  <INCHIKEY>  (3510) 
VHFFWWULTKAEAV-QMMMGPOBSA-N

$$$$
Trp_6F
     RDKit          2D

 16 17  0  0  0  0  0  0  0  0999 V2000
   -3.0545   -1.6426    0.0000 N   0  0  0  0  0  0  0  0  0  0  0  0
   -2.9369   -0.1473    0.0000 C   0  0  0  0  0  0  0  0  0  0  0  0
   -1.5831    0.4986    0.0000 C   0  0  0  0  0  0  0  0  0  0  0  0
   -0.3468   -0.3509    0.0000 C   0  0  0  0  0  0  0  0  0  0  0  0
   -0.3075   -1.8504    0.0000 C   0  0  0  0  0  0  0  0  0  0  0  0
    1.1308   -2.2763    0.0000 N   0  0  0  0  0  0  0  0  0  0  0  0
    1.9803   -1.0400    0.0000 C   0  0  0  0  0  0  0  0  0  0  0  0
    3.4675   -0.8441    0.0000 C   0  0  0  0  0  0  0  0  0  0  0  0
    4.0414    0.5417    0.0000 C   0  0  0  0  0  0  0  0  0  0  0  0
    5.5285    0.7376    0.0000 F   0  0  0  0  0  0  0  0  0  0  0  0
    3.1281    1.7317    0.0000 C   0  0  0  0  0  0  0  0  0  0  0  0
    1.6410    1.5358    0.0000 C   0  0  0  0  0  0  0  0  0  0  0  0
    1.0671    0.1499    0.0000 C   0  0  0  0  0  0  0  0  0  0  0  0
   -4.1732    0.7023    0.0000 C   0  0  0  0  0  0  0  0  0  0  0  0
   -4.0556    2.1976    0.0000 O   0  0  0  0  0  0  0  0  0  0  0  0
   -5.5270    0.0564    0.0000 O   0  0  0  0  0  0  0  0  0  0  0  0
  2  1  1  6
  2  3  1  0
  3  4  1  0
  4  5  2  0
  5  6  1  0
  6  7  1  0
  7  8  1  0
  8  9  2  0
  9 10  1  0
  9 11  1  0
 11 12  2  0
 12 13  1  0
  2 14  1  0
 14 15  2  0
 14 16  1  0
 13  4  1  0
 13  7  2  0
M  END
>  <rName>  (3511) 
Trp_6F

>  <PQ_SYMBOL>  (3511) 
Trp_6F

>  <FULL_NAME>  (3511) 
6-Fluoro-L-Tryptophan

>  <IUPAC_CONDENSED>  (3511) 
Trp(6-F)

>  <IUPAC>  (3511) 
(2S)-2-amino-3-(6-fluoro-1H-indol-3-yl)propanoic acid

>  <TYPE>  (3511) 
Backbone

>  <CLASS>  (3511) 
alpha

>  <ANALOG>  (3511) 
Trp

>  <MOL_WT>  (3511) 
222.21899999999997

>  <LOGP>  (3511) 
1.2614000000000003

>  <TPSA>  (3511) 
79.11

>  <POPULARITY>  (3511) 
17.0

>  <PROTECTED>  (3511) 
TRUE

>  <SMILES>  (3511) 
N[C@@H](Cc1(c[nH]c2(cc(F)ccc12)))C(=O)O

>  <INCHIKEY>  (3511) 
YMEXGEAJNZRQEH-VIFPVBQESA-N

$$$$
Trp_6F_7Cl
     RDKit          2D

 17 18  0  0  0  0  0  0  0  0999 V2000
    3.2235    1.7027    0.0000 N   0  0  0  0  0  0  0  0  0  0  0  0
    3.1883    0.2031    0.0000 C   0  0  0  0  0  0  0  0  0  0  0  0
    1.8720   -0.5162    0.0000 C   0  0  0  0  0  0  0  0  0  0  0  0
    0.5909    0.2641    0.0000 C   0  0  0  0  0  0  0  0  0  0  0  0
    0.4692    1.7592    0.0000 C   0  0  0  0  0  0  0  0  0  0  0  0
   -0.9903    2.1054    0.0000 N   0  0  0  0  0  0  0  0  0  0  0  0
   -1.7706    0.8244    0.0000 C   0  0  0  0  0  0  0  0  0  0  0  0
   -3.2447    0.5470    0.0000 C   0  0  0  0  0  0  0  0  0  0  0  0
   -4.2220    1.6850    0.0000 Cl  0  0  0  0  0  0  0  0  0  0  0  0
   -3.7416   -0.8683    0.0000 C   0  0  0  0  0  0  0  0  0  0  0  0
   -5.2158   -1.1456    0.0000 F   0  0  0  0  0  0  0  0  0  0  0  0
   -2.7644   -2.0062    0.0000 C   0  0  0  0  0  0  0  0  0  0  0  0
   -1.2903   -1.7289    0.0000 C   0  0  0  0  0  0  0  0  0  0  0  0
   -0.7934   -0.3136    0.0000 C   0  0  0  0  0  0  0  0  0  0  0  0
    4.4693   -0.5772    0.0000 C   0  0  0  0  0  0  0  0  0  0  0  0
    4.4341   -2.0768    0.0000 O   0  0  0  0  0  0  0  0  0  0  0  0
    5.7856    0.1420    0.0000 O   0  0  0  0  0  0  0  0  0  0  0  0
  2  1  1  6
  2  3  1  0
  3  4  1  0
  4  5  2  0
  5  6  1  0
  6  7  1  0
  7  8  1  0
  8  9  1  0
  8 10  2  0
 10 11  1  0
 10 12  1  0
 12 13  2  0
 13 14  1  0
  2 15  1  0
 15 16  2  0
 15 17  1  0
 14  4  1  0
 14  7  2  0
M  END
>  <rName>  (3512) 
Trp_6F_7Cl

>  <PQ_SYMBOL>  (3512) 
Trp_6F_7Cl

>  <FULL_NAME>  (3512) 
7-chloro-6-fluoro-L-tryptophan

>  <IUPAC_CONDENSED>  (3512) 
Trp(6-F,7-Cl)

>  <IUPAC>  (3512) 
(2S)-2-amino-3-(7-chloro-6-fluoro-1H-indol-3-yl)propanoic acid

>  <TYPE>  (3512) 
Backbone

>  <CLASS>  (3512) 
alpha

>  <ANALOG>  (3512) 
Trp

>  <MOL_WT>  (3512) 
256.664

>  <LOGP>  (3512) 
1.9148000000000003

>  <TPSA>  (3512) 
79.11

>  <POPULARITY>  (3512) 
4.0

>  <PROTECTED>  (3512) 
TRUE

>  <SMILES>  (3512) 
N[C@@H](Cc1(c[nH]c2(c(Cl)c(F)ccc12)))C(=O)O

>  <INCHIKEY>  (3512) 
QNAWFNOAEFLZSO-QMMMGPOBSA-N

$$$$
Trp_6For
     RDKit          2D

 17 18  0  0  0  0  0  0  0  0999 V2000
   -3.4079   -1.6691    0.0000 N   0  0  0  0  0  0  0  0  0  0  0  0
   -3.3136   -0.1721    0.0000 C   0  0  0  0  0  0  0  0  0  0  0  0
   -1.9699    0.4947    0.0000 C   0  0  0  0  0  0  0  0  0  0  0  0
   -0.7207   -0.3355    0.0000 C   0  0  0  0  0  0  0  0  0  0  0  0
   -0.6580   -1.8342    0.0000 C   0  0  0  0  0  0  0  0  0  0  0  0
    0.7867   -2.2377    0.0000 N   0  0  0  0  0  0  0  0  0  0  0  0
    1.6169   -0.9885    0.0000 C   0  0  0  0  0  0  0  0  0  0  0  0
    3.1008   -0.7695    0.0000 C   0  0  0  0  0  0  0  0  0  0  0  0
    3.6532    0.6251    0.0000 C   0  0  0  0  0  0  0  0  0  0  0  0
    5.1371    0.8441    0.0000 C   0  0  0  0  0  0  0  0  0  0  0  0
    6.0687   -0.3316    0.0000 O   0  0  0  0  0  0  0  0  0  0  0  0
    2.7216    1.8007    0.0000 C   0  0  0  0  0  0  0  0  0  0  0  0
    1.2377    1.5818    0.0000 C   0  0  0  0  0  0  0  0  0  0  0  0
    0.6853    0.1872    0.0000 C   0  0  0  0  0  0  0  0  0  0  0  0
   -4.5629    0.6581    0.0000 C   0  0  0  0  0  0  0  0  0  0  0  0
   -4.4685    2.1552    0.0000 O   0  0  0  0  0  0  0  0  0  0  0  0
   -5.9065   -0.0087    0.0000 O   0  0  0  0  0  0  0  0  0  0  0  0
  2  1  1  6
  2  3  1  0
  3  4  1  0
  4  5  2  0
  5  6  1  0
  6  7  1  0
  7  8  1  0
  8  9  2  0
  9 10  1  0
 10 11  2  0
  9 12  1  0
 12 13  2  0
 13 14  1  0
  2 15  1  0
 15 16  2  0
 15 17  1  0
 14  4  1  0
 14  7  2  0
M  END
>  <rName>  (3513) 
Trp_6For

>  <PQ_SYMBOL>  (3513) 
Trp_6For

>  <FULL_NAME>  (3513) 
6-formyl-L-tryptophan

>  <IUPAC_CONDENSED>  (3513) 
Trp(6-For)

>  <IUPAC>  (3513) 
(2S)-2-amino-3-(6-(formyl)-1H-indol-3-yl)propanoic acid

>  <TYPE>  (3513) 
Backbone

>  <CLASS>  (3513) 
alpha

>  <ANALOG>  (3513) 
Trp

>  <MOL_WT>  (3513) 
232.23899999999998

>  <LOGP>  (3513) 
0.9348000000000003

>  <TPSA>  (3513) 
96.18

>  <POPULARITY>  (3513) 
3.2

>  <PROTECTED>  (3513) 
TRUE

>  <SMILES>  (3513) 
N[C@@H](Cc1(c[nH]c2(cc(C=O)ccc12)))C(=O)O

>  <INCHIKEY>  (3513) 
JDCUBLHSTBLVJV-JTQLQIEISA-N

$$$$
Trp_6I
     RDKit          2D

 16 17  0  0  0  0  0  0  0  0999 V2000
   -3.0545   -1.6426    0.0000 N   0  0  0  0  0  0  0  0  0  0  0  0
   -2.9369   -0.1473    0.0000 C   0  0  0  0  0  0  0  0  0  0  0  0
   -1.5831    0.4986    0.0000 C   0  0  0  0  0  0  0  0  0  0  0  0
   -0.3468   -0.3509    0.0000 C   0  0  0  0  0  0  0  0  0  0  0  0
   -0.3075   -1.8504    0.0000 C   0  0  0  0  0  0  0  0  0  0  0  0
    1.1308   -2.2763    0.0000 N   0  0  0  0  0  0  0  0  0  0  0  0
    1.9803   -1.0400    0.0000 C   0  0  0  0  0  0  0  0  0  0  0  0
    3.4675   -0.8441    0.0000 C   0  0  0  0  0  0  0  0  0  0  0  0
    4.0414    0.5417    0.0000 C   0  0  0  0  0  0  0  0  0  0  0  0
    5.5285    0.7376    0.0000 I   0  0  0  0  0  0  0  0  0  0  0  0
    3.1281    1.7317    0.0000 C   0  0  0  0  0  0  0  0  0  0  0  0
    1.6410    1.5358    0.0000 C   0  0  0  0  0  0  0  0  0  0  0  0
    1.0671    0.1499    0.0000 C   0  0  0  0  0  0  0  0  0  0  0  0
   -4.1732    0.7023    0.0000 C   0  0  0  0  0  0  0  0  0  0  0  0
   -4.0556    2.1976    0.0000 O   0  0  0  0  0  0  0  0  0  0  0  0
   -5.5270    0.0564    0.0000 O   0  0  0  0  0  0  0  0  0  0  0  0
  2  1  1  6
  2  3  1  0
  3  4  1  0
  4  5  2  0
  5  6  1  0
  6  7  1  0
  7  8  1  0
  8  9  2  0
  9 10  1  0
  9 11  1  0
 11 12  2  0
 12 13  1  0
  2 14  1  0
 14 15  2  0
 14 16  1  0
 13  4  1  0
 13  7  2  0
M  END
>  <rName>  (3514) 
Trp_6I

>  <PQ_SYMBOL>  (3514) 
Trp_6I

>  <FULL_NAME>  (3514) 
6-iodo-L-tryptophan

>  <IUPAC_CONDENSED>  (3514) 
Trp(6-I)

>  <IUPAC>  (3514) 
(2S)-2-amino-3-(6-iodo-1H-indol-3-yl)propanoic acid

>  <TYPE>  (3514) 
Backbone

>  <CLASS>  (3514) 
alpha

>  <ANALOG>  (3514) 
Trp

>  <MOL_WT>  (3514) 
330.12500000000006

>  <LOGP>  (3514) 
1.7269

>  <TPSA>  (3514) 
79.11

>  <POPULARITY>  (3514) 
3.1

>  <PROTECTED>  (3514) 
TRUE

>  <SMILES>  (3514) 
N[C@@H](Cc1(c[nH]c2(cc(I)ccc12)))C(=O)O

>  <INCHIKEY>  (3514) 
WTLISMPNNJOCQG-VIFPVBQESA-N

$$$$
Trp_6Me
     RDKit          2D

 16 17  0  0  0  0  0  0  0  0999 V2000
   -3.0545   -1.6426    0.0000 N   0  0  0  0  0  0  0  0  0  0  0  0
   -2.9369   -0.1473    0.0000 C   0  0  0  0  0  0  0  0  0  0  0  0
   -1.5831    0.4986    0.0000 C   0  0  0  0  0  0  0  0  0  0  0  0
   -0.3468   -0.3509    0.0000 C   0  0  0  0  0  0  0  0  0  0  0  0
   -0.3075   -1.8504    0.0000 C   0  0  0  0  0  0  0  0  0  0  0  0
    1.1308   -2.2763    0.0000 N   0  0  0  0  0  0  0  0  0  0  0  0
    1.9803   -1.0400    0.0000 C   0  0  0  0  0  0  0  0  0  0  0  0
    3.4675   -0.8441    0.0000 C   0  0  0  0  0  0  0  0  0  0  0  0
    4.0414    0.5417    0.0000 C   0  0  0  0  0  0  0  0  0  0  0  0
    5.5285    0.7376    0.0000 C   0  0  0  0  0  0  0  0  0  0  0  0
    3.1281    1.7317    0.0000 C   0  0  0  0  0  0  0  0  0  0  0  0
    1.6410    1.5358    0.0000 C   0  0  0  0  0  0  0  0  0  0  0  0
    1.0671    0.1499    0.0000 C   0  0  0  0  0  0  0  0  0  0  0  0
   -4.1732    0.7023    0.0000 C   0  0  0  0  0  0  0  0  0  0  0  0
   -4.0556    2.1976    0.0000 O   0  0  0  0  0  0  0  0  0  0  0  0
   -5.5270    0.0564    0.0000 O   0  0  0  0  0  0  0  0  0  0  0  0
  2  1  1  6
  2  3  1  0
  3  4  1  0
  4  5  2  0
  5  6  1  0
  6  7  1  0
  7  8  1  0
  8  9  2  0
  9 10  1  0
  9 11  1  0
 11 12  2  0
 12 13  1  0
  2 14  1  0
 14 15  2  0
 14 16  1  0
 13  4  1  0
 13  7  2  0
M  END
>  <rName>  (3515) 
Trp_6Me

>  <PQ_SYMBOL>  (3515) 
Trp_6Me

>  <FULL_NAME>  (3515) 
6-Methyl-L-Tryptophan

>  <IUPAC_CONDENSED>  (3515) 
Trp(6-Me)

>  <IUPAC>  (3515) 
(2S)-2-amino-3-(6-methyl-1H-indol-3-yl)propanoic acid

>  <TYPE>  (3515) 
Backbone

>  <CLASS>  (3515) 
alpha

>  <ANALOG>  (3515) 
Trp

>  <MOL_WT>  (3515) 
218.25599999999997

>  <LOGP>  (3515) 
1.4307200000000002

>  <TPSA>  (3515) 
79.11

>  <POPULARITY>  (3515) 
9.1

>  <PROTECTED>  (3515) 
TRUE

>  <SMILES>  (3515) 
N[C@@H](Cc1(c[nH]c2(cc(C)ccc12)))C(=O)O

>  <INCHIKEY>  (3515) 
GDMRVYIFGPMUCG-JTQLQIEISA-N

$$$$
Trp_6NO2
     RDKit          2D

 18 19  0  0  0  0  0  0  0  0999 V2000
   -3.8235   -1.5704    0.0000 N   0  0  0  0  0  0  0  0  0  0  0  0
   -3.6408   -0.0815    0.0000 C   0  0  0  0  0  0  0  0  0  0  0  0
   -2.2602    0.5047    0.0000 C   0  0  0  0  0  0  0  0  0  0  0  0
   -1.0621   -0.3978    0.0000 C   0  0  0  0  0  0  0  0  0  0  0  0
   -1.0881   -1.8976    0.0000 C   0  0  0  0  0  0  0  0  0  0  0  0
    0.3303   -2.3858    0.0000 N   0  0  0  0  0  0  0  0  0  0  0  0
    1.2328   -1.1877    0.0000 C   0  0  0  0  0  0  0  0  0  0  0  0
    2.7271   -1.0568    0.0000 C   0  0  0  0  0  0  0  0  0  0  0  0
    3.3609    0.3027    0.0000 C   0  0  0  0  0  0  0  0  0  0  0  0
    2.5003    1.5314    0.0000 C   0  0  0  0  0  0  0  0  0  0  0  0
    1.0061    1.4004    0.0000 C   0  0  0  0  0  0  0  0  0  0  0  0
    0.3723    0.0409    0.0000 C   0  0  0  0  0  0  0  0  0  0  0  0
    4.8551    0.4337    0.0000 N   0  0  0  0  0  0  0  0  0  0  0  0
    5.4889    1.7932    0.0000 O   0  0  0  0  0  0  0  0  0  0  0  0
    5.7157   -0.7950    0.0000 O   0  0  0  0  0  0  0  0  0  0  0  0
   -4.8389    0.8210    0.0000 C   0  0  0  0  0  0  0  0  0  0  0  0
   -4.6563    2.3099    0.0000 O   0  0  0  0  0  0  0  0  0  0  0  0
   -6.2196    0.2348    0.0000 O   0  0  0  0  0  0  0  0  0  0  0  0
  2  1  1  6
  2  3  1  0
  3  4  1  0
  4  5  2  0
  5  6  1  0
  6  7  1  0
  7  8  1  0
  8  9  2  0
  9 10  1  0
 10 11  2  0
 11 12  1  0
  9 13  1  0
 13 14  2  0
 13 15  1  0
  2 16  1  0
 16 17  2  0
 16 18  1  0
 12  4  1  0
 12  7  2  0
M  CHG  2  13   1  15  -1
M  END
>  <rName>  (3516) 
Trp_6NO2

>  <PQ_SYMBOL>  (3516) 
Trp_6NO2

>  <FULL_NAME>  (3516) 
6-nitro-L-tryptophan

>  <IUPAC_CONDENSED>  (3516) 
Trp(6-NO2)

>  <IUPAC>  (3516) 
(2S)-2-amino-3-(6-nitro-1H-indol-3-yl)propanoic acid

>  <TYPE>  (3516) 
Backbone

>  <CLASS>  (3516) 
alpha

>  <ANALOG>  (3516) 
Trp

>  <MOL_WT>  (3516) 
249.22599999999997

>  <LOGP>  (3516) 
1.0305

>  <TPSA>  (3516) 
122.25000000000001

>  <POPULARITY>  (3516) 
5.2

>  <PROTECTED>  (3516) 
TRUE

>  <SMILES>  (3516) 
N[C@@H](Cc1(c[nH]c2(cc(ccc12)[N+](=O)[O-])))C(=O)O

>  <INCHIKEY>  (3516) 
AWLWPSSHYJQPCH-VIFPVBQESA-N

$$$$
Trp_6NO2_Aza
     RDKit          2D

 18 19  0  0  0  0  0  0  0  0999 V2000
   -3.8235   -1.5704    0.0000 N   0  0  0  0  0  0  0  0  0  0  0  0
   -3.6408   -0.0815    0.0000 C   0  0  0  0  0  0  0  0  0  0  0  0
   -2.2602    0.5047    0.0000 C   0  0  0  0  0  0  0  0  0  0  0  0
   -1.0621   -0.3978    0.0000 C   0  0  0  0  0  0  0  0  0  0  0  0
   -1.0881   -1.8976    0.0000 N   0  0  0  0  0  0  0  0  0  0  0  0
    0.3303   -2.3858    0.0000 N   0  0  0  0  0  0  0  0  0  0  0  0
    1.2328   -1.1877    0.0000 C   0  0  0  0  0  0  0  0  0  0  0  0
    2.7271   -1.0568    0.0000 C   0  0  0  0  0  0  0  0  0  0  0  0
    3.3609    0.3027    0.0000 C   0  0  0  0  0  0  0  0  0  0  0  0
    2.5003    1.5314    0.0000 C   0  0  0  0  0  0  0  0  0  0  0  0
    1.0061    1.4004    0.0000 C   0  0  0  0  0  0  0  0  0  0  0  0
    0.3723    0.0409    0.0000 C   0  0  0  0  0  0  0  0  0  0  0  0
    4.8551    0.4337    0.0000 N   0  0  0  0  0  0  0  0  0  0  0  0
    5.4889    1.7932    0.0000 O   0  0  0  0  0  0  0  0  0  0  0  0
    5.7157   -0.7950    0.0000 O   0  0  0  0  0  0  0  0  0  0  0  0
   -4.8389    0.8210    0.0000 C   0  0  0  0  0  0  0  0  0  0  0  0
   -4.6563    2.3099    0.0000 O   0  0  0  0  0  0  0  0  0  0  0  0
   -6.2196    0.2348    0.0000 O   0  0  0  0  0  0  0  0  0  0  0  0
  2  1  1  6
  2  3  1  0
  3  4  1  0
  4  5  2  0
  5  6  1  0
  6  7  1  0
  7  8  1  0
  8  9  2  0
  9 10  1  0
 10 11  2  0
 11 12  1  0
  9 13  1  0
 13 14  2  0
 13 15  1  0
  2 16  1  0
 16 17  2  0
 16 18  1  0
 12  7  2  0
 12  4  1  0
M  CHG  2  13   1  15  -1
M  END
>  <rName>  (3517) 
Trp_6NO2_Aza

>  <PQ_SYMBOL>  (3517) 
Trp_6NO2_Aza

>  <FULL_NAME>  (3517) 
(S)-2-amino-3-(6-nitro-1H-indazol-3-yl)propanoic acid

>  <IUPAC_CONDENSED>  (3517) 
Trp(6-NO2,Aza)

>  <IUPAC>  (3517) 
(2S)-2-amino-3-(6-nitro-1H-indazol-3-yl)propanoic acid

>  <TYPE>  (3517) 
Backbone

>  <CLASS>  (3517) 
alpha

>  <ANALOG>  (3517) 
Phe

>  <MOL_WT>  (3517) 
250.214

>  <LOGP>  (3517) 
0.42549999999999955

>  <TPSA>  (3517) 
135.14

>  <POPULARITY>  (3517) 
2.2

>  <PROTECTED>  (3517) 
TRUE

>  <SMILES>  (3517) 
N[C@@H](Cc2(n[nH]c1(cc(ccc12)[N+](=O)[O-])))C(=O)O

>  <INCHIKEY>  (3517) 
VCSXNPSSWYNAGK-ZETCQYMHSA-N

$$$$
Trp_6OAc
     RDKit          2D

 19 20  0  0  0  0  0  0  0  0999 V2000
   -4.0365   -1.7188    0.0000 N   0  0  0  0  0  0  0  0  0  0  0  0
   -3.9961   -0.2194    0.0000 C   0  0  0  0  0  0  0  0  0  0  0  0
   -2.6774    0.4954    0.0000 C   0  0  0  0  0  0  0  0  0  0  0  0
   -1.3990   -0.2893    0.0000 C   0  0  0  0  0  0  0  0  0  0  0  0
   -1.2824   -1.7848    0.0000 C   0  0  0  0  0  0  0  0  0  0  0  0
    0.1759   -2.1360    0.0000 N   0  0  0  0  0  0  0  0  0  0  0  0
    0.9606   -0.8576    0.0000 C   0  0  0  0  0  0  0  0  0  0  0  0
    2.4357   -0.5854    0.0000 C   0  0  0  0  0  0  0  0  0  0  0  0
    2.9374    0.8282    0.0000 C   0  0  0  0  0  0  0  0  0  0  0  0
    4.4125    1.1005    0.0000 O   0  0  0  0  0  0  0  0  0  0  0  0
    5.3858   -0.0409    0.0000 C   0  0  0  0  0  0  0  0  0  0  0  0
    4.8841   -1.4545    0.0000 O   0  0  0  0  0  0  0  0  0  0  0  0
    6.8609    0.2314    0.0000 C   0  0  0  0  0  0  0  0  0  0  0  0
    1.9641    1.9695    0.0000 C   0  0  0  0  0  0  0  0  0  0  0  0
    0.4890    1.6973    0.0000 C   0  0  0  0  0  0  0  0  0  0  0  0
   -0.0127    0.2837    0.0000 C   0  0  0  0  0  0  0  0  0  0  0  0
   -5.2745    0.5653    0.0000 C   0  0  0  0  0  0  0  0  0  0  0  0
   -5.2341    2.0648    0.0000 O   0  0  0  0  0  0  0  0  0  0  0  0
   -6.5933   -0.1494    0.0000 O   0  0  0  0  0  0  0  0  0  0  0  0
  2  1  1  6
  2  3  1  0
  3  4  1  0
  4  5  2  0
  5  6  1  0
  6  7  1  0
  7  8  1  0
  8  9  2  0
  9 10  1  0
 10 11  1  0
 11 12  2  0
 11 13  1  0
  9 14  1  0
 14 15  2  0
 15 16  1  0
  2 17  1  0
 17 18  2  0
 17 19  1  0
 16  4  1  0
 16  7  2  0
M  END
>  <rName>  (3518) 
Trp_6OAc

>  <PQ_SYMBOL>  (3518) 
Trp_6OAc

>  <FULL_NAME>  (3518) 
6-acetoxy-L-tryptophan

>  <IUPAC_CONDENSED>  (3518) 
Trp(6-O-Ac)

>  <IUPAC>  (3518) 
(2S)-3-(6-(acetoxy)-1H-indol-3-yl)-2-aminopropanoic acid

>  <TYPE>  (3518) 
Backbone

>  <CLASS>  (3518) 
alpha

>  <ANALOG>  (3518) 
Trp

>  <MOL_WT>  (3518) 
262.26499999999993

>  <LOGP>  (3518) 
1.0476

>  <TPSA>  (3518) 
105.41000000000001

>  <POPULARITY>  (3518) 
3.2

>  <PROTECTED>  (3518) 
TRUE

>  <SMILES>  (3518) 
N[C@@H](Cc1(c[nH]c2(cc(OC(=O)C)ccc12)))C(=O)O

>  <INCHIKEY>  (3518) 
HKQBCKKHGKPLBB-NSHDSACASA-N

$$$$
Trp_6OBn
     RDKit          2D

 23 25  0  0  0  0  0  0  0  0999 V2000
   -5.7785   -1.6512    0.0000 N   0  0  0  0  0  0  0  0  0  0  0  0
   -5.6724   -0.1550    0.0000 C   0  0  0  0  0  0  0  0  0  0  0  0
   -4.3235    0.5012    0.0000 C   0  0  0  0  0  0  0  0  0  0  0  0
   -3.0808   -0.3389    0.0000 C   0  0  0  0  0  0  0  0  0  0  0  0
   -3.0300   -1.8380    0.0000 C   0  0  0  0  0  0  0  0  0  0  0  0
   -1.5885   -2.2530    0.0000 N   0  0  0  0  0  0  0  0  0  0  0  0
   -0.7485   -1.0103    0.0000 C   0  0  0  0  0  0  0  0  0  0  0  0
    0.7372   -0.8031    0.0000 C   0  0  0  0  0  0  0  0  0  0  0  0
    1.3005    0.5871    0.0000 C   0  0  0  0  0  0  0  0  0  0  0  0
    2.7861    0.7943    0.0000 O   0  0  0  0  0  0  0  0  0  0  0  0
    3.7084   -0.3887    0.0000 C   0  0  0  0  0  0  0  0  0  0  0  0
    5.1940   -0.1814    0.0000 C   0  0  0  0  0  0  0  0  0  0  0  0
    6.1163   -1.3644    0.0000 C   0  0  0  0  0  0  0  0  0  0  0  0
    7.6019   -1.1572    0.0000 C   0  0  0  0  0  0  0  0  0  0  0  0
    8.1652    0.2330    0.0000 C   0  0  0  0  0  0  0  0  0  0  0  0
    7.2430    1.4160    0.0000 C   0  0  0  0  0  0  0  0  0  0  0  0
    5.7574    1.2087    0.0000 C   0  0  0  0  0  0  0  0  0  0  0  0
    0.3782    1.7701    0.0000 C   0  0  0  0  0  0  0  0  0  0  0  0
   -1.1074    1.5629    0.0000 C   0  0  0  0  0  0  0  0  0  0  0  0
   -1.6707    0.1727    0.0000 C   0  0  0  0  0  0  0  0  0  0  0  0
   -6.9150    0.6851    0.0000 C   0  0  0  0  0  0  0  0  0  0  0  0
   -6.8089    2.1813    0.0000 O   0  0  0  0  0  0  0  0  0  0  0  0
   -8.2639    0.0289    0.0000 O   0  0  0  0  0  0  0  0  0  0  0  0
  2  1  1  6
  2  3  1  0
  3  4  1  0
  4  5  2  0
  5  6  1  0
  6  7  1  0
  7  8  1  0
  8  9  2  0
  9 10  1  0
 10 11  1  0
 11 12  1  0
 12 13  2  0
 13 14  1  0
 14 15  2  0
 15 16  1  0
 16 17  2  0
  9 18  1  0
 18 19  2  0
 19 20  1  0
  2 21  1  0
 21 22  2  0
 21 23  1  0
 17 12  1  0
 20  4  1  0
 20  7  2  0
M  END
>  <rName>  (3519) 
Trp_6OBn

>  <PQ_SYMBOL>  (3519) 
Trp_6OBn

>  <FULL_NAME>  (3519) 
6-benzyloxy-L-tryptophan

>  <IUPAC_CONDENSED>  (3519) 
Trp(6-OBn)

>  <IUPAC>  (3519) 
(2S)-2-amino-3-(6-benzyloxy-1H-indol-3-yl)propanoic acid

>  <TYPE>  (3519) 
Backbone

>  <CLASS>  (3519) 
alpha

>  <ANALOG>  (3519) 
Trp

>  <MOL_WT>  (3519) 
310.35300000000007

>  <LOGP>  (3519) 
2.7013000000000007

>  <TPSA>  (3519) 
88.34000000000002

>  <POPULARITY>  (3519) 
2.6

>  <PROTECTED>  (3519) 
TRUE

>  <SMILES>  (3519) 
N[C@@H](Cc2(c[nH]c3(cc(OCc1(ccccc1))ccc23)))C(=O)O

>  <INCHIKEY>  (3519) 
CIIAXGODDHHBDG-INIZCTEOSA-N

$$$$
Trp_6OCF3
     RDKit          2D

 20 21  0  0  0  0  0  0  0  0999 V2000
   -4.3045   -1.7200    0.0000 N   0  0  0  0  0  0  0  0  0  0  0  0
   -4.2653   -0.2205    0.0000 C   0  0  0  0  0  0  0  0  0  0  0  0
   -2.9470    0.4952    0.0000 C   0  0  0  0  0  0  0  0  0  0  0  0
   -1.6681   -0.2885    0.0000 C   0  0  0  0  0  0  0  0  0  0  0  0
   -1.5504   -1.7839    0.0000 C   0  0  0  0  0  0  0  0  0  0  0  0
   -0.0918   -2.1340    0.0000 N   0  0  0  0  0  0  0  0  0  0  0  0
    0.6919   -0.8551    0.0000 C   0  0  0  0  0  0  0  0  0  0  0  0
    2.1668   -0.5817    0.0000 C   0  0  0  0  0  0  0  0  0  0  0  0
    2.6675    0.8322    0.0000 C   0  0  0  0  0  0  0  0  0  0  0  0
    4.1424    1.1056    0.0000 O   0  0  0  0  0  0  0  0  0  0  0  0
    5.1166   -0.0350    0.0000 C   0  0  0  0  0  0  0  0  0  0  0  0
    6.0907   -1.1756    0.0000 F   0  0  0  0  0  0  0  0  0  0  0  0
    6.2572    0.9392    0.0000 F   0  0  0  0  0  0  0  0  0  0  0  0
    3.9760   -1.0092    0.0000 F   0  0  0  0  0  0  0  0  0  0  0  0
    1.6933    1.9728    0.0000 C   0  0  0  0  0  0  0  0  0  0  0  0
    0.2185    1.6995    0.0000 C   0  0  0  0  0  0  0  0  0  0  0  0
   -0.2822    0.2855    0.0000 C   0  0  0  0  0  0  0  0  0  0  0  0
   -5.5442    0.5632    0.0000 C   0  0  0  0  0  0  0  0  0  0  0  0
   -5.5050    2.0627    0.0000 O   0  0  0  0  0  0  0  0  0  0  0  0
   -6.8624   -0.1525    0.0000 O   0  0  0  0  0  0  0  0  0  0  0  0
  2  1  1  6
  2  3  1  0
  3  4  1  0
  4  5  2  0
  5  6  1  0
  6  7  1  0
  7  8  1  0
  8  9  2  0
  9 10  1  0
 10 11  1  0
 11 12  1  0
 11 13  1  0
 11 14  1  0
  9 15  1  0
 15 16  2  0
 16 17  1  0
  2 18  1  0
 18 19  2  0
 18 20  1  0
 17  4  1  0
 17  7  2  0
M  END
>  <rName>  (3520) 
Trp_6OCF3

>  <PQ_SYMBOL>  (3520) 
Trp_6OCF3

>  <FULL_NAME>  (3520) 
6-(trifluoromethoxy)-L-tryptophan

>  <IUPAC_CONDENSED>  (3520) 
Trp(6-OCF3)

>  <IUPAC>  (3520) 
(2S)-2-amino-3-(6-((trifluoromethyl)oxy)-1H-indol-3-yl)propanoic acid

>  <TYPE>  (3520) 
Backbone

>  <CLASS>  (3520) 
alpha

>  <ANALOG>  (3520) 
Trp

>  <MOL_WT>  (3520) 
288.22499999999997

>  <LOGP>  (3520) 
2.0209

>  <TPSA>  (3520) 
88.34000000000002

>  <POPULARITY>  (3520) 
2.6

>  <PROTECTED>  (3520) 
TRUE

>  <SMILES>  (3520) 
N[C@@H](Cc1(c[nH]c2(cc(OC(F)(F)F)ccc12)))C(=O)O

>  <INCHIKEY>  (3520) 
BZUPKGCRYSLMAO-VIFPVBQESA-N

$$$$
Trp_6OH
     RDKit          2D

 16 17  0  0  0  0  0  0  0  0999 V2000
   -3.0545   -1.6426    0.0000 N   0  0  0  0  0  0  0  0  0  0  0  0
   -2.9369   -0.1473    0.0000 C   0  0  0  0  0  0  0  0  0  0  0  0
   -1.5831    0.4986    0.0000 C   0  0  0  0  0  0  0  0  0  0  0  0
   -0.3468   -0.3509    0.0000 C   0  0  0  0  0  0  0  0  0  0  0  0
   -0.3075   -1.8504    0.0000 C   0  0  0  0  0  0  0  0  0  0  0  0
    1.1308   -2.2763    0.0000 N   0  0  0  0  0  0  0  0  0  0  0  0
    1.9803   -1.0400    0.0000 C   0  0  0  0  0  0  0  0  0  0  0  0
    3.4675   -0.8441    0.0000 C   0  0  0  0  0  0  0  0  0  0  0  0
    4.0414    0.5417    0.0000 C   0  0  0  0  0  0  0  0  0  0  0  0
    5.5285    0.7376    0.0000 O   0  0  0  0  0  0  0  0  0  0  0  0
    3.1281    1.7317    0.0000 C   0  0  0  0  0  0  0  0  0  0  0  0
    1.6410    1.5358    0.0000 C   0  0  0  0  0  0  0  0  0  0  0  0
    1.0671    0.1499    0.0000 C   0  0  0  0  0  0  0  0  0  0  0  0
   -4.1732    0.7023    0.0000 C   0  0  0  0  0  0  0  0  0  0  0  0
   -4.0556    2.1976    0.0000 O   0  0  0  0  0  0  0  0  0  0  0  0
   -5.5270    0.0564    0.0000 O   0  0  0  0  0  0  0  0  0  0  0  0
  2  1  1  6
  2  3  1  0
  3  4  1  0
  4  5  2  0
  5  6  1  0
  6  7  1  0
  7  8  1  0
  8  9  2  0
  9 10  1  0
  9 11  1  0
 11 12  2  0
 12 13  1  0
  2 14  1  0
 14 15  2  0
 14 16  1  0
 13  7  2  0
 13  4  1  0
M  END
>  <rName>  (3521) 
Trp_6OH

>  <PQ_SYMBOL>  (3521) 
Trp_6OH

>  <FULL_NAME>  (3521) 
6-Hydroxy-L-Tryptophan

>  <IUPAC_CONDENSED>  (3521) 
Trp(6-OH)

>  <IUPAC>  (3521) 
(2S)-2-amino-3-(6-hydroxy-1H-indol-3-yl)propanoic acid

>  <TYPE>  (3521) 
Backbone

>  <CLASS>  (3521) 
alpha

>  <ANALOG>  (3521) 
Trp

>  <MOL_WT>  (3521) 
220.22799999999998

>  <LOGP>  (3521) 
0.8279000000000003

>  <TPSA>  (3521) 
99.34000000000002

>  <POPULARITY>  (3521) 
22.1

>  <PROTECTED>  (3521) 
TRUE

>  <SMILES>  (3521) 
N[C@@H](Cc2(c[nH]c1(cc(O)ccc12)))C(=O)O

>  <INCHIKEY>  (3521) 
NXANGIZFHQQBCC-VIFPVBQESA-N

$$$$
Trp_6OMe
     RDKit          2D

 17 18  0  0  0  0  0  0  0  0999 V2000
   -3.4079   -1.6691    0.0000 N   0  0  0  0  0  0  0  0  0  0  0  0
   -3.3136   -0.1721    0.0000 C   0  0  0  0  0  0  0  0  0  0  0  0
   -1.9699    0.4947    0.0000 C   0  0  0  0  0  0  0  0  0  0  0  0
   -0.7207   -0.3355    0.0000 C   0  0  0  0  0  0  0  0  0  0  0  0
   -0.6580   -1.8342    0.0000 C   0  0  0  0  0  0  0  0  0  0  0  0
    0.7867   -2.2377    0.0000 N   0  0  0  0  0  0  0  0  0  0  0  0
    1.6169   -0.9885    0.0000 C   0  0  0  0  0  0  0  0  0  0  0  0
    3.1008   -0.7695    0.0000 C   0  0  0  0  0  0  0  0  0  0  0  0
    3.6532    0.6251    0.0000 C   0  0  0  0  0  0  0  0  0  0  0  0
    5.1371    0.8441    0.0000 O   0  0  0  0  0  0  0  0  0  0  0  0
    6.0687   -0.3316    0.0000 C   0  0  0  0  0  0  0  0  0  0  0  0
    2.7216    1.8007    0.0000 C   0  0  0  0  0  0  0  0  0  0  0  0
    1.2377    1.5818    0.0000 C   0  0  0  0  0  0  0  0  0  0  0  0
    0.6853    0.1872    0.0000 C   0  0  0  0  0  0  0  0  0  0  0  0
   -4.5629    0.6581    0.0000 C   0  0  0  0  0  0  0  0  0  0  0  0
   -4.4685    2.1552    0.0000 O   0  0  0  0  0  0  0  0  0  0  0  0
   -5.9065   -0.0087    0.0000 O   0  0  0  0  0  0  0  0  0  0  0  0
  2  1  1  6
  2  3  1  0
  3  4  1  0
  4  5  2  0
  5  6  1  0
  6  7  1  0
  7  8  1  0
  8  9  2  0
  9 10  1  0
 10 11  1  0
  9 12  1  0
 12 13  2  0
 13 14  1  0
  2 15  1  0
 15 16  2  0
 15 17  1  0
 14  4  1  0
 14  7  2  0
M  END
>  <rName>  (3522) 
Trp_6OMe

>  <PQ_SYMBOL>  (3522) 
Trp_6OMe

>  <FULL_NAME>  (3522) 
6-Methoxy-L-Tryptophan

>  <IUPAC_CONDENSED>  (3522) 
Trp(6-OMe)

>  <IUPAC>  (3522) 
(2S)-2-amino-3-(6-methoxy-1H-indol-3-yl)propanoic acid

>  <TYPE>  (3522) 
Backbone

>  <CLASS>  (3522) 
alpha

>  <ANALOG>  (3522) 
Trp

>  <MOL_WT>  (3522) 
234.25499999999997

>  <LOGP>  (3522) 
1.1309

>  <TPSA>  (3522) 
88.34000000000002

>  <POPULARITY>  (3522) 
8.2

>  <PROTECTED>  (3522) 
TRUE

>  <SMILES>  (3522) 
N[C@@H](Cc1(c[nH]c2(cc(OC)ccc12)))C(=O)O

>  <INCHIKEY>  (3522) 
ASMBUJRMSWTSLE-JTQLQIEISA-N

$$$$
Trp_6Ph
     RDKit          2D

 21 23  0  0  0  0  0  0  0  0999 V2000
   -4.9288   -1.4894    0.0000 N   0  0  0  0  0  0  0  0  0  0  0  0
   -4.6935   -0.0080    0.0000 C   0  0  0  0  0  0  0  0  0  0  0  0
   -3.2928    0.5289    0.0000 C   0  0  0  0  0  0  0  0  0  0  0  0
   -2.1276   -0.4157    0.0000 C   0  0  0  0  0  0  0  0  0  0  0  0
   -2.2068   -1.9136    0.0000 C   0  0  0  0  0  0  0  0  0  0  0  0
   -0.8067   -2.4518    0.0000 N   0  0  0  0  0  0  0  0  0  0  0  0
    0.1379   -1.2866    0.0000 C   0  0  0  0  0  0  0  0  0  0  0  0
    1.6358   -1.2088    0.0000 C   0  0  0  0  0  0  0  0  0  0  0  0
    2.3175    0.1274    0.0000 C   0  0  0  0  0  0  0  0  0  0  0  0
    1.5011    1.3858    0.0000 C   0  0  0  0  0  0  0  0  0  0  0  0
    0.0032    1.3080    0.0000 C   0  0  0  0  0  0  0  0  0  0  0  0
   -0.6785   -0.0281    0.0000 C   0  0  0  0  0  0  0  0  0  0  0  0
    3.8155    0.2052    0.0000 C   0  0  0  0  0  0  0  0  0  0  0  0
    4.6318   -1.0532    0.0000 C   0  0  0  0  0  0  0  0  0  0  0  0
    6.1298   -0.9755    0.0000 C   0  0  0  0  0  0  0  0  0  0  0  0
    6.8114    0.3607    0.0000 C   0  0  0  0  0  0  0  0  0  0  0  0
    5.9951    1.6191    0.0000 C   0  0  0  0  0  0  0  0  0  0  0  0
    4.4971    1.5413    0.0000 C   0  0  0  0  0  0  0  0  0  0  0  0
   -5.8587    0.9366    0.0000 C   0  0  0  0  0  0  0  0  0  0  0  0
   -5.6233    2.4180    0.0000 O   0  0  0  0  0  0  0  0  0  0  0  0
   -7.2593    0.3997    0.0000 O   0  0  0  0  0  0  0  0  0  0  0  0
  2  1  1  6
  2  3  1  0
  3  4  1  0
  4  5  2  0
  5  6  1  0
  6  7  1  0
  7  8  1  0
  8  9  2  0
  9 10  1  0
 10 11  2  0
 11 12  1  0
  9 13  1  0
 13 14  2  0
 14 15  1  0
 15 16  2  0
 16 17  1  0
 17 18  2  0
  2 19  1  0
 19 20  2  0
 19 21  1  0
 12  4  1  0
 12  7  2  0
 18 13  1  0
M  END
>  <rName>  (3523) 
Trp_6Ph

>  <PQ_SYMBOL>  (3523) 
Trp_6Ph

>  <FULL_NAME>  (3523) 
6-phenyl-L-tryptophan

>  <IUPAC_CONDENSED>  (3523) 
Trp(6-Ph)

>  <IUPAC>  (3523) 
(2S)-2-amino-3-(6-phenyl-1H-indol-3-yl)propanoic acid

>  <TYPE>  (3523) 
Backbone

>  <CLASS>  (3523) 
alpha

>  <ANALOG>  (3523) 
Trp

>  <MOL_WT>  (3523) 
280.327

>  <LOGP>  (3523) 
2.789300000000001

>  <TPSA>  (3523) 
79.11

>  <POPULARITY>  (3523) 
3.2

>  <PROTECTED>  (3523) 
TRUE

>  <SMILES>  (3523) 
N[C@@H](Cc1(c[nH]c2(cc(ccc12)c3(ccccc3))))C(=O)O

>  <INCHIKEY>  (3523) 
RAAXSGSFRXZXSO-HNNXBMFYSA-N

$$$$
Trp_7Aza
     RDKit          2D

 15 16  0  0  0  0  0  0  0  0999 V2000
   -2.6183   -1.7023    0.0000 N   0  0  0  0  0  0  0  0  0  0  0  0
   -2.5622   -0.2034    0.0000 C   0  0  0  0  0  0  0  0  0  0  0  0
   -1.2360    0.4975    0.0000 C   0  0  0  0  0  0  0  0  0  0  0  0
    0.0341   -0.3006    0.0000 C   0  0  0  0  0  0  0  0  0  0  0  0
    0.1349   -1.7972    0.0000 C   0  0  0  0  0  0  0  0  0  0  0  0
    1.5895   -2.1637    0.0000 N   0  0  0  0  0  0  0  0  0  0  0  0
    2.3875   -0.8937    0.0000 C   0  0  0  0  0  0  0  0  0  0  0  0
    3.8654   -0.6369    0.0000 N   0  0  0  0  0  0  0  0  0  0  0  0
    4.3820    0.7713    0.0000 C   0  0  0  0  0  0  0  0  0  0  0  0
    3.4207    1.9228    0.0000 C   0  0  0  0  0  0  0  0  0  0  0  0
    1.9429    1.6661    0.0000 C   0  0  0  0  0  0  0  0  0  0  0  0
    1.4263    0.2578    0.0000 C   0  0  0  0  0  0  0  0  0  0  0  0
   -3.8322    0.5947    0.0000 C   0  0  0  0  0  0  0  0  0  0  0  0
   -3.7761    2.0937    0.0000 O   0  0  0  0  0  0  0  0  0  0  0  0
   -5.1584   -0.1061    0.0000 O   0  0  0  0  0  0  0  0  0  0  0  0
  2  1  1  6
  2  3  1  0
  3  4  1  0
  4  5  2  0
  5  6  1  0
  6  7  1  0
  7  8  2  0
  8  9  1  0
  9 10  2  0
 10 11  1  0
 11 12  2  0
  2 13  1  0
 13 14  2  0
 13 15  1  0
 12  4  1  0
 12  7  1  0
M  END
>  <rName>  (3524) 
Trp_7Aza

>  <PQ_SYMBOL>  (3524) 
Trp_7Aza

>  <FULL_NAME>  (3524) 
7-Aza-L-Tryptophan

>  <IUPAC_CONDENSED>  (3524) 
Trp(7-Aza)

>  <IUPAC>  (3524) 
(2S)-2-amino-3-(2,9-diazabicyclo[4.3.0]nona-1,3,5,7-tetraen-7-yl)propanoic acid

>  <TYPE>  (3524) 
Backbone

>  <CLASS>  (3524) 
alpha

>  <ANALOG>  (3524) 
Phe

>  <MOL_WT>  (3524) 
205.21699999999998

>  <LOGP>  (3524) 
0.5172999999999999

>  <TPSA>  (3524) 
92.00000000000001

>  <POPULARITY>  (3524) 
14.5

>  <PROTECTED>  (3524) 
TRUE

>  <SMILES>  (3524) 
N[C@@H](Cc1(c[nH]c2(ncccc12)))C(=O)O

>  <INCHIKEY>  (3524) 
SNLOIIPRZGMRAB-QMMMGPOBSA-N

$$$$
Trp_7Aza_Aza
     RDKit          2D

 15 16  0  0  0  0  0  0  0  0999 V2000
   -2.6183   -1.7023    0.0000 N   0  0  0  0  0  0  0  0  0  0  0  0
   -2.5622   -0.2034    0.0000 C   0  0  0  0  0  0  0  0  0  0  0  0
   -1.2360    0.4975    0.0000 C   0  0  0  0  0  0  0  0  0  0  0  0
    0.0341   -0.3006    0.0000 C   0  0  0  0  0  0  0  0  0  0  0  0
    0.1349   -1.7972    0.0000 N   0  0  0  0  0  0  0  0  0  0  0  0
    1.5895   -2.1637    0.0000 N   0  0  0  0  0  0  0  0  0  0  0  0
    2.3875   -0.8937    0.0000 C   0  0  0  0  0  0  0  0  0  0  0  0
    3.8654   -0.6369    0.0000 N   0  0  0  0  0  0  0  0  0  0  0  0
    4.3820    0.7713    0.0000 C   0  0  0  0  0  0  0  0  0  0  0  0
    3.4207    1.9228    0.0000 C   0  0  0  0  0  0  0  0  0  0  0  0
    1.9429    1.6661    0.0000 C   0  0  0  0  0  0  0  0  0  0  0  0
    1.4263    0.2578    0.0000 C   0  0  0  0  0  0  0  0  0  0  0  0
   -3.8322    0.5947    0.0000 C   0  0  0  0  0  0  0  0  0  0  0  0
   -3.7761    2.0937    0.0000 O   0  0  0  0  0  0  0  0  0  0  0  0
   -5.1584   -0.1061    0.0000 O   0  0  0  0  0  0  0  0  0  0  0  0
  2  1  1  6
  2  3  1  0
  3  4  1  0
  4  5  2  0
  5  6  1  0
  6  7  1  0
  7  8  2  0
  8  9  1  0
  9 10  2  0
 10 11  1  0
 11 12  2  0
  2 13  1  0
 13 14  2  0
 13 15  1  0
 12  7  1  0
 12  4  1  0
M  END
>  <rName>  (3525) 
Trp_7Aza_Aza

>  <PQ_SYMBOL>  (3525) 
Trp_7Aza_Aza

>  <FULL_NAME>  (3525) 
(S)-2-amino-3-(1H-pyrazolo[3,4-b]pyridin-3-yl)propanoic acid

>  <IUPAC_CONDENSED>  (3525) 
Trp(7-Aza,Aza)

>  <IUPAC>  (3525) 
(2S)-2-amino-3-(2,8,9-triazabicyclo[4.3.0]nona-1,3,5,7-tetraen-7-yl)propanoic acid

>  <TYPE>  (3525) 
Backbone

>  <CLASS>  (3525) 
alpha

>  <ANALOG>  (3525) 
Phe

>  <MOL_WT>  (3525) 
206.205

>  <LOGP>  (3525) 
-0.08770000000000083

>  <TPSA>  (3525) 
104.89

>  <POPULARITY>  (3525) 
2.2

>  <PROTECTED>  (3525) 
TRUE

>  <SMILES>  (3525) 
N[C@@H](Cc2(n[nH]c1(ncccc12)))C(=O)O

>  <INCHIKEY>  (3525) 
UMHZCXAVXBVPJL-LURJTMIESA-N

$$$$
Trp_7Aza_Me
     RDKit          2D

 16 17  0  0  0  0  0  0  0  0999 V2000
   -2.6387   -1.6746    0.0000 N   0  0  0  0  0  0  0  0  0  0  0  0
   -2.6908   -0.1755    0.0000 C   0  0  0  0  0  0  0  0  0  0  0  0
   -1.4185    0.6191    0.0000 C   0  0  0  0  0  0  0  0  0  0  0  0
   -0.0943   -0.0853    0.0000 C   0  0  0  0  0  0  0  0  0  0  0  0
    0.1142   -1.5708    0.0000 C   0  0  0  0  0  0  0  0  0  0  0  0
    1.5913   -1.8316    0.0000 N   0  0  0  0  0  0  0  0  0  0  0  0
    2.2486   -3.1799    0.0000 C   0  0  0  0  0  0  0  0  0  0  0  0
    2.2958   -0.5073    0.0000 C   0  0  0  0  0  0  0  0  0  0  0  0
    3.7514   -0.1448    0.0000 N   0  0  0  0  0  0  0  0  0  0  0  0
    4.1651    1.2970    0.0000 C   0  0  0  0  0  0  0  0  0  0  0  0
    3.1234    2.3763    0.0000 C   0  0  0  0  0  0  0  0  0  0  0  0
    1.6678    2.0137    0.0000 C   0  0  0  0  0  0  0  0  0  0  0  0
    1.2541    0.5719    0.0000 C   0  0  0  0  0  0  0  0  0  0  0  0
   -4.0150    0.5290    0.0000 C   0  0  0  0  0  0  0  0  0  0  0  0
   -4.0671    2.0281    0.0000 O   0  0  0  0  0  0  0  0  0  0  0  0
   -5.2873   -0.2656    0.0000 O   0  0  0  0  0  0  0  0  0  0  0  0
  2  1  1  6
  2  3  1  0
  3  4  1  0
  4  5  2  0
  5  6  1  0
  6  7  1  0
  6  8  1  0
  8  9  2  0
  9 10  1  0
 10 11  2  0
 11 12  1  0
 12 13  2  0
  2 14  1  0
 14 15  2  0
 14 16  1  0
 13  4  1  0
 13  8  1  0
M  END
>  <rName>  (3526) 
Trp_7Aza_Me

>  <PQ_SYMBOL>  (3526) 
Trp_7Aza_Me

>  <FULL_NAME>  (3526) 
(2S)-2-amino-3-{1-methyl-1H-pyrrolo[2,3-b]pyridin-3-yl}propanoic acid

>  <IUPAC_CONDENSED>  (3526) 
Trp(7-Aza,Me)

>  <IUPAC>  (3526) 
(2S)-2-amino-3-(1-methylpyrrolo[2,3-b]pyridin-3-yl)propanoic acid

>  <TYPE>  (3526) 
Backbone

>  <CLASS>  (3526) 
alpha

>  <ANALOG>  (3526) 
Phe

>  <MOL_WT>  (3526) 
219.244

>  <LOGP>  (3526) 
0.5276999999999998

>  <TPSA>  (3526) 
81.14

>  <POPULARITY>  (3526) 
2.2

>  <PROTECTED>  (3526) 
TRUE

>  <SMILES>  (3526) 
N[C@@H](Cc1(cn(C)c2(ncccc12)))C(=O)O

>  <INCHIKEY>  (3526) 
UBCBNBJIABCDCQ-VIFPVBQESA-N

$$$$
Trp_7Br
     RDKit          2D

 16 17  0  0  0  0  0  0  0  0999 V2000
   -2.8116   -1.7751    0.0000 N   0  0  0  0  0  0  0  0  0  0  0  0
   -2.8520   -0.2757    0.0000 C   0  0  0  0  0  0  0  0  0  0  0  0
   -1.5737    0.5091    0.0000 C   0  0  0  0  0  0  0  0  0  0  0  0
   -0.2549   -0.2056    0.0000 C   0  0  0  0  0  0  0  0  0  0  0  0
   -0.0579   -1.6926    0.0000 C   0  0  0  0  0  0  0  0  0  0  0  0
    1.4172   -1.9648    0.0000 N   0  0  0  0  0  0  0  0  0  0  0  0
    2.1319   -0.6460    0.0000 C   0  0  0  0  0  0  0  0  0  0  0  0
    3.5902   -0.2947    0.0000 C   0  0  0  0  0  0  0  0  0  0  0  0
    4.6235   -1.3820    0.0000 Br  0  0  0  0  0  0  0  0  0  0  0  0
    4.0150    1.1438    0.0000 C   0  0  0  0  0  0  0  0  0  0  0  0
    2.9816    2.2311    0.0000 C   0  0  0  0  0  0  0  0  0  0  0  0
    1.5234    1.8798    0.0000 C   0  0  0  0  0  0  0  0  0  0  0  0
    1.0985    0.4412    0.0000 C   0  0  0  0  0  0  0  0  0  0  0  0
   -4.1708    0.4390    0.0000 C   0  0  0  0  0  0  0  0  0  0  0  0
   -4.2113    1.9385    0.0000 O   0  0  0  0  0  0  0  0  0  0  0  0
   -5.4491   -0.3458    0.0000 O   0  0  0  0  0  0  0  0  0  0  0  0
  2  1  1  6
  2  3  1  0
  3  4  1  0
  4  5  2  0
  5  6  1  0
  6  7  1  0
  7  8  2  0
  8  9  1  0
  8 10  1  0
 10 11  2  0
 11 12  1  0
 12 13  2  0
  2 14  1  0
 14 15  2  0
 14 16  1  0
 13  7  1  0
 13  4  1  0
M  END
>  <rName>  (3527) 
Trp_7Br

>  <PQ_SYMBOL>  (3527) 
Trp_7Br

>  <FULL_NAME>  (3527) 
7-Bromo-L-Tryptophan

>  <IUPAC_CONDENSED>  (3527) 
Trp(7-Br)

>  <IUPAC>  (3527) 
(2S)-2-amino-3-(7-bromo-1H-indol-3-yl)propanoic acid

>  <TYPE>  (3527) 
Backbone

>  <CLASS>  (3527) 
alpha

>  <ANALOG>  (3527) 
Trp

>  <MOL_WT>  (3527) 
283.125

>  <LOGP>  (3527) 
1.8848

>  <TPSA>  (3527) 
79.11

>  <POPULARITY>  (3527) 
6.9

>  <PROTECTED>  (3527) 
TRUE

>  <SMILES>  (3527) 
N[C@@H](Cc2(c[nH]c1(c(Br)cccc12)))C(=O)O

>  <INCHIKEY>  (3527) 
VMMOOBBCGTVDGP-VIFPVBQESA-N

$$$$
Trp_7CF3
     RDKit          2D

 19 20  0  0  0  0  0  0  0  0999 V2000
   -3.4079   -1.8886    0.0000 N   0  0  0  0  0  0  0  0  0  0  0  0
   -3.6141   -0.4028    0.0000 C   0  0  0  0  0  0  0  0  0  0  0  0
   -2.4304    0.5186    0.0000 C   0  0  0  0  0  0  0  0  0  0  0  0
   -1.0406   -0.0457    0.0000 C   0  0  0  0  0  0  0  0  0  0  0  0
   -0.6803   -1.5018    0.0000 C   0  0  0  0  0  0  0  0  0  0  0  0
    0.8159   -1.6090    0.0000 N   0  0  0  0  0  0  0  0  0  0  0  0
    1.3802   -0.2192    0.0000 C   0  0  0  0  0  0  0  0  0  0  0  0
    2.7906    0.2914    0.0000 C   0  0  0  0  0  0  0  0  0  0  0  0
    3.0536    1.7682    0.0000 C   0  0  0  0  0  0  0  0  0  0  0  0
    1.9062    2.7344    0.0000 C   0  0  0  0  0  0  0  0  0  0  0  0
    0.4958    2.2238    0.0000 C   0  0  0  0  0  0  0  0  0  0  0  0
    0.2328    0.7470    0.0000 C   0  0  0  0  0  0  0  0  0  0  0  0
    3.9380   -0.6747    0.0000 C   0  0  0  0  0  0  0  0  0  0  0  0
    5.0854   -1.6409    0.0000 F   0  0  0  0  0  0  0  0  0  0  0  0
    4.9042    0.4727    0.0000 F   0  0  0  0  0  0  0  0  0  0  0  0
    2.9719   -1.8221    0.0000 F   0  0  0  0  0  0  0  0  0  0  0  0
   -5.0039    0.1615    0.0000 C   0  0  0  0  0  0  0  0  0  0  0  0
   -5.2101    1.6472    0.0000 O   0  0  0  0  0  0  0  0  0  0  0  0
   -6.1875   -0.7600    0.0000 O   0  0  0  0  0  0  0  0  0  0  0  0
  2  1  1  6
  2  3  1  0
  3  4  1  0
  4  5  2  0
  5  6  1  0
  6  7  1  0
  7  8  2  0
  8  9  1  0
  9 10  2  0
 10 11  1  0
 11 12  2  0
  8 13  1  0
 13 14  1  0
 13 15  1  0
 13 16  1  0
  2 17  1  0
 17 18  2  0
 17 19  1  0
 12  4  1  0
 12  7  1  0
M  END
>  <rName>  (3528) 
Trp_7CF3

>  <PQ_SYMBOL>  (3528) 
Trp_7CF3

>  <FULL_NAME>  (3528) 
7-(trifluoromethyl)-L-tryptophan

>  <IUPAC_CONDENSED>  (3528) 
Trp(7-CF3)

>  <IUPAC>  (3528) 
(2S)-2-amino-3-(7-(trifluoromethyl)-1H-indol-3-yl)propanoic acid

>  <TYPE>  (3528) 
Backbone

>  <CLASS>  (3528) 
alpha

>  <ANALOG>  (3528) 
Trp

>  <MOL_WT>  (3528) 
272.22599999999994

>  <LOGP>  (3528) 
2.1411000000000002

>  <TPSA>  (3528) 
79.11

>  <POPULARITY>  (3528) 
3.1

>  <PROTECTED>  (3528) 
TRUE

>  <SMILES>  (3528) 
N[C@@H](Cc1(c[nH]c2(c(cccc12)C(F)(F)F)))C(=O)O

>  <INCHIKEY>  (3528) 
XEWNAIZKFBMBSZ-VIFPVBQESA-N

$$$$
Trp_7CN
     RDKit          2D

 17 18  0  0  0  0  0  0  0  0999 V2000
   -2.9917   -1.8956    0.0000 N   0  0  0  0  0  0  0  0  0  0  0  0
   -3.1616   -0.4052    0.0000 C   0  0  0  0  0  0  0  0  0  0  0  0
   -1.9559    0.4871    0.0000 C   0  0  0  0  0  0  0  0  0  0  0  0
   -0.5802   -0.1109    0.0000 C   0  0  0  0  0  0  0  0  0  0  0  0
   -0.2555   -1.5754    0.0000 C   0  0  0  0  0  0  0  0  0  0  0  0
    1.2376   -1.7190    0.0000 N   0  0  0  0  0  0  0  0  0  0  0  0
    1.8357   -0.3434    0.0000 C   0  0  0  0  0  0  0  0  0  0  0  0
    3.2581    0.1326    0.0000 C   0  0  0  0  0  0  0  0  0  0  0  0
    4.3816   -0.8612    0.0000 C   0  0  0  0  0  0  0  0  0  0  0  0
    5.5051   -1.8551    0.0000 N   0  0  0  0  0  0  0  0  0  0  0  0
    3.5571    1.6025    0.0000 C   0  0  0  0  0  0  0  0  0  0  0  0
    2.4336    2.5964    0.0000 C   0  0  0  0  0  0  0  0  0  0  0  0
    1.0111    2.1203    0.0000 C   0  0  0  0  0  0  0  0  0  0  0  0
    0.7122    0.6504    0.0000 C   0  0  0  0  0  0  0  0  0  0  0  0
   -4.5372    0.1928    0.0000 C   0  0  0  0  0  0  0  0  0  0  0  0
   -4.7071    1.6832    0.0000 O   0  0  0  0  0  0  0  0  0  0  0  0
   -5.7429   -0.6995    0.0000 O   0  0  0  0  0  0  0  0  0  0  0  0
  2  1  1  6
  2  3  1  0
  3  4  1  0
  4  5  2  0
  5  6  1  0
  6  7  1  0
  7  8  2  0
  8  9  1  0
  9 10  3  0
  8 11  1  0
 11 12  2  0
 12 13  1  0
 13 14  2  0
  2 15  1  0
 15 16  2  0
 15 17  1  0
 14  4  1  0
 14  7  1  0
M  END
>  <rName>  (3529) 
Trp_7CN

>  <PQ_SYMBOL>  (3529) 
Trp_7CN

>  <FULL_NAME>  (3529) 
7-cyano-L-tryptophan

>  <IUPAC_CONDENSED>  (3529) 
Trp(7-CN)

>  <IUPAC>  (3529) 
(2S)-2-amino-3-(7-(nitrilomethyl)-1H-indol-3-yl)propanoic acid

>  <TYPE>  (3529) 
Backbone

>  <CLASS>  (3529) 
alpha

>  <ANALOG>  (3529) 
Trp

>  <MOL_WT>  (3529) 
229.23899999999998

>  <LOGP>  (3529) 
0.9939800000000003

>  <TPSA>  (3529) 
102.89999999999999

>  <POPULARITY>  (3529) 
4.2

>  <PROTECTED>  (3529) 
TRUE

>  <SMILES>  (3529) 
N[C@@H](Cc1(c[nH]c2(c(C#N)cccc12)))C(=O)O

>  <INCHIKEY>  (3529) 
FJGPUTWOJHMELC-JTQLQIEISA-N

$$$$
Trp_7CO2H
     RDKit          2D

 18 19  0  0  0  0  0  0  0  0999 V2000
   -3.2205   -1.8731    0.0000 N   0  0  0  0  0  0  0  0  0  0  0  0
   -3.4021   -0.3841    0.0000 C   0  0  0  0  0  0  0  0  0  0  0  0
   -2.2034    0.5177    0.0000 C   0  0  0  0  0  0  0  0  0  0  0  0
   -0.8231   -0.0696    0.0000 C   0  0  0  0  0  0  0  0  0  0  0  0
   -0.4869   -1.5314    0.0000 C   0  0  0  0  0  0  0  0  0  0  0  0
    1.0073   -1.6633    0.0000 N   0  0  0  0  0  0  0  0  0  0  0  0
    1.5945   -0.2831    0.0000 C   0  0  0  0  0  0  0  0  0  0  0  0
    3.0132    0.2041    0.0000 C   0  0  0  0  0  0  0  0  0  0  0  0
    3.3006    1.6763    0.0000 C   0  0  0  0  0  0  0  0  0  0  0  0
    2.1693    2.6613    0.0000 C   0  0  0  0  0  0  0  0  0  0  0  0
    0.7507    2.1742    0.0000 C   0  0  0  0  0  0  0  0  0  0  0  0
    0.4632    0.7019    0.0000 C   0  0  0  0  0  0  0  0  0  0  0  0
    4.1444   -0.7809    0.0000 C   0  0  0  0  0  0  0  0  0  0  0  0
    3.8570   -2.2531    0.0000 O   0  0  0  0  0  0  0  0  0  0  0  0
    5.5631   -0.2937    0.0000 O   0  0  0  0  0  0  0  0  0  0  0  0
   -4.7824    0.2031    0.0000 C   0  0  0  0  0  0  0  0  0  0  0  0
   -4.9640    1.6921    0.0000 O   0  0  0  0  0  0  0  0  0  0  0  0
   -5.9811   -0.6986    0.0000 O   0  0  0  0  0  0  0  0  0  0  0  0
  2  1  1  6
  2  3  1  0
  3  4  1  0
  4  5  2  0
  5  6  1  0
  6  7  1  0
  7  8  2  0
  8  9  1  0
  9 10  2  0
 10 11  1  0
 11 12  2  0
  8 13  1  0
 13 14  2  0
 13 15  1  0
  2 16  1  0
 16 17  2  0
 16 18  1  0
 12  4  1  0
 12  7  1  0
M  END
>  <rName>  (3530) 
Trp_7CO2H

>  <PQ_SYMBOL>  (3530) 
Trp_7CO2H

>  <FULL_NAME>  (3530) 
7-carboxy-L-tryptophan

>  <IUPAC_CONDENSED>  (3530) 
Trp(7-CO2H)

>  <IUPAC>  (3530) 
3-((2S)-2-amino-3-hydroxy-3-oxopropyl)-1H-indole-7-carboxylic acid

>  <TYPE>  (3530) 
Backbone

>  <CLASS>  (3530) 
alpha

>  <ANALOG>  (3530) 
Trp

>  <MOL_WT>  (3530) 
248.23799999999997

>  <LOGP>  (3530) 
0.8205000000000002

>  <TPSA>  (3530) 
116.41000000000001

>  <POPULARITY>  (3530) 
2.6

>  <PROTECTED>  (3530) 
TRUE

>  <SMILES>  (3530) 
N[C@@H](Cc1(c[nH]c2(c(cccc12)C(=O)O)))C(=O)O

>  <INCHIKEY>  (3530) 
NISNMIYUAJBMNG-VIFPVBQESA-N

$$$$
Trp_7CO2Me
     RDKit          2D

 19 20  0  0  0  0  0  0  0  0999 V2000
   -3.5008   -1.9418    0.0000 N   0  0  0  0  0  0  0  0  0  0  0  0
   -3.7395   -0.4609    0.0000 C   0  0  0  0  0  0  0  0  0  0  0  0
   -2.5763    0.4863    0.0000 C   0  0  0  0  0  0  0  0  0  0  0  0
   -1.1745   -0.0475    0.0000 C   0  0  0  0  0  0  0  0  0  0  0  0
   -0.7823   -1.4953    0.0000 C   0  0  0  0  0  0  0  0  0  0  0  0
    0.7158   -1.5697    0.0000 N   0  0  0  0  0  0  0  0  0  0  0  0
    1.2496   -0.1679    0.0000 C   0  0  0  0  0  0  0  0  0  0  0  0
    2.6484    0.3735    0.0000 C   0  0  0  0  0  0  0  0  0  0  0  0
    2.8791    1.8557    0.0000 C   0  0  0  0  0  0  0  0  0  0  0  0
    1.7108    2.7965    0.0000 C   0  0  0  0  0  0  0  0  0  0  0  0
    0.3119    2.2551    0.0000 C   0  0  0  0  0  0  0  0  0  0  0  0
    0.0813    0.7729    0.0000 C   0  0  0  0  0  0  0  0  0  0  0  0
    3.8167   -0.5673    0.0000 C   0  0  0  0  0  0  0  0  0  0  0  0
    3.5861   -2.0494    0.0000 O   0  0  0  0  0  0  0  0  0  0  0  0
    5.2156   -0.0259    0.0000 O   0  0  0  0  0  0  0  0  0  0  0  0
    6.3839   -0.9667    0.0000 C   0  0  0  0  0  0  0  0  0  0  0  0
   -5.1413    0.0728    0.0000 C   0  0  0  0  0  0  0  0  0  0  0  0
   -5.3800    1.5537    0.0000 O   0  0  0  0  0  0  0  0  0  0  0  0
   -6.3045   -0.8743    0.0000 O   0  0  0  0  0  0  0  0  0  0  0  0
  2  1  1  6
  2  3  1  0
  3  4  1  0
  4  5  2  0
  5  6  1  0
  6  7  1  0
  7  8  2  0
  8  9  1  0
  9 10  2  0
 10 11  1  0
 11 12  2  0
  8 13  1  0
 13 14  2  0
 13 15  1  0
 15 16  1  0
  2 17  1  0
 17 18  2  0
 17 19  1  0
 12  4  1  0
 12  7  1  0
M  END
>  <rName>  (3531) 
Trp_7CO2Me

>  <PQ_SYMBOL>  (3531) 
Trp_7CO2Me

>  <FULL_NAME>  (3531) 
7-(methylcarboxy)-L-tryptophan

>  <IUPAC_CONDENSED>  (3531) 
Trp(7-CO2Me)

>  <IUPAC>  (3531) 
(2S)-2-amino-3-(7-((methoxy)carbonyl)-1H-indol-3-yl)propanoic acid

>  <TYPE>  (3531) 
Backbone

>  <CLASS>  (3531) 
alpha

>  <ANALOG>  (3531) 
Trp

>  <MOL_WT>  (3531) 
262.26499999999993

>  <LOGP>  (3531) 
0.9089

>  <TPSA>  (3531) 
105.41000000000001

>  <POPULARITY>  (3531) 
2.6

>  <PROTECTED>  (3531) 
TRUE

>  <SMILES>  (3531) 
N[C@@H](Cc1(c[nH]c2(c(cccc12)C(=O)OC)))C(=O)O

>  <INCHIKEY>  (3531) 
WYFAEEQTCCDXRZ-JTQLQIEISA-N

$$$$
Trp_7CONH2
     RDKit          2D

 18 19  0  0  0  0  0  0  0  0999 V2000
   -3.2205   -1.8731    0.0000 N   0  0  0  0  0  0  0  0  0  0  0  0
   -3.4021   -0.3841    0.0000 C   0  0  0  0  0  0  0  0  0  0  0  0
   -2.2034    0.5177    0.0000 C   0  0  0  0  0  0  0  0  0  0  0  0
   -0.8231   -0.0696    0.0000 C   0  0  0  0  0  0  0  0  0  0  0  0
   -0.4869   -1.5314    0.0000 C   0  0  0  0  0  0  0  0  0  0  0  0
    1.0073   -1.6633    0.0000 N   0  0  0  0  0  0  0  0  0  0  0  0
    1.5945   -0.2831    0.0000 C   0  0  0  0  0  0  0  0  0  0  0  0
    3.0132    0.2041    0.0000 C   0  0  0  0  0  0  0  0  0  0  0  0
    3.3006    1.6763    0.0000 C   0  0  0  0  0  0  0  0  0  0  0  0
    2.1693    2.6613    0.0000 C   0  0  0  0  0  0  0  0  0  0  0  0
    0.7507    2.1742    0.0000 C   0  0  0  0  0  0  0  0  0  0  0  0
    0.4632    0.7019    0.0000 C   0  0  0  0  0  0  0  0  0  0  0  0
    4.1444   -0.7809    0.0000 C   0  0  0  0  0  0  0  0  0  0  0  0
    3.8570   -2.2531    0.0000 O   0  0  0  0  0  0  0  0  0  0  0  0
    5.5631   -0.2937    0.0000 N   0  0  0  0  0  0  0  0  0  0  0  0
   -4.7824    0.2031    0.0000 C   0  0  0  0  0  0  0  0  0  0  0  0
   -4.9640    1.6921    0.0000 O   0  0  0  0  0  0  0  0  0  0  0  0
   -5.9811   -0.6986    0.0000 O   0  0  0  0  0  0  0  0  0  0  0  0
  2  1  1  6
  2  3  1  0
  3  4  1  0
  4  5  2  0
  5  6  1  0
  6  7  1  0
  7  8  2  0
  8  9  1  0
  9 10  2  0
 10 11  1  0
 11 12  2  0
  8 13  1  0
 13 14  2  0
 13 15  1  0
  2 16  1  0
 16 17  2  0
 16 18  1  0
 12  4  1  0
 12  7  1  0
M  END
>  <rName>  (3532) 
Trp_7CONH2

>  <PQ_SYMBOL>  (3532) 
Trp_7CONH2

>  <FULL_NAME>  (3532) 
7-carbamoyl-L-tryptophan

>  <IUPAC_CONDENSED>  (3532) 
Trp(7-CONH2)

>  <IUPAC>  (3532) 
(2S)-2-amino-3-(7-carbamoyl-1H-indol-3-yl)propanoic acid

>  <TYPE>  (3532) 
Backbone

>  <CLASS>  (3532) 
alpha

>  <ANALOG>  (3532) 
Trp

>  <MOL_WT>  (3532) 
247.25399999999996

>  <LOGP>  (3532) 
0.2211999999999999

>  <TPSA>  (3532) 
122.2

>  <POPULARITY>  (3532) 
2.9

>  <PROTECTED>  (3532) 
TRUE

>  <SMILES>  (3532) 
N[C@@H](Cc1(c[nH]c2(c(cccc12)C(=O)N)))C(=O)O

>  <INCHIKEY>  (3532) 
YFFIQMHZGCTADZ-VIFPVBQESA-N

$$$$
Trp_7Cl
     RDKit          2D

 16 17  0  0  0  0  0  0  0  0999 V2000
   -2.8116   -1.7751    0.0000 N   0  0  0  0  0  0  0  0  0  0  0  0
   -2.8520   -0.2757    0.0000 C   0  0  0  0  0  0  0  0  0  0  0  0
   -1.5737    0.5091    0.0000 C   0  0  0  0  0  0  0  0  0  0  0  0
   -0.2549   -0.2056    0.0000 C   0  0  0  0  0  0  0  0  0  0  0  0
   -0.0579   -1.6926    0.0000 C   0  0  0  0  0  0  0  0  0  0  0  0
    1.4172   -1.9648    0.0000 N   0  0  0  0  0  0  0  0  0  0  0  0
    2.1319   -0.6460    0.0000 C   0  0  0  0  0  0  0  0  0  0  0  0
    3.5902   -0.2947    0.0000 C   0  0  0  0  0  0  0  0  0  0  0  0
    4.6235   -1.3820    0.0000 Cl  0  0  0  0  0  0  0  0  0  0  0  0
    4.0150    1.1438    0.0000 C   0  0  0  0  0  0  0  0  0  0  0  0
    2.9816    2.2311    0.0000 C   0  0  0  0  0  0  0  0  0  0  0  0
    1.5234    1.8798    0.0000 C   0  0  0  0  0  0  0  0  0  0  0  0
    1.0985    0.4412    0.0000 C   0  0  0  0  0  0  0  0  0  0  0  0
   -4.1708    0.4390    0.0000 C   0  0  0  0  0  0  0  0  0  0  0  0
   -4.2113    1.9385    0.0000 O   0  0  0  0  0  0  0  0  0  0  0  0
   -5.4491   -0.3458    0.0000 O   0  0  0  0  0  0  0  0  0  0  0  0
  2  1  1  6
  2  3  1  0
  3  4  1  0
  4  5  2  0
  5  6  1  0
  6  7  1  0
  7  8  2  0
  8  9  1  0
  8 10  1  0
 10 11  2  0
 11 12  1  0
 12 13  2  0
  2 14  1  0
 14 15  2  0
 14 16  1  0
 13  7  1  0
 13  4  1  0
M  END
>  <rName>  (3533) 
Trp_7Cl

>  <PQ_SYMBOL>  (3533) 
Trp_7Cl

>  <FULL_NAME>  (3533) 
7-Chloro-L-Tryptophan

>  <IUPAC_CONDENSED>  (3533) 
Trp(7-Cl)

>  <IUPAC>  (3533) 
(2S)-2-amino-3-(7-chloro-1H-indol-3-yl)propanoic acid

>  <TYPE>  (3533) 
Backbone

>  <CLASS>  (3533) 
alpha

>  <ANALOG>  (3533) 
Trp

>  <MOL_WT>  (3533) 
238.674

>  <LOGP>  (3533) 
1.7757

>  <TPSA>  (3533) 
79.11

>  <POPULARITY>  (3533) 
14.6

>  <PROTECTED>  (3533) 
TRUE

>  <SMILES>  (3533) 
N[C@@H](Cc2(c[nH]c1(c(Cl)cccc12)))C(=O)O

>  <INCHIKEY>  (3533) 
DMQFGLHRDFQKNR-VIFPVBQESA-N

$$$$
Trp_7Cl_Me
     RDKit          2D

 17 18  0  0  0  0  0  0  0  0999 V2000
   -2.8440   -1.7350    0.0000 N   0  0  0  0  0  0  0  0  0  0  0  0
   -2.9648   -0.2399    0.0000 C   0  0  0  0  0  0  0  0  0  0  0  0
   -1.7304    0.6123    0.0000 C   0  0  0  0  0  0  0  0  0  0  0  0
   -0.3752   -0.0306    0.0000 C   0  0  0  0  0  0  0  0  0  0  0  0
   -0.0988   -1.5049    0.0000 C   0  0  0  0  0  0  0  0  0  0  0  0
    1.3888   -1.6976    0.0000 N   0  0  0  0  0  0  0  0  0  0  0  0
    2.1073   -3.0143    0.0000 C   0  0  0  0  0  0  0  0  0  0  0  0
    2.0317   -0.3424    0.0000 C   0  0  0  0  0  0  0  0  0  0  0  0
    3.4691    0.0867    0.0000 C   0  0  0  0  0  0  0  0  0  0  0  0
    4.5593   -0.9436    0.0000 Cl  0  0  0  0  0  0  0  0  0  0  0  0
    3.8162    1.5459    0.0000 C   0  0  0  0  0  0  0  0  0  0  0  0
    2.7260    2.5762    0.0000 C   0  0  0  0  0  0  0  0  0  0  0  0
    1.2886    2.1472    0.0000 C   0  0  0  0  0  0  0  0  0  0  0  0
    0.9415    0.6879    0.0000 C   0  0  0  0  0  0  0  0  0  0  0  0
   -4.3201    0.4031    0.0000 C   0  0  0  0  0  0  0  0  0  0  0  0
   -4.4409    1.8982    0.0000 O   0  0  0  0  0  0  0  0  0  0  0  0
   -5.5545   -0.4491    0.0000 O   0  0  0  0  0  0  0  0  0  0  0  0
  2  1  1  6
  2  3  1  0
  3  4  1  0
  4  5  2  0
  5  6  1  0
  6  7  1  0
  6  8  1  0
  8  9  2  0
  9 10  1  0
  9 11  1  0
 11 12  2  0
 12 13  1  0
 13 14  2  0
  2 15  1  0
 15 16  2  0
 15 17  1  0
 14  4  1  0
 14  8  1  0
M  END
>  <rName>  (3534) 
Trp_7Cl_Me

>  <PQ_SYMBOL>  (3534) 
Trp_7Cl_Me

>  <FULL_NAME>  (3534) 
7-Chloro-1-methyl-L-tryptophan

>  <IUPAC_CONDENSED>  (3534) 
Trp(7-Cl,Me)

>  <IUPAC>  (3534) 
(2S)-2-amino-3-(7-chloro-1-methylindol-3-yl)propanoic acid

>  <TYPE>  (3534) 
Backbone

>  <CLASS>  (3534) 
alpha

>  <ANALOG>  (3534) 
Trp

>  <MOL_WT>  (3534) 
252.701

>  <LOGP>  (3534) 
1.7861

>  <TPSA>  (3534) 
68.25

>  <POPULARITY>  (3534) 
2.2

>  <PROTECTED>  (3534) 
TRUE

>  <SMILES>  (3534) 
N[C@@H](Cc1(cn(C)c2(c(Cl)cccc12)))C(=O)O

>  <INCHIKEY>  (3534) 
XCIMVAMRLXNZLU-JTQLQIEISA-N

$$$$
Trp_7Et
     RDKit          2D

 17 18  0  0  0  0  0  0  0  0999 V2000
   -3.1040   -1.8301    0.0000 N   0  0  0  0  0  0  0  0  0  0  0  0
   -3.1997   -0.3332    0.0000 C   0  0  0  0  0  0  0  0  0  0  0  0
   -1.9511    0.4982    0.0000 C   0  0  0  0  0  0  0  0  0  0  0  0
   -0.6069   -0.1675    0.0000 C   0  0  0  0  0  0  0  0  0  0  0  0
   -0.3553   -1.6462    0.0000 C   0  0  0  0  0  0  0  0  0  0  0  0
    1.1288   -1.8639    0.0000 N   0  0  0  0  0  0  0  0  0  0  0  0
    1.7945   -0.5197    0.0000 C   0  0  0  0  0  0  0  0  0  0  0  0
    3.2388   -0.1149    0.0000 C   0  0  0  0  0  0  0  0  0  0  0  0
    3.6104    1.3384    0.0000 C   0  0  0  0  0  0  0  0  0  0  0  0
    2.5377    2.3868    0.0000 C   0  0  0  0  0  0  0  0  0  0  0  0
    1.0933    1.9820    0.0000 C   0  0  0  0  0  0  0  0  0  0  0  0
    0.7217    0.5288    0.0000 C   0  0  0  0  0  0  0  0  0  0  0  0
    4.3116   -1.1633    0.0000 C   0  0  0  0  0  0  0  0  0  0  0  0
    5.7559   -0.7585    0.0000 C   0  0  0  0  0  0  0  0  0  0  0  0
   -4.5439    0.3325    0.0000 C   0  0  0  0  0  0  0  0  0  0  0  0
   -4.6396    1.8294    0.0000 O   0  0  0  0  0  0  0  0  0  0  0  0
   -5.7925   -0.4988    0.0000 O   0  0  0  0  0  0  0  0  0  0  0  0
  2  1  1  6
  2  3  1  0
  3  4  1  0
  4  5  2  0
  5  6  1  0
  6  7  1  0
  7  8  2  0
  8  9  1  0
  9 10  2  0
 10 11  1  0
 11 12  2  0
  8 13  1  0
 13 14  1  0
  2 15  1  0
 15 16  2  0
 15 17  1  0
 12  4  1  0
 12  7  1  0
M  END
>  <rName>  (3535) 
Trp_7Et

>  <PQ_SYMBOL>  (3535) 
Trp_7Et

>  <FULL_NAME>  (3535) 
7-ethyl-L-tryptophan

>  <IUPAC_CONDENSED>  (3535) 
Trp(7-Et)

>  <IUPAC>  (3535) 
(2S)-2-amino-3-(7-ethyl-1H-indol-3-yl)propanoic acid

>  <TYPE>  (3535) 
Backbone

>  <CLASS>  (3535) 
alpha

>  <ANALOG>  (3535) 
Trp

>  <MOL_WT>  (3535) 
232.28299999999996

>  <LOGP>  (3535) 
1.6847

>  <TPSA>  (3535) 
79.11

>  <POPULARITY>  (3535) 
6.2

>  <PROTECTED>  (3535) 
TRUE

>  <SMILES>  (3535) 
N[C@@H](Cc1(c[nH]c2(c(cccc12)CC)))C(=O)O

>  <INCHIKEY>  (3535) 
GFVHUCVDPAVUDY-NSHDSACASA-N

$$$$
Trp_7F
     RDKit          2D

 16 17  0  0  0  0  0  0  0  0999 V2000
   -2.8116   -1.7751    0.0000 N   0  0  0  0  0  0  0  0  0  0  0  0
   -2.8520   -0.2757    0.0000 C   0  0  0  0  0  0  0  0  0  0  0  0
   -1.5737    0.5091    0.0000 C   0  0  0  0  0  0  0  0  0  0  0  0
   -0.2549   -0.2056    0.0000 C   0  0  0  0  0  0  0  0  0  0  0  0
   -0.0579   -1.6926    0.0000 C   0  0  0  0  0  0  0  0  0  0  0  0
    1.4172   -1.9648    0.0000 N   0  0  0  0  0  0  0  0  0  0  0  0
    2.1319   -0.6460    0.0000 C   0  0  0  0  0  0  0  0  0  0  0  0
    3.5902   -0.2947    0.0000 C   0  0  0  0  0  0  0  0  0  0  0  0
    4.6235   -1.3820    0.0000 F   0  0  0  0  0  0  0  0  0  0  0  0
    4.0150    1.1438    0.0000 C   0  0  0  0  0  0  0  0  0  0  0  0
    2.9816    2.2311    0.0000 C   0  0  0  0  0  0  0  0  0  0  0  0
    1.5234    1.8798    0.0000 C   0  0  0  0  0  0  0  0  0  0  0  0
    1.0985    0.4412    0.0000 C   0  0  0  0  0  0  0  0  0  0  0  0
   -4.1708    0.4390    0.0000 C   0  0  0  0  0  0  0  0  0  0  0  0
   -4.2113    1.9385    0.0000 O   0  0  0  0  0  0  0  0  0  0  0  0
   -5.4491   -0.3458    0.0000 O   0  0  0  0  0  0  0  0  0  0  0  0
  2  1  1  6
  2  3  1  0
  3  4  1  0
  4  5  2  0
  5  6  1  0
  6  7  1  0
  7  8  2  0
  8  9  1  0
  8 10  1  0
 10 11  2  0
 11 12  1  0
 12 13  2  0
  2 14  1  0
 14 15  2  0
 14 16  1  0
 13  7  1  0
 13  4  1  0
M  END
>  <rName>  (3536) 
Trp_7F

>  <PQ_SYMBOL>  (3536) 
Trp_7F

>  <FULL_NAME>  (3536) 
7-Fluoro-L-Tryptophan

>  <IUPAC_CONDENSED>  (3536) 
Trp(7-F)

>  <IUPAC>  (3536) 
(2S)-2-amino-3-(7-fluoro-1H-indol-3-yl)propanoic acid

>  <TYPE>  (3536) 
Backbone

>  <CLASS>  (3536) 
alpha

>  <ANALOG>  (3536) 
Trp

>  <MOL_WT>  (3536) 
222.219

>  <LOGP>  (3536) 
1.2614000000000003

>  <TPSA>  (3536) 
79.11

>  <POPULARITY>  (3536) 
9.5

>  <PROTECTED>  (3536) 
TRUE

>  <SMILES>  (3536) 
N[C@@H](Cc2(c[nH]c1(c(F)cccc12)))C(=O)O

>  <INCHIKEY>  (3536) 
ADMHYWIKJSPIGJ-VIFPVBQESA-N

$$$$
Trp_7For
     RDKit          2D

 17 18  0  0  0  0  0  0  0  0999 V2000
   -3.1040   -1.8301    0.0000 N   0  0  0  0  0  0  0  0  0  0  0  0
   -3.1997   -0.3332    0.0000 C   0  0  0  0  0  0  0  0  0  0  0  0
   -1.9511    0.4982    0.0000 C   0  0  0  0  0  0  0  0  0  0  0  0
   -0.6069   -0.1675    0.0000 C   0  0  0  0  0  0  0  0  0  0  0  0
   -0.3553   -1.6462    0.0000 C   0  0  0  0  0  0  0  0  0  0  0  0
    1.1288   -1.8639    0.0000 N   0  0  0  0  0  0  0  0  0  0  0  0
    1.7945   -0.5197    0.0000 C   0  0  0  0  0  0  0  0  0  0  0  0
    3.2388   -0.1149    0.0000 C   0  0  0  0  0  0  0  0  0  0  0  0
    4.3116   -1.1633    0.0000 C   0  0  0  0  0  0  0  0  0  0  0  0
    5.7559   -0.7585    0.0000 O   0  0  0  0  0  0  0  0  0  0  0  0
    3.6104    1.3384    0.0000 C   0  0  0  0  0  0  0  0  0  0  0  0
    2.5377    2.3868    0.0000 C   0  0  0  0  0  0  0  0  0  0  0  0
    1.0933    1.9820    0.0000 C   0  0  0  0  0  0  0  0  0  0  0  0
    0.7217    0.5288    0.0000 C   0  0  0  0  0  0  0  0  0  0  0  0
   -4.5439    0.3325    0.0000 C   0  0  0  0  0  0  0  0  0  0  0  0
   -4.6396    1.8294    0.0000 O   0  0  0  0  0  0  0  0  0  0  0  0
   -5.7925   -0.4988    0.0000 O   0  0  0  0  0  0  0  0  0  0  0  0
  2  1  1  6
  2  3  1  0
  3  4  1  0
  4  5  2  0
  5  6  1  0
  6  7  1  0
  7  8  2  0
  8  9  1  0
  9 10  2  0
  8 11  1  0
 11 12  2  0
 12 13  1  0
 13 14  2  0
  2 15  1  0
 15 16  2  0
 15 17  1  0
 14  4  1  0
 14  7  1  0
M  END
>  <rName>  (3537) 
Trp_7For

>  <PQ_SYMBOL>  (3537) 
Trp_7For

>  <FULL_NAME>  (3537) 
7-formyl-L-tryptophan

>  <IUPAC_CONDENSED>  (3537) 
Trp(7-For)

>  <IUPAC>  (3537) 
(2S)-2-amino-3-(7-(formyl)-1H-indol-3-yl)propanoic acid

>  <TYPE>  (3537) 
Backbone

>  <CLASS>  (3537) 
alpha

>  <ANALOG>  (3537) 
Trp

>  <MOL_WT>  (3537) 
232.23899999999998

>  <LOGP>  (3537) 
0.9348000000000001

>  <TPSA>  (3537) 
96.18

>  <POPULARITY>  (3537) 
3.0

>  <PROTECTED>  (3537) 
TRUE

>  <SMILES>  (3537) 
N[C@@H](Cc1(c[nH]c2(c(C=O)cccc12)))C(=O)O

>  <INCHIKEY>  (3537) 
QFBNMGILPZCHDQ-JTQLQIEISA-N

$$$$
Trp_7I
     RDKit          2D

 16 17  0  0  0  0  0  0  0  0999 V2000
   -2.8116   -1.7751    0.0000 N   0  0  0  0  0  0  0  0  0  0  0  0
   -2.8520   -0.2757    0.0000 C   0  0  0  0  0  0  0  0  0  0  0  0
   -1.5737    0.5091    0.0000 C   0  0  0  0  0  0  0  0  0  0  0  0
   -0.2549   -0.2056    0.0000 C   0  0  0  0  0  0  0  0  0  0  0  0
   -0.0579   -1.6926    0.0000 C   0  0  0  0  0  0  0  0  0  0  0  0
    1.4172   -1.9648    0.0000 N   0  0  0  0  0  0  0  0  0  0  0  0
    2.1319   -0.6460    0.0000 C   0  0  0  0  0  0  0  0  0  0  0  0
    3.5902   -0.2947    0.0000 C   0  0  0  0  0  0  0  0  0  0  0  0
    4.6235   -1.3820    0.0000 I   0  0  0  0  0  0  0  0  0  0  0  0
    4.0150    1.1438    0.0000 C   0  0  0  0  0  0  0  0  0  0  0  0
    2.9816    2.2311    0.0000 C   0  0  0  0  0  0  0  0  0  0  0  0
    1.5234    1.8798    0.0000 C   0  0  0  0  0  0  0  0  0  0  0  0
    1.0985    0.4412    0.0000 C   0  0  0  0  0  0  0  0  0  0  0  0
   -4.1708    0.4390    0.0000 C   0  0  0  0  0  0  0  0  0  0  0  0
   -4.2113    1.9385    0.0000 O   0  0  0  0  0  0  0  0  0  0  0  0
   -5.4491   -0.3458    0.0000 O   0  0  0  0  0  0  0  0  0  0  0  0
  2  1  1  6
  2  3  1  0
  3  4  1  0
  4  5  2  0
  5  6  1  0
  6  7  1  0
  7  8  2  0
  8  9  1  0
  8 10  1  0
 10 11  2  0
 11 12  1  0
 12 13  2  0
  2 14  1  0
 14 15  2  0
 14 16  1  0
 13  4  1  0
 13  7  1  0
M  END
>  <rName>  (3538) 
Trp_7I

>  <PQ_SYMBOL>  (3538) 
Trp_7I

>  <FULL_NAME>  (3538) 
7-iodo-L-tryptophan

>  <IUPAC_CONDENSED>  (3538) 
Trp(7-I)

>  <IUPAC>  (3538) 
(2S)-2-amino-3-(7-iodo-1H-indol-3-yl)propanoic acid

>  <TYPE>  (3538) 
Backbone

>  <CLASS>  (3538) 
alpha

>  <ANALOG>  (3538) 
Trp

>  <MOL_WT>  (3538) 
330.12500000000006

>  <LOGP>  (3538) 
1.7269

>  <TPSA>  (3538) 
79.11

>  <POPULARITY>  (3538) 
3.1

>  <PROTECTED>  (3538) 
TRUE

>  <SMILES>  (3538) 
N[C@@H](Cc1(c[nH]c2(c(I)cccc12)))C(=O)O

>  <INCHIKEY>  (3538) 
VOMLUUOHUWEUIZ-VIFPVBQESA-N

$$$$
Trp_7Me
     RDKit          2D

 16 17  0  0  0  0  0  0  0  0999 V2000
   -2.8116   -1.7751    0.0000 N   0  0  0  0  0  0  0  0  0  0  0  0
   -2.8520   -0.2757    0.0000 C   0  0  0  0  0  0  0  0  0  0  0  0
   -1.5737    0.5091    0.0000 C   0  0  0  0  0  0  0  0  0  0  0  0
   -0.2549   -0.2056    0.0000 C   0  0  0  0  0  0  0  0  0  0  0  0
   -0.0579   -1.6926    0.0000 C   0  0  0  0  0  0  0  0  0  0  0  0
    1.4172   -1.9648    0.0000 N   0  0  0  0  0  0  0  0  0  0  0  0
    2.1319   -0.6460    0.0000 C   0  0  0  0  0  0  0  0  0  0  0  0
    3.5902   -0.2947    0.0000 C   0  0  0  0  0  0  0  0  0  0  0  0
    4.6235   -1.3820    0.0000 C   0  0  0  0  0  0  0  0  0  0  0  0
    4.0150    1.1438    0.0000 C   0  0  0  0  0  0  0  0  0  0  0  0
    2.9816    2.2311    0.0000 C   0  0  0  0  0  0  0  0  0  0  0  0
    1.5234    1.8798    0.0000 C   0  0  0  0  0  0  0  0  0  0  0  0
    1.0985    0.4412    0.0000 C   0  0  0  0  0  0  0  0  0  0  0  0
   -4.1708    0.4390    0.0000 C   0  0  0  0  0  0  0  0  0  0  0  0
   -4.2113    1.9385    0.0000 O   0  0  0  0  0  0  0  0  0  0  0  0
   -5.4491   -0.3458    0.0000 O   0  0  0  0  0  0  0  0  0  0  0  0
  2  1  1  6
  2  3  1  0
  3  4  1  0
  4  5  2  0
  5  6  1  0
  6  7  1  0
  7  8  2  0
  8  9  1  0
  8 10  1  0
 10 11  2  0
 11 12  1  0
 12 13  2  0
  2 14  1  0
 14 15  2  0
 14 16  1  0
 13  7  1  0
 13  4  1  0
M  END
>  <rName>  (3539) 
Trp_7Me

>  <PQ_SYMBOL>  (3539) 
Trp_7Me

>  <FULL_NAME>  (3539) 
7-methyl-L-Tryptophan

>  <IUPAC_CONDENSED>  (3539) 
Trp(7-Me)

>  <IUPAC>  (3539) 
(2S)-2-amino-3-(7-methyl-1H-indol-3-yl)propanoic acid

>  <TYPE>  (3539) 
Backbone

>  <CLASS>  (3539) 
alpha

>  <ANALOG>  (3539) 
Trp

>  <MOL_WT>  (3539) 
218.256

>  <LOGP>  (3539) 
1.4307200000000002

>  <TPSA>  (3539) 
79.11

>  <POPULARITY>  (3539) 
8.8

>  <PROTECTED>  (3539) 
TRUE

>  <SMILES>  (3539) 
N[C@@H](Cc2(c[nH]c1(c(C)cccc12)))C(=O)O

>  <INCHIKEY>  (3539) 
KBOZNJNHBBROHM-JTQLQIEISA-N

$$$$
Trp_7NO2
     RDKit          2D

 18 19  0  0  0  0  0  0  0  0999 V2000
   -3.2205   -1.8731    0.0000 N   0  0  0  0  0  0  0  0  0  0  0  0
   -3.4021   -0.3841    0.0000 C   0  0  0  0  0  0  0  0  0  0  0  0
   -2.2034    0.5177    0.0000 C   0  0  0  0  0  0  0  0  0  0  0  0
   -0.8231   -0.0696    0.0000 C   0  0  0  0  0  0  0  0  0  0  0  0
   -0.4869   -1.5314    0.0000 C   0  0  0  0  0  0  0  0  0  0  0  0
    1.0073   -1.6633    0.0000 N   0  0  0  0  0  0  0  0  0  0  0  0
    1.5945   -0.2831    0.0000 C   0  0  0  0  0  0  0  0  0  0  0  0
    3.0132    0.2041    0.0000 C   0  0  0  0  0  0  0  0  0  0  0  0
    3.3006    1.6763    0.0000 C   0  0  0  0  0  0  0  0  0  0  0  0
    2.1693    2.6613    0.0000 C   0  0  0  0  0  0  0  0  0  0  0  0
    0.7507    2.1742    0.0000 C   0  0  0  0  0  0  0  0  0  0  0  0
    0.4632    0.7019    0.0000 C   0  0  0  0  0  0  0  0  0  0  0  0
    4.1444   -0.7809    0.0000 N   0  0  0  0  0  0  0  0  0  0  0  0
    3.8570   -2.2531    0.0000 O   0  0  0  0  0  0  0  0  0  0  0  0
    5.5631   -0.2937    0.0000 O   0  0  0  0  0  0  0  0  0  0  0  0
   -4.7824    0.2031    0.0000 C   0  0  0  0  0  0  0  0  0  0  0  0
   -4.9640    1.6921    0.0000 O   0  0  0  0  0  0  0  0  0  0  0  0
   -5.9811   -0.6986    0.0000 O   0  0  0  0  0  0  0  0  0  0  0  0
  2  1  1  6
  2  3  1  0
  3  4  1  0
  4  5  2  0
  5  6  1  0
  6  7  1  0
  7  8  2  0
  8  9  1  0
  9 10  2  0
 10 11  1  0
 11 12  2  0
  8 13  1  0
 13 14  2  0
 13 15  1  0
  2 16  1  0
 16 17  2  0
 16 18  1  0
 12  4  1  0
 12  7  1  0
M  CHG  2  13   1  15  -1
M  END
>  <rName>  (3540) 
Trp_7NO2

>  <PQ_SYMBOL>  (3540) 
Trp_7NO2

>  <FULL_NAME>  (3540) 
7-nitro-L-tryptophan

>  <IUPAC_CONDENSED>  (3540) 
Trp(7-NO2)

>  <IUPAC>  (3540) 
(2S)-2-amino-3-(7-nitro-1H-indol-3-yl)propanoic acid

>  <TYPE>  (3540) 
Backbone

>  <CLASS>  (3540) 
alpha

>  <ANALOG>  (3540) 
Trp

>  <MOL_WT>  (3540) 
249.22599999999997

>  <LOGP>  (3540) 
1.0305

>  <TPSA>  (3540) 
122.25000000000001

>  <POPULARITY>  (3540) 
3.3

>  <PROTECTED>  (3540) 
TRUE

>  <SMILES>  (3540) 
N[C@@H](Cc1(c[nH]c2(c(cccc12)[N+](=O)[O-])))C(=O)O

>  <INCHIKEY>  (3540) 
BAAGPHWSKFTJTK-QMMMGPOBSA-N

$$$$
Trp_7OBn
     RDKit          2D

 23 25  0  0  0  0  0  0  0  0999 V2000
    4.7786    2.2411    0.0000 N   0  0  0  0  0  0  0  0  0  0  0  0
    5.2151    0.8060    0.0000 C   0  0  0  0  0  0  0  0  0  0  0  0
    4.1905   -0.2895    0.0000 C   0  0  0  0  0  0  0  0  0  0  0  0
    2.7294    0.0500    0.0000 C   0  0  0  0  0  0  0  0  0  0  0  0
    2.1453    1.4316    0.0000 C   0  0  0  0  0  0  0  0  0  0  0  0
    0.6508    1.3030    0.0000 N   0  0  0  0  0  0  0  0  0  0  0  0
    0.3113   -0.1580    0.0000 C   0  0  0  0  0  0  0  0  0  0  0  0
   -1.0017   -0.8833    0.0000 C   0  0  0  0  0  0  0  0  0  0  0  0
   -2.2863   -0.1089    0.0000 O   0  0  0  0  0  0  0  0  0  0  0  0
   -3.5993   -0.8343    0.0000 C   0  0  0  0  0  0  0  0  0  0  0  0
   -4.8839   -0.0598    0.0000 C   0  0  0  0  0  0  0  0  0  0  0  0
   -4.8556    1.4399    0.0000 C   0  0  0  0  0  0  0  0  0  0  0  0
   -6.1402    2.2143    0.0000 C   0  0  0  0  0  0  0  0  0  0  0  0
   -7.4532    1.4890    0.0000 C   0  0  0  0  0  0  0  0  0  0  0  0
   -7.4815   -0.0108    0.0000 C   0  0  0  0  0  0  0  0  0  0  0  0
   -6.1969   -0.7852    0.0000 C   0  0  0  0  0  0  0  0  0  0  0  0
   -1.0300   -2.3831    0.0000 C   0  0  0  0  0  0  0  0  0  0  0  0
    0.2546   -3.1575    0.0000 C   0  0  0  0  0  0  0  0  0  0  0  0
    1.5676   -2.4322    0.0000 C   0  0  0  0  0  0  0  0  0  0  0  0
    1.5959   -0.9324    0.0000 C   0  0  0  0  0  0  0  0  0  0  0  0
    6.6761    0.4665    0.0000 C   0  0  0  0  0  0  0  0  0  0  0  0
    7.1126   -0.9686    0.0000 O   0  0  0  0  0  0  0  0  0  0  0  0
    7.7007    1.5621    0.0000 O   0  0  0  0  0  0  0  0  0  0  0  0
  2  1  1  6
  2  3  1  0
  3  4  1  0
  4  5  2  0
  5  6  1  0
  6  7  1  0
  7  8  2  0
  8  9  1  0
  9 10  1  0
 10 11  1  0
 11 12  2  0
 12 13  1  0
 13 14  2  0
 14 15  1  0
 15 16  2  0
  8 17  1  0
 17 18  2  0
 18 19  1  0
 19 20  2  0
  2 21  1  0
 21 22  2  0
 21 23  1  0
 16 11  1  0
 20  4  1  0
 20  7  1  0
M  END
>  <rName>  (3541) 
Trp_7OBn

>  <PQ_SYMBOL>  (3541) 
Trp_7OBn

>  <FULL_NAME>  (3541) 
7-benzyloxy-L-tryptophan

>  <IUPAC_CONDENSED>  (3541) 
Trp(7-OBn)

>  <IUPAC>  (3541) 
(2S)-2-amino-3-(7-benzyloxy-1H-indol-3-yl)propanoic acid

>  <TYPE>  (3541) 
Backbone

>  <CLASS>  (3541) 
alpha

>  <ANALOG>  (3541) 
Trp

>  <MOL_WT>  (3541) 
310.35300000000007

>  <LOGP>  (3541) 
2.7013000000000007

>  <TPSA>  (3541) 
88.34000000000002

>  <POPULARITY>  (3541) 
2.6

>  <PROTECTED>  (3541) 
TRUE

>  <SMILES>  (3541) 
N[C@@H](Cc2(c[nH]c3(c(OCc1(ccccc1))cccc23)))C(=O)O

>  <INCHIKEY>  (3541) 
MWHVBFNZTDNYRK-HNNXBMFYSA-N

$$$$
Trp_7OCF3
     RDKit          2D

 20 21  0  0  0  0  0  0  0  0999 V2000
   -3.9637   -1.9035    0.0000 N   0  0  0  0  0  0  0  0  0  0  0  0
   -4.1217   -0.4118    0.0000 C   0  0  0  0  0  0  0  0  0  0  0  0
   -2.9089    0.4708    0.0000 C   0  0  0  0  0  0  0  0  0  0  0  0
   -1.5381   -0.1382    0.0000 C   0  0  0  0  0  0  0  0  0  0  0  0
   -1.2250   -1.6052    0.0000 C   0  0  0  0  0  0  0  0  0  0  0  0
    0.2669   -1.7608    0.0000 N   0  0  0  0  0  0  0  0  0  0  0  0
    0.8759   -0.3899    0.0000 C   0  0  0  0  0  0  0  0  0  0  0  0
    2.3021    0.0747    0.0000 C   0  0  0  0  0  0  0  0  0  0  0  0
    3.4176   -0.9281    0.0000 O   0  0  0  0  0  0  0  0  0  0  0  0
    4.8438   -0.4634    0.0000 C   0  0  0  0  0  0  0  0  0  0  0  0
    6.2701    0.0012    0.0000 F   0  0  0  0  0  0  0  0  0  0  0  0
    5.3085   -1.8896    0.0000 F   0  0  0  0  0  0  0  0  0  0  0  0
    4.3792    0.9628    0.0000 F   0  0  0  0  0  0  0  0  0  0  0  0
    2.6128    1.5422    0.0000 C   0  0  0  0  0  0  0  0  0  0  0  0
    1.4973    2.5450    0.0000 C   0  0  0  0  0  0  0  0  0  0  0  0
    0.0711    2.0803    0.0000 C   0  0  0  0  0  0  0  0  0  0  0  0
   -0.2396    0.6129    0.0000 C   0  0  0  0  0  0  0  0  0  0  0  0
   -5.4925    0.1972    0.0000 C   0  0  0  0  0  0  0  0  0  0  0  0
   -5.6505    1.6888    0.0000 O   0  0  0  0  0  0  0  0  0  0  0  0
   -6.7053   -0.6855    0.0000 O   0  0  0  0  0  0  0  0  0  0  0  0
  2  1  1  6
  2  3  1  0
  3  4  1  0
  4  5  2  0
  5  6  1  0
  6  7  1  0
  7  8  2  0
  8  9  1  0
  9 10  1  0
 10 11  1  0
 10 12  1  0
 10 13  1  0
  8 14  1  0
 14 15  2  0
 15 16  1  0
 16 17  2  0
  2 18  1  0
 18 19  2  0
 18 20  1  0
 17  4  1  0
 17  7  1  0
M  END
>  <rName>  (3542) 
Trp_7OCF3

>  <PQ_SYMBOL>  (3542) 
Trp_7OCF3

>  <FULL_NAME>  (3542) 
7-(trifluoromethoxy)-L-tryptophan

>  <IUPAC_CONDENSED>  (3542) 
Trp(7-OCF3)

>  <IUPAC>  (3542) 
(2S)-2-amino-3-(7-((trifluoromethyl)oxy)-1H-indol-3-yl)propanoic acid

>  <TYPE>  (3542) 
Backbone

>  <CLASS>  (3542) 
alpha

>  <ANALOG>  (3542) 
Trp

>  <MOL_WT>  (3542) 
288.22499999999997

>  <LOGP>  (3542) 
2.0209

>  <TPSA>  (3542) 
88.34000000000002

>  <POPULARITY>  (3542) 
2.6

>  <PROTECTED>  (3542) 
TRUE

>  <SMILES>  (3542) 
N[C@@H](Cc1(c[nH]c2(c(OC(F)(F)F)cccc12)))C(=O)O

>  <INCHIKEY>  (3542) 
NDVXOLDUGZQBRX-QMMMGPOBSA-N

$$$$
Trp_7OH
     RDKit          2D

 16 17  0  0  0  0  0  0  0  0999 V2000
   -2.8116   -1.7751    0.0000 N   0  0  0  0  0  0  0  0  0  0  0  0
   -2.8520   -0.2757    0.0000 C   0  0  0  0  0  0  0  0  0  0  0  0
   -1.5737    0.5091    0.0000 C   0  0  0  0  0  0  0  0  0  0  0  0
   -0.2549   -0.2056    0.0000 C   0  0  0  0  0  0  0  0  0  0  0  0
   -0.0579   -1.6926    0.0000 C   0  0  0  0  0  0  0  0  0  0  0  0
    1.4172   -1.9648    0.0000 N   0  0  0  0  0  0  0  0  0  0  0  0
    2.1319   -0.6460    0.0000 C   0  0  0  0  0  0  0  0  0  0  0  0
    3.5902   -0.2947    0.0000 C   0  0  0  0  0  0  0  0  0  0  0  0
    4.6235   -1.3820    0.0000 O   0  0  0  0  0  0  0  0  0  0  0  0
    4.0150    1.1438    0.0000 C   0  0  0  0  0  0  0  0  0  0  0  0
    2.9816    2.2311    0.0000 C   0  0  0  0  0  0  0  0  0  0  0  0
    1.5234    1.8798    0.0000 C   0  0  0  0  0  0  0  0  0  0  0  0
    1.0985    0.4412    0.0000 C   0  0  0  0  0  0  0  0  0  0  0  0
   -4.1708    0.4390    0.0000 C   0  0  0  0  0  0  0  0  0  0  0  0
   -4.2113    1.9385    0.0000 O   0  0  0  0  0  0  0  0  0  0  0  0
   -5.4491   -0.3458    0.0000 O   0  0  0  0  0  0  0  0  0  0  0  0
  2  1  1  6
  2  3  1  0
  3  4  1  0
  4  5  2  0
  5  6  1  0
  6  7  1  0
  7  8  2  0
  8  9  1  0
  8 10  1  0
 10 11  2  0
 11 12  1  0
 12 13  2  0
  2 14  1  0
 14 15  2  0
 14 16  1  0
 13  7  1  0
 13  4  1  0
M  END
>  <rName>  (3543) 
Trp_7OH

>  <PQ_SYMBOL>  (3543) 
Trp_7OH

>  <FULL_NAME>  (3543) 
7-hydroxy-L-Tryptophan

>  <IUPAC_CONDENSED>  (3543) 
Trp(7-OH)

>  <IUPAC>  (3543) 
(2S)-2-amino-3-(7-hydroxy-1H-indol-3-yl)propanoic acid

>  <TYPE>  (3543) 
Backbone

>  <CLASS>  (3543) 
alpha

>  <ANALOG>  (3543) 
Trp

>  <MOL_WT>  (3543) 
220.22799999999998

>  <LOGP>  (3543) 
0.8279000000000003

>  <TPSA>  (3543) 
99.34000000000002

>  <POPULARITY>  (3543) 
19.0

>  <PROTECTED>  (3543) 
TRUE

>  <SMILES>  (3543) 
N[C@@H](Cc2(c[nH]c1(c(O)cccc12)))C(=O)O

>  <INCHIKEY>  (3543) 
VQSRKJZICBNQJG-QMMMGPOBSA-N

$$$$
Trp_7OMe
     RDKit          2D

 17 18  0  0  0  0  0  0  0  0999 V2000
   -3.1040   -1.8301    0.0000 N   0  0  0  0  0  0  0  0  0  0  0  0
   -3.1997   -0.3332    0.0000 C   0  0  0  0  0  0  0  0  0  0  0  0
   -1.9511    0.4982    0.0000 C   0  0  0  0  0  0  0  0  0  0  0  0
   -0.6069   -0.1675    0.0000 C   0  0  0  0  0  0  0  0  0  0  0  0
   -0.3553   -1.6462    0.0000 C   0  0  0  0  0  0  0  0  0  0  0  0
    1.1288   -1.8639    0.0000 N   0  0  0  0  0  0  0  0  0  0  0  0
    1.7945   -0.5197    0.0000 C   0  0  0  0  0  0  0  0  0  0  0  0
    3.2388   -0.1149    0.0000 C   0  0  0  0  0  0  0  0  0  0  0  0
    4.3116   -1.1633    0.0000 O   0  0  0  0  0  0  0  0  0  0  0  0
    5.7559   -0.7585    0.0000 C   0  0  0  0  0  0  0  0  0  0  0  0
    3.6104    1.3384    0.0000 C   0  0  0  0  0  0  0  0  0  0  0  0
    2.5377    2.3868    0.0000 C   0  0  0  0  0  0  0  0  0  0  0  0
    1.0933    1.9820    0.0000 C   0  0  0  0  0  0  0  0  0  0  0  0
    0.7217    0.5288    0.0000 C   0  0  0  0  0  0  0  0  0  0  0  0
   -4.5439    0.3325    0.0000 C   0  0  0  0  0  0  0  0  0  0  0  0
   -4.6396    1.8294    0.0000 O   0  0  0  0  0  0  0  0  0  0  0  0
   -5.7925   -0.4988    0.0000 O   0  0  0  0  0  0  0  0  0  0  0  0
  2  1  1  6
  2  3  1  0
  3  4  1  0
  4  5  2  0
  5  6  1  0
  6  7  1  0
  7  8  2  0
  8  9  1  0
  9 10  1  0
  8 11  1  0
 11 12  2  0
 12 13  1  0
 13 14  2  0
  2 15  1  0
 15 16  2  0
 15 17  1  0
 14  4  1  0
 14  7  1  0
M  END
>  <rName>  (3544) 
Trp_7OMe

>  <PQ_SYMBOL>  (3544) 
Trp_7OMe

>  <FULL_NAME>  (3544) 
7-methoxy-L-tryptophan

>  <IUPAC_CONDENSED>  (3544) 
Trp(7-OMe)

>  <IUPAC>  (3544) 
(2S)-2-amino-3-(7-methoxy-1H-indol-3-yl)propanoic acid

>  <TYPE>  (3544) 
Backbone

>  <CLASS>  (3544) 
alpha

>  <ANALOG>  (3544) 
Trp

>  <MOL_WT>  (3544) 
234.255

>  <LOGP>  (3544) 
1.1309

>  <TPSA>  (3544) 
88.34000000000002

>  <POPULARITY>  (3544) 
5.9

>  <PROTECTED>  (3544) 
TRUE

>  <SMILES>  (3544) 
N[C@@H](Cc1(c[nH]c2(c(OC)cccc12)))C(=O)O

>  <INCHIKEY>  (3544) 
MUZROTSTMQSBFK-VIFPVBQESA-N

$$$$
Trp_7OMe_Aza
     RDKit          2D

 17 18  0  0  0  0  0  0  0  0999 V2000
   -3.1040   -1.8301    0.0000 N   0  0  0  0  0  0  0  0  0  0  0  0
   -3.1997   -0.3332    0.0000 C   0  0  0  0  0  0  0  0  0  0  0  0
   -1.9511    0.4982    0.0000 C   0  0  0  0  0  0  0  0  0  0  0  0
   -0.6069   -0.1675    0.0000 C   0  0  0  0  0  0  0  0  0  0  0  0
   -0.3553   -1.6462    0.0000 N   0  0  0  0  0  0  0  0  0  0  0  0
    1.1288   -1.8639    0.0000 N   0  0  0  0  0  0  0  0  0  0  0  0
    1.7945   -0.5197    0.0000 C   0  0  0  0  0  0  0  0  0  0  0  0
    3.2388   -0.1149    0.0000 C   0  0  0  0  0  0  0  0  0  0  0  0
    4.3116   -1.1633    0.0000 O   0  0  0  0  0  0  0  0  0  0  0  0
    5.7559   -0.7585    0.0000 C   0  0  0  0  0  0  0  0  0  0  0  0
    3.6104    1.3384    0.0000 C   0  0  0  0  0  0  0  0  0  0  0  0
    2.5377    2.3868    0.0000 C   0  0  0  0  0  0  0  0  0  0  0  0
    1.0933    1.9820    0.0000 C   0  0  0  0  0  0  0  0  0  0  0  0
    0.7217    0.5288    0.0000 C   0  0  0  0  0  0  0  0  0  0  0  0
   -4.5439    0.3325    0.0000 C   0  0  0  0  0  0  0  0  0  0  0  0
   -4.6396    1.8294    0.0000 O   0  0  0  0  0  0  0  0  0  0  0  0
   -5.7925   -0.4988    0.0000 O   0  0  0  0  0  0  0  0  0  0  0  0
  2  1  1  6
  2  3  1  0
  3  4  1  0
  4  5  2  0
  5  6  1  0
  6  7  1  0
  7  8  2  0
  8  9  1  0
  9 10  1  0
  8 11  1  0
 11 12  2  0
 12 13  1  0
 13 14  2  0
  2 15  1  0
 15 16  2  0
 15 17  1  0
 14  7  1  0
 14  4  1  0
M  END
>  <rName>  (3545) 
Trp_7OMe_Aza

>  <PQ_SYMBOL>  (3545) 
Trp_7OMe_Aza

>  <FULL_NAME>  (3545) 
(S)-2-amino-3-(7-methoxy-1H-indazol-3-yl)propanoic acid

>  <IUPAC_CONDENSED>  (3545) 
Trp(7-OMe,Aza)

>  <IUPAC>  (3545) 
(2S)-2-amino-3-(7-methoxy-1H-indazol-3-yl)propanoic acid

>  <TYPE>  (3545) 
Backbone

>  <CLASS>  (3545) 
alpha

>  <ANALOG>  (3545) 
Tyr

>  <MOL_WT>  (3545) 
235.243

>  <LOGP>  (3545) 
0.5258999999999998

>  <TPSA>  (3545) 
101.23

>  <POPULARITY>  (3545) 
2.2

>  <PROTECTED>  (3545) 
TRUE

>  <SMILES>  (3545) 
N[C@@H](Cc2(n[nH]c1(c(OC)cccc12)))C(=O)O

>  <INCHIKEY>  (3545) 
LTVHIQCFBUQJDH-ZETCQYMHSA-N

$$$$
Trp_7Ph
     RDKit          2D

 21 23  0  0  0  0  0  0  0  0999 V2000
    3.8252    2.0885    0.0000 N   0  0  0  0  0  0  0  0  0  0  0  0
    4.2153    0.6402    0.0000 C   0  0  0  0  0  0  0  0  0  0  0  0
    3.1561   -0.4219    0.0000 C   0  0  0  0  0  0  0  0  0  0  0  0
    1.7067   -0.0357    0.0000 C   0  0  0  0  0  0  0  0  0  0  0  0
    1.1673    1.3640    0.0000 C   0  0  0  0  0  0  0  0  0  0  0  0
   -0.3306    1.2834    0.0000 N   0  0  0  0  0  0  0  0  0  0  0  0
   -0.7168   -0.1660    0.0000 C   0  0  0  0  0  0  0  0  0  0  0  0
   -2.0524   -0.8488    0.0000 C   0  0  0  0  0  0  0  0  0  0  0  0
   -2.1289   -2.3468    0.0000 C   0  0  0  0  0  0  0  0  0  0  0  0
   -0.8698   -3.1621    0.0000 C   0  0  0  0  0  0  0  0  0  0  0  0
    0.4658   -2.4793    0.0000 C   0  0  0  0  0  0  0  0  0  0  0  0
    0.5423   -0.9812    0.0000 C   0  0  0  0  0  0  0  0  0  0  0  0
   -3.3115   -0.0335    0.0000 C   0  0  0  0  0  0  0  0  0  0  0  0
   -3.2351    1.4645    0.0000 C   0  0  0  0  0  0  0  0  0  0  0  0
   -4.4942    2.2798    0.0000 C   0  0  0  0  0  0  0  0  0  0  0  0
   -5.8298    1.5970    0.0000 C   0  0  0  0  0  0  0  0  0  0  0  0
   -5.9062    0.0989    0.0000 C   0  0  0  0  0  0  0  0  0  0  0  0
   -4.6471   -0.7163    0.0000 C   0  0  0  0  0  0  0  0  0  0  0  0
    5.6648    0.2539    0.0000 C   0  0  0  0  0  0  0  0  0  0  0  0
    6.0550   -1.1945    0.0000 O   0  0  0  0  0  0  0  0  0  0  0  0
    6.7240    1.3160    0.0000 O   0  0  0  0  0  0  0  0  0  0  0  0
  2  1  1  6
  2  3  1  0
  3  4  1  0
  4  5  2  0
  5  6  1  0
  6  7  1  0
  7  8  2  0
  8  9  1  0
  9 10  2  0
 10 11  1  0
 11 12  2  0
  8 13  1  0
 13 14  2  0
 14 15  1  0
 15 16  2  0
 16 17  1  0
 17 18  2  0
  2 19  1  0
 19 20  2  0
 19 21  1  0
 12  4  1  0
 12  7  1  0
 18 13  1  0
M  END
>  <rName>  (3546) 
Trp_7Ph

>  <PQ_SYMBOL>  (3546) 
Trp_7Ph

>  <FULL_NAME>  (3546) 
7-phenyl-L-tryptophan

>  <IUPAC_CONDENSED>  (3546) 
Trp(7-Ph)

>  <IUPAC>  (3546) 
(2S)-2-amino-3-(7-phenyl-1H-indol-3-yl)propanoic acid

>  <TYPE>  (3546) 
Backbone

>  <CLASS>  (3546) 
alpha

>  <ANALOG>  (3546) 
Trp

>  <MOL_WT>  (3546) 
280.327

>  <LOGP>  (3546) 
2.789300000000001

>  <TPSA>  (3546) 
79.11

>  <POPULARITY>  (3546) 
5.9

>  <PROTECTED>  (3546) 
TRUE

>  <SMILES>  (3546) 
N[C@@H](Cc1(c[nH]c2(c(cccc12)c3(ccccc3))))C(=O)O

>  <INCHIKEY>  (3546) 
SFMXERXHLMKNPQ-HNNXBMFYSA-N

$$$$
Trp_7ethynyl
     RDKit          2D

 17 18  0  0  0  0  0  0  0  0999 V2000
   -2.9917   -1.8956    0.0000 N   0  0  0  0  0  0  0  0  0  0  0  0
   -3.1616   -0.4052    0.0000 C   0  0  0  0  0  0  0  0  0  0  0  0
   -1.9559    0.4871    0.0000 C   0  0  0  0  0  0  0  0  0  0  0  0
   -0.5802   -0.1109    0.0000 C   0  0  0  0  0  0  0  0  0  0  0  0
   -0.2555   -1.5754    0.0000 C   0  0  0  0  0  0  0  0  0  0  0  0
    1.2376   -1.7190    0.0000 N   0  0  0  0  0  0  0  0  0  0  0  0
    1.8357   -0.3434    0.0000 C   0  0  0  0  0  0  0  0  0  0  0  0
    3.2581    0.1326    0.0000 C   0  0  0  0  0  0  0  0  0  0  0  0
    4.3816   -0.8612    0.0000 C   0  0  0  0  0  0  0  0  0  0  0  0
    5.5051   -1.8551    0.0000 C   0  0  0  0  0  0  0  0  0  0  0  0
    3.5571    1.6025    0.0000 C   0  0  0  0  0  0  0  0  0  0  0  0
    2.4336    2.5964    0.0000 C   0  0  0  0  0  0  0  0  0  0  0  0
    1.0111    2.1203    0.0000 C   0  0  0  0  0  0  0  0  0  0  0  0
    0.7122    0.6504    0.0000 C   0  0  0  0  0  0  0  0  0  0  0  0
   -4.5372    0.1928    0.0000 C   0  0  0  0  0  0  0  0  0  0  0  0
   -4.7071    1.6832    0.0000 O   0  0  0  0  0  0  0  0  0  0  0  0
   -5.7429   -0.6995    0.0000 O   0  0  0  0  0  0  0  0  0  0  0  0
  2  1  1  6
  2  3  1  0
  3  4  1  0
  4  5  2  0
  5  6  1  0
  6  7  1  0
  7  8  2  0
  8  9  1  0
  9 10  3  0
  8 11  1  0
 11 12  2  0
 12 13  1  0
 13 14  2  0
  2 15  1  0
 15 16  2  0
 15 17  1  0
 14  4  1  0
 14  7  1  0
M  END
>  <rName>  (3547) 
Trp_7ethynyl

>  <PQ_SYMBOL>  (3547) 
Trp_7ethynyl

>  <FULL_NAME>  (3547) 
7-ethynyl-L-tryptophan

>  <IUPAC_CONDENSED>  (3547) 
Trp(7-ethynyl)

>  <IUPAC>  (3547) 
(2S)-2-amino-3-(7-(ethynyl)-1H-indol-3-yl)propanoic acid

>  <TYPE>  (3547) 
Backbone

>  <CLASS>  (3547) 
alpha

>  <ANALOG>  (3547) 
Trp

>  <MOL_WT>  (3547) 
228.251

>  <LOGP>  (3547) 
1.1036000000000004

>  <TPSA>  (3547) 
79.11

>  <POPULARITY>  (3547) 
3.0

>  <PROTECTED>  (3547) 
TRUE

>  <SMILES>  (3547) 
N[C@@H](Cc1(c[nH]c2(c(C#C)cccc12)))C(=O)O

>  <INCHIKEY>  (3547) 
CCTSBGGERAGBGJ-NSHDSACASA-N

$$$$
Trp_EtO2H
     RDKit          2D

 19 20  0  0  0  0  0  0  0  0999 V2000
   -2.4259   -1.6973    0.0000 N   0  0  0  0  0  0  0  0  0  0  0  0
   -2.9155   -0.2794    0.0000 C   0  0  0  0  0  0  0  0  0  0  0  0
   -1.9324    0.8535    0.0000 C   0  0  0  0  0  0  0  0  0  0  0  0
   -0.4598    0.5686    0.0000 C   0  0  0  0  0  0  0  0  0  0  0  0
    0.1754   -0.7903    0.0000 C   0  0  0  0  0  0  0  0  0  0  0  0
    1.6640   -0.6061    0.0000 N   0  0  0  0  0  0  0  0  0  0  0  0
    2.6880   -1.7022    0.0000 C   0  0  0  0  0  0  0  0  0  0  0  0
    2.2507   -3.1371    0.0000 C   0  0  0  0  0  0  0  0  0  0  0  0
    0.7895   -3.4758    0.0000 O   0  0  0  0  0  0  0  0  0  0  0  0
    3.2747   -4.2332    0.0000 O   0  0  0  0  0  0  0  0  0  0  0  0
    1.9489    0.8666    0.0000 C   0  0  0  0  0  0  0  0  0  0  0  0
    3.2340    1.6403    0.0000 C   0  0  0  0  0  0  0  0  0  0  0  0
    3.2065    3.1400    0.0000 C   0  0  0  0  0  0  0  0  0  0  0  0
    1.8939    3.8661    0.0000 C   0  0  0  0  0  0  0  0  0  0  0  0
    0.6088    3.0924    0.0000 C   0  0  0  0  0  0  0  0  0  0  0  0
    0.6364    1.5926    0.0000 C   0  0  0  0  0  0  0  0  0  0  0  0
   -4.3882    0.0055    0.0000 C   0  0  0  0  0  0  0  0  0  0  0  0
   -4.8778    1.4233    0.0000 O   0  0  0  0  0  0  0  0  0  0  0  0
   -5.3713   -1.1275    0.0000 O   0  0  0  0  0  0  0  0  0  0  0  0
  2  1  1  6
  2  3  1  0
  3  4  1  0
  4  5  2  0
  5  6  1  0
  6  7  1  0
  7  8  1  0
  8  9  2  0
  8 10  1  0
  6 11  1  0
 11 12  2  0
 12 13  1  0
 13 14  2  0
 14 15  1  0
 15 16  2  0
  2 17  1  0
 17 18  2  0
 17 19  1  0
 16  4  1  0
 16 11  1  0
M  END
>  <rName>  (3548) 
Trp_EtO2H

>  <PQ_SYMBOL>  (3548) 
Trp_EtO2H

>  <FULL_NAME>  (3548) 
(2S)-2-amino-3-[1-(carboxymethyl)indol-3-yl]propanoic acid

>  <IUPAC_CONDENSED>  (3548) 
Trp(EtO2H)

>  <IUPAC>  (3548) 
(2S)-2-amino-3-(1-(2-hydroxy-2-oxoethyl)-1H-indol-3-yl)propanoic acid

>  <TYPE>  (3548) 
Backbone

>  <CLASS>  (3548) 
alpha

>  <ANALOG>  (3548) 
Trp

>  <MOL_WT>  (3548) 
262.265

>  <LOGP>  (3548) 
0.6802999999999993

>  <TPSA>  (3548) 
105.55

>  <POPULARITY>  (3548) 
11.2

>  <PROTECTED>  (3548) 
TRUE

>  <SMILES>  (3548) 
N[C@@H](Cc1(cn(CC(=O)O)c2(ccccc12)))C(=O)O

>  <INCHIKEY>  (3548) 
NUIINCMATQEUSS-JTQLQIEISA-N

$$$$
Trp_For
     RDKit          2D

 17 18  0  0  0  0  0  0  0  0999 V2000
   -2.6158   -1.6017    0.0000 N   0  0  0  0  0  0  0  0  0  0  0  0
   -2.7728   -0.1099    0.0000 C   0  0  0  0  0  0  0  0  0  0  0  0
   -1.5594    0.7719    0.0000 C   0  0  0  0  0  0  0  0  0  0  0  0
   -0.1890    0.1620    0.0000 C   0  0  0  0  0  0  0  0  0  0  0  0
    0.1231   -1.3052    0.0000 C   0  0  0  0  0  0  0  0  0  0  0  0
    1.6149   -1.4618    0.0000 N   0  0  0  0  0  0  0  0  0  0  0  0
    2.3650   -2.7607    0.0000 C   0  0  0  0  0  0  0  0  0  0  0  0
    1.6152   -4.0599    0.0000 O   0  0  0  0  0  0  0  0  0  0  0  0
    2.2248   -0.0914    0.0000 C   0  0  0  0  0  0  0  0  0  0  0  0
    3.6513    0.3723    0.0000 C   0  0  0  0  0  0  0  0  0  0  0  0
    3.9630    1.8396    0.0000 C   0  0  0  0  0  0  0  0  0  0  0  0
    2.8481    2.8431    0.0000 C   0  0  0  0  0  0  0  0  0  0  0  0
    1.4216    2.3794    0.0000 C   0  0  0  0  0  0  0  0  0  0  0  0
    1.1099    0.9122    0.0000 C   0  0  0  0  0  0  0  0  0  0  0  0
   -4.1432    0.5000    0.0000 C   0  0  0  0  0  0  0  0  0  0  0  0
   -4.3002    1.9918    0.0000 O   0  0  0  0  0  0  0  0  0  0  0  0
   -5.3566   -0.3818    0.0000 O   0  0  0  0  0  0  0  0  0  0  0  0
  2  1  1  6
  2  3  1  0
  3  4  1  0
  4  5  2  0
  5  6  1  0
  6  7  1  0
  7  8  2  0
  6  9  1  0
  9 10  2  0
 10 11  1  0
 11 12  2  0
 12 13  1  0
 13 14  2  0
  2 15  1  0
 15 16  2  0
 15 17  1  0
 14  4  1  0
 14  9  1  0
M  END
>  <rName>  (3549) 
Trp_For

>  <PQ_SYMBOL>  (3549) 
Trp_For

>  <FULL_NAME>  (3549) 
1-Formyl-L-tryptophan

>  <IUPAC_CONDENSED>  (3549) 
Trp(For)

>  <IUPAC>  (3549) 
(2S)-2-amino-3-(1-(formyl)-1H-indol-3-yl)propanoic acid

>  <TYPE>  (3549) 
Backbone

>  <CLASS>  (3549) 
alpha

>  <ANALOG>  (3549) 
Trp

>  <MOL_WT>  (3549) 
232.239

>  <LOGP>  (3549) 
0.6340000000000001

>  <TPSA>  (3549) 
85.32000000000001

>  <POPULARITY>  (3549) 
9.6

>  <PROTECTED>  (3549) 
FALSE

>  <SMILES>  (3549) 
N[C@@H](Cc1(cn(C=O)c2(ccccc12)))C(=O)O

>  <INCHIKEY>  (3549) 
KRUDZOGZZBVSHD-JTQLQIEISA-N

$$$$
Trp_Me
     RDKit          2D

 16 17  0  0  0  0  0  0  0  0999 V2000
   -2.6387   -1.6746    0.0000 N   0  0  0  0  0  0  0  0  0  0  0  0
   -2.6908   -0.1755    0.0000 C   0  0  0  0  0  0  0  0  0  0  0  0
   -1.4185    0.6191    0.0000 C   0  0  0  0  0  0  0  0  0  0  0  0
   -0.0943   -0.0853    0.0000 C   0  0  0  0  0  0  0  0  0  0  0  0
    0.1142   -1.5708    0.0000 C   0  0  0  0  0  0  0  0  0  0  0  0
    1.5913   -1.8316    0.0000 N   0  0  0  0  0  0  0  0  0  0  0  0
    2.2486   -3.1799    0.0000 C   0  0  0  0  0  0  0  0  0  0  0  0
    2.2958   -0.5073    0.0000 C   0  0  0  0  0  0  0  0  0  0  0  0
    3.7514   -0.1448    0.0000 C   0  0  0  0  0  0  0  0  0  0  0  0
    4.1651    1.2970    0.0000 C   0  0  0  0  0  0  0  0  0  0  0  0
    3.1234    2.3763    0.0000 C   0  0  0  0  0  0  0  0  0  0  0  0
    1.6678    2.0137    0.0000 C   0  0  0  0  0  0  0  0  0  0  0  0
    1.2541    0.5719    0.0000 C   0  0  0  0  0  0  0  0  0  0  0  0
   -4.0150    0.5290    0.0000 C   0  0  0  0  0  0  0  0  0  0  0  0
   -4.0671    2.0281    0.0000 O   0  0  0  0  0  0  0  0  0  0  0  0
   -5.2873   -0.2656    0.0000 O   0  0  0  0  0  0  0  0  0  0  0  0
  2  1  1  6
  2  3  1  0
  3  4  1  0
  4  5  2  0
  5  6  1  0
  6  7  1  0
  6  8  1  0
  8  9  2  0
  9 10  1  0
 10 11  2  0
 11 12  1  0
 12 13  2  0
  2 14  1  0
 14 15  2  0
 14 16  1  0
 13  4  1  0
 13  8  1  0
M  END
>  <rName>  (3550) 
Trp_Me

>  <PQ_SYMBOL>  (3550) 
Trp_Me

>  <FULL_NAME>  (3550) 
1-Methyl-L-Tryptophan

>  <IUPAC_CONDENSED>  (3550) 
Trp(Me)

>  <IUPAC>  (3550) 
(2S)-2-amino-3-(1-methyl-1H-indol-3-yl)propanoic acid

>  <TYPE>  (3550) 
Backbone

>  <CLASS>  (3550) 
alpha

>  <ANALOG>  (3550) 
Trp

>  <MOL_WT>  (3550) 
218.256

>  <LOGP>  (3550) 
1.1327000000000003

>  <TPSA>  (3550) 
68.25

>  <POPULARITY>  (3550) 
22.4

>  <PROTECTED>  (3550) 
TRUE

>  <SMILES>  (3550) 
N[C@@H](Cc1(cn(C)c2(ccccc12)))C(=O)O

>  <INCHIKEY>  (3550) 
ZADWXFSZEAPBJS-JTQLQIEISA-N

$$$$
Trp_Me_Aza
     RDKit          2D

 16 17  0  0  0  0  0  0  0  0999 V2000
   -2.5941    1.4623    0.0000 N   0  0  0  0  0  0  0  0  0  0  0  0
   -2.4986   -0.0347    0.0000 C   0  0  0  0  0  0  0  0  0  0  0  0
   -1.1544   -0.7005    0.0000 C   0  0  0  0  0  0  0  0  0  0  0  0
    0.0942    0.1307    0.0000 C   0  0  0  0  0  0  0  0  0  0  0  0
    1.5006   -0.3909    0.0000 C   0  0  0  0  0  0  0  0  0  0  0  0
    2.0540   -1.7851    0.0000 C   0  0  0  0  0  0  0  0  0  0  0  0
    3.5381   -2.0030    0.0000 C   0  0  0  0  0  0  0  0  0  0  0  0
    4.4688   -0.8266    0.0000 C   0  0  0  0  0  0  0  0  0  0  0  0
    3.9154    0.5676    0.0000 C   0  0  0  0  0  0  0  0  0  0  0  0
    2.4313    0.7854    0.0000 C   0  0  0  0  0  0  0  0  0  0  0  0
    1.6001    2.0341    0.0000 N   0  0  0  0  0  0  0  0  0  0  0  0
    0.1557    1.6294    0.0000 N   0  0  0  0  0  0  0  0  0  0  0  0
   -1.0206    2.5601    0.0000 C   0  0  0  0  0  0  0  0  0  0  0  0
   -3.7473   -0.8659    0.0000 C   0  0  0  0  0  0  0  0  0  0  0  0
   -3.6518   -2.3628    0.0000 O   0  0  0  0  0  0  0  0  0  0  0  0
   -5.0914   -0.2001    0.0000 O   0  0  0  0  0  0  0  0  0  0  0  0
  2  1  1  1
  2  3  1  0
  3  4  1  0
  4  5  2  0
  5  6  1  0
  6  7  2  0
  7  8  1  0
  8  9  2  0
  9 10  1  0
 10 11  2  0
 11 12  1  0
 12 13  1  0
  2 14  1  0
 14 15  2  0
 14 16  1  0
 10  5  1  0
 12  4  1  0
M  END
>  <rName>  (3551) 
Trp_Me_Aza

>  <PQ_SYMBOL>  (3551) 
Trp_Me_Aza

>  <FULL_NAME>  (3551) 
(S)-2-amino-3-(2-methyl-2H-indazol-3-yl)propanoic acid

>  <IUPAC_CONDENSED>  (3551) 
Trp(Me,Aza)

>  <IUPAC>  (3551) 
(2S)-2-amino-3-(8-methyl-7,8-diazabicyclo[4.3.0]nona-1(9),2,4,6-tetraen-9-yl)propanoic acid

>  <TYPE>  (3551) 
Backbone

>  <CLASS>  (3551) 
alpha

>  <ANALOG>  (3551) 
Phe

>  <MOL_WT>  (3551) 
219.24399999999997

>  <LOGP>  (3551) 
0.5276999999999998

>  <TPSA>  (3551) 
81.14

>  <POPULARITY>  (3551) 
2.4

>  <PROTECTED>  (3551) 
TRUE

>  <SMILES>  (3551) 
N[C@@H](Cc2(c1(ccccc1nn2C)))C(=O)O

>  <INCHIKEY>  (3551) 
IRNJNDFDUGJAFV-QMMMGPOBSA-N

$$$$
Trp_OMe
     RDKit          2D

 17 18  0  0  0  0  0  0  0  0999 V2000
   -2.6158   -1.6017    0.0000 N   0  0  0  0  0  0  0  0  0  0  0  0
   -2.7728   -0.1099    0.0000 C   0  0  0  0  0  0  0  0  0  0  0  0
   -1.5594    0.7719    0.0000 C   0  0  0  0  0  0  0  0  0  0  0  0
   -0.1890    0.1620    0.0000 C   0  0  0  0  0  0  0  0  0  0  0  0
    0.1231   -1.3052    0.0000 C   0  0  0  0  0  0  0  0  0  0  0  0
    1.6149   -1.4618    0.0000 N   0  0  0  0  0  0  0  0  0  0  0  0
    2.3650   -2.7607    0.0000 O   0  0  0  0  0  0  0  0  0  0  0  0
    1.6152   -4.0599    0.0000 C   0  0  0  0  0  0  0  0  0  0  0  0
    2.2248   -0.0914    0.0000 C   0  0  0  0  0  0  0  0  0  0  0  0
    3.6513    0.3723    0.0000 C   0  0  0  0  0  0  0  0  0  0  0  0
    3.9630    1.8396    0.0000 C   0  0  0  0  0  0  0  0  0  0  0  0
    2.8481    2.8431    0.0000 C   0  0  0  0  0  0  0  0  0  0  0  0
    1.4216    2.3794    0.0000 C   0  0  0  0  0  0  0  0  0  0  0  0
    1.1099    0.9122    0.0000 C   0  0  0  0  0  0  0  0  0  0  0  0
   -4.1432    0.5000    0.0000 C   0  0  0  0  0  0  0  0  0  0  0  0
   -4.3002    1.9918    0.0000 O   0  0  0  0  0  0  0  0  0  0  0  0
   -5.3566   -0.3818    0.0000 O   0  0  0  0  0  0  0  0  0  0  0  0
  2  1  1  6
  2  3  1  0
  3  4  1  0
  4  5  2  0
  5  6  1  0
  6  7  1  0
  7  8  1  0
  6  9  1  0
  9 10  2  0
 10 11  1  0
 11 12  2  0
 12 13  1  0
 13 14  2  0
  2 15  1  0
 15 16  2  0
 15 17  1  0
 14  4  1  0
 14  9  1  0
M  END
>  <rName>  (3552) 
Trp_OMe

>  <PQ_SYMBOL>  (3552) 
Trp_OMe

>  <FULL_NAME>  (3552) 
(2S)-2-amino-3-(1-methoxyindol-3-yl)propanoic acid

>  <IUPAC_CONDENSED>  (3552) 
Trp(OMe)

>  <IUPAC>  (3552) 
(2S)-2-amino-3-(1-methoxy-1H-indol-3-yl)propanoic acid

>  <TYPE>  (3552) 
Backbone

>  <CLASS>  (3552) 
alpha

>  <ANALOG>  (3552) 
Trp

>  <MOL_WT>  (3552) 
234.255

>  <LOGP>  (3552) 
0.6540999999999995

>  <TPSA>  (3552) 
77.48

>  <POPULARITY>  (3552) 
12.8

>  <PROTECTED>  (3552) 
FALSE

>  <SMILES>  (3552) 
N[C@@H](Cc1(cn(OC)c2(ccccc12)))C(=O)O

>  <INCHIKEY>  (3552) 
ZZKJLERBXNLMTR-JTQLQIEISA-N

$$$$
Trp_Ph
     RDKit          2D

 21 23  0  0  0  0  0  0  0  0999 V2000
   -2.5319   -2.2749    0.0000 N   0  0  0  0  0  0  0  0  0  0  0  0
   -3.3908   -1.0451    0.0000 C   0  0  0  0  0  0  0  0  0  0  0  0
   -2.7553    0.3136    0.0000 C   0  0  0  0  0  0  0  0  0  0  0  0
   -1.2608    0.4425    0.0000 C   0  0  0  0  0  0  0  0  0  0  0  0
   -0.2781   -0.6907    0.0000 C   0  0  0  0  0  0  0  0  0  0  0  0
    1.1034   -0.1063    0.0000 N   0  0  0  0  0  0  0  0  0  0  0  0
    2.3882   -0.8804    0.0000 C   0  0  0  0  0  0  0  0  0  0  0  0
    2.3602   -2.3801    0.0000 C   0  0  0  0  0  0  0  0  0  0  0  0
    3.6451   -3.1542    0.0000 C   0  0  0  0  0  0  0  0  0  0  0  0
    4.9579   -2.4286    0.0000 C   0  0  0  0  0  0  0  0  0  0  0  0
    4.9858   -0.9288    0.0000 C   0  0  0  0  0  0  0  0  0  0  0  0
    3.7010   -0.1547    0.0000 C   0  0  0  0  0  0  0  0  0  0  0  0
    0.9744    1.3882    0.0000 C   0  0  0  0  0  0  0  0  0  0  0  0
    1.9987    2.4840    0.0000 C   0  0  0  0  0  0  0  0  0  0  0  0
    1.5619    3.9190    0.0000 C   0  0  0  0  0  0  0  0  0  0  0  0
    0.1008    4.2581    0.0000 C   0  0  0  0  0  0  0  0  0  0  0  0
   -0.9236    3.1623    0.0000 C   0  0  0  0  0  0  0  0  0  0  0  0
   -0.4867    1.7273    0.0000 C   0  0  0  0  0  0  0  0  0  0  0  0
   -4.8853   -1.1741    0.0000 C   0  0  0  0  0  0  0  0  0  0  0  0
   -5.7442    0.0557    0.0000 O   0  0  0  0  0  0  0  0  0  0  0  0
   -5.5208   -2.5328    0.0000 O   0  0  0  0  0  0  0  0  0  0  0  0
  2  1  1  6
  2  3  1  0
  3  4  1  0
  4  5  2  0
  5  6  1  0
  6  7  1  0
  7  8  2  0
  8  9  1  0
  9 10  2  0
 10 11  1  0
 11 12  2  0
  6 13  1  0
 13 14  2  0
 14 15  1  0
 15 16  2  0
 16 17  1  0
 17 18  2  0
  2 19  1  0
 19 20  2  0
 19 21  1  0
 12  7  1  0
 18  4  1  0
 18 13  1  0
M  END
>  <rName>  (3553) 
Trp_Ph

>  <PQ_SYMBOL>  (3553) 
Trp_Ph

>  <FULL_NAME>  (3553) 
(2S)-2-amino-3-(1-phenylindol-3-yl)propanoic acid

>  <IUPAC_CONDENSED>  (3553) 
Trp(Ph)

>  <IUPAC>  (3553) 
(2S)-2-amino-3-(1-phenylindol-3-yl)propanoic acid

>  <TYPE>  (3553) 
Backbone

>  <CLASS>  (3553) 
alpha

>  <ANALOG>  (3553) 
Trp

>  <MOL_WT>  (3553) 
280.327

>  <LOGP>  (3553) 
2.5849

>  <TPSA>  (3553) 
68.25

>  <POPULARITY>  (3553) 
2.2

>  <PROTECTED>  (3553) 
TRUE

>  <SMILES>  (3553) 
N[C@@H](Cc2(cn(c1(ccccc1))c3(ccccc23)))C(=O)O

>  <INCHIKEY>  (3553) 
DXCUKLGEYWJKDM-HNNXBMFYSA-N

$$$$
Trp_SO2Ph
     RDKit          2D

 24 26  0  0  0  0  0  0  0  0999 V2000
   -2.7085   -2.5462    0.0000 N   0  0  0  0  0  0  0  0  0  0  0  0
   -3.7900   -1.5068    0.0000 C   0  0  0  0  0  0  0  0  0  0  0  0
   -3.4306   -0.0505    0.0000 C   0  0  0  0  0  0  0  0  0  0  0  0
   -1.9897    0.3664    0.0000 C   0  0  0  0  0  0  0  0  0  0  0  0
   -0.8055   -0.5543    0.0000 C   0  0  0  0  0  0  0  0  0  0  0  0
    0.4361    0.2875    0.0000 N   0  0  0  0  0  0  0  0  0  0  0  0
    0.0192    1.7284    0.0000 C   0  0  0  0  0  0  0  0  0  0  0  0
    0.8110    3.0024    0.0000 C   0  0  0  0  0  0  0  0  0  0  0  0
    0.1036    4.3251    0.0000 C   0  0  0  0  0  0  0  0  0  0  0  0
   -1.3956    4.3739    0.0000 C   0  0  0  0  0  0  0  0  0  0  0  0
   -2.1874    3.0999    0.0000 C   0  0  0  0  0  0  0  0  0  0  0  0
   -1.4800    1.7772    0.0000 C   0  0  0  0  0  0  0  0  0  0  0  0
    1.8469   -0.2221    0.0000 S   0  0  0  0  0  0  0  0  0  0  0  0
    2.3565    1.1886    0.0000 O   0  0  0  0  0  0  0  0  0  0  0  0
    1.3372   -1.6329    0.0000 O   0  0  0  0  0  0  0  0  0  0  0  0
    3.2576   -0.7318    0.0000 C   0  0  0  0  0  0  0  0  0  0  0  0
    3.5216   -2.2083    0.0000 C   0  0  0  0  0  0  0  0  0  0  0  0
    4.9324   -2.7180    0.0000 C   0  0  0  0  0  0  0  0  0  0  0  0
    6.0792   -1.7510    0.0000 C   0  0  0  0  0  0  0  0  0  0  0  0
    5.8151   -0.2745    0.0000 C   0  0  0  0  0  0  0  0  0  0  0  0
    4.4044    0.2352    0.0000 C   0  0  0  0  0  0  0  0  0  0  0  0
   -5.2309   -1.9238    0.0000 C   0  0  0  0  0  0  0  0  0  0  0  0
   -6.3124   -0.8844    0.0000 O   0  0  0  0  0  0  0  0  0  0  0  0
   -5.5902   -3.3801    0.0000 O   0  0  0  0  0  0  0  0  0  0  0  0
  2  1  1  6
  2  3  1  0
  3  4  1  0
  4  5  2  0
  5  6  1  0
  6  7  1  0
  7  8  2  0
  8  9  1  0
  9 10  2  0
 10 11  1  0
 11 12  2  0
  6 13  1  0
 13 14  2  0
 13 15  2  0
 13 16  1  0
 16 17  2  0
 17 18  1  0
 18 19  2  0
 19 20  1  0
 20 21  2  0
  2 22  1  0
 22 23  2  0
 22 24  1  0
 12  7  1  0
 12  4  1  0
 21 16  1  0
M  END
>  <rName>  (3554) 
Trp_SO2Ph

>  <PQ_SYMBOL>  (3554) 
Trp_SO2Ph

>  <FULL_NAME>  (3554) 
1-(phenylsulfonyl)-L-tryptophan

>  <IUPAC_CONDENSED>  (3554) 
Trp(SO2Ph)

>  <IUPAC>  (3554) 
(2S)-2-amino-3-(1-(phenylsulfonyl)-1H-indol-3-yl)propanoic acid

>  <TYPE>  (3554) 
Backbone

>  <CLASS>  (3554) 
alpha

>  <ANALOG>  (3554) 
Trp

>  <MOL_WT>  (3554) 
344.39200000000005

>  <LOGP>  (3554) 
1.8327000000000002

>  <TPSA>  (3554) 
102.39

>  <POPULARITY>  (3554) 
4.4

>  <PROTECTED>  (3554) 
TRUE

>  <SMILES>  (3554) 
N[C@@H](Cc2(cn(c1(ccccc12))S(=O)(=O)c3(ccccc3)))C(=O)O

>  <INCHIKEY>  (3554) 
STFVRFHXBORWAD-HNNXBMFYSA-N

$$$$
Trp_bRMe
     RDKit          2D

 16 17  0  0  0  0  0  0  0  0999 V2000
   -0.9801    1.6242    0.0000 N   0  0  0  0  0  0  0  0  0  0  0  0
   -1.8922    0.4333    0.0000 C   0  0  0  0  0  0  0  0  0  0  0  0
   -1.3169   -0.9520    0.0000 C   0  0  0  0  0  0  0  0  0  0  0  0
   -2.2290   -2.1429    0.0000 C   0  0  0  0  0  0  0  0  0  0  0  0
    0.1704   -1.1465    0.0000 C   0  0  0  0  0  0  0  0  0  0  0  0
    0.8873   -2.4640    0.0000 C   0  0  0  0  0  0  0  0  0  0  0  0
    2.3620   -2.1894    0.0000 N   0  0  0  0  0  0  0  0  0  0  0  0
    2.5564   -0.7020    0.0000 C   0  0  0  0  0  0  0  0  0  0  0  0
    3.7919    0.1487    0.0000 C   0  0  0  0  0  0  0  0  0  0  0  0
    3.6728    1.6440    0.0000 C   0  0  0  0  0  0  0  0  0  0  0  0
    2.3184    2.2885    0.0000 C   0  0  0  0  0  0  0  0  0  0  0  0
    1.0829    1.4378    0.0000 C   0  0  0  0  0  0  0  0  0  0  0  0
    1.2020   -0.0575    0.0000 C   0  0  0  0  0  0  0  0  0  0  0  0
   -3.3795    0.6278    0.0000 C   0  0  0  0  0  0  0  0  0  0  0  0
   -4.2916   -0.5631    0.0000 O   0  0  0  0  0  0  0  0  0  0  0  0
   -3.9548    2.0131    0.0000 O   0  0  0  0  0  0  0  0  0  0  0  0
  2  1  1  1
  2  3  1  0
  3  4  1  1
  3  5  1  0
  5  6  2  0
  6  7  1  0
  7  8  1  0
  8  9  2  0
  9 10  1  0
 10 11  2  0
 11 12  1  0
 12 13  2  0
  2 14  1  0
 14 15  2  0
 14 16  1  0
 13  5  1  0
 13  8  1  0
M  END
>  <rName>  (3555) 
Trp_bRMe

>  <PQ_SYMBOL>  (3555) 
Trp_bRMe

>  <FULL_NAME>  (3555) 
(betaR)-beta-Methyl-L-tryptophan

>  <IUPAC_CONDENSED>  (3555) 
Trp(bR-Me)

>  <IUPAC>  (3555) 
(2S,3R)-2-amino-3-(1H-indol-3-yl)butanoic acid

>  <TYPE>  (3555) 
Backbone

>  <CLASS>  (3555) 
alpha

>  <ANALOG>  (3555) 
Trp

>  <MOL_WT>  (3555) 
218.256

>  <LOGP>  (3555) 
1.6833

>  <TPSA>  (3555) 
79.11

>  <POPULARITY>  (3555) 
10.5

>  <PROTECTED>  (3555) 
TRUE

>  <SMILES>  (3555) 
N[C@@H]([C@H](C)c1(c[nH]c2(ccccc12)))C(=O)O

>  <INCHIKEY>  (3555) 
CZSQAYAIWDEOSA-HQJQHLMTSA-N

$$$$
Trp_bSEt_7Me
     RDKit          2D

 18 19  0  0  0  0  0  0  0  0999 V2000
   -0.9778    1.8067    0.0000 N   0  0  0  0  0  0  0  0  0  0  0  0
   -1.9435    0.6589    0.0000 C   0  0  0  0  0  0  0  0  0  0  0  0
   -1.4323   -0.7513    0.0000 C   0  0  0  0  0  0  0  0  0  0  0  0
   -2.3980   -1.8991    0.0000 C   0  0  0  0  0  0  0  0  0  0  0  0
   -3.8749   -1.6367    0.0000 C   0  0  0  0  0  0  0  0  0  0  0  0
    0.0446   -1.0138    0.0000 C   0  0  0  0  0  0  0  0  0  0  0  0
    0.7003   -2.3628    0.0000 C   0  0  0  0  0  0  0  0  0  0  0  0
    2.1860   -2.1560    0.0000 N   0  0  0  0  0  0  0  0  0  0  0  0
    2.4484   -0.6792    0.0000 C   0  0  0  0  0  0  0  0  0  0  0  0
    3.7216    0.1140    0.0000 C   0  0  0  0  0  0  0  0  0  0  0  0
    5.0450   -0.5919    0.0000 C   0  0  0  0  0  0  0  0  0  0  0  0
    3.6712    1.6132    0.0000 C   0  0  0  0  0  0  0  0  0  0  0  0
    2.3477    2.3191    0.0000 C   0  0  0  0  0  0  0  0  0  0  0  0
    1.0746    1.5259    0.0000 C   0  0  0  0  0  0  0  0  0  0  0  0
    1.1249    0.0268    0.0000 C   0  0  0  0  0  0  0  0  0  0  0  0
   -3.4203    0.9213    0.0000 C   0  0  0  0  0  0  0  0  0  0  0  0
   -4.3860   -0.2265    0.0000 O   0  0  0  0  0  0  0  0  0  0  0  0
   -3.9315    2.3315    0.0000 O   0  0  0  0  0  0  0  0  0  0  0  0
  2  1  1  1
  2  3  1  0
  3  4  1  6
  4  5  1  0
  3  6  1  0
  6  7  2  0
  7  8  1  0
  8  9  1  0
  9 10  2  0
 10 11  1  0
 10 12  1  0
 12 13  2  0
 13 14  1  0
 14 15  2  0
  2 16  1  0
 16 17  2  0
 16 18  1  0
 15  6  1  0
 15  9  1  0
M  END
>  <rName>  (3556) 
Trp_bSEt_7Me

>  <PQ_SYMBOL>  (3556) 
Trp_bSEt_7Me

>  <FULL_NAME>  (3556) 
(βS)-β-ethyl-7-methyl-L-tryptophan

>  <IUPAC_CONDENSED>  (3556) 
Trp(bS-Et,7-Me)

>  <IUPAC>  (3556) 
(2S,3S)-2-amino-3-(7-methyl-1H-indol-3-yl)pentanoic acid

>  <TYPE>  (3556) 
Backbone

>  <CLASS>  (3556) 
alpha

>  <ANALOG>  (3556) 
Trp

>  <MOL_WT>  (3556) 
246.31

>  <LOGP>  (3556) 
2.38182

>  <TPSA>  (3556) 
79.11

>  <POPULARITY>  (3556) 
2.6

>  <PROTECTED>  (3556) 
TRUE

>  <SMILES>  (3556) 
N[C@@H]([C@@H](CC)c1(c[nH]c2(c(C)cccc12)))C(=O)O

>  <INCHIKEY>  (3556) 
MAHJHLGJBOSOGZ-CABZTGNLSA-N

$$$$
Trp_bSMe
     RDKit          2D

 16 17  0  0  0  0  0  0  0  0999 V2000
   -0.9801    1.6242    0.0000 N   0  0  0  0  0  0  0  0  0  0  0  0
   -1.8922    0.4333    0.0000 C   0  0  0  0  0  0  0  0  0  0  0  0
   -1.3169   -0.9520    0.0000 C   0  0  0  0  0  0  0  0  0  0  0  0
   -2.2290   -2.1429    0.0000 C   0  0  0  0  0  0  0  0  0  0  0  0
    0.1704   -1.1465    0.0000 C   0  0  0  0  0  0  0  0  0  0  0  0
    0.8873   -2.4640    0.0000 C   0  0  0  0  0  0  0  0  0  0  0  0
    2.3620   -2.1894    0.0000 N   0  0  0  0  0  0  0  0  0  0  0  0
    2.5564   -0.7020    0.0000 C   0  0  0  0  0  0  0  0  0  0  0  0
    3.7919    0.1487    0.0000 C   0  0  0  0  0  0  0  0  0  0  0  0
    3.6728    1.6440    0.0000 C   0  0  0  0  0  0  0  0  0  0  0  0
    2.3184    2.2885    0.0000 C   0  0  0  0  0  0  0  0  0  0  0  0
    1.0829    1.4378    0.0000 C   0  0  0  0  0  0  0  0  0  0  0  0
    1.2020   -0.0575    0.0000 C   0  0  0  0  0  0  0  0  0  0  0  0
   -3.3795    0.6278    0.0000 C   0  0  0  0  0  0  0  0  0  0  0  0
   -4.2916   -0.5631    0.0000 O   0  0  0  0  0  0  0  0  0  0  0  0
   -3.9548    2.0131    0.0000 O   0  0  0  0  0  0  0  0  0  0  0  0
  2  1  1  1
  2  3  1  0
  3  4  1  6
  3  5  1  0
  5  6  2  0
  6  7  1  0
  7  8  1  0
  8  9  2  0
  9 10  1  0
 10 11  2  0
 11 12  1  0
 12 13  2  0
  2 14  1  0
 14 15  2  0
 14 16  1  0
 13  5  1  0
 13  8  1  0
M  END
>  <rName>  (3557) 
Trp_bSMe

>  <PQ_SYMBOL>  (3557) 
Trp_bSMe

>  <FULL_NAME>  (3557) 
(betaS)-beta-Methyl-L-tryptophan

>  <IUPAC_CONDENSED>  (3557) 
Trp(bS-Me)

>  <IUPAC>  (3557) 
(2S,3S)-2-amino-3-(1H-indol-3-yl)butanoic acid

>  <TYPE>  (3557) 
Backbone

>  <CLASS>  (3557) 
alpha

>  <ANALOG>  (3557) 
Trp

>  <MOL_WT>  (3557) 
218.256

>  <LOGP>  (3557) 
1.6833

>  <TPSA>  (3557) 
79.11

>  <POPULARITY>  (3557) 
11.9

>  <PROTECTED>  (3557) 
TRUE

>  <SMILES>  (3557) 
N[C@@H]([C@@H](C)c1(c[nH]c2(ccccc12)))C(=O)O

>  <INCHIKEY>  (3557) 
CZSQAYAIWDEOSA-CPCISQLKSA-N

$$$$
Trp_bSMe_2Me
     RDKit          2D

 17 18  0  0  0  0  0  0  0  0999 V2000
   -1.0230    1.8331    0.0000 N   0  0  0  0  0  0  0  0  0  0  0  0
   -1.9165    0.6282    0.0000 C   0  0  0  0  0  0  0  0  0  0  0  0
   -1.3197   -0.7480    0.0000 C   0  0  0  0  0  0  0  0  0  0  0  0
   -2.2132   -1.9529    0.0000 C   0  0  0  0  0  0  0  0  0  0  0  0
    0.1705   -0.9193    0.0000 C   0  0  0  0  0  0  0  0  0  0  0  0
    0.9078   -2.2256    0.0000 C   0  0  0  0  0  0  0  0  0  0  0  0
    0.2844   -3.5899    0.0000 C   0  0  0  0  0  0  0  0  0  0  0  0
    2.3780   -1.9280    0.0000 N   0  0  0  0  0  0  0  0  0  0  0  0
    2.5493   -0.4378    0.0000 C   0  0  0  0  0  0  0  0  0  0  0  0
    3.7713    0.4321    0.0000 C   0  0  0  0  0  0  0  0  0  0  0  0
    3.6290    1.9253    0.0000 C   0  0  0  0  0  0  0  0  0  0  0  0
    2.2647    2.5487    0.0000 C   0  0  0  0  0  0  0  0  0  0  0  0
    1.0427    1.6788    0.0000 C   0  0  0  0  0  0  0  0  0  0  0  0
    1.1849    0.1856    0.0000 C   0  0  0  0  0  0  0  0  0  0  0  0
   -3.4067    0.7995    0.0000 C   0  0  0  0  0  0  0  0  0  0  0  0
   -4.3001   -0.4054    0.0000 O   0  0  0  0  0  0  0  0  0  0  0  0
   -4.0034    2.1756    0.0000 O   0  0  0  0  0  0  0  0  0  0  0  0
  2  1  1  1
  2  3  1  0
  3  4  1  6
  3  5  1  0
  5  6  2  0
  6  7  1  0
  6  8  1  0
  8  9  1  0
  9 10  2  0
 10 11  1  0
 11 12  2  0
 12 13  1  0
 13 14  2  0
  2 15  1  0
 15 16  2  0
 15 17  1  0
 14  5  1  0
 14  9  1  0
M  END
>  <rName>  (3558) 
Trp_bSMe_2Me

>  <PQ_SYMBOL>  (3558) 
Trp_bSMe_2Me

>  <FULL_NAME>  (3558) 
(βS)-2-methyl-β-methyl-L-tryptophan

>  <IUPAC_CONDENSED>  (3558) 
Trp(bS-Me,2-Me)

>  <IUPAC>  (3558) 
(2S,3S)-2-amino-3-(2-methyl-1H-indol-3-yl)butanoic acid

>  <TYPE>  (3558) 
Backbone

>  <CLASS>  (3558) 
alpha

>  <ANALOG>  (3558) 
Trp

>  <MOL_WT>  (3558) 
232.28300000000002

>  <LOGP>  (3558) 
1.99172

>  <TPSA>  (3558) 
79.11

>  <POPULARITY>  (3558) 
4.0

>  <PROTECTED>  (3558) 
TRUE

>  <SMILES>  (3558) 
N[C@@H]([C@@H](C)c1(c(C)[nH]c2(ccccc12)))C(=O)O

>  <INCHIKEY>  (3558) 
GKRLFVVFASLPJN-MADCSZMMSA-N

$$$$
Trp_bSMe_4F
     RDKit          2D

 17 18  0  0  0  0  0  0  0  0999 V2000
   -2.6161   -1.9731    0.0000 N   0  0  0  0  0  0  0  0  0  0  0  0
   -2.5528   -0.4744    0.0000 C   0  0  0  0  0  0  0  0  0  0  0  0
   -1.2233    0.2202    0.0000 C   0  0  0  0  0  0  0  0  0  0  0  0
   -1.1600    1.7188    0.0000 C   0  0  0  0  0  0  0  0  0  0  0  0
    0.0430   -0.5840    0.0000 C   0  0  0  0  0  0  0  0  0  0  0  0
    0.1367   -2.0810    0.0000 C   0  0  0  0  0  0  0  0  0  0  0  0
    1.5895   -2.4545    0.0000 N   0  0  0  0  0  0  0  0  0  0  0  0
    2.3936   -1.1883    0.0000 C   0  0  0  0  0  0  0  0  0  0  0  0
    3.8726   -0.9386    0.0000 C   0  0  0  0  0  0  0  0  0  0  0  0
    4.3959    0.4672    0.0000 C   0  0  0  0  0  0  0  0  0  0  0  0
    3.4401    1.6233    0.0000 C   0  0  0  0  0  0  0  0  0  0  0  0
    1.9611    1.3736    0.0000 C   0  0  0  0  0  0  0  0  0  0  0  0
    1.0053    2.5296    0.0000 F   0  0  0  0  0  0  0  0  0  0  0  0
    1.4378   -0.0322    0.0000 C   0  0  0  0  0  0  0  0  0  0  0  0
   -3.8191    0.3297    0.0000 C   0  0  0  0  0  0  0  0  0  0  0  0
   -3.7558    1.8284    0.0000 O   0  0  0  0  0  0  0  0  0  0  0  0
   -5.1486   -0.3648    0.0000 O   0  0  0  0  0  0  0  0  0  0  0  0
  2  1  1  6
  2  3  1  0
  3  4  1  1
  3  5  1  0
  5  6  2  0
  6  7  1  0
  7  8  1  0
  8  9  2  0
  9 10  1  0
 10 11  2  0
 11 12  1  0
 12 13  1  0
 12 14  2  0
  2 15  1  0
 15 16  2  0
 15 17  1  0
 14  5  1  0
 14  8  1  0
M  END
>  <rName>  (3559) 
Trp_bSMe_4F

>  <PQ_SYMBOL>  (3559) 
Trp_bSMe_4F

>  <FULL_NAME>  (3559) 
(βS)-4-fluoro-β-methyl-L-tryptophan

>  <IUPAC_CONDENSED>  (3559) 
Trp(bS-Me,4-F)

>  <IUPAC>  (3559) 
(2S,3S)-2-amino-3-(4-fluoro-1H-indol-3-yl)butanoic acid

>  <TYPE>  (3559) 
Backbone

>  <CLASS>  (3559) 
alpha

>  <ANALOG>  (3559) 
Trp

>  <MOL_WT>  (3559) 
236.24599999999998

>  <LOGP>  (3559) 
1.8224

>  <TPSA>  (3559) 
79.11

>  <POPULARITY>  (3559) 
3.1

>  <PROTECTED>  (3559) 
TRUE

>  <SMILES>  (3559) 
N[C@@H]([C@@H](C)c1(c[nH]c2(cccc(F)c12)))C(=O)O

>  <INCHIKEY>  (3559) 
WFNFUGNMEQZKPK-KGFZYKRKSA-N

$$$$
Trp_bSMe_4Me
     RDKit          2D

 17 18  0  0  0  0  0  0  0  0999 V2000
   -0.9763    1.4938    0.0000 N   0  0  0  0  0  0  0  0  0  0  0  0
   -1.8787    0.2956    0.0000 C   0  0  0  0  0  0  0  0  0  0  0  0
   -1.2922   -1.0850    0.0000 C   0  0  0  0  0  0  0  0  0  0  0  0
   -2.1946   -2.2832    0.0000 C   0  0  0  0  0  0  0  0  0  0  0  0
    0.1967   -1.2674    0.0000 C   0  0  0  0  0  0  0  0  0  0  0  0
    0.9242   -2.5791    0.0000 C   0  0  0  0  0  0  0  0  0  0  0  0
    2.3966   -2.2925    0.0000 N   0  0  0  0  0  0  0  0  0  0  0  0
    2.5790   -0.8037    0.0000 C   0  0  0  0  0  0  0  0  0  0  0  0
    3.8075    0.0570    0.0000 C   0  0  0  0  0  0  0  0  0  0  0  0
    3.6764    1.5513    0.0000 C   0  0  0  0  0  0  0  0  0  0  0  0
    2.3167    2.1849    0.0000 C   0  0  0  0  0  0  0  0  0  0  0  0
    1.0882    1.3242    0.0000 C   0  0  0  0  0  0  0  0  0  0  0  0
   -0.2714    1.9577    0.0000 C   0  0  0  0  0  0  0  0  0  0  0  0
    1.2194   -0.1701    0.0000 C   0  0  0  0  0  0  0  0  0  0  0  0
   -3.3675    0.4780    0.0000 C   0  0  0  0  0  0  0  0  0  0  0  0
   -4.2699   -0.7202    0.0000 O   0  0  0  0  0  0  0  0  0  0  0  0
   -3.9540    1.8586    0.0000 O   0  0  0  0  0  0  0  0  0  0  0  0
  2  1  1  1
  2  3  1  0
  3  4  1  6
  3  5  1  0
  5  6  2  0
  6  7  1  0
  7  8  1  0
  8  9  2  0
  9 10  1  0
 10 11  2  0
 11 12  1  0
 12 13  1  0
 12 14  2  0
  2 15  1  0
 15 16  2  0
 15 17  1  0
 14  5  1  0
 14  8  1  0
M  END
>  <rName>  (3560) 
Trp_bSMe_4Me

>  <PQ_SYMBOL>  (3560) 
Trp_bSMe_4Me

>  <FULL_NAME>  (3560) 
(βS)-4-methyl-β-methyl-L-tryptophan

>  <IUPAC_CONDENSED>  (3560) 
Trp(bS-Me,4-Me)

>  <IUPAC>  (3560) 
(2S,3S)-2-amino-3-(4-methyl-1H-indol-3-yl)butanoic acid

>  <TYPE>  (3560) 
Backbone

>  <CLASS>  (3560) 
alpha

>  <ANALOG>  (3560) 
Trp

>  <MOL_WT>  (3560) 
232.283

>  <LOGP>  (3560) 
1.9917200000000002

>  <TPSA>  (3560) 
79.11

>  <POPULARITY>  (3560) 
3.3

>  <PROTECTED>  (3560) 
TRUE

>  <SMILES>  (3560) 
N[C@@H]([C@@H](C)c1(c[nH]c2(cccc(C)c12)))C(=O)O

>  <INCHIKEY>  (3560) 
XTYJTNUNKCGCMV-UFBFGSQYSA-N

$$$$
Trp_bSMe_5F
     RDKit          2D

 17 18  0  0  0  0  0  0  0  0999 V2000
   -0.9244    1.5300    0.0000 N   0  0  0  0  0  0  0  0  0  0  0  0
   -1.9790    0.4633    0.0000 C   0  0  0  0  0  0  0  0  0  0  0  0
   -1.5825   -0.9834    0.0000 C   0  0  0  0  0  0  0  0  0  0  0  0
   -2.6371   -2.0501    0.0000 C   0  0  0  0  0  0  0  0  0  0  0  0
   -0.1314   -1.3633    0.0000 C   0  0  0  0  0  0  0  0  0  0  0  0
    0.4141   -2.7606    0.0000 C   0  0  0  0  0  0  0  0  0  0  0  0
    1.9116   -2.6735    0.0000 N   0  0  0  0  0  0  0  0  0  0  0  0
    2.2915   -1.2224    0.0000 C   0  0  0  0  0  0  0  0  0  0  0  0
    3.6241   -0.5338    0.0000 C   0  0  0  0  0  0  0  0  0  0  0  0
    3.6941    0.9645    0.0000 C   0  0  0  0  0  0  0  0  0  0  0  0
    2.4314    1.7743    0.0000 C   0  0  0  0  0  0  0  0  0  0  0  0
    2.5013    3.2727    0.0000 F   0  0  0  0  0  0  0  0  0  0  0  0
    1.0988    1.0857    0.0000 C   0  0  0  0  0  0  0  0  0  0  0  0
    1.0289   -0.4127    0.0000 C   0  0  0  0  0  0  0  0  0  0  0  0
   -3.4301    0.8432    0.0000 C   0  0  0  0  0  0  0  0  0  0  0  0
   -4.4847   -0.2235    0.0000 O   0  0  0  0  0  0  0  0  0  0  0  0
   -3.8266    2.2898    0.0000 O   0  0  0  0  0  0  0  0  0  0  0  0
  2  1  1  1
  2  3  1  0
  3  4  1  6
  3  5  1  0
  5  6  2  0
  6  7  1  0
  7  8  1  0
  8  9  1  0
  9 10  2  0
 10 11  1  0
 11 12  1  0
 11 13  2  0
 13 14  1  0
  2 15  1  0
 15 16  2  0
 15 17  1  0
 14  5  1  0
 14  8  2  0
M  END
>  <rName>  (3561) 
Trp_bSMe_5F

>  <PQ_SYMBOL>  (3561) 
Trp_bSMe_5F

>  <FULL_NAME>  (3561) 
(βS)-5-fluoro-β-methyl-L-tryptophan

>  <IUPAC_CONDENSED>  (3561) 
Trp(bS-Me,5-F)

>  <IUPAC>  (3561) 
(2S,3S)-2-amino-3-(5-fluoro-1H-indol-3-yl)butanoic acid

>  <TYPE>  (3561) 
Backbone

>  <CLASS>  (3561) 
alpha

>  <ANALOG>  (3561) 
Trp

>  <MOL_WT>  (3561) 
236.24599999999998

>  <LOGP>  (3561) 
1.8224

>  <TPSA>  (3561) 
79.11

>  <POPULARITY>  (3561) 
3.1

>  <PROTECTED>  (3561) 
TRUE

>  <SMILES>  (3561) 
N[C@@H]([C@@H](C)c1(c[nH]c2(ccc(F)cc12)))C(=O)O

>  <INCHIKEY>  (3561) 
NGJNWLBZEFBZCD-KGFZYKRKSA-N

$$$$
Trp_bSMe_5Me
     RDKit          2D

 17 18  0  0  0  0  0  0  0  0999 V2000
   -0.9244    1.5300    0.0000 N   0  0  0  0  0  0  0  0  0  0  0  0
   -1.9790    0.4633    0.0000 C   0  0  0  0  0  0  0  0  0  0  0  0
   -1.5825   -0.9834    0.0000 C   0  0  0  0  0  0  0  0  0  0  0  0
   -2.6371   -2.0501    0.0000 C   0  0  0  0  0  0  0  0  0  0  0  0
   -0.1314   -1.3633    0.0000 C   0  0  0  0  0  0  0  0  0  0  0  0
    0.4141   -2.7606    0.0000 C   0  0  0  0  0  0  0  0  0  0  0  0
    1.9116   -2.6735    0.0000 N   0  0  0  0  0  0  0  0  0  0  0  0
    2.2915   -1.2224    0.0000 C   0  0  0  0  0  0  0  0  0  0  0  0
    3.6241   -0.5338    0.0000 C   0  0  0  0  0  0  0  0  0  0  0  0
    3.6941    0.9645    0.0000 C   0  0  0  0  0  0  0  0  0  0  0  0
    2.4314    1.7743    0.0000 C   0  0  0  0  0  0  0  0  0  0  0  0
    2.5013    3.2727    0.0000 C   0  0  0  0  0  0  0  0  0  0  0  0
    1.0988    1.0857    0.0000 C   0  0  0  0  0  0  0  0  0  0  0  0
    1.0289   -0.4127    0.0000 C   0  0  0  0  0  0  0  0  0  0  0  0
   -3.4301    0.8432    0.0000 C   0  0  0  0  0  0  0  0  0  0  0  0
   -4.4847   -0.2235    0.0000 O   0  0  0  0  0  0  0  0  0  0  0  0
   -3.8266    2.2898    0.0000 O   0  0  0  0  0  0  0  0  0  0  0  0
  2  1  1  1
  2  3  1  0
  3  4  1  6
  3  5  1  0
  5  6  2  0
  6  7  1  0
  7  8  1  0
  8  9  1  0
  9 10  2  0
 10 11  1  0
 11 12  1  0
 11 13  2  0
 13 14  1  0
  2 15  1  0
 15 16  2  0
 15 17  1  0
 14  5  1  0
 14  8  2  0
M  END
>  <rName>  (3562) 
Trp_bSMe_5Me

>  <PQ_SYMBOL>  (3562) 
Trp_bSMe_5Me

>  <FULL_NAME>  (3562) 
(βS)-5-methyl-β-methyl-L-tryptophan

>  <IUPAC_CONDENSED>  (3562) 
Trp(bS-Me,5-Me)

>  <IUPAC>  (3562) 
(2S,3S)-2-amino-3-(5-methyl-1H-indol-3-yl)butanoic acid

>  <TYPE>  (3562) 
Backbone

>  <CLASS>  (3562) 
alpha

>  <ANALOG>  (3562) 
Trp

>  <MOL_WT>  (3562) 
232.283

>  <LOGP>  (3562) 
1.99172

>  <TPSA>  (3562) 
79.11

>  <POPULARITY>  (3562) 
3.1

>  <PROTECTED>  (3562) 
TRUE

>  <SMILES>  (3562) 
N[C@@H]([C@@H](C)c1(c[nH]c2(ccc(C)cc12)))C(=O)O

>  <INCHIKEY>  (3562) 
ADGLNGVOOZCDGL-UFBFGSQYSA-N

$$$$
Trp_bSMe_6F
     RDKit          2D

 17 18  0  0  0  0  0  0  0  0999 V2000
   -1.0664    1.6296    0.0000 N   0  0  0  0  0  0  0  0  0  0  0  0
   -2.1253    0.5672    0.0000 C   0  0  0  0  0  0  0  0  0  0  0  0
   -1.7347   -0.8811    0.0000 C   0  0  0  0  0  0  0  0  0  0  0  0
   -2.7936   -1.9435    0.0000 C   0  0  0  0  0  0  0  0  0  0  0  0
   -0.2851   -1.2669    0.0000 C   0  0  0  0  0  0  0  0  0  0  0  0
    0.2547   -2.6664    0.0000 C   0  0  0  0  0  0  0  0  0  0  0  0
    1.7525   -2.5854    0.0000 N   0  0  0  0  0  0  0  0  0  0  0  0
    2.1384   -1.1359    0.0000 C   0  0  0  0  0  0  0  0  0  0  0  0
    3.4738   -0.4527    0.0000 C   0  0  0  0  0  0  0  0  0  0  0  0
    3.5498    1.0454    0.0000 C   0  0  0  0  0  0  0  0  0  0  0  0
    4.8852    1.7286    0.0000 F   0  0  0  0  0  0  0  0  0  0  0  0
    2.2904    1.8603    0.0000 C   0  0  0  0  0  0  0  0  0  0  0  0
    0.9551    1.1771    0.0000 C   0  0  0  0  0  0  0  0  0  0  0  0
    0.8790   -0.3210    0.0000 C   0  0  0  0  0  0  0  0  0  0  0  0
   -3.5748    0.9530    0.0000 C   0  0  0  0  0  0  0  0  0  0  0  0
   -4.6337   -0.1094    0.0000 O   0  0  0  0  0  0  0  0  0  0  0  0
   -3.9654    2.4013    0.0000 O   0  0  0  0  0  0  0  0  0  0  0  0
  2  1  1  1
  2  3  1  0
  3  4  1  6
  3  5  1  0
  5  6  2  0
  6  7  1  0
  7  8  1  0
  8  9  1  0
  9 10  2  0
 10 11  1  0
 10 12  1  0
 12 13  2  0
 13 14  1  0
  2 15  1  0
 15 16  2  0
 15 17  1  0
 14  5  1  0
 14  8  2  0
M  END
>  <rName>  (3563) 
Trp_bSMe_6F

>  <PQ_SYMBOL>  (3563) 
Trp_bSMe_6F

>  <FULL_NAME>  (3563) 
(βS)-6-fluoro-β-methyl-L-tryptophan

>  <IUPAC_CONDENSED>  (3563) 
Trp(bS-Me,6-F)

>  <IUPAC>  (3563) 
(2S,3S)-2-amino-3-(6-fluoro-1H-indol-3-yl)butanoic acid

>  <TYPE>  (3563) 
Backbone

>  <CLASS>  (3563) 
alpha

>  <ANALOG>  (3563) 
Trp

>  <MOL_WT>  (3563) 
236.24599999999998

>  <LOGP>  (3563) 
1.8224

>  <TPSA>  (3563) 
79.11

>  <POPULARITY>  (3563) 
2.8

>  <PROTECTED>  (3563) 
TRUE

>  <SMILES>  (3563) 
N[C@@H]([C@@H](C)c1(c[nH]c2(cc(F)ccc12)))C(=O)O

>  <INCHIKEY>  (3563) 
DLSACMUILSSVLU-KGFZYKRKSA-N

$$$$
Trp_bSMe_6Me
     RDKit          2D

 17 18  0  0  0  0  0  0  0  0999 V2000
   -1.0664    1.6296    0.0000 N   0  0  0  0  0  0  0  0  0  0  0  0
   -2.1253    0.5672    0.0000 C   0  0  0  0  0  0  0  0  0  0  0  0
   -1.7347   -0.8811    0.0000 C   0  0  0  0  0  0  0  0  0  0  0  0
   -2.7936   -1.9435    0.0000 C   0  0  0  0  0  0  0  0  0  0  0  0
   -0.2851   -1.2669    0.0000 C   0  0  0  0  0  0  0  0  0  0  0  0
    0.2547   -2.6664    0.0000 C   0  0  0  0  0  0  0  0  0  0  0  0
    1.7525   -2.5854    0.0000 N   0  0  0  0  0  0  0  0  0  0  0  0
    2.1384   -1.1359    0.0000 C   0  0  0  0  0  0  0  0  0  0  0  0
    3.4738   -0.4527    0.0000 C   0  0  0  0  0  0  0  0  0  0  0  0
    3.5498    1.0454    0.0000 C   0  0  0  0  0  0  0  0  0  0  0  0
    4.8852    1.7286    0.0000 C   0  0  0  0  0  0  0  0  0  0  0  0
    2.2904    1.8603    0.0000 C   0  0  0  0  0  0  0  0  0  0  0  0
    0.9551    1.1771    0.0000 C   0  0  0  0  0  0  0  0  0  0  0  0
    0.8790   -0.3210    0.0000 C   0  0  0  0  0  0  0  0  0  0  0  0
   -3.5748    0.9530    0.0000 C   0  0  0  0  0  0  0  0  0  0  0  0
   -4.6337   -0.1094    0.0000 O   0  0  0  0  0  0  0  0  0  0  0  0
   -3.9654    2.4013    0.0000 O   0  0  0  0  0  0  0  0  0  0  0  0
  2  1  1  1
  2  3  1  0
  3  4  1  6
  3  5  1  0
  5  6  2  0
  6  7  1  0
  7  8  1  0
  8  9  1  0
  9 10  2  0
 10 11  1  0
 10 12  1  0
 12 13  2  0
 13 14  1  0
  2 15  1  0
 15 16  2  0
 15 17  1  0
 14  5  1  0
 14  8  2  0
M  END
>  <rName>  (3564) 
Trp_bSMe_6Me

>  <PQ_SYMBOL>  (3564) 
Trp_bSMe_6Me

>  <FULL_NAME>  (3564) 
(βS)-6-methyl-β-methyl-L-tryptophan

>  <IUPAC_CONDENSED>  (3564) 
Trp(bS-Me,6-Me)

>  <IUPAC>  (3564) 
(2S,3S)-2-amino-3-(6-methyl-1H-indol-3-yl)butanoic acid

>  <TYPE>  (3564) 
Backbone

>  <CLASS>  (3564) 
alpha

>  <ANALOG>  (3564) 
Trp

>  <MOL_WT>  (3564) 
232.283

>  <LOGP>  (3564) 
1.99172

>  <TPSA>  (3564) 
79.11

>  <POPULARITY>  (3564) 
3.1

>  <PROTECTED>  (3564) 
TRUE

>  <SMILES>  (3564) 
N[C@@H]([C@@H](C)c1(c[nH]c2(cc(C)ccc12)))C(=O)O

>  <INCHIKEY>  (3564) 
HTGTZPXLJOCMHH-UFBFGSQYSA-N

$$$$
Trp_bSMe_7Me
     RDKit          2D

 17 18  0  0  0  0  0  0  0  0999 V2000
   -1.3244    1.6202    0.0000 N   0  0  0  0  0  0  0  0  0  0  0  0
   -2.2060    0.4065    0.0000 C   0  0  0  0  0  0  0  0  0  0  0  0
   -1.5957   -0.9637    0.0000 C   0  0  0  0  0  0  0  0  0  0  0  0
   -2.4772   -2.1773    0.0000 C   0  0  0  0  0  0  0  0  0  0  0  0
   -0.1039   -1.1203    0.0000 C   0  0  0  0  0  0  0  0  0  0  0  0
    0.6463   -2.4192    0.0000 C   0  0  0  0  0  0  0  0  0  0  0  0
    2.1135   -2.1072    0.0000 N   0  0  0  0  0  0  0  0  0  0  0  0
    2.2701   -0.6154    0.0000 C   0  0  0  0  0  0  0  0  0  0  0  0
    3.4835    0.2665    0.0000 C   0  0  0  0  0  0  0  0  0  0  0  0
    4.8539   -0.3434    0.0000 C   0  0  0  0  0  0  0  0  0  0  0  0
    3.3265    1.7582    0.0000 C   0  0  0  0  0  0  0  0  0  0  0  0
    1.9561    2.3682    0.0000 C   0  0  0  0  0  0  0  0  0  0  0  0
    0.7427    1.4863    0.0000 C   0  0  0  0  0  0  0  0  0  0  0  0
    0.8997   -0.0054    0.0000 C   0  0  0  0  0  0  0  0  0  0  0  0
   -3.6978    0.5631    0.0000 C   0  0  0  0  0  0  0  0  0  0  0  0
   -4.5793   -0.6505    0.0000 O   0  0  0  0  0  0  0  0  0  0  0  0
   -4.3080    1.9334    0.0000 O   0  0  0  0  0  0  0  0  0  0  0  0
  2  1  1  1
  2  3  1  0
  3  4  1  6
  3  5  1  0
  5  6  2  0
  6  7  1  0
  7  8  1  0
  8  9  2  0
  9 10  1  0
  9 11  1  0
 11 12  2  0
 12 13  1  0
 13 14  2  0
  2 15  1  0
 15 16  2  0
 15 17  1  0
 14  5  1  0
 14  8  1  0
M  END
>  <rName>  (3565) 
Trp_bSMe_7Me

>  <PQ_SYMBOL>  (3565) 
Trp_bSMe_7Me

>  <FULL_NAME>  (3565) 
(βS)-7-methyl-β-methyl-L-tryptophan

>  <IUPAC_CONDENSED>  (3565) 
Trp(bS-Me,7-Me)

>  <IUPAC>  (3565) 
(2S,3S)-2-amino-3-(7-methyl-1H-indol-3-yl)butanoic acid

>  <TYPE>  (3565) 
Backbone

>  <CLASS>  (3565) 
alpha

>  <ANALOG>  (3565) 
Trp

>  <MOL_WT>  (3565) 
232.283

>  <LOGP>  (3565) 
1.99172

>  <TPSA>  (3565) 
79.11

>  <POPULARITY>  (3565) 
3.0

>  <PROTECTED>  (3565) 
TRUE

>  <SMILES>  (3565) 
N[C@@H]([C@@H](C)c1(c[nH]c2(c(C)cccc12)))C(=O)O

>  <INCHIKEY>  (3565) 
HCWZUDJZIXBPII-KWQFWETISA-N

$$$$
Tyr-OBn
     RDKit          2D

 20 21  0  0  0  0  0  0  0  0999 V2000
    0.8884    1.0519    0.0000 N   0  0  0  0  0  0  0  0  0  0  0  0
    0.8267   -0.4469    0.0000 C   0  0  0  0  0  0  0  0  0  0  0  0
    2.0938   -1.2496    0.0000 C   0  0  0  0  0  0  0  0  0  0  0  0
    3.4226   -0.5537    0.0000 C   0  0  0  0  0  0  0  0  0  0  0  0
    4.6897   -1.3564    0.0000 C   0  0  0  0  0  0  0  0  0  0  0  0
    6.0185   -0.6605    0.0000 C   0  0  0  0  0  0  0  0  0  0  0  0
    6.0801    0.8383    0.0000 C   0  0  0  0  0  0  0  0  0  0  0  0
    7.4089    1.5342    0.0000 O   0  0  0  0  0  0  0  0  0  0  0  0
    4.8130    1.6410    0.0000 C   0  0  0  0  0  0  0  0  0  0  0  0
    3.4842    0.9451    0.0000 C   0  0  0  0  0  0  0  0  0  0  0  0
   -0.5021   -1.1428    0.0000 C   0  0  0  0  0  0  0  0  0  0  0  0
   -0.5637   -2.6416    0.0000 O   0  0  0  0  0  0  0  0  0  0  0  0
   -1.7692   -0.3401    0.0000 O   0  0  0  0  0  0  0  0  0  0  0  0
   -3.0979   -1.0360    0.0000 C   0  0  0  0  0  0  0  0  0  0  0  0
   -4.3651   -0.2332    0.0000 C   0  0  0  0  0  0  0  0  0  0  0  0
   -4.3034    1.2655    0.0000 C   0  0  0  0  0  0  0  0  0  0  0  0
   -5.5705    2.0683    0.0000 C   0  0  0  0  0  0  0  0  0  0  0  0
   -6.8993    1.3723    0.0000 C   0  0  0  0  0  0  0  0  0  0  0  0
   -6.9609   -0.1264    0.0000 C   0  0  0  0  0  0  0  0  0  0  0  0
   -5.6938   -0.9292    0.0000 C   0  0  0  0  0  0  0  0  0  0  0  0
  2  1  1  1
  2  3  1  0
  3  4  1  0
  4  5  1  0
  5  6  2  0
  6  7  1  0
  7  8  1  0
  7  9  2  0
  9 10  1  0
  2 11  1  0
 11 12  2  0
 11 13  1  0
 13 14  1  0
 14 15  1  0
 15 16  2  0
 16 17  1  0
 17 18  2  0
 18 19  1  0
 19 20  2  0
 20 15  1  0
 10  4  2  0
M  END
>  <rName>  (3566) 
Tyr-OBn

>  <PQ_SYMBOL>  (3566) 
Tyr-OBn

>  <FULL_NAME>  (3566) 
Tyrosine benzyl ester

>  <IUPAC_CONDENSED>  (3566) 
Tyr-OBn

>  <IUPAC>  (3566) 
benzyl (2S)-2-amino-3-(4-hydroxyphenyl)propanoate

>  <TYPE>  (3566) 
C-term cap

>  <CLASS>  (3566) 
c_cap

>  <ANALOG>  (3566) 
X

>  <MOL_WT>  (3566) 
271.316

>  <LOGP>  (3566) 
2.0054

>  <TPSA>  (3566) 
72.55

>  <POPULARITY>  (3566) 
7.1

>  <PROTECTED>  (3566) 
TRUE

>  <SMILES>  (3566) 
N[C@@H](Cc2(ccc(O)cc2))C(=O)OCc1ccccc1

>  <INCHIKEY>  (3566) 
BVCTWRNVKLXEQC-HNNXBMFYSA-N

$$$$
Tyr-OMe
     RDKit          2D

 14 14  0  0  0  0  0  0  0  0999 V2000
   -1.1981    1.6034    0.0000 N   0  0  0  0  0  0  0  0  0  0  0  0
   -1.5924    0.1561    0.0000 C   0  0  0  0  0  0  0  0  0  0  0  0
   -3.0428   -0.2261    0.0000 C   0  0  0  0  0  0  0  0  0  0  0  0
   -3.4370   -1.6734    0.0000 O   0  0  0  0  0  0  0  0  0  0  0  0
   -4.0991    0.8389    0.0000 O   0  0  0  0  0  0  0  0  0  0  0  0
   -5.5496    0.4566    0.0000 C   0  0  0  0  0  0  0  0  0  0  0  0
   -0.5361   -0.9089    0.0000 C   0  0  0  0  0  0  0  0  0  0  0  0
    0.9144   -0.5267    0.0000 C   0  0  0  0  0  0  0  0  0  0  0  0
    1.3086    0.9206    0.0000 C   0  0  0  0  0  0  0  0  0  0  0  0
    2.7591    1.3028    0.0000 C   0  0  0  0  0  0  0  0  0  0  0  0
    3.8154    0.2378    0.0000 C   0  0  0  0  0  0  0  0  0  0  0  0
    3.4212   -1.2095    0.0000 C   0  0  0  0  0  0  0  0  0  0  0  0
    1.9707   -1.5917    0.0000 C   0  0  0  0  0  0  0  0  0  0  0  0
    5.2658    0.6201    0.0000 O   0  0  0  0  0  0  0  0  0  0  0  0
  2  1  1  1
  2  3  1  0
  3  4  2  0
  3  5  1  0
  5  6  1  0
  2  7  1  0
  7  8  1  0
  8  9  1  0
  9 10  2  0
 10 11  1  0
 11 12  2  0
 12 13  1  0
 11 14  1  0
 13  8  2  0
M  END
>  <rName>  (3567) 
Tyr-OMe

>  <PQ_SYMBOL>  (3567) 
Tyr-OMe

>  <FULL_NAME>  (3567) 
Tyrosine methyl ester

>  <IUPAC_CONDENSED>  (3567) 
Tyr-OMe

>  <IUPAC>  (3567) 
methyl (2S)-2-amino-3-(4-hydroxyphenyl)propanoate

>  <TYPE>  (3567) 
C-term cap

>  <CLASS>  (3567) 
c_cap

>  <ANALOG>  (3567) 
X

>  <MOL_WT>  (3567) 
195.21800000000002

>  <LOGP>  (3567) 
0.43499999999999944

>  <TPSA>  (3567) 
72.55000000000001

>  <POPULARITY>  (3567) 
16.2

>  <PROTECTED>  (3567) 
TRUE

>  <SMILES>  (3567) 
N[C@H](C(=O)OC)Cc1ccc(cc1)O

>  <INCHIKEY>  (3567) 
MWZPENIJLUWBSY-VIFPVBQESA-N

$$$$
Tyr-al
     RDKit          2D

 12 12  0  0  0  0  0  0  0  0999 V2000
   -2.0214    1.4003    0.0000 N   0  0  0  0  0  0  0  0  0  0  0  0
   -2.3410   -0.0652    0.0000 C   0  0  0  0  0  0  0  0  0  0  0  0
   -3.7700   -0.5213    0.0000 C   0  0  0  0  0  0  0  0  0  0  0  0
   -4.8794    0.4883    0.0000 O   0  0  0  0  0  0  0  0  0  0  0  0
   -1.2315   -1.0748    0.0000 C   0  0  0  0  0  0  0  0  0  0  0  0
    0.1975   -0.6188    0.0000 C   0  0  0  0  0  0  0  0  0  0  0  0
    0.5170    0.8468    0.0000 C   0  0  0  0  0  0  0  0  0  0  0  0
    1.9460    1.3028    0.0000 C   0  0  0  0  0  0  0  0  0  0  0  0
    3.0555    0.2932    0.0000 C   0  0  0  0  0  0  0  0  0  0  0  0
    2.7359   -1.1723    0.0000 C   0  0  0  0  0  0  0  0  0  0  0  0
    1.3069   -1.6283    0.0000 C   0  0  0  0  0  0  0  0  0  0  0  0
    4.4845    0.7493    0.0000 O   0  0  0  0  0  0  0  0  0  0  0  0
  2  1  1  1
  2  3  1  0
  3  4  2  0
  2  5  1  0
  5  6  1  0
  6  7  1  0
  7  8  2  0
  8  9  1  0
  9 10  2  0
 10 11  1  0
  9 12  1  0
 11  6  2  0
M  END
>  <rName>  (3568) 
Tyr-al

>  <PQ_SYMBOL>  (3568) 
Tyr-al

>  <FULL_NAME>  (3568) 
TYROSINAL

>  <IUPAC_CONDENSED>  (3568) 
Tyr-al

>  <IUPAC>  (3568) 
(2S)-2-amino-3-(4-hydroxyphenyl)propanal

>  <TYPE>  (3568) 
C-term cap

>  <CLASS>  (3568) 
c_cap

>  <ANALOG>  (3568) 
X

>  <MOL_WT>  (3568) 
165.192

>  <LOGP>  (3568) 
0.4608999999999996

>  <TPSA>  (3568) 
63.32000000000001

>  <POPULARITY>  (3568) 
18.7

>  <PROTECTED>  (3568) 
FALSE

>  <SMILES>  (3568) 
N[C@H](C=O)Cc1ccc(cc1)O

>  <INCHIKEY>  (3568) 
DXGAIOIQACHYRK-QMMMGPOBSA-N

$$$$
Tyr-ol
     RDKit          2D

 12 12  0  0  0  0  0  0  0  0999 V2000
   -2.0214    1.4003    0.0000 N   0  0  0  0  0  0  0  0  0  0  0  0
   -2.3410   -0.0652    0.0000 C   0  0  0  0  0  0  0  0  0  0  0  0
   -3.7700   -0.5213    0.0000 C   0  0  0  0  0  0  0  0  0  0  0  0
   -4.8794    0.4883    0.0000 O   0  0  0  0  0  0  0  0  0  0  0  0
   -1.2315   -1.0748    0.0000 C   0  0  0  0  0  0  0  0  0  0  0  0
    0.1975   -0.6188    0.0000 C   0  0  0  0  0  0  0  0  0  0  0  0
    0.5170    0.8468    0.0000 C   0  0  0  0  0  0  0  0  0  0  0  0
    1.9460    1.3028    0.0000 C   0  0  0  0  0  0  0  0  0  0  0  0
    3.0555    0.2932    0.0000 C   0  0  0  0  0  0  0  0  0  0  0  0
    2.7359   -1.1723    0.0000 C   0  0  0  0  0  0  0  0  0  0  0  0
    1.3069   -1.6283    0.0000 C   0  0  0  0  0  0  0  0  0  0  0  0
    4.4845    0.7493    0.0000 O   0  0  0  0  0  0  0  0  0  0  0  0
  2  1  1  1
  2  3  1  0
  3  4  1  0
  2  5  1  0
  5  6  1  0
  6  7  1  0
  7  8  2  0
  8  9  1  0
  9 10  2  0
 10 11  1  0
  9 12  1  0
 11  6  2  0
M  END
>  <rName>  (3569) 
Tyr-ol

>  <PQ_SYMBOL>  (3569) 
Tyr-ol

>  <FULL_NAME>  (3569) 
4-[(2S)-2-amino-3-hydroxypropyl]phenol

>  <IUPAC_CONDENSED>  (3569) 
Tyr-ol

>  <IUPAC>  (3569) 
4-((2S)-2-amino-3-hydroxypropyl)benzen-1-ol

>  <TYPE>  (3569) 
C-term cap

>  <CLASS>  (3569) 
c_cap

>  <ANALOG>  (3569) 
X

>  <MOL_WT>  (3569) 
167.208

>  <LOGP>  (3569) 
0.2542999999999999

>  <TPSA>  (3569) 
66.48

>  <POPULARITY>  (3569) 
21.8

>  <PROTECTED>  (3569) 
FALSE

>  <SMILES>  (3569) 
N[C@H](CO)Cc1ccc(cc1)O

>  <INCHIKEY>  (3569) 
DBLDQZASZZMNSL-QMMMGPOBSA-N

$$$$
Tyr3-OH-OMe
     RDKit          2D

 15 15  0  0  0  0  0  0  0  0999 V2000
   -1.6113    1.6504    0.0000 N   0  0  0  0  0  0  0  0  0  0  0  0
   -1.9073    0.1799    0.0000 C   0  0  0  0  0  0  0  0  0  0  0  0
   -3.3288   -0.2990    0.0000 C   0  0  0  0  0  0  0  0  0  0  0  0
   -3.6248   -1.7695    0.0000 O   0  0  0  0  0  0  0  0  0  0  0  0
   -4.4542    0.6926    0.0000 O   0  0  0  0  0  0  0  0  0  0  0  0
   -5.8757    0.2137    0.0000 C   0  0  0  0  0  0  0  0  0  0  0  0
   -0.7818   -0.8117    0.0000 C   0  0  0  0  0  0  0  0  0  0  0  0
    0.6397   -0.3328    0.0000 C   0  0  0  0  0  0  0  0  0  0  0  0
    0.9357    1.1377    0.0000 C   0  0  0  0  0  0  0  0  0  0  0  0
    2.3572    1.6166    0.0000 C   0  0  0  0  0  0  0  0  0  0  0  0
    3.4827    0.6250    0.0000 C   0  0  0  0  0  0  0  0  0  0  0  0
    3.1867   -0.8455    0.0000 C   0  0  0  0  0  0  0  0  0  0  0  0
    4.3122   -1.8371    0.0000 O   0  0  0  0  0  0  0  0  0  0  0  0
    1.7652   -1.3244    0.0000 C   0  0  0  0  0  0  0  0  0  0  0  0
    4.9042    1.1039    0.0000 O   0  0  0  0  0  0  0  0  0  0  0  0
  2  1  1  1
  2  3  1  0
  3  4  2  0
  3  5  1  0
  5  6  1  0
  2  7  1  0
  7  8  1  0
  8  9  1  0
  9 10  2  0
 10 11  1  0
 11 12  2  0
 12 13  1  0
 12 14  1  0
 11 15  1  0
 14  8  2  0
M  END
>  <rName>  (3570) 
Tyr3-OH-OMe

>  <PQ_SYMBOL>  (3570) 
Tyr3-OH-OMe

>  <FULL_NAME>  (3570) 
methyl (2S)-2-amino-3-(3,4-dihydroxyphenyl)propanoate

>  <IUPAC_CONDENSED>  (3570) 
Tyr(3-OH)-OMe

>  <IUPAC>  (3570) 
methyl (2S)-2-amino-3-(3,4-dihydroxyphenyl)propanoate

>  <TYPE>  (3570) 
C-term cap

>  <CLASS>  (3570) 
c_cap

>  <ANALOG>  (3570) 
X

>  <MOL_WT>  (3570) 
211.217

>  <LOGP>  (3570) 
0.1405999999999995

>  <TPSA>  (3570) 
92.78000000000002

>  <POPULARITY>  (3570) 
10.3

>  <PROTECTED>  (3570) 
TRUE

>  <SMILES>  (3570) 
N[C@H](C(=O)OC)Cc1ccc(c(O)c1)O

>  <INCHIKEY>  (3570) 
XBBDACCLCFWBSI-ZETCQYMHSA-N

$$$$
Tyr_23_56tetraF
     RDKit          2D

 17 17  0  0  0  0  0  0  0  0999 V2000
   -2.1241    1.6089    0.0000 N   0  0  0  0  0  0  0  0  0  0  0  0
   -2.4801    0.1517    0.0000 C   0  0  0  0  0  0  0  0  0  0  0  0
   -1.3962   -0.8851    0.0000 C   0  0  0  0  0  0  0  0  0  0  0  0
    0.0438   -0.4648    0.0000 C   0  0  0  0  0  0  0  0  0  0  0  0
    0.3997    0.9923    0.0000 C   0  0  0  0  0  0  0  0  0  0  0  0
   -0.6842    2.0292    0.0000 F   0  0  0  0  0  0  0  0  0  0  0  0
    1.8397    1.4126    0.0000 C   0  0  0  0  0  0  0  0  0  0  0  0
    2.1956    2.8697    0.0000 F   0  0  0  0  0  0  0  0  0  0  0  0
    2.9236    0.3757    0.0000 C   0  0  0  0  0  0  0  0  0  0  0  0
    4.3635    0.7960    0.0000 O   0  0  0  0  0  0  0  0  0  0  0  0
    2.5676   -1.0814    0.0000 C   0  0  0  0  0  0  0  0  0  0  0  0
    3.6515   -2.1183    0.0000 F   0  0  0  0  0  0  0  0  0  0  0  0
    1.1277   -1.5017    0.0000 C   0  0  0  0  0  0  0  0  0  0  0  0
    0.7717   -2.9589    0.0000 F   0  0  0  0  0  0  0  0  0  0  0  0
   -3.9200   -0.2685    0.0000 C   0  0  0  0  0  0  0  0  0  0  0  0
   -4.2760   -1.7257    0.0000 O   0  0  0  0  0  0  0  0  0  0  0  0
   -5.0039    0.7683    0.0000 O   0  0  0  0  0  0  0  0  0  0  0  0
  2  1  1  1
  2  3  1  0
  3  4  1  0
  4  5  2  0
  5  6  1  0
  5  7  1  0
  7  8  1  0
  7  9  2  0
  9 10  1  0
  9 11  1  0
 11 12  1  0
 11 13  2  0
 13 14  1  0
  2 15  1  0
 15 16  2  0
 15 17  1  0
 13  4  1  0
M  END
>  <rName>  (3571) 
Tyr_23_56tetraF

>  <PQ_SYMBOL>  (3571) 
Tyr_23_56tetraF

>  <FULL_NAME>  (3571) 
(2S)-2-amino-3-(2,3,5,6-tetrafluoro-4-hydroxyphenyl)propanoic acid

>  <IUPAC_CONDENSED>  (3571) 
Tyr(2,3,5,6-tetraF)

>  <IUPAC>  (3571) 
(2S)-2-amino-3-(2,3,5,6-tetrafluoro-4-hydroxyphenyl)propanoic acid

>  <TYPE>  (3571) 
Backbone

>  <CLASS>  (3571) 
alpha

>  <ANALOG>  (3571) 
Tyr

>  <MOL_WT>  (3571) 
253.15099999999998

>  <LOGP>  (3571) 
0.903

>  <TPSA>  (3571) 
83.55

>  <POPULARITY>  (3571) 
8.6

>  <PROTECTED>  (3571) 
TRUE

>  <SMILES>  (3571) 
N[C@@H](Cc1(c(F)c(F)c(O)c(F)c1F))C(=O)O

>  <INCHIKEY>  (3571) 
KFUSMUNGVKVABM-VKHMYHEASA-N

$$$$
Tyr_23diCl
     RDKit          2D

 15 15  0  0  0  0  0  0  0  0999 V2000
   -2.1266    1.8214    0.0000 N   0  0  0  0  0  0  0  0  0  0  0  0
   -2.4020    0.3470    0.0000 C   0  0  0  0  0  0  0  0  0  0  0  0
   -1.2628   -0.6288    0.0000 C   0  0  0  0  0  0  0  0  0  0  0  0
    0.1519   -0.1301    0.0000 C   0  0  0  0  0  0  0  0  0  0  0  0
    0.4273    1.3444    0.0000 C   0  0  0  0  0  0  0  0  0  0  0  0
    1.8420    1.8431    0.0000 C   0  0  0  0  0  0  0  0  0  0  0  0
    2.9812    0.8673    0.0000 C   0  0  0  0  0  0  0  0  0  0  0  0
    4.3959    1.3661    0.0000 O   0  0  0  0  0  0  0  0  0  0  0  0
    2.7058   -0.6072    0.0000 C   0  0  0  0  0  0  0  0  0  0  0  0
    3.8450   -1.5829    0.0000 Cl  0  0  0  0  0  0  0  0  0  0  0  0
    1.2911   -1.1059    0.0000 C   0  0  0  0  0  0  0  0  0  0  0  0
    1.0157   -2.5804    0.0000 Cl  0  0  0  0  0  0  0  0  0  0  0  0
   -3.8167   -0.1518    0.0000 C   0  0  0  0  0  0  0  0  0  0  0  0
   -4.0921   -1.6263    0.0000 O   0  0  0  0  0  0  0  0  0  0  0  0
   -4.9559    0.8240    0.0000 O   0  0  0  0  0  0  0  0  0  0  0  0
  2  1  1  1
  2  3  1  0
  3  4  1  0
  4  5  1  0
  5  6  2  0
  6  7  1  0
  7  8  1  0
  7  9  2  0
  9 10  1  0
  9 11  1  0
 11 12  1  0
  2 13  1  0
 13 14  2  0
 13 15  1  0
 11  4  2  0
M  END
>  <rName>  (3572) 
Tyr_23diCl

>  <PQ_SYMBOL>  (3572) 
Tyr_23diCl

>  <FULL_NAME>  (3572) 
2,3-dichloro-L-tyrosine

>  <IUPAC_CONDENSED>  (3572) 
Tyr(2,3-diCl)

>  <IUPAC>  (3572) 
(2S)-2-amino-3-(2,3-dichloro-4-hydroxyphenyl)propanoic acid

>  <TYPE>  (3572) 
Backbone

>  <CLASS>  (3572) 
alpha

>  <ANALOG>  (3572) 
Tyr

>  <MOL_WT>  (3572) 
250.08099999999996

>  <LOGP>  (3572) 
1.6534

>  <TPSA>  (3572) 
83.55

>  <POPULARITY>  (3572) 
3.0

>  <PROTECTED>  (3572) 
TRUE

>  <SMILES>  (3572) 
N[C@@H](Cc1(ccc(O)c(Cl)c1Cl))C(=O)O

>  <INCHIKEY>  (3572) 
CZMZPVRJCFFMGI-YFKPBYRVSA-N

$$$$
Tyr_23diF
     RDKit          2D

 15 15  0  0  0  0  0  0  0  0999 V2000
   -2.1266    1.8214    0.0000 N   0  0  0  0  0  0  0  0  0  0  0  0
   -2.4020    0.3470    0.0000 C   0  0  0  0  0  0  0  0  0  0  0  0
   -1.2628   -0.6288    0.0000 C   0  0  0  0  0  0  0  0  0  0  0  0
    0.1519   -0.1301    0.0000 C   0  0  0  0  0  0  0  0  0  0  0  0
    0.4273    1.3444    0.0000 C   0  0  0  0  0  0  0  0  0  0  0  0
    1.8420    1.8431    0.0000 C   0  0  0  0  0  0  0  0  0  0  0  0
    2.9812    0.8673    0.0000 C   0  0  0  0  0  0  0  0  0  0  0  0
    4.3959    1.3661    0.0000 O   0  0  0  0  0  0  0  0  0  0  0  0
    2.7058   -0.6072    0.0000 C   0  0  0  0  0  0  0  0  0  0  0  0
    3.8450   -1.5829    0.0000 F   0  0  0  0  0  0  0  0  0  0  0  0
    1.2911   -1.1059    0.0000 C   0  0  0  0  0  0  0  0  0  0  0  0
    1.0157   -2.5804    0.0000 F   0  0  0  0  0  0  0  0  0  0  0  0
   -3.8167   -0.1518    0.0000 C   0  0  0  0  0  0  0  0  0  0  0  0
   -4.0921   -1.6263    0.0000 O   0  0  0  0  0  0  0  0  0  0  0  0
   -4.9559    0.8240    0.0000 O   0  0  0  0  0  0  0  0  0  0  0  0
  2  1  1  1
  2  3  1  0
  3  4  1  0
  4  5  1  0
  5  6  2  0
  6  7  1  0
  7  8  1  0
  7  9  2  0
  9 10  1  0
  9 11  1  0
 11 12  1  0
  2 13  1  0
 13 14  2  0
 13 15  1  0
 11  4  2  0
M  END
>  <rName>  (3573) 
Tyr_23diF

>  <PQ_SYMBOL>  (3573) 
Tyr_23diF

>  <FULL_NAME>  (3573) 
2,3-difluoro-L-tyrosine

>  <IUPAC_CONDENSED>  (3573) 
Tyr(2,3-diF)

>  <IUPAC>  (3573) 
(2S)-2-amino-3-(2,3-difluoro-4-hydroxyphenyl)propanoic acid

>  <TYPE>  (3573) 
Backbone

>  <CLASS>  (3573) 
alpha

>  <ANALOG>  (3573) 
Tyr

>  <MOL_WT>  (3573) 
217.17099999999994

>  <LOGP>  (3573) 
0.6248

>  <TPSA>  (3573) 
83.55

>  <POPULARITY>  (3573) 
6.8

>  <PROTECTED>  (3573) 
TRUE

>  <SMILES>  (3573) 
N[C@@H](Cc1(ccc(O)c(F)c1F))C(=O)O

>  <INCHIKEY>  (3573) 
XWNMQLVJIYFCFZ-YFKPBYRVSA-N

$$$$
Tyr_26diF
     RDKit          2D

 15 15  0  0  0  0  0  0  0  0999 V2000
   -1.7110    1.6830    0.0000 N   0  0  0  0  0  0  0  0  0  0  0  0
   -2.0873    0.2310    0.0000 C   0  0  0  0  0  0  0  0  0  0  0  0
   -1.0179   -0.8209    0.0000 C   0  0  0  0  0  0  0  0  0  0  0  0
    0.4277   -0.4208    0.0000 C   0  0  0  0  0  0  0  0  0  0  0  0
    0.8040    1.0313    0.0000 C   0  0  0  0  0  0  0  0  0  0  0  0
   -0.2654    2.0832    0.0000 F   0  0  0  0  0  0  0  0  0  0  0  0
    2.2497    1.4315    0.0000 C   0  0  0  0  0  0  0  0  0  0  0  0
    3.3190    0.3796    0.0000 C   0  0  0  0  0  0  0  0  0  0  0  0
    4.7647    0.7797    0.0000 O   0  0  0  0  0  0  0  0  0  0  0  0
    2.9428   -1.0725    0.0000 C   0  0  0  0  0  0  0  0  0  0  0  0
    1.4971   -1.4726    0.0000 C   0  0  0  0  0  0  0  0  0  0  0  0
    1.1209   -2.9247    0.0000 F   0  0  0  0  0  0  0  0  0  0  0  0
   -3.5329   -0.1692    0.0000 C   0  0  0  0  0  0  0  0  0  0  0  0
   -3.9092   -1.6212    0.0000 O   0  0  0  0  0  0  0  0  0  0  0  0
   -4.6023    0.8827    0.0000 O   0  0  0  0  0  0  0  0  0  0  0  0
  2  1  1  1
  2  3  1  0
  3  4  1  0
  4  5  2  0
  5  6  1  0
  5  7  1  0
  7  8  2  0
  8  9  1  0
  8 10  1  0
 10 11  2  0
 11 12  1  0
  2 13  1  0
 13 14  2  0
 13 15  1  0
 11  4  1  0
M  END
>  <rName>  (3574) 
Tyr_26diF

>  <PQ_SYMBOL>  (3574) 
Tyr_26diF

>  <FULL_NAME>  (3574) 
(S)-2-amino-3-(2,6-difluoro-4-hydroxyphenyl)propanoic acid

>  <IUPAC_CONDENSED>  (3574) 
Tyr(2,6-diF)

>  <IUPAC>  (3574) 
(2S)-2-amino-3-(2,6-difluoro-4-hydroxyphenyl)propanoic acid

>  <TYPE>  (3574) 
Backbone

>  <CLASS>  (3574) 
alpha

>  <ANALOG>  (3574) 
Tyr

>  <MOL_WT>  (3574) 
217.17099999999996

>  <LOGP>  (3574) 
0.6248

>  <TPSA>  (3574) 
83.55

>  <POPULARITY>  (3574) 
6.9

>  <PROTECTED>  (3574) 
TRUE

>  <SMILES>  (3574) 
N[C@@H](Cc1(c(F)cc(O)cc1F))C(=O)O

>  <INCHIKEY>  (3574) 
GXXSRPQBOBZVBN-QMMMGPOBSA-N

$$$$
Tyr_26diF-
     RDKit          2D

 15 15  0  0  0  0  0  0  0  0999 V2000
   -1.7110    1.6830    0.0000 N   0  0  0  0  0  0  0  0  0  0  0  0
   -2.0873    0.2310    0.0000 C   0  0  0  0  0  0  0  0  0  0  0  0
   -1.0179   -0.8209    0.0000 C   0  0  0  0  0  0  0  0  0  0  0  0
    0.4277   -0.4208    0.0000 C   0  0  0  0  0  0  0  0  0  0  0  0
    0.8040    1.0313    0.0000 C   0  0  0  0  0  0  0  0  0  0  0  0
   -0.2654    2.0832    0.0000 F   0  0  0  0  0  0  0  0  0  0  0  0
    2.2497    1.4315    0.0000 C   0  0  0  0  0  0  0  0  0  0  0  0
    3.3190    0.3796    0.0000 C   0  0  0  0  0  0  0  0  0  0  0  0
    4.7647    0.7797    0.0000 O   0  0  0  0  0  0  0  0  0  0  0  0
    2.9428   -1.0725    0.0000 C   0  0  0  0  0  0  0  0  0  0  0  0
    1.4971   -1.4726    0.0000 C   0  0  0  0  0  0  0  0  0  0  0  0
    1.1209   -2.9247    0.0000 F   0  0  0  0  0  0  0  0  0  0  0  0
   -3.5329   -0.1692    0.0000 C   0  0  0  0  0  0  0  0  0  0  0  0
   -3.9092   -1.6212    0.0000 O   0  0  0  0  0  0  0  0  0  0  0  0
   -4.6023    0.8827    0.0000 O   0  0  0  0  0  0  0  0  0  0  0  0
  2  1  1  1
  2  3  1  0
  3  4  1  0
  4  5  2  0
  5  6  1  0
  5  7  1  0
  7  8  2  0
  8  9  1  0
  8 10  1  0
 10 11  2  0
 11 12  1  0
  2 13  1  0
 13 14  2  0
 13 15  1  0
 11  4  1  0
M  END
>  <rName>  (3575) 
Tyr_26diF-

>  <PQ_SYMBOL>  (3575) 
Tyr_26diF-

>  <FULL_NAME>  (3575) 
(2S)-2-amino-3-(2,6-difluoro-4-hydroxyphenyl)propanoic acid

>  <IUPAC_CONDENSED>  (3575) 
Tyr(2,6-diF)-

>  <IUPAC>  (3575) 
(2S)-2-amino-3-(2,6-difluoro-4-hydroxyphenyl)propanoic acid

>  <TYPE>  (3575) 
N-term cap

>  <CLASS>  (3575) 
n_cap

>  <ANALOG>  (3575) 
X

>  <MOL_WT>  (3575) 
217.17099999999996

>  <LOGP>  (3575) 
0.6248

>  <TPSA>  (3575) 
83.55

>  <POPULARITY>  (3575) 
8.6

>  <PROTECTED>  (3575) 
TRUE

>  <SMILES>  (3575) 
N[C@@H](Cc1(c(F)cc(O)cc1F))C(=O)O

>  <INCHIKEY>  (3575) 
GXXSRPQBOBZVBN-QMMMGPOBSA-N

$$$$
Tyr_26diMe
     RDKit          2D

 15 15  0  0  0  0  0  0  0  0999 V2000
   -1.7110    1.6830    0.0000 N   0  0  0  0  0  0  0  0  0  0  0  0
   -2.0873    0.2310    0.0000 C   0  0  0  0  0  0  0  0  0  0  0  0
   -1.0179   -0.8209    0.0000 C   0  0  0  0  0  0  0  0  0  0  0  0
    0.4277   -0.4208    0.0000 C   0  0  0  0  0  0  0  0  0  0  0  0
    0.8040    1.0313    0.0000 C   0  0  0  0  0  0  0  0  0  0  0  0
   -0.2654    2.0832    0.0000 C   0  0  0  0  0  0  0  0  0  0  0  0
    2.2497    1.4315    0.0000 C   0  0  0  0  0  0  0  0  0  0  0  0
    3.3190    0.3796    0.0000 C   0  0  0  0  0  0  0  0  0  0  0  0
    4.7647    0.7797    0.0000 O   0  0  0  0  0  0  0  0  0  0  0  0
    2.9428   -1.0725    0.0000 C   0  0  0  0  0  0  0  0  0  0  0  0
    1.4971   -1.4726    0.0000 C   0  0  0  0  0  0  0  0  0  0  0  0
    1.1209   -2.9247    0.0000 C   0  0  0  0  0  0  0  0  0  0  0  0
   -3.5329   -0.1692    0.0000 C   0  0  0  0  0  0  0  0  0  0  0  0
   -3.9092   -1.6212    0.0000 O   0  0  0  0  0  0  0  0  0  0  0  0
   -4.6023    0.8827    0.0000 O   0  0  0  0  0  0  0  0  0  0  0  0
  2  1  1  1
  2  3  1  0
  3  4  1  0
  4  5  2  0
  5  6  1  0
  5  7  1  0
  7  8  2  0
  8  9  1  0
  8 10  1  0
 10 11  2  0
 11 12  1  0
  2 13  1  0
 13 14  2  0
 13 15  1  0
 11  4  1  0
M  END
>  <rName>  (3576) 
Tyr_26diMe

>  <PQ_SYMBOL>  (3576) 
Tyr_26diMe

>  <FULL_NAME>  (3576) 
2,6-Dimethyl-L-Tyrosine

>  <IUPAC_CONDENSED>  (3576) 
Tyr(2,6-diMe)

>  <IUPAC>  (3576) 
(2S)-2-amino-3-(4-hydroxy-2,6-dimethylphenyl)propanoic acid

>  <TYPE>  (3576) 
Backbone

>  <CLASS>  (3576) 
alpha

>  <ANALOG>  (3576) 
Tyr

>  <MOL_WT>  (3576) 
209.24499999999998

>  <LOGP>  (3576) 
0.9634400000000001

>  <TPSA>  (3576) 
83.55

>  <POPULARITY>  (3576) 
30.4

>  <PROTECTED>  (3576) 
TRUE

>  <SMILES>  (3576) 
N[C@@H](Cc1(c(C)cc(O)cc1C))C(=O)O

>  <INCHIKEY>  (3576) 
LSNDLIKCFHLFKO-JTQLQIEISA-N

$$$$
Tyr_2Br
     RDKit          2D

 14 14  0  0  0  0  0  0  0  0999 V2000
   -1.7174    1.8436    0.0000 N   0  0  0  0  0  0  0  0  0  0  0  0
   -2.1036    0.3942    0.0000 C   0  0  0  0  0  0  0  0  0  0  0  0
   -1.0414   -0.6650    0.0000 C   0  0  0  0  0  0  0  0  0  0  0  0
    0.4069   -0.2747    0.0000 C   0  0  0  0  0  0  0  0  0  0  0  0
    0.7931    1.1747    0.0000 C   0  0  0  0  0  0  0  0  0  0  0  0
    2.2415    1.5649    0.0000 C   0  0  0  0  0  0  0  0  0  0  0  0
    3.3036    0.5057    0.0000 C   0  0  0  0  0  0  0  0  0  0  0  0
    4.7520    0.8960    0.0000 O   0  0  0  0  0  0  0  0  0  0  0  0
    2.9174   -0.9437    0.0000 C   0  0  0  0  0  0  0  0  0  0  0  0
    1.4691   -1.3339    0.0000 C   0  0  0  0  0  0  0  0  0  0  0  0
    1.0829   -2.7834    0.0000 Br  0  0  0  0  0  0  0  0  0  0  0  0
   -3.5519    0.0039    0.0000 C   0  0  0  0  0  0  0  0  0  0  0  0
   -3.9381   -1.4455    0.0000 O   0  0  0  0  0  0  0  0  0  0  0  0
   -4.6140    1.0631    0.0000 O   0  0  0  0  0  0  0  0  0  0  0  0
  2  1  1  1
  2  3  1  0
  3  4  1  0
  4  5  1  0
  5  6  2  0
  6  7  1  0
  7  8  1  0
  7  9  2  0
  9 10  1  0
 10 11  1  0
  2 12  1  0
 12 13  2  0
 12 14  1  0
 10  4  2  0
M  END
>  <rName>  (3577) 
Tyr_2Br

>  <PQ_SYMBOL>  (3577) 
Tyr_2Br

>  <FULL_NAME>  (3577) 
2-bromo-L-tyrosine

>  <IUPAC_CONDENSED>  (3577) 
Tyr(2-Br)

>  <IUPAC>  (3577) 
(2S)-2-amino-3-(2-bromo-4-hydroxyphenyl)propanoic acid

>  <TYPE>  (3577) 
Backbone

>  <CLASS>  (3577) 
alpha

>  <ANALOG>  (3577) 
Tyr

>  <MOL_WT>  (3577) 
260.08699999999993

>  <LOGP>  (3577) 
1.1091

>  <TPSA>  (3577) 
83.55

>  <POPULARITY>  (3577) 
4.1

>  <PROTECTED>  (3577) 
TRUE

>  <SMILES>  (3577) 
N[C@@H](Cc1(ccc(O)cc1Br))C(=O)O

>  <INCHIKEY>  (3577) 
UBPJIGYYLTZEDD-QMMMGPOBSA-N

$$$$
Tyr_2Cl
     RDKit          2D

 14 14  0  0  0  0  0  0  0  0999 V2000
   -1.7174    1.8436    0.0000 N   0  0  0  0  0  0  0  0  0  0  0  0
   -2.1036    0.3942    0.0000 C   0  0  0  0  0  0  0  0  0  0  0  0
   -1.0414   -0.6650    0.0000 C   0  0  0  0  0  0  0  0  0  0  0  0
    0.4069   -0.2747    0.0000 C   0  0  0  0  0  0  0  0  0  0  0  0
    0.7931    1.1747    0.0000 C   0  0  0  0  0  0  0  0  0  0  0  0
    2.2415    1.5649    0.0000 C   0  0  0  0  0  0  0  0  0  0  0  0
    3.3036    0.5057    0.0000 C   0  0  0  0  0  0  0  0  0  0  0  0
    4.7520    0.8960    0.0000 O   0  0  0  0  0  0  0  0  0  0  0  0
    2.9174   -0.9437    0.0000 C   0  0  0  0  0  0  0  0  0  0  0  0
    1.4691   -1.3339    0.0000 C   0  0  0  0  0  0  0  0  0  0  0  0
    1.0829   -2.7834    0.0000 Cl  0  0  0  0  0  0  0  0  0  0  0  0
   -3.5519    0.0039    0.0000 C   0  0  0  0  0  0  0  0  0  0  0  0
   -3.9381   -1.4455    0.0000 O   0  0  0  0  0  0  0  0  0  0  0  0
   -4.6140    1.0631    0.0000 O   0  0  0  0  0  0  0  0  0  0  0  0
  2  1  1  1
  2  3  1  0
  3  4  1  0
  4  5  1  0
  5  6  2  0
  6  7  1  0
  7  8  1  0
  7  9  2  0
  9 10  1  0
 10 11  1  0
  2 12  1  0
 12 13  2  0
 12 14  1  0
 10  4  2  0
M  END
>  <rName>  (3578) 
Tyr_2Cl

>  <PQ_SYMBOL>  (3578) 
Tyr_2Cl

>  <FULL_NAME>  (3578) 
2-chloro-L-tyrosine

>  <IUPAC_CONDENSED>  (3578) 
Tyr(2-Cl)

>  <IUPAC>  (3578) 
(2S)-2-amino-3-(2-chloro-4-hydroxyphenyl)propanoic acid

>  <TYPE>  (3578) 
Backbone

>  <CLASS>  (3578) 
alpha

>  <ANALOG>  (3578) 
Tyr

>  <MOL_WT>  (3578) 
215.63599999999997

>  <LOGP>  (3578) 
1.0

>  <TPSA>  (3578) 
83.55

>  <POPULARITY>  (3578) 
5.8

>  <PROTECTED>  (3578) 
TRUE

>  <SMILES>  (3578) 
N[C@@H](Cc1(ccc(O)cc1Cl))C(=O)O

>  <INCHIKEY>  (3578) 
QGFVUADZXXJSDI-QMMMGPOBSA-N

$$$$
Tyr_2F
     RDKit          2D

 14 14  0  0  0  0  0  0  0  0999 V2000
   -1.7174    1.8436    0.0000 N   0  0  0  0  0  0  0  0  0  0  0  0
   -2.1036    0.3942    0.0000 C   0  0  0  0  0  0  0  0  0  0  0  0
   -1.0414   -0.6650    0.0000 C   0  0  0  0  0  0  0  0  0  0  0  0
    0.4069   -0.2747    0.0000 C   0  0  0  0  0  0  0  0  0  0  0  0
    0.7931    1.1747    0.0000 C   0  0  0  0  0  0  0  0  0  0  0  0
    2.2415    1.5649    0.0000 C   0  0  0  0  0  0  0  0  0  0  0  0
    3.3036    0.5057    0.0000 C   0  0  0  0  0  0  0  0  0  0  0  0
    4.7520    0.8960    0.0000 O   0  0  0  0  0  0  0  0  0  0  0  0
    2.9174   -0.9437    0.0000 C   0  0  0  0  0  0  0  0  0  0  0  0
    1.4691   -1.3339    0.0000 C   0  0  0  0  0  0  0  0  0  0  0  0
    1.0829   -2.7834    0.0000 F   0  0  0  0  0  0  0  0  0  0  0  0
   -3.5519    0.0039    0.0000 C   0  0  0  0  0  0  0  0  0  0  0  0
   -3.9381   -1.4455    0.0000 O   0  0  0  0  0  0  0  0  0  0  0  0
   -4.6140    1.0631    0.0000 O   0  0  0  0  0  0  0  0  0  0  0  0
  2  1  1  1
  2  3  1  0
  3  4  1  0
  4  5  1  0
  5  6  2  0
  6  7  1  0
  7  8  1  0
  7  9  2  0
  9 10  1  0
 10 11  1  0
  2 12  1  0
 12 13  2  0
 12 14  1  0
 10  4  2  0
M  END
>  <rName>  (3579) 
Tyr_2F

>  <PQ_SYMBOL>  (3579) 
Tyr_2F

>  <FULL_NAME>  (3579) 
2-fluoro-L-tyrosine

>  <IUPAC_CONDENSED>  (3579) 
Tyr(2-F)

>  <IUPAC>  (3579) 
(2S)-2-amino-3-(2-fluoro-4-hydroxyphenyl)propanoic acid

>  <TYPE>  (3579) 
Backbone

>  <CLASS>  (3579) 
alpha

>  <ANALOG>  (3579) 
Tyr

>  <MOL_WT>  (3579) 
199.18099999999995

>  <LOGP>  (3579) 
0.48570000000000013

>  <TPSA>  (3579) 
83.55

>  <POPULARITY>  (3579) 
9.6

>  <PROTECTED>  (3579) 
TRUE

>  <SMILES>  (3579) 
N[C@@H](Cc1(ccc(O)cc1F))C(=O)O

>  <INCHIKEY>  (3579) 
WEJIXBMNLWITCR-QMMMGPOBSA-N

$$$$
Tyr_2I
     RDKit          2D

 14 14  0  0  0  0  0  0  0  0999 V2000
   -1.7174    1.8436    0.0000 N   0  0  0  0  0  0  0  0  0  0  0  0
   -2.1036    0.3942    0.0000 C   0  0  0  0  0  0  0  0  0  0  0  0
   -1.0414   -0.6650    0.0000 C   0  0  0  0  0  0  0  0  0  0  0  0
    0.4069   -0.2747    0.0000 C   0  0  0  0  0  0  0  0  0  0  0  0
    0.7931    1.1747    0.0000 C   0  0  0  0  0  0  0  0  0  0  0  0
    2.2415    1.5649    0.0000 C   0  0  0  0  0  0  0  0  0  0  0  0
    3.3036    0.5057    0.0000 C   0  0  0  0  0  0  0  0  0  0  0  0
    4.7520    0.8960    0.0000 O   0  0  0  0  0  0  0  0  0  0  0  0
    2.9174   -0.9437    0.0000 C   0  0  0  0  0  0  0  0  0  0  0  0
    1.4691   -1.3339    0.0000 C   0  0  0  0  0  0  0  0  0  0  0  0
    1.0829   -2.7834    0.0000 I   0  0  0  0  0  0  0  0  0  0  0  0
   -3.5519    0.0039    0.0000 C   0  0  0  0  0  0  0  0  0  0  0  0
   -3.9381   -1.4455    0.0000 O   0  0  0  0  0  0  0  0  0  0  0  0
   -4.6140    1.0631    0.0000 O   0  0  0  0  0  0  0  0  0  0  0  0
  2  1  1  1
  2  3  1  0
  3  4  1  0
  4  5  1  0
  5  6  2  0
  6  7  1  0
  7  8  1  0
  7  9  2  0
  9 10  1  0
 10 11  1  0
  2 12  1  0
 12 13  2  0
 12 14  1  0
 10  4  2  0
M  END
>  <rName>  (3580) 
Tyr_2I

>  <PQ_SYMBOL>  (3580) 
Tyr_2I

>  <FULL_NAME>  (3580) 
(2S)-2-amino-3-(4-hydroxy-2-iodophenyl)propanoic acid

>  <IUPAC_CONDENSED>  (3580) 
Tyr(2-I)

>  <IUPAC>  (3580) 
(2S)-2-amino-3-(4-hydroxy-2-iodophenyl)propanoic acid

>  <TYPE>  (3580) 
Backbone

>  <CLASS>  (3580) 
alpha

>  <ANALOG>  (3580) 
Tyr

>  <MOL_WT>  (3580) 
307.087

>  <LOGP>  (3580) 
0.9512

>  <TPSA>  (3580) 
83.55

>  <POPULARITY>  (3580) 
10.1

>  <PROTECTED>  (3580) 
TRUE

>  <SMILES>  (3580) 
N[C@@H](Cc1(ccc(O)cc1I))C(=O)O

>  <INCHIKEY>  (3580) 
BMBZSHPNHVPCNG-QMMMGPOBSA-N

$$$$
Tyr_2Me
     RDKit          2D

 14 14  0  0  0  0  0  0  0  0999 V2000
   -1.7174    1.8436    0.0000 N   0  0  0  0  0  0  0  0  0  0  0  0
   -2.1036    0.3942    0.0000 C   0  0  0  0  0  0  0  0  0  0  0  0
   -1.0414   -0.6650    0.0000 C   0  0  0  0  0  0  0  0  0  0  0  0
    0.4069   -0.2747    0.0000 C   0  0  0  0  0  0  0  0  0  0  0  0
    0.7931    1.1747    0.0000 C   0  0  0  0  0  0  0  0  0  0  0  0
    2.2415    1.5649    0.0000 C   0  0  0  0  0  0  0  0  0  0  0  0
    3.3036    0.5057    0.0000 C   0  0  0  0  0  0  0  0  0  0  0  0
    4.7520    0.8960    0.0000 O   0  0  0  0  0  0  0  0  0  0  0  0
    2.9174   -0.9437    0.0000 C   0  0  0  0  0  0  0  0  0  0  0  0
    1.4691   -1.3339    0.0000 C   0  0  0  0  0  0  0  0  0  0  0  0
    1.0829   -2.7834    0.0000 C   0  0  0  0  0  0  0  0  0  0  0  0
   -3.5519    0.0039    0.0000 C   0  0  0  0  0  0  0  0  0  0  0  0
   -3.9381   -1.4455    0.0000 O   0  0  0  0  0  0  0  0  0  0  0  0
   -4.6140    1.0631    0.0000 O   0  0  0  0  0  0  0  0  0  0  0  0
  2  1  1  1
  2  3  1  0
  3  4  1  0
  4  5  1  0
  5  6  2  0
  6  7  1  0
  7  8  1  0
  7  9  2  0
  9 10  1  0
 10 11  1  0
  2 12  1  0
 12 13  2  0
 12 14  1  0
 10  4  2  0
M  END
>  <rName>  (3581) 
Tyr_2Me

>  <PQ_SYMBOL>  (3581) 
Tyr_2Me

>  <FULL_NAME>  (3581) 
(2S)-2-amino-3-(4-hydroxy-2-methylphenyl)propanoic acid

>  <IUPAC_CONDENSED>  (3581) 
Tyr(2-Me)

>  <IUPAC>  (3581) 
(2S)-2-amino-3-(4-hydroxy-2-methylphenyl)propanoic acid

>  <TYPE>  (3581) 
Backbone

>  <CLASS>  (3581) 
alpha

>  <ANALOG>  (3581) 
Tyr

>  <MOL_WT>  (3581) 
195.21799999999996

>  <LOGP>  (3581) 
0.6550199999999999

>  <TPSA>  (3581) 
83.55

>  <POPULARITY>  (3581) 
17.4

>  <PROTECTED>  (3581) 
TRUE

>  <SMILES>  (3581) 
N[C@@H](Cc1(ccc(O)cc1C))C(=O)O

>  <INCHIKEY>  (3581) 
AXEOMQHKTSGLGS-VIFPVBQESA-N

$$$$
Tyr_2OH
     RDKit          2D

 14 14  0  0  0  0  0  0  0  0999 V2000
   -1.7174    1.8436    0.0000 N   0  0  0  0  0  0  0  0  0  0  0  0
   -2.1036    0.3942    0.0000 C   0  0  0  0  0  0  0  0  0  0  0  0
   -1.0414   -0.6650    0.0000 C   0  0  0  0  0  0  0  0  0  0  0  0
    0.4069   -0.2747    0.0000 C   0  0  0  0  0  0  0  0  0  0  0  0
    0.7931    1.1747    0.0000 C   0  0  0  0  0  0  0  0  0  0  0  0
    2.2415    1.5649    0.0000 C   0  0  0  0  0  0  0  0  0  0  0  0
    3.3036    0.5057    0.0000 C   0  0  0  0  0  0  0  0  0  0  0  0
    4.7520    0.8960    0.0000 O   0  0  0  0  0  0  0  0  0  0  0  0
    2.9174   -0.9437    0.0000 C   0  0  0  0  0  0  0  0  0  0  0  0
    1.4691   -1.3339    0.0000 C   0  0  0  0  0  0  0  0  0  0  0  0
    1.0829   -2.7834    0.0000 O   0  0  0  0  0  0  0  0  0  0  0  0
   -3.5519    0.0039    0.0000 C   0  0  0  0  0  0  0  0  0  0  0  0
   -3.9381   -1.4455    0.0000 O   0  0  0  0  0  0  0  0  0  0  0  0
   -4.6140    1.0631    0.0000 O   0  0  0  0  0  0  0  0  0  0  0  0
  2  1  1  1
  2  3  1  0
  3  4  1  0
  4  5  1  0
  5  6  2  0
  6  7  1  0
  7  8  1  0
  7  9  2  0
  9 10  1  0
 10 11  1  0
  2 12  1  0
 12 13  2  0
 12 14  1  0
 10  4  2  0
M  END
>  <rName>  (3582) 
Tyr_2OH

>  <PQ_SYMBOL>  (3582) 
Tyr_2OH

>  <FULL_NAME>  (3582) 
2-hydroxy-L-tyrosine

>  <IUPAC_CONDENSED>  (3582) 
Tyr(2-OH)

>  <IUPAC>  (3582) 
(2S)-2-amino-3-(2,4-dihydroxyphenyl)propanoic acid

>  <TYPE>  (3582) 
Backbone

>  <CLASS>  (3582) 
alpha

>  <ANALOG>  (3582) 
Tyr

>  <MOL_WT>  (3582) 
197.18999999999997

>  <LOGP>  (3582) 
0.052200000000000135

>  <TPSA>  (3582) 
103.78000000000002

>  <POPULARITY>  (3582) 
17.4

>  <PROTECTED>  (3582) 
TRUE

>  <SMILES>  (3582) 
N[C@@H](Cc1(ccc(O)cc1O))C(=O)O

>  <INCHIKEY>  (3582) 
UTIMIHJZXIJZKZ-ZETCQYMHSA-N

$$$$
Tyr_2OMe
     RDKit          2D

 15 15  0  0  0  0  0  0  0  0999 V2000
   -2.0582    1.9063    0.0000 N   0  0  0  0  0  0  0  0  0  0  0  0
   -2.2997    0.4259    0.0000 C   0  0  0  0  0  0  0  0  0  0  0  0
   -1.1384   -0.5235    0.0000 C   0  0  0  0  0  0  0  0  0  0  0  0
    0.2645    0.0075    0.0000 C   0  0  0  0  0  0  0  0  0  0  0  0
    0.5060    1.4879    0.0000 C   0  0  0  0  0  0  0  0  0  0  0  0
    1.9089    2.0190    0.0000 C   0  0  0  0  0  0  0  0  0  0  0  0
    3.0702    1.0696    0.0000 C   0  0  0  0  0  0  0  0  0  0  0  0
    4.4730    1.6006    0.0000 O   0  0  0  0  0  0  0  0  0  0  0  0
    2.8286   -0.4108    0.0000 C   0  0  0  0  0  0  0  0  0  0  0  0
    1.4258   -0.9419    0.0000 C   0  0  0  0  0  0  0  0  0  0  0  0
    1.1842   -2.4223    0.0000 O   0  0  0  0  0  0  0  0  0  0  0  0
    2.3456   -3.3717    0.0000 C   0  0  0  0  0  0  0  0  0  0  0  0
   -3.7026   -0.1052    0.0000 C   0  0  0  0  0  0  0  0  0  0  0  0
   -3.9441   -1.5856    0.0000 O   0  0  0  0  0  0  0  0  0  0  0  0
   -4.8639    0.8442    0.0000 O   0  0  0  0  0  0  0  0  0  0  0  0
  2  1  1  1
  2  3  1  0
  3  4  1  0
  4  5  1  0
  5  6  2  0
  6  7  1  0
  7  8  1  0
  7  9  2  0
  9 10  1  0
 10 11  1  0
 11 12  1  0
  2 13  1  0
 13 14  2  0
 13 15  1  0
 10  4  2  0
M  END
>  <rName>  (3583) 
Tyr_2OMe

>  <PQ_SYMBOL>  (3583) 
Tyr_2OMe

>  <FULL_NAME>  (3583) 
2-methoxy-L-tyrosine

>  <IUPAC_CONDENSED>  (3583) 
Tyr(2-OMe)

>  <IUPAC>  (3583) 
(2S)-2-amino-3-(4-hydroxy-2-methoxyphenyl)propanoic acid

>  <TYPE>  (3583) 
Backbone

>  <CLASS>  (3583) 
alpha

>  <ANALOG>  (3583) 
Tyr

>  <MOL_WT>  (3583) 
211.21699999999996

>  <LOGP>  (3583) 
0.35519999999999974

>  <TPSA>  (3583) 
92.78000000000002

>  <POPULARITY>  (3583) 
5.6

>  <PROTECTED>  (3583) 
TRUE

>  <SMILES>  (3583) 
N[C@@H](Cc1(ccc(O)cc1OC))C(=O)O

>  <INCHIKEY>  (3583) 
ZNZRXWNVWUTHSR-QMMMGPOBSA-N

$$$$
Tyr_35diBr
     RDKit          2D

 15 15  0  0  0  0  0  0  0  0999 V2000
   -2.0609    1.6226    0.0000 N   0  0  0  0  0  0  0  0  0  0  0  0
   -2.4694    0.1793    0.0000 C   0  0  0  0  0  0  0  0  0  0  0  0
   -1.4237   -0.8961    0.0000 C   0  0  0  0  0  0  0  0  0  0  0  0
    0.0305   -0.5283    0.0000 C   0  0  0  0  0  0  0  0  0  0  0  0
    0.4390    0.9150    0.0000 C   0  0  0  0  0  0  0  0  0  0  0  0
    1.8932    1.2829    0.0000 C   0  0  0  0  0  0  0  0  0  0  0  0
    2.3017    2.7262    0.0000 Br  0  0  0  0  0  0  0  0  0  0  0  0
    2.9389    0.2075    0.0000 C   0  0  0  0  0  0  0  0  0  0  0  0
    4.3931    0.5753    0.0000 O   0  0  0  0  0  0  0  0  0  0  0  0
    2.5304   -1.2358    0.0000 C   0  0  0  0  0  0  0  0  0  0  0  0
    3.5760   -2.3113    0.0000 Br  0  0  0  0  0  0  0  0  0  0  0  0
    1.0762   -1.6037    0.0000 C   0  0  0  0  0  0  0  0  0  0  0  0
   -3.9236   -0.1886    0.0000 C   0  0  0  0  0  0  0  0  0  0  0  0
   -4.3321   -1.6319    0.0000 O   0  0  0  0  0  0  0  0  0  0  0  0
   -4.9693    0.8868    0.0000 O   0  0  0  0  0  0  0  0  0  0  0  0
  2  1  1  1
  2  3  1  0
  3  4  1  0
  4  5  2  0
  5  6  1  0
  6  7  1  0
  6  8  2  0
  8  9  1  0
  8 10  1  0
 10 11  1  0
 10 12  2  0
  2 13  1  0
 13 14  2  0
 13 15  1  0
 12  4  1  0
M  END
>  <rName>  (3584) 
Tyr_35diBr

>  <PQ_SYMBOL>  (3584) 
Tyr_35diBr

>  <FULL_NAME>  (3584) 
3,5-dibromo-L-Tyrosine

>  <IUPAC_CONDENSED>  (3584) 
Tyr(3,5-diBr)

>  <IUPAC>  (3584) 
(2S)-2-amino-3-(3,5-dibromo-4-hydroxyphenyl)propanoic acid

>  <TYPE>  (3584) 
Backbone

>  <CLASS>  (3584) 
alpha

>  <ANALOG>  (3584) 
Tyr

>  <MOL_WT>  (3584) 
338.98300000000006

>  <LOGP>  (3584) 
1.8716000000000002

>  <TPSA>  (3584) 
83.55

>  <POPULARITY>  (3584) 
16.7

>  <PROTECTED>  (3584) 
TRUE

>  <SMILES>  (3584) 
N[C@@H](Cc1(cc(Br)c(O)c(Br)c1))C(=O)O

>  <INCHIKEY>  (3584) 
COESHZUDRKCEPA-ZETCQYMHSA-N

$$$$
Tyr_35diCl
     RDKit          2D

 15 15  0  0  0  0  0  0  0  0999 V2000
   -2.0609    1.6226    0.0000 N   0  0  0  0  0  0  0  0  0  0  0  0
   -2.4694    0.1793    0.0000 C   0  0  0  0  0  0  0  0  0  0  0  0
   -1.4237   -0.8961    0.0000 C   0  0  0  0  0  0  0  0  0  0  0  0
    0.0305   -0.5283    0.0000 C   0  0  0  0  0  0  0  0  0  0  0  0
    0.4390    0.9150    0.0000 C   0  0  0  0  0  0  0  0  0  0  0  0
    1.8932    1.2829    0.0000 C   0  0  0  0  0  0  0  0  0  0  0  0
    2.3017    2.7262    0.0000 Cl  0  0  0  0  0  0  0  0  0  0  0  0
    2.9389    0.2075    0.0000 C   0  0  0  0  0  0  0  0  0  0  0  0
    4.3931    0.5753    0.0000 O   0  0  0  0  0  0  0  0  0  0  0  0
    2.5304   -1.2358    0.0000 C   0  0  0  0  0  0  0  0  0  0  0  0
    3.5760   -2.3113    0.0000 Cl  0  0  0  0  0  0  0  0  0  0  0  0
    1.0762   -1.6037    0.0000 C   0  0  0  0  0  0  0  0  0  0  0  0
   -3.9236   -0.1886    0.0000 C   0  0  0  0  0  0  0  0  0  0  0  0
   -4.3321   -1.6319    0.0000 O   0  0  0  0  0  0  0  0  0  0  0  0
   -4.9693    0.8868    0.0000 O   0  0  0  0  0  0  0  0  0  0  0  0
  2  1  1  1
  2  3  1  0
  3  4  1  0
  4  5  2  0
  5  6  1  0
  6  7  1  0
  6  8  2  0
  8  9  1  0
  8 10  1  0
 10 11  1  0
 10 12  2  0
  2 13  1  0
 13 14  2  0
 13 15  1  0
 12  4  1  0
M  END
>  <rName>  (3585) 
Tyr_35diCl

>  <PQ_SYMBOL>  (3585) 
Tyr_35diCl

>  <FULL_NAME>  (3585) 
(2S)-2-amino-3-(3,5-dichloro-4-hydroxyphenyl)propanoic acid

>  <IUPAC_CONDENSED>  (3585) 
Tyr(3,5-diCl)

>  <IUPAC>  (3585) 
(2S)-2-amino-3-(3,5-dichloro-4-hydroxyphenyl)propanoic acid

>  <TYPE>  (3585) 
Backbone

>  <CLASS>  (3585) 
alpha

>  <ANALOG>  (3585) 
Tyr

>  <MOL_WT>  (3585) 
250.081

>  <LOGP>  (3585) 
1.6533999999999998

>  <TPSA>  (3585) 
83.55

>  <POPULARITY>  (3585) 
19.7

>  <PROTECTED>  (3585) 
TRUE

>  <SMILES>  (3585) 
N[C@@H](Cc1(cc(Cl)c(O)c(Cl)c1))C(=O)O

>  <INCHIKEY>  (3585) 
MPHURJQUHZHALJ-ZETCQYMHSA-N

$$$$
Tyr_35diF
     RDKit          2D

 15 15  0  0  0  0  0  0  0  0999 V2000
   -2.0609    1.6226    0.0000 N   0  0  0  0  0  0  0  0  0  0  0  0
   -2.4694    0.1793    0.0000 C   0  0  0  0  0  0  0  0  0  0  0  0
   -1.4237   -0.8961    0.0000 C   0  0  0  0  0  0  0  0  0  0  0  0
    0.0305   -0.5283    0.0000 C   0  0  0  0  0  0  0  0  0  0  0  0
    0.4390    0.9150    0.0000 C   0  0  0  0  0  0  0  0  0  0  0  0
    1.8932    1.2829    0.0000 C   0  0  0  0  0  0  0  0  0  0  0  0
    2.3017    2.7262    0.0000 F   0  0  0  0  0  0  0  0  0  0  0  0
    2.9389    0.2075    0.0000 C   0  0  0  0  0  0  0  0  0  0  0  0
    4.3931    0.5753    0.0000 O   0  0  0  0  0  0  0  0  0  0  0  0
    2.5304   -1.2358    0.0000 C   0  0  0  0  0  0  0  0  0  0  0  0
    3.5760   -2.3113    0.0000 F   0  0  0  0  0  0  0  0  0  0  0  0
    1.0762   -1.6037    0.0000 C   0  0  0  0  0  0  0  0  0  0  0  0
   -3.9236   -0.1886    0.0000 C   0  0  0  0  0  0  0  0  0  0  0  0
   -4.3321   -1.6319    0.0000 O   0  0  0  0  0  0  0  0  0  0  0  0
   -4.9693    0.8868    0.0000 O   0  0  0  0  0  0  0  0  0  0  0  0
  2  1  1  1
  2  3  1  0
  3  4  1  0
  4  5  2  0
  5  6  1  0
  6  7  1  0
  6  8  2  0
  8  9  1  0
  8 10  1  0
 10 11  1  0
 10 12  2  0
  2 13  1  0
 13 14  2  0
 13 15  1  0
 12  4  1  0
M  END
>  <rName>  (3586) 
Tyr_35diF

>  <PQ_SYMBOL>  (3586) 
Tyr_35diF

>  <FULL_NAME>  (3586) 
3,5-difluoro-L-tyrosine

>  <IUPAC_CONDENSED>  (3586) 
Tyr(3,5-diF)

>  <IUPAC>  (3586) 
(2S)-2-amino-3-(3,5-difluoro-4-hydroxyphenyl)propanoic acid

>  <TYPE>  (3586) 
Backbone

>  <CLASS>  (3586) 
alpha

>  <ANALOG>  (3586) 
Tyr

>  <MOL_WT>  (3586) 
217.17099999999996

>  <LOGP>  (3586) 
0.6248

>  <TPSA>  (3586) 
83.55

>  <POPULARITY>  (3586) 
16.4

>  <PROTECTED>  (3586) 
TRUE

>  <SMILES>  (3586) 
N[C@@H](Cc1(cc(F)c(O)c(F)c1))C(=O)O

>  <INCHIKEY>  (3586) 
KPKMCRFCNWVLDA-ZETCQYMHSA-N

$$$$
Tyr_35diI
     RDKit          2D

 15 15  0  0  0  0  0  0  0  0999 V2000
   -2.0609    1.6226    0.0000 N   0  0  0  0  0  0  0  0  0  0  0  0
   -2.4694    0.1793    0.0000 C   0  0  0  0  0  0  0  0  0  0  0  0
   -1.4237   -0.8961    0.0000 C   0  0  0  0  0  0  0  0  0  0  0  0
    0.0305   -0.5283    0.0000 C   0  0  0  0  0  0  0  0  0  0  0  0
    0.4390    0.9150    0.0000 C   0  0  0  0  0  0  0  0  0  0  0  0
    1.8932    1.2829    0.0000 C   0  0  0  0  0  0  0  0  0  0  0  0
    2.3017    2.7262    0.0000 I   0  0  0  0  0  0  0  0  0  0  0  0
    2.9389    0.2075    0.0000 C   0  0  0  0  0  0  0  0  0  0  0  0
    4.3931    0.5753    0.0000 O   0  0  0  0  0  0  0  0  0  0  0  0
    2.5304   -1.2358    0.0000 C   0  0  0  0  0  0  0  0  0  0  0  0
    3.5760   -2.3113    0.0000 I   0  0  0  0  0  0  0  0  0  0  0  0
    1.0762   -1.6037    0.0000 C   0  0  0  0  0  0  0  0  0  0  0  0
   -3.9236   -0.1886    0.0000 C   0  0  0  0  0  0  0  0  0  0  0  0
   -4.3321   -1.6319    0.0000 O   0  0  0  0  0  0  0  0  0  0  0  0
   -4.9693    0.8868    0.0000 O   0  0  0  0  0  0  0  0  0  0  0  0
  2  1  1  1
  2  3  1  0
  3  4  1  0
  4  5  2  0
  5  6  1  0
  6  7  1  0
  6  8  2  0
  8  9  1  0
  8 10  1  0
 10 11  1  0
 10 12  2  0
  2 13  1  0
 13 14  2  0
 13 15  1  0
 12  4  1  0
M  END
>  <rName>  (3587) 
Tyr_35diI

>  <PQ_SYMBOL>  (3587) 
Tyr_35diI

>  <FULL_NAME>  (3587) 
(2S)-2-amino-3-(4-hydroxy-3,5-diiodophenyl)propanoic acid

>  <IUPAC_CONDENSED>  (3587) 
Tyr(3,5-diI)

>  <IUPAC>  (3587) 
(2S)-2-amino-3-(4-hydroxy-3,5-diiodophenyl)propanoic acid

>  <TYPE>  (3587) 
Backbone

>  <CLASS>  (3587) 
alpha

>  <ANALOG>  (3587) 
Tyr

>  <MOL_WT>  (3587) 
432.98300000000006

>  <LOGP>  (3587) 
1.5557999999999998

>  <TPSA>  (3587) 
83.55

>  <POPULARITY>  (3587) 
30.1

>  <PROTECTED>  (3587) 
TRUE

>  <SMILES>  (3587) 
N[C@@H](Cc1(cc(I)c(O)c(I)c1))C(=O)O

>  <INCHIKEY>  (3587) 
NYPYHUZRZVSYKL-ZETCQYMHSA-N

$$$$
Tyr_35diI_Ph_35diI_4OH
     RDKit          2D

 24 25  0  0  0  0  0  0  0  0999 V2000
   -5.0637    1.3649    0.0000 N   0  0  0  0  0  0  0  0  0  0  0  0
   -5.1617   -0.1319    0.0000 C   0  0  0  0  0  0  0  0  0  0  0  0
   -3.9144   -0.9652    0.0000 C   0  0  0  0  0  0  0  0  0  0  0  0
   -2.5691   -0.3016    0.0000 C   0  0  0  0  0  0  0  0  0  0  0  0
   -2.4712    1.1952    0.0000 C   0  0  0  0  0  0  0  0  0  0  0  0
   -1.1259    1.8588    0.0000 C   0  0  0  0  0  0  0  0  0  0  0  0
   -1.0280    3.3555    0.0000 I   0  0  0  0  0  0  0  0  0  0  0  0
    0.1214    1.0255    0.0000 C   0  0  0  0  0  0  0  0  0  0  0  0
    1.4666    1.6891    0.0000 O   0  0  0  0  0  0  0  0  0  0  0  0
    2.7139    0.8558    0.0000 C   0  0  0  0  0  0  0  0  0  0  0  0
    2.6159   -0.6410    0.0000 C   0  0  0  0  0  0  0  0  0  0  0  0
    3.8632   -1.4742    0.0000 C   0  0  0  0  0  0  0  0  0  0  0  0
    3.7652   -2.9710    0.0000 I   0  0  0  0  0  0  0  0  0  0  0  0
    5.2085   -0.8106    0.0000 C   0  0  0  0  0  0  0  0  0  0  0  0
    6.4557   -1.6439    0.0000 O   0  0  0  0  0  0  0  0  0  0  0  0
    5.3064    0.6862    0.0000 C   0  0  0  0  0  0  0  0  0  0  0  0
    6.6517    1.3497    0.0000 I   0  0  0  0  0  0  0  0  0  0  0  0
    4.0591    1.5194    0.0000 C   0  0  0  0  0  0  0  0  0  0  0  0
    0.0234   -0.4713    0.0000 C   0  0  0  0  0  0  0  0  0  0  0  0
    1.2707   -1.3045    0.0000 I   0  0  0  0  0  0  0  0  0  0  0  0
   -1.3218   -1.1348    0.0000 C   0  0  0  0  0  0  0  0  0  0  0  0
   -6.5069   -0.7955    0.0000 C   0  0  0  0  0  0  0  0  0  0  0  0
   -6.6049   -2.2923    0.0000 O   0  0  0  0  0  0  0  0  0  0  0  0
   -7.7542    0.0377    0.0000 O   0  0  0  0  0  0  0  0  0  0  0  0
  2  1  1  1
  2  3  1  0
  3  4  1  0
  4  5  2  0
  5  6  1  0
  6  7  1  0
  6  8  2  0
  8  9  1  0
  9 10  1  0
 10 11  2  0
 11 12  1  0
 12 13  1  0
 12 14  2  0
 14 15  1  0
 14 16  1  0
 16 17  1  0
 16 18  2  0
  8 19  1  0
 19 20  1  0
 19 21  2  0
  2 22  1  0
 22 23  2  0
 22 24  1  0
 18 10  1  0
 21  4  1  0
M  END
>  <rName>  (3588) 
Tyr_35diI_Ph_35diI_4OH

>  <PQ_SYMBOL>  (3588) 
Tyr_35diI_Ph_35diI_4OH

>  <FULL_NAME>  (3588) 
(S)-2-amino-3-(4-(4-hydroxy-3,5-diiodophenoxy)-3,5-diiodophenyl)propanoic acid

>  <IUPAC_CONDENSED>  (3588) 
Tyr(3,5-diI,Ph(3,5-diI,4-OH))

>  <IUPAC>  (3588) 
(2S)-2-amino-3-(4-((4-hydroxy-3,5-diiodophenyl)oxy)-3,5-diiodophenyl)propanoic acid

>  <TYPE>  (3588) 
Backbone

>  <CLASS>  (3588) 
alpha

>  <ANALOG>  (3588) 
Tyr

>  <MOL_WT>  (3588) 
776.8720000000001

>  <LOGP>  (3588) 
4.5573000000000015

>  <TPSA>  (3588) 
92.78000000000002

>  <POPULARITY>  (3588) 
7.3

>  <PROTECTED>  (3588) 
TRUE

>  <SMILES>  (3588) 
N[C@@H](Cc2(cc(I)c(Oc1(cc(I)c(O)c(I)c1))c(I)c2))C(=O)O

>  <INCHIKEY>  (3588) 
XUIIKFGFIJCVMT-LBPRGKRZSA-N

$$$$
Tyr_35diI_Ph_3I_4OH
     RDKit          2D

 23 24  0  0  0  0  0  0  0  0999 V2000
   -4.8595    1.3864    0.0000 N   0  0  0  0  0  0  0  0  0  0  0  0
   -5.0036   -0.1067    0.0000 C   0  0  0  0  0  0  0  0  0  0  0  0
   -3.7827   -0.9780    0.0000 C   0  0  0  0  0  0  0  0  0  0  0  0
   -2.4176   -0.3563    0.0000 C   0  0  0  0  0  0  0  0  0  0  0  0
   -2.2734    1.1368    0.0000 C   0  0  0  0  0  0  0  0  0  0  0  0
   -0.9084    1.7585    0.0000 C   0  0  0  0  0  0  0  0  0  0  0  0
   -0.7642    3.2515    0.0000 I   0  0  0  0  0  0  0  0  0  0  0  0
    0.3126    0.8871    0.0000 C   0  0  0  0  0  0  0  0  0  0  0  0
    1.6777    1.5088    0.0000 O   0  0  0  0  0  0  0  0  0  0  0  0
    2.8987    0.6375    0.0000 C   0  0  0  0  0  0  0  0  0  0  0  0
    2.7545   -0.8556    0.0000 C   0  0  0  0  0  0  0  0  0  0  0  0
    3.9755   -1.7269    0.0000 C   0  0  0  0  0  0  0  0  0  0  0  0
    5.3406   -1.1052    0.0000 C   0  0  0  0  0  0  0  0  0  0  0  0
    6.5615   -1.9766    0.0000 O   0  0  0  0  0  0  0  0  0  0  0  0
    5.4847    0.3878    0.0000 C   0  0  0  0  0  0  0  0  0  0  0  0
    6.8498    1.0095    0.0000 I   0  0  0  0  0  0  0  0  0  0  0  0
    4.2638    1.2592    0.0000 C   0  0  0  0  0  0  0  0  0  0  0  0
    0.1685   -0.6059    0.0000 C   0  0  0  0  0  0  0  0  0  0  0  0
    1.3894   -1.4773    0.0000 I   0  0  0  0  0  0  0  0  0  0  0  0
   -1.1966   -1.2277    0.0000 C   0  0  0  0  0  0  0  0  0  0  0  0
   -6.3687   -0.7284    0.0000 C   0  0  0  0  0  0  0  0  0  0  0  0
   -6.5129   -2.2214    0.0000 O   0  0  0  0  0  0  0  0  0  0  0  0
   -7.5897    0.1430    0.0000 O   0  0  0  0  0  0  0  0  0  0  0  0
  2  1  1  1
  2  3  1  0
  3  4  1  0
  4  5  2  0
  5  6  1  0
  6  7  1  0
  6  8  2  0
  8  9  1  0
  9 10  1  0
 10 11  1  0
 11 12  2  0
 12 13  1  0
 13 14  1  0
 13 15  2  0
 15 16  1  0
 15 17  1  0
  8 18  1  0
 18 19  1  0
 18 20  2  0
  2 21  1  0
 21 22  2  0
 21 23  1  0
 17 10  2  0
 20  4  1  0
M  END
>  <rName>  (3589) 
Tyr_35diI_Ph_3I_4OH

>  <PQ_SYMBOL>  (3589) 
Tyr_35diI_Ph_3I_4OH

>  <FULL_NAME>  (3589) 
(S)-2-amino-3-(4-(4-hydroxy-3-iodophenoxy)-3,5-diiodophenyl)propanoic acid

>  <IUPAC_CONDENSED>  (3589) 
Tyr(3,5-diI,Ph(3-I,4-OH))

>  <IUPAC>  (3589) 
(2S)-2-amino-3-(4-((4-hydroxy-3-iodophenyl)oxy)-3,5-diiodophenyl)propanoic acid

>  <TYPE>  (3589) 
Backbone

>  <CLASS>  (3589) 
alpha

>  <ANALOG>  (3589) 
Tyr

>  <MOL_WT>  (3589) 
650.9760000000001

>  <LOGP>  (3589) 
3.952700000000001

>  <TPSA>  (3589) 
92.78000000000002

>  <POPULARITY>  (3589) 
7.0

>  <PROTECTED>  (3589) 
TRUE

>  <SMILES>  (3589) 
N[C@@H](Cc2(cc(I)c(Oc1(ccc(O)c(I)c1))c(I)c2))C(=O)O

>  <INCHIKEY>  (3589) 
AUYYCJSJGJYCDS-LBPRGKRZSA-N

$$$$
Tyr_35diMe
     RDKit          2D

 15 15  0  0  0  0  0  0  0  0999 V2000
   -2.0609    1.6226    0.0000 N   0  0  0  0  0  0  0  0  0  0  0  0
   -2.4694    0.1793    0.0000 C   0  0  0  0  0  0  0  0  0  0  0  0
   -1.4237   -0.8961    0.0000 C   0  0  0  0  0  0  0  0  0  0  0  0
    0.0305   -0.5283    0.0000 C   0  0  0  0  0  0  0  0  0  0  0  0
    0.4390    0.9150    0.0000 C   0  0  0  0  0  0  0  0  0  0  0  0
    1.8932    1.2829    0.0000 C   0  0  0  0  0  0  0  0  0  0  0  0
    2.3017    2.7262    0.0000 C   0  0  0  0  0  0  0  0  0  0  0  0
    2.9389    0.2075    0.0000 C   0  0  0  0  0  0  0  0  0  0  0  0
    4.3931    0.5753    0.0000 O   0  0  0  0  0  0  0  0  0  0  0  0
    2.5304   -1.2358    0.0000 C   0  0  0  0  0  0  0  0  0  0  0  0
    3.5760   -2.3113    0.0000 C   0  0  0  0  0  0  0  0  0  0  0  0
    1.0762   -1.6037    0.0000 C   0  0  0  0  0  0  0  0  0  0  0  0
   -3.9236   -0.1886    0.0000 C   0  0  0  0  0  0  0  0  0  0  0  0
   -4.3321   -1.6319    0.0000 O   0  0  0  0  0  0  0  0  0  0  0  0
   -4.9693    0.8868    0.0000 O   0  0  0  0  0  0  0  0  0  0  0  0
  2  1  1  1
  2  3  1  0
  3  4  1  0
  4  5  2  0
  5  6  1  0
  6  7  1  0
  6  8  2  0
  8  9  1  0
  8 10  1  0
 10 11  1  0
 10 12  2  0
  2 13  1  0
 13 14  2  0
 13 15  1  0
 12  4  1  0
M  END
>  <rName>  (3590) 
Tyr_35diMe

>  <PQ_SYMBOL>  (3590) 
Tyr_35diMe

>  <FULL_NAME>  (3590) 
(2S)-2-amino-3-(4-hydroxy-3,5-dimethylphenyl)propanoic acid

>  <IUPAC_CONDENSED>  (3590) 
Tyr(3,5-diMe)

>  <IUPAC>  (3590) 
(2S)-2-amino-3-(4-hydroxy-3,5-dimethylphenyl)propanoic acid

>  <TYPE>  (3590) 
Backbone

>  <CLASS>  (3590) 
alpha

>  <ANALOG>  (3590) 
Tyr

>  <MOL_WT>  (3590) 
209.24499999999998

>  <LOGP>  (3590) 
0.9634400000000001

>  <TPSA>  (3590) 
83.55

>  <POPULARITY>  (3590) 
11.5

>  <PROTECTED>  (3590) 
TRUE

>  <SMILES>  (3590) 
N[C@@H](Cc1(cc(C)c(O)c(C)c1))C(=O)O

>  <INCHIKEY>  (3590) 
DFQINAKFXBIFHG-VIFPVBQESA-N

$$$$
Tyr_35diNO2
     RDKit          2D

 19 19  0  0  0  0  0  0  0  0999 V2000
   -2.8444    1.3921    0.0000 N   0  0  0  0  0  0  0  0  0  0  0  0
   -3.1659   -0.0730    0.0000 C   0  0  0  0  0  0  0  0  0  0  0  0
   -2.0579   -1.0841    0.0000 C   0  0  0  0  0  0  0  0  0  0  0  0
   -0.6282   -0.6300    0.0000 C   0  0  0  0  0  0  0  0  0  0  0  0
   -0.3067    0.8352    0.0000 C   0  0  0  0  0  0  0  0  0  0  0  0
    1.1229    1.2893    0.0000 C   0  0  0  0  0  0  0  0  0  0  0  0
    2.2310    0.2782    0.0000 C   0  0  0  0  0  0  0  0  0  0  0  0
    3.6606    0.7323    0.0000 O   0  0  0  0  0  0  0  0  0  0  0  0
    1.9094   -1.1869    0.0000 C   0  0  0  0  0  0  0  0  0  0  0  0
    0.4798   -1.6410    0.0000 C   0  0  0  0  0  0  0  0  0  0  0  0
    3.0175   -2.1979    0.0000 N   0  0  0  0  0  0  0  0  0  0  0  0
    4.4471   -1.7438    0.0000 O   0  0  0  0  0  0  0  0  0  0  0  0
    2.6960   -3.6631    0.0000 O   0  0  0  0  0  0  0  0  0  0  0  0
    1.4445    2.7544    0.0000 N   0  0  0  0  0  0  0  0  0  0  0  0
    0.3364    3.7654    0.0000 O   0  0  0  0  0  0  0  0  0  0  0  0
    2.8741    3.2085    0.0000 O   0  0  0  0  0  0  0  0  0  0  0  0
   -4.5955   -0.5271    0.0000 C   0  0  0  0  0  0  0  0  0  0  0  0
   -4.9171   -1.9923    0.0000 O   0  0  0  0  0  0  0  0  0  0  0  0
   -5.7036    0.4839    0.0000 O   0  0  0  0  0  0  0  0  0  0  0  0
  2  1  1  1
  2  3  1  0
  3  4  1  0
  4  5  1  0
  5  6  2  0
  6  7  1  0
  7  8  1  0
  7  9  2  0
  9 10  1  0
  9 11  1  0
 11 12  2  0
 11 13  1  0
  6 14  1  0
 14 15  2  0
 14 16  1  0
  2 17  1  0
 17 18  2  0
 17 19  1  0
 10  4  2  0
M  CHG  4  11   1  13  -1  14   1  16  -1
M  END
>  <rName>  (3591) 
Tyr_35diNO2

>  <PQ_SYMBOL>  (3591) 
Tyr_35diNO2

>  <FULL_NAME>  (3591) 
3,5-Dinitro-L-tyrosine

>  <IUPAC_CONDENSED>  (3591) 
Tyr(3,5-diNO2)

>  <IUPAC>  (3591) 
(2S)-2-amino-3-(4-hydroxy-3,5-dinitrophenyl)propanoic acid

>  <TYPE>  (3591) 
Backbone

>  <CLASS>  (3591) 
alpha

>  <ANALOG>  (3591) 
Tyr

>  <MOL_WT>  (3591) 
271.18499999999995

>  <LOGP>  (3591) 
0.1630000000000001

>  <TPSA>  (3591) 
169.82999999999998

>  <POPULARITY>  (3591) 
10.0

>  <PROTECTED>  (3591) 
TRUE

>  <SMILES>  (3591) 
N[C@@H](Cc1(cc(c(O)c(c1)[N+](=O)[O-])[N+](=O)[O-]))C(=O)O

>  <INCHIKEY>  (3591) 
SAZOSDSFLRXREA-YFKPBYRVSA-N

$$$$
Tyr_35diOMe
     RDKit          2D

 17 17  0  0  0  0  0  0  0  0999 V2000
   -2.4496    1.4180    0.0000 N   0  0  0  0  0  0  0  0  0  0  0  0
   -2.7347   -0.0546    0.0000 C   0  0  0  0  0  0  0  0  0  0  0  0
   -1.6020   -1.0379    0.0000 C   0  0  0  0  0  0  0  0  0  0  0  0
   -0.1841   -0.5485    0.0000 C   0  0  0  0  0  0  0  0  0  0  0  0
    0.1011    0.9241    0.0000 C   0  0  0  0  0  0  0  0  0  0  0  0
    1.5191    1.4134    0.0000 C   0  0  0  0  0  0  0  0  0  0  0  0
    1.8042    2.8861    0.0000 O   0  0  0  0  0  0  0  0  0  0  0  0
    0.6715    3.8694    0.0000 C   0  0  0  0  0  0  0  0  0  0  0  0
    2.6518    0.4302    0.0000 C   0  0  0  0  0  0  0  0  0  0  0  0
    4.0697    0.9195    0.0000 O   0  0  0  0  0  0  0  0  0  0  0  0
    2.3666   -1.0425    0.0000 C   0  0  0  0  0  0  0  0  0  0  0  0
    3.4994   -2.0258    0.0000 O   0  0  0  0  0  0  0  0  0  0  0  0
    3.2142   -3.4984    0.0000 C   0  0  0  0  0  0  0  0  0  0  0  0
    0.9487   -1.5318    0.0000 C   0  0  0  0  0  0  0  0  0  0  0  0
   -4.1527   -0.5439    0.0000 C   0  0  0  0  0  0  0  0  0  0  0  0
   -4.4379   -2.0166    0.0000 O   0  0  0  0  0  0  0  0  0  0  0  0
   -5.2854    0.4394    0.0000 O   0  0  0  0  0  0  0  0  0  0  0  0
  2  1  1  1
  2  3  1  0
  3  4  1  0
  4  5  2  0
  5  6  1  0
  6  7  1  0
  7  8  1  0
  6  9  2  0
  9 10  1  0
  9 11  1  0
 11 12  1  0
 12 13  1  0
 11 14  2  0
  2 15  1  0
 15 16  2  0
 15 17  1  0
 14  4  1  0
M  END
>  <rName>  (3592) 
Tyr_35diOMe

>  <PQ_SYMBOL>  (3592) 
Tyr_35diOMe

>  <FULL_NAME>  (3592) 
3,5-Dimethoxy-l-tyrosine

>  <IUPAC_CONDENSED>  (3592) 
Tyr(3,5-diOMe)

>  <IUPAC>  (3592) 
(2S)-2-amino-3-(4-hydroxy-3,5-dimethoxyphenyl)propanoic acid

>  <TYPE>  (3592) 
Backbone

>  <CLASS>  (3592) 
alpha

>  <ANALOG>  (3592) 
Tyr

>  <MOL_WT>  (3592) 
241.24299999999997

>  <LOGP>  (3592) 
0.3637999999999997

>  <TPSA>  (3592) 
102.01

>  <POPULARITY>  (3592) 
2.2

>  <PROTECTED>  (3592) 
TRUE

>  <SMILES>  (3592) 
N[C@@H](Cc1(cc(OC)c(O)c(OC)c1))C(=O)O

>  <INCHIKEY>  (3592) 
PTYCLOZBYBZABE-ZETCQYMHSA-N

$$$$
Tyr_35ditBu
     RDKit          2D

 21 21  0  0  0  0  0  0  0  0999 V2000
   -3.0934    1.2806    0.0000 N   0  0  0  0  0  0  0  0  0  0  0  0
   -3.3744   -0.1928    0.0000 C   0  0  0  0  0  0  0  0  0  0  0  0
   -2.2388   -1.1729    0.0000 C   0  0  0  0  0  0  0  0  0  0  0  0
   -0.8223   -0.6794    0.0000 C   0  0  0  0  0  0  0  0  0  0  0  0
   -0.5413    0.7940    0.0000 C   0  0  0  0  0  0  0  0  0  0  0  0
    0.8752    1.2874    0.0000 C   0  0  0  0  0  0  0  0  0  0  0  0
    2.0108    0.3074    0.0000 C   0  0  0  0  0  0  0  0  0  0  0  0
    3.4273    0.8008    0.0000 O   0  0  0  0  0  0  0  0  0  0  0  0
    1.7298   -1.1661    0.0000 C   0  0  0  0  0  0  0  0  0  0  0  0
    0.3133   -1.6595    0.0000 C   0  0  0  0  0  0  0  0  0  0  0  0
    2.8654   -2.1461    0.0000 C   0  0  0  0  0  0  0  0  0  0  0  0
    1.8854   -3.2817    0.0000 C   0  0  0  0  0  0  0  0  0  0  0  0
    3.8455   -1.0105    0.0000 C   0  0  0  0  0  0  0  0  0  0  0  0
    4.0010   -3.1261    0.0000 C   0  0  0  0  0  0  0  0  0  0  0  0
    1.1562    2.7609    0.0000 C   0  0  0  0  0  0  0  0  0  0  0  0
    2.6296    2.4799    0.0000 C   0  0  0  0  0  0  0  0  0  0  0  0
   -0.3173    3.0418    0.0000 C   0  0  0  0  0  0  0  0  0  0  0  0
    1.4371    4.2343    0.0000 C   0  0  0  0  0  0  0  0  0  0  0  0
   -4.7909   -0.6863    0.0000 C   0  0  0  0  0  0  0  0  0  0  0  0
   -5.0718   -2.1597    0.0000 O   0  0  0  0  0  0  0  0  0  0  0  0
   -5.9265    0.2938    0.0000 O   0  0  0  0  0  0  0  0  0  0  0  0
  2  1  1  1
  2  3  1  0
  3  4  1  0
  4  5  1  0
  5  6  2  0
  6  7  1  0
  7  8  1  0
  7  9  2  0
  9 10  1  0
  9 11  1  0
 11 12  1  0
 11 13  1  0
 11 14  1  0
  6 15  1  0
 15 16  1  0
 15 17  1  0
 15 18  1  0
  2 19  1  0
 19 20  2  0
 19 21  1  0
 10  4  2  0
M  END
>  <rName>  (3593) 
Tyr_35ditBu

>  <PQ_SYMBOL>  (3593) 
Tyr_35ditBu

>  <FULL_NAME>  (3593) 
3,5-Di-t-butyltyrosine

>  <IUPAC_CONDENSED>  (3593) 
Tyr(3,5-ditBu)

>  <IUPAC>  (3593) 
(2S)-2-amino-3-(3,5-ditert-butyl-4-hydroxyphenyl)propanoic acid

>  <TYPE>  (3593) 
Backbone

>  <CLASS>  (3593) 
alpha

>  <ANALOG>  (3593) 
Tyr

>  <MOL_WT>  (3593) 
293.407

>  <LOGP>  (3593) 
2.941600000000001

>  <TPSA>  (3593) 
83.55

>  <POPULARITY>  (3593) 
2.2

>  <PROTECTED>  (3593) 
TRUE

>  <SMILES>  (3593) 
N[C@@H](Cc1(cc(c(O)c(c1)C(C)(C)C)C(C)(C)C))C(=O)O

>  <INCHIKEY>  (3593) 
JKATUPKPPUNJKF-ZDUSSCGKSA-N

$$$$
Tyr_3Br
     RDKit          2D

 14 14  0  0  0  0  0  0  0  0999 V2000
   -2.0094    1.6916    0.0000 N   0  0  0  0  0  0  0  0  0  0  0  0
   -2.3243    0.2250    0.0000 C   0  0  0  0  0  0  0  0  0  0  0  0
   -1.2116   -0.7809    0.0000 C   0  0  0  0  0  0  0  0  0  0  0  0
    0.2159   -0.3203    0.0000 C   0  0  0  0  0  0  0  0  0  0  0  0
    0.5308    1.1463    0.0000 C   0  0  0  0  0  0  0  0  0  0  0  0
    1.9583    1.6069    0.0000 C   0  0  0  0  0  0  0  0  0  0  0  0
    3.0710    0.6009    0.0000 C   0  0  0  0  0  0  0  0  0  0  0  0
    4.4985    1.0615    0.0000 O   0  0  0  0  0  0  0  0  0  0  0  0
    2.7561   -0.8657    0.0000 C   0  0  0  0  0  0  0  0  0  0  0  0
    3.8688   -1.8716    0.0000 Br  0  0  0  0  0  0  0  0  0  0  0  0
    1.3286   -1.3263    0.0000 C   0  0  0  0  0  0  0  0  0  0  0  0
   -3.7518   -0.2356    0.0000 C   0  0  0  0  0  0  0  0  0  0  0  0
   -4.0666   -1.7022    0.0000 O   0  0  0  0  0  0  0  0  0  0  0  0
   -4.8644    0.7704    0.0000 O   0  0  0  0  0  0  0  0  0  0  0  0
  2  1  1  1
  2  3  1  0
  3  4  1  0
  4  5  1  0
  5  6  2  0
  6  7  1  0
  7  8  1  0
  7  9  2  0
  9 10  1  0
  9 11  1  0
  2 12  1  0
 12 13  2  0
 12 14  1  0
 11  4  2  0
M  END
>  <rName>  (3594) 
Tyr_3Br

>  <PQ_SYMBOL>  (3594) 
Tyr_3Br

>  <FULL_NAME>  (3594) 
3-bromo-L-tyrosine

>  <IUPAC_CONDENSED>  (3594) 
Tyr(3-Br)

>  <IUPAC>  (3594) 
(2S)-2-amino-3-(3-bromo-4-hydroxyphenyl)propanoic acid

>  <TYPE>  (3594) 
Backbone

>  <CLASS>  (3594) 
alpha

>  <ANALOG>  (3594) 
Tyr

>  <MOL_WT>  (3594) 
260.08699999999993

>  <LOGP>  (3594) 
1.1091

>  <TPSA>  (3594) 
83.55

>  <POPULARITY>  (3594) 
15.3

>  <PROTECTED>  (3594) 
TRUE

>  <SMILES>  (3594) 
N[C@@H](Cc1(ccc(O)c(Br)c1))C(=O)O

>  <INCHIKEY>  (3594) 
HGWOSUKIFQMEIF-ZETCQYMHSA-N

$$$$
Tyr_3CF3
     RDKit          2D

 17 17  0  0  0  0  0  0  0  0999 V2000
   -3.0426    1.6364    0.0000 N   0  0  0  0  0  0  0  0  0  0  0  0
   -3.1302    0.1389    0.0000 C   0  0  0  0  0  0  0  0  0  0  0  0
   -1.8772   -0.6857    0.0000 C   0  0  0  0  0  0  0  0  0  0  0  0
   -0.5366   -0.0128    0.0000 C   0  0  0  0  0  0  0  0  0  0  0  0
   -0.4490    1.4846    0.0000 C   0  0  0  0  0  0  0  0  0  0  0  0
    0.8917    2.1575    0.0000 C   0  0  0  0  0  0  0  0  0  0  0  0
    2.1447    1.3329    0.0000 C   0  0  0  0  0  0  0  0  0  0  0  0
    3.4853    2.0058    0.0000 O   0  0  0  0  0  0  0  0  0  0  0  0
    2.0571   -0.1645    0.0000 C   0  0  0  0  0  0  0  0  0  0  0  0
    0.7165   -0.8374    0.0000 C   0  0  0  0  0  0  0  0  0  0  0  0
    3.3101   -0.9891    0.0000 C   0  0  0  0  0  0  0  0  0  0  0  0
    4.5631   -1.8137    0.0000 F   0  0  0  0  0  0  0  0  0  0  0  0
    2.4855   -2.2421    0.0000 F   0  0  0  0  0  0  0  0  0  0  0  0
    4.1347    0.2639    0.0000 F   0  0  0  0  0  0  0  0  0  0  0  0
   -4.4708   -0.5339    0.0000 C   0  0  0  0  0  0  0  0  0  0  0  0
   -4.5584   -2.0314    0.0000 O   0  0  0  0  0  0  0  0  0  0  0  0
   -5.7238    0.2906    0.0000 O   0  0  0  0  0  0  0  0  0  0  0  0
  2  1  1  1
  2  3  1  0
  3  4  1  0
  4  5  1  0
  5  6  2  0
  6  7  1  0
  7  8  1  0
  7  9  2  0
  9 10  1  0
  9 11  1  0
 11 12  1  0
 11 13  1  0
 11 14  1  0
  2 15  1  0
 15 16  2  0
 15 17  1  0
 10  4  2  0
M  END
>  <rName>  (3595) 
Tyr_3CF3

>  <PQ_SYMBOL>  (3595) 
Tyr_3CF3

>  <FULL_NAME>  (3595) 
(2S)-2-amino-3-[4-hydroxy-3-(trifluoromethyl)phenyl]propanoic acid

>  <IUPAC_CONDENSED>  (3595) 
Tyr(3-CF3)

>  <IUPAC>  (3595) 
(2S)-2-amino-3-[4-hydroxy-3-(trifluoromethyl)phenyl]propanoic acid

>  <TYPE>  (3595) 
Backbone

>  <CLASS>  (3595) 
alpha

>  <ANALOG>  (3595) 
Tyr

>  <MOL_WT>  (3595) 
249.18799999999993

>  <LOGP>  (3595) 
1.3654000000000002

>  <TPSA>  (3595) 
83.55

>  <POPULARITY>  (3595) 
2.2

>  <PROTECTED>  (3595) 
TRUE

>  <SMILES>  (3595) 
N[C@@H](Cc1(ccc(O)c(c1)C(F)(F)F))C(=O)O

>  <INCHIKEY>  (3595) 
DPWIMPAXOXJIHA-ZETCQYMHSA-N

$$$$
Tyr_3CO2H
     RDKit          2D

 16 16  0  0  0  0  0  0  0  0999 V2000
   -2.7936    1.6481    0.0000 N   0  0  0  0  0  0  0  0  0  0  0  0
   -2.9203    0.1535    0.0000 C   0  0  0  0  0  0  0  0  0  0  0  0
   -1.6893   -0.7036    0.0000 C   0  0  0  0  0  0  0  0  0  0  0  0
   -0.3315   -0.0660    0.0000 C   0  0  0  0  0  0  0  0  0  0  0  0
   -0.2048    1.4287    0.0000 C   0  0  0  0  0  0  0  0  0  0  0  0
    1.1530    2.0662    0.0000 C   0  0  0  0  0  0  0  0  0  0  0  0
    2.3840    1.2092    0.0000 C   0  0  0  0  0  0  0  0  0  0  0  0
    3.7417    1.8468    0.0000 O   0  0  0  0  0  0  0  0  0  0  0  0
    2.2573   -0.2855    0.0000 C   0  0  0  0  0  0  0  0  0  0  0  0
    0.8995   -0.9230    0.0000 C   0  0  0  0  0  0  0  0  0  0  0  0
    3.4883   -1.1425    0.0000 C   0  0  0  0  0  0  0  0  0  0  0  0
    4.8461   -0.5049    0.0000 O   0  0  0  0  0  0  0  0  0  0  0  0
    3.3616   -2.6372    0.0000 O   0  0  0  0  0  0  0  0  0  0  0  0
   -4.2781   -0.4841    0.0000 C   0  0  0  0  0  0  0  0  0  0  0  0
   -4.4048   -1.9787    0.0000 O   0  0  0  0  0  0  0  0  0  0  0  0
   -5.5091    0.3730    0.0000 O   0  0  0  0  0  0  0  0  0  0  0  0
  2  1  1  1
  2  3  1  0
  3  4  1  0
  4  5  1  0
  5  6  2  0
  6  7  1  0
  7  8  1  0
  7  9  2  0
  9 10  1  0
  9 11  1  0
 11 12  2  0
 11 13  1  0
  2 14  1  0
 14 15  2  0
 14 16  1  0
 10  4  2  0
M  END
>  <rName>  (3596) 
Tyr_3CO2H

>  <PQ_SYMBOL>  (3596) 
Tyr_3CO2H

>  <FULL_NAME>  (3596) 
L-3-Carboxytyrosine

>  <IUPAC_CONDENSED>  (3596) 
Tyr(3-CO2H)

>  <IUPAC>  (3596) 
5-((2S)-2-amino-3-hydroxy-3-oxopropyl)-2-hydroxybenzene-1-carboxylic acid

>  <TYPE>  (3596) 
Backbone

>  <CLASS>  (3596) 
alpha

>  <ANALOG>  (3596) 
Tyr

>  <MOL_WT>  (3596) 
225.19999999999996

>  <LOGP>  (3596) 
0.04479999999999984

>  <TPSA>  (3596) 
120.85000000000001

>  <POPULARITY>  (3596) 
7.4

>  <PROTECTED>  (3596) 
TRUE

>  <SMILES>  (3596) 
N[C@@H](Cc1(ccc(O)c(c1)C(=O)O))C(=O)O

>  <INCHIKEY>  (3596) 
AZXBADPWXOWMKQ-ZETCQYMHSA-N

$$$$
Tyr_3Cbz
     RDKit          2D

 23 24  0  0  0  0  0  0  0  0999 V2000
   -5.4043   -0.0301    0.0000 N   0  0  0  0  0  0  0  0  0  0  0  0
   -4.5287   -1.2479    0.0000 C   0  0  0  0  0  0  0  0  0  0  0  0
   -3.0361   -1.0986    0.0000 C   0  0  0  0  0  0  0  0  0  0  0  0
   -2.4192    0.2687    0.0000 C   0  0  0  0  0  0  0  0  0  0  0  0
   -3.2949    1.4866    0.0000 C   0  0  0  0  0  0  0  0  0  0  0  0
   -2.6780    2.8539    0.0000 C   0  0  0  0  0  0  0  0  0  0  0  0
   -1.1854    3.0033    0.0000 C   0  0  0  0  0  0  0  0  0  0  0  0
   -0.5685    4.3705    0.0000 O   0  0  0  0  0  0  0  0  0  0  0  0
   -0.3098    1.7854    0.0000 C   0  0  0  0  0  0  0  0  0  0  0  0
   -0.9267    0.4181    0.0000 C   0  0  0  0  0  0  0  0  0  0  0  0
    1.1828    1.9348    0.0000 C   0  0  0  0  0  0  0  0  0  0  0  0
    1.7997    3.3020    0.0000 O   0  0  0  0  0  0  0  0  0  0  0  0
    2.0584    0.7169    0.0000 O   0  0  0  0  0  0  0  0  0  0  0  0
    3.5509    0.8663    0.0000 C   0  0  0  0  0  0  0  0  0  0  0  0
    4.4266   -0.3516    0.0000 C   0  0  0  0  0  0  0  0  0  0  0  0
    3.8097   -1.7189    0.0000 C   0  0  0  0  0  0  0  0  0  0  0  0
    4.6853   -2.9368    0.0000 C   0  0  0  0  0  0  0  0  0  0  0  0
    6.1779   -2.7874    0.0000 C   0  0  0  0  0  0  0  0  0  0  0  0
    6.7948   -1.4201    0.0000 C   0  0  0  0  0  0  0  0  0  0  0  0
    5.9191   -0.2022    0.0000 C   0  0  0  0  0  0  0  0  0  0  0  0
   -5.1456   -2.6152    0.0000 C   0  0  0  0  0  0  0  0  0  0  0  0
   -4.2699   -3.8331    0.0000 O   0  0  0  0  0  0  0  0  0  0  0  0
   -6.6381   -2.7646    0.0000 O   0  0  0  0  0  0  0  0  0  0  0  0
  2  1  1  1
  2  3  1  0
  3  4  1  0
  4  5  1  0
  5  6  2  0
  6  7  1  0
  7  8  1  0
  7  9  2  0
  9 10  1  0
  9 11  1  0
 11 12  2  0
 11 13  1  0
 13 14  1  0
 14 15  1  0
 15 16  2  0
 16 17  1  0
 17 18  2  0
 18 19  1  0
 19 20  2  0
  2 21  1  0
 21 22  2  0
 21 23  1  0
 10  4  2  0
 20 15  1  0
M  END
>  <rName>  (3597) 
Tyr_3Cbz

>  <PQ_SYMBOL>  (3597) 
Tyr_3Cbz

>  <FULL_NAME>  (3597) 
(S)-2-amino-3-(3-((benzyloxy)carbonyl)-4-hydroxyphenyl)propanoic acid

>  <IUPAC_CONDENSED>  (3597) 
Tyr(3-Cbz)

>  <IUPAC>  (3597) 
(2S)-2-amino-3-(3-(benzyloxyformyl)-4-hydroxyphenyl)propanoic acid

>  <TYPE>  (3597) 
Backbone

>  <CLASS>  (3597) 
alpha

>  <ANALOG>  (3597) 
Tyr

>  <MOL_WT>  (3597) 
315.325

>  <LOGP>  (3597) 
1.7036

>  <TPSA>  (3597) 
109.85000000000001

>  <POPULARITY>  (3597) 
3.1

>  <PROTECTED>  (3597) 
TRUE

>  <SMILES>  (3597) 
N[C@@H](Cc1(ccc(O)c(c1)C(=O)OCc2(ccccc2)))C(=O)O

>  <INCHIKEY>  (3597) 
PLPGAKWCWRPBGY-AWEZNQCLSA-N

$$$$
Tyr_3Cl
     RDKit          2D

 14 14  0  0  0  0  0  0  0  0999 V2000
   -2.0094    1.6916    0.0000 N   0  0  0  0  0  0  0  0  0  0  0  0
   -2.3243    0.2250    0.0000 C   0  0  0  0  0  0  0  0  0  0  0  0
   -1.2116   -0.7809    0.0000 C   0  0  0  0  0  0  0  0  0  0  0  0
    0.2159   -0.3203    0.0000 C   0  0  0  0  0  0  0  0  0  0  0  0
    0.5308    1.1463    0.0000 C   0  0  0  0  0  0  0  0  0  0  0  0
    1.9583    1.6069    0.0000 C   0  0  0  0  0  0  0  0  0  0  0  0
    3.0710    0.6009    0.0000 C   0  0  0  0  0  0  0  0  0  0  0  0
    4.4985    1.0615    0.0000 O   0  0  0  0  0  0  0  0  0  0  0  0
    2.7561   -0.8657    0.0000 C   0  0  0  0  0  0  0  0  0  0  0  0
    3.8688   -1.8716    0.0000 Cl  0  0  0  0  0  0  0  0  0  0  0  0
    1.3286   -1.3263    0.0000 C   0  0  0  0  0  0  0  0  0  0  0  0
   -3.7518   -0.2356    0.0000 C   0  0  0  0  0  0  0  0  0  0  0  0
   -4.0666   -1.7022    0.0000 O   0  0  0  0  0  0  0  0  0  0  0  0
   -4.8644    0.7704    0.0000 O   0  0  0  0  0  0  0  0  0  0  0  0
  2  1  1  1
  2  3  1  0
  3  4  1  0
  4  5  1  0
  5  6  2  0
  6  7  1  0
  7  8  1  0
  7  9  2  0
  9 10  1  0
  9 11  1  0
  2 12  1  0
 12 13  2  0
 12 14  1  0
 11  4  2  0
M  END
>  <rName>  (3598) 
Tyr_3Cl

>  <PQ_SYMBOL>  (3598) 
Tyr_3Cl

>  <FULL_NAME>  (3598) 
(2S)-2-amino-3-(3-chloro-4-hydroxyphenyl)propanoic acid

>  <IUPAC_CONDENSED>  (3598) 
Tyr(3-Cl)

>  <IUPAC>  (3598) 
(2S)-2-amino-3-(3-chloro-4-hydroxyphenyl)propanoic acid

>  <TYPE>  (3598) 
Backbone

>  <CLASS>  (3598) 
alpha

>  <ANALOG>  (3598) 
Tyr

>  <MOL_WT>  (3598) 
215.63599999999997

>  <LOGP>  (3598) 
1.0

>  <TPSA>  (3598) 
83.55

>  <POPULARITY>  (3598) 
24.3

>  <PROTECTED>  (3598) 
TRUE

>  <SMILES>  (3598) 
N[C@@H](Cc1(ccc(O)c(Cl)c1))C(=O)O

>  <INCHIKEY>  (3598) 
ACWBBAGYTKWBCD-ZETCQYMHSA-N

$$$$
Tyr_3F
     RDKit          2D

 14 14  0  0  0  0  0  0  0  0999 V2000
   -2.0094    1.6916    0.0000 N   0  0  0  0  0  0  0  0  0  0  0  0
   -2.3243    0.2250    0.0000 C   0  0  0  0  0  0  0  0  0  0  0  0
   -1.2116   -0.7809    0.0000 C   0  0  0  0  0  0  0  0  0  0  0  0
    0.2159   -0.3203    0.0000 C   0  0  0  0  0  0  0  0  0  0  0  0
    0.5308    1.1463    0.0000 C   0  0  0  0  0  0  0  0  0  0  0  0
    1.9583    1.6069    0.0000 C   0  0  0  0  0  0  0  0  0  0  0  0
    3.0710    0.6009    0.0000 C   0  0  0  0  0  0  0  0  0  0  0  0
    4.4985    1.0615    0.0000 O   0  0  0  0  0  0  0  0  0  0  0  0
    2.7561   -0.8657    0.0000 C   0  0  0  0  0  0  0  0  0  0  0  0
    3.8688   -1.8716    0.0000 F   0  0  0  0  0  0  0  0  0  0  0  0
    1.3286   -1.3263    0.0000 C   0  0  0  0  0  0  0  0  0  0  0  0
   -3.7518   -0.2356    0.0000 C   0  0  0  0  0  0  0  0  0  0  0  0
   -4.0666   -1.7022    0.0000 O   0  0  0  0  0  0  0  0  0  0  0  0
   -4.8644    0.7704    0.0000 O   0  0  0  0  0  0  0  0  0  0  0  0
  2  1  1  1
  2  3  1  0
  3  4  1  0
  4  5  1  0
  5  6  2  0
  6  7  1  0
  7  8  1  0
  7  9  2  0
  9 10  1  0
  9 11  1  0
  2 12  1  0
 12 13  2  0
 12 14  1  0
 11  4  2  0
M  END
>  <rName>  (3599) 
Tyr_3F

>  <PQ_SYMBOL>  (3599) 
Tyr_3F

>  <FULL_NAME>  (3599) 
3-fluoro-L-tyrosine

>  <IUPAC_CONDENSED>  (3599) 
Tyr(3-F)

>  <IUPAC>  (3599) 
(2S)-2-amino-3-(3-fluoro-4-hydroxyphenyl)propanoic acid

>  <TYPE>  (3599) 
Backbone

>  <CLASS>  (3599) 
alpha

>  <ANALOG>  (3599) 
Tyr

>  <MOL_WT>  (3599) 
199.18099999999995

>  <LOGP>  (3599) 
0.48570000000000013

>  <TPSA>  (3599) 
83.55

>  <POPULARITY>  (3599) 
19.6

>  <PROTECTED>  (3599) 
TRUE

>  <SMILES>  (3599) 
N[C@@H](Cc1(ccc(O)c(F)c1))C(=O)O

>  <INCHIKEY>  (3599) 
VIIAUOZUUGXERI-ZETCQYMHSA-N

$$$$
Tyr_3F-
     RDKit          2D

 14 14  0  0  0  0  0  0  0  0999 V2000
   -2.0094    1.6916    0.0000 N   0  0  0  0  0  0  0  0  0  0  0  0
   -2.3243    0.2250    0.0000 C   0  0  0  0  0  0  0  0  0  0  0  0
   -1.2116   -0.7809    0.0000 C   0  0  0  0  0  0  0  0  0  0  0  0
    0.2159   -0.3203    0.0000 C   0  0  0  0  0  0  0  0  0  0  0  0
    0.5308    1.1463    0.0000 C   0  0  0  0  0  0  0  0  0  0  0  0
    1.9583    1.6069    0.0000 C   0  0  0  0  0  0  0  0  0  0  0  0
    3.0710    0.6009    0.0000 C   0  0  0  0  0  0  0  0  0  0  0  0
    4.4985    1.0615    0.0000 O   0  0  0  0  0  0  0  0  0  0  0  0
    2.7561   -0.8657    0.0000 C   0  0  0  0  0  0  0  0  0  0  0  0
    3.8688   -1.8716    0.0000 F   0  0  0  0  0  0  0  0  0  0  0  0
    1.3286   -1.3263    0.0000 C   0  0  0  0  0  0  0  0  0  0  0  0
   -3.7518   -0.2356    0.0000 C   0  0  0  0  0  0  0  0  0  0  0  0
   -4.0666   -1.7022    0.0000 O   0  0  0  0  0  0  0  0  0  0  0  0
   -4.8644    0.7704    0.0000 O   0  0  0  0  0  0  0  0  0  0  0  0
  2  1  1  1
  2  3  1  0
  3  4  1  0
  4  5  1  0
  5  6  2  0
  6  7  1  0
  7  8  1  0
  7  9  2  0
  9 10  1  0
  9 11  1  0
  2 12  1  0
 12 13  2  0
 12 14  1  0
 11  4  2  0
M  END
>  <rName>  (3600) 
Tyr_3F-

>  <PQ_SYMBOL>  (3600) 
Tyr_3F-

>  <FULL_NAME>  (3600) 
(2S)-2-amino-3-(3-fluoro-4-hydroxyphenyl)propanoic acid

>  <IUPAC_CONDENSED>  (3600) 
Tyr(3-F)-

>  <IUPAC>  (3600) 
(2S)-2-amino-3-(3-fluoro-4-hydroxyphenyl)propanoic acid

>  <TYPE>  (3600) 
N-term cap

>  <CLASS>  (3600) 
n_cap

>  <ANALOG>  (3600) 
X

>  <MOL_WT>  (3600) 
199.18099999999995

>  <LOGP>  (3600) 
0.48570000000000013

>  <TPSA>  (3600) 
83.55

>  <POPULARITY>  (3600) 
6.7

>  <PROTECTED>  (3600) 
TRUE

>  <SMILES>  (3600) 
N[C@@H](Cc1(ccc(O)c(F)c1))C(=O)O

>  <INCHIKEY>  (3600) 
VIIAUOZUUGXERI-ZETCQYMHSA-N

$$$$
Tyr_3F_5Me
     RDKit          2D

 15 15  0  0  0  0  0  0  0  0999 V2000
   -2.0609    1.6226    0.0000 N   0  0  0  0  0  0  0  0  0  0  0  0
   -2.4694    0.1793    0.0000 C   0  0  0  0  0  0  0  0  0  0  0  0
   -1.4237   -0.8961    0.0000 C   0  0  0  0  0  0  0  0  0  0  0  0
    0.0305   -0.5283    0.0000 C   0  0  0  0  0  0  0  0  0  0  0  0
    0.4390    0.9150    0.0000 C   0  0  0  0  0  0  0  0  0  0  0  0
    1.8932    1.2829    0.0000 C   0  0  0  0  0  0  0  0  0  0  0  0
    2.3017    2.7262    0.0000 C   0  0  0  0  0  0  0  0  0  0  0  0
    2.9389    0.2075    0.0000 C   0  0  0  0  0  0  0  0  0  0  0  0
    4.3931    0.5753    0.0000 O   0  0  0  0  0  0  0  0  0  0  0  0
    2.5304   -1.2358    0.0000 C   0  0  0  0  0  0  0  0  0  0  0  0
    3.5760   -2.3113    0.0000 F   0  0  0  0  0  0  0  0  0  0  0  0
    1.0762   -1.6037    0.0000 C   0  0  0  0  0  0  0  0  0  0  0  0
   -3.9236   -0.1886    0.0000 C   0  0  0  0  0  0  0  0  0  0  0  0
   -4.3321   -1.6319    0.0000 O   0  0  0  0  0  0  0  0  0  0  0  0
   -4.9693    0.8868    0.0000 O   0  0  0  0  0  0  0  0  0  0  0  0
  2  1  1  1
  2  3  1  0
  3  4  1  0
  4  5  2  0
  5  6  1  0
  6  7  1  0
  6  8  2  0
  8  9  1  0
  8 10  1  0
 10 11  1  0
 10 12  2  0
  2 13  1  0
 13 14  2  0
 13 15  1  0
 12  4  1  0
M  END
>  <rName>  (3601) 
Tyr_3F_5Me

>  <PQ_SYMBOL>  (3601) 
Tyr_3F_5Me

>  <FULL_NAME>  (3601) 
(S)-2-amino-3-(3-fluoro-4-hydroxy-5-methylphenyl)propanoic acid

>  <IUPAC_CONDENSED>  (3601) 
Tyr(3-F,5-Me)

>  <IUPAC>  (3601) 
(2S)-2-amino-3-(3-fluoro-4-hydroxy-5-methylphenyl)propanoic acid

>  <TYPE>  (3601) 
Backbone

>  <CLASS>  (3601) 
alpha

>  <ANALOG>  (3601) 
Tyr

>  <MOL_WT>  (3601) 
213.20799999999997

>  <LOGP>  (3601) 
0.79412

>  <TPSA>  (3601) 
83.55

>  <POPULARITY>  (3601) 
2.9

>  <PROTECTED>  (3601) 
TRUE

>  <SMILES>  (3601) 
N[C@@H](Cc1(cc(C)c(O)c(F)c1))C(=O)O

>  <INCHIKEY>  (3601) 
FPZCEHPJOPQTQD-QMMMGPOBSA-N

$$$$
Tyr_3I
     RDKit          2D

 14 14  0  0  0  0  0  0  0  0999 V2000
   -2.0094    1.6916    0.0000 N   0  0  0  0  0  0  0  0  0  0  0  0
   -2.3243    0.2250    0.0000 C   0  0  0  0  0  0  0  0  0  0  0  0
   -1.2116   -0.7809    0.0000 C   0  0  0  0  0  0  0  0  0  0  0  0
    0.2159   -0.3203    0.0000 C   0  0  0  0  0  0  0  0  0  0  0  0
    0.5308    1.1463    0.0000 C   0  0  0  0  0  0  0  0  0  0  0  0
    1.9583    1.6069    0.0000 C   0  0  0  0  0  0  0  0  0  0  0  0
    3.0710    0.6009    0.0000 C   0  0  0  0  0  0  0  0  0  0  0  0
    4.4985    1.0615    0.0000 O   0  0  0  0  0  0  0  0  0  0  0  0
    2.7561   -0.8657    0.0000 C   0  0  0  0  0  0  0  0  0  0  0  0
    3.8688   -1.8716    0.0000 I   0  0  0  0  0  0  0  0  0  0  0  0
    1.3286   -1.3263    0.0000 C   0  0  0  0  0  0  0  0  0  0  0  0
   -3.7518   -0.2356    0.0000 C   0  0  0  0  0  0  0  0  0  0  0  0
   -4.0666   -1.7022    0.0000 O   0  0  0  0  0  0  0  0  0  0  0  0
   -4.8644    0.7704    0.0000 O   0  0  0  0  0  0  0  0  0  0  0  0
  2  1  1  1
  2  3  1  0
  3  4  1  0
  4  5  1  0
  5  6  2  0
  6  7  1  0
  7  8  1  0
  7  9  2  0
  9 10  1  0
  9 11  1  0
  2 12  1  0
 12 13  2  0
 12 14  1  0
 11  4  2  0
M  END
>  <rName>  (3602) 
Tyr_3I

>  <PQ_SYMBOL>  (3602) 
Tyr_3I

>  <FULL_NAME>  (3602) 
3-iodo-L-tyrosine

>  <IUPAC_CONDENSED>  (3602) 
Tyr(3-I)

>  <IUPAC>  (3602) 
(2S)-2-amino-3-(4-hydroxy-3-iodophenyl)propanoic acid

>  <TYPE>  (3602) 
Backbone

>  <CLASS>  (3602) 
alpha

>  <ANALOG>  (3602) 
Tyr

>  <MOL_WT>  (3602) 
307.087

>  <LOGP>  (3602) 
0.9512

>  <TPSA>  (3602) 
83.55

>  <POPULARITY>  (3602) 
36.9

>  <PROTECTED>  (3602) 
TRUE

>  <SMILES>  (3602) 
N[C@@H](Cc1(ccc(O)c(I)c1))C(=O)O

>  <INCHIKEY>  (3602) 
UQTZMGFTRHFAAM-ZETCQYMHSA-N

$$$$
Tyr_3Me
     RDKit          2D

 14 14  0  0  0  0  0  0  0  0999 V2000
   -2.0094    1.6916    0.0000 N   0  0  0  0  0  0  0  0  0  0  0  0
   -2.3243    0.2250    0.0000 C   0  0  0  0  0  0  0  0  0  0  0  0
   -1.2116   -0.7809    0.0000 C   0  0  0  0  0  0  0  0  0  0  0  0
    0.2159   -0.3203    0.0000 C   0  0  0  0  0  0  0  0  0  0  0  0
    0.5308    1.1463    0.0000 C   0  0  0  0  0  0  0  0  0  0  0  0
    1.9583    1.6069    0.0000 C   0  0  0  0  0  0  0  0  0  0  0  0
    3.0710    0.6009    0.0000 C   0  0  0  0  0  0  0  0  0  0  0  0
    4.4985    1.0615    0.0000 O   0  0  0  0  0  0  0  0  0  0  0  0
    2.7561   -0.8657    0.0000 C   0  0  0  0  0  0  0  0  0  0  0  0
    3.8688   -1.8716    0.0000 C   0  0  0  0  0  0  0  0  0  0  0  0
    1.3286   -1.3263    0.0000 C   0  0  0  0  0  0  0  0  0  0  0  0
   -3.7518   -0.2356    0.0000 C   0  0  0  0  0  0  0  0  0  0  0  0
   -4.0666   -1.7022    0.0000 O   0  0  0  0  0  0  0  0  0  0  0  0
   -4.8644    0.7704    0.0000 O   0  0  0  0  0  0  0  0  0  0  0  0
  2  1  1  1
  2  3  1  0
  3  4  1  0
  4  5  1  0
  5  6  2  0
  6  7  1  0
  7  8  1  0
  7  9  2  0
  9 10  1  0
  9 11  1  0
  2 12  1  0
 12 13  2  0
 12 14  1  0
 11  4  2  0
M  END
>  <rName>  (3603) 
Tyr_3Me

>  <PQ_SYMBOL>  (3603) 
Tyr_3Me

>  <FULL_NAME>  (3603) 
3-methyl-L-tyrosine

>  <IUPAC_CONDENSED>  (3603) 
Tyr(3-Me)

>  <IUPAC>  (3603) 
(2S)-2-amino-3-(4-hydroxy-3-methylphenyl)propanoic acid

>  <TYPE>  (3603) 
Backbone

>  <CLASS>  (3603) 
alpha

>  <ANALOG>  (3603) 
Tyr

>  <MOL_WT>  (3603) 
195.21799999999996

>  <LOGP>  (3603) 
0.6550199999999999

>  <TPSA>  (3603) 
83.55

>  <POPULARITY>  (3603) 
12.7

>  <PROTECTED>  (3603) 
TRUE

>  <SMILES>  (3603) 
N[C@@H](Cc1(ccc(O)c(C)c1))C(=O)O

>  <INCHIKEY>  (3603) 
MQHLULPKDLJASZ-QMMMGPOBSA-N

$$$$
Tyr_3NH2
     RDKit          2D

 14 14  0  0  0  0  0  0  0  0999 V2000
   -2.0094    1.6916    0.0000 N   0  0  0  0  0  0  0  0  0  0  0  0
   -2.3243    0.2250    0.0000 C   0  0  0  0  0  0  0  0  0  0  0  0
   -1.2116   -0.7809    0.0000 C   0  0  0  0  0  0  0  0  0  0  0  0
    0.2159   -0.3203    0.0000 C   0  0  0  0  0  0  0  0  0  0  0  0
    0.5308    1.1463    0.0000 C   0  0  0  0  0  0  0  0  0  0  0  0
    1.9583    1.6069    0.0000 C   0  0  0  0  0  0  0  0  0  0  0  0
    3.0710    0.6009    0.0000 C   0  0  0  0  0  0  0  0  0  0  0  0
    4.4985    1.0615    0.0000 O   0  0  0  0  0  0  0  0  0  0  0  0
    2.7561   -0.8657    0.0000 C   0  0  0  0  0  0  0  0  0  0  0  0
    3.8688   -1.8716    0.0000 N   0  0  0  0  0  0  0  0  0  0  0  0
    1.3286   -1.3263    0.0000 C   0  0  0  0  0  0  0  0  0  0  0  0
   -3.7518   -0.2356    0.0000 C   0  0  0  0  0  0  0  0  0  0  0  0
   -4.0666   -1.7022    0.0000 O   0  0  0  0  0  0  0  0  0  0  0  0
   -4.8644    0.7704    0.0000 O   0  0  0  0  0  0  0  0  0  0  0  0
  2  1  1  1
  2  3  1  0
  3  4  1  0
  4  5  1  0
  5  6  2  0
  6  7  1  0
  7  8  1  0
  7  9  2  0
  9 10  1  0
  9 11  1  0
  2 12  1  0
 12 13  2  0
 12 14  1  0
 11  4  2  0
M  END
>  <rName>  (3604) 
Tyr_3NH2

>  <PQ_SYMBOL>  (3604) 
Tyr_3NH2

>  <FULL_NAME>  (3604) 
3-Amino-L-Tyrosine

>  <IUPAC_CONDENSED>  (3604) 
Tyr(3-NH2)

>  <IUPAC>  (3604) 
(2S)-2-amino-3-(3-amino-4-hydroxyphenyl)propanoic acid

>  <TYPE>  (3604) 
Backbone

>  <CLASS>  (3604) 
alpha

>  <ANALOG>  (3604) 
Tyr

>  <MOL_WT>  (3604) 
196.20599999999996

>  <LOGP>  (3604) 
-0.07120000000000015

>  <TPSA>  (3604) 
109.57000000000001

>  <POPULARITY>  (3604) 
23.2

>  <PROTECTED>  (3604) 
TRUE

>  <SMILES>  (3604) 
N[C@@H](Cc1(ccc(O)c(N)c1))C(=O)O

>  <INCHIKEY>  (3604) 
POGSZHUEECCEAP-ZETCQYMHSA-N

$$$$
Tyr_3NO2
     RDKit          2D

 16 16  0  0  0  0  0  0  0  0999 V2000
   -2.7936    1.6481    0.0000 N   0  0  0  0  0  0  0  0  0  0  0  0
   -2.9203    0.1535    0.0000 C   0  0  0  0  0  0  0  0  0  0  0  0
   -1.6893   -0.7036    0.0000 C   0  0  0  0  0  0  0  0  0  0  0  0
   -0.3315   -0.0660    0.0000 C   0  0  0  0  0  0  0  0  0  0  0  0
   -0.2048    1.4287    0.0000 C   0  0  0  0  0  0  0  0  0  0  0  0
    1.1530    2.0662    0.0000 C   0  0  0  0  0  0  0  0  0  0  0  0
    2.3840    1.2092    0.0000 C   0  0  0  0  0  0  0  0  0  0  0  0
    3.7417    1.8468    0.0000 O   0  0  0  0  0  0  0  0  0  0  0  0
    2.2573   -0.2855    0.0000 C   0  0  0  0  0  0  0  0  0  0  0  0
    0.8995   -0.9230    0.0000 C   0  0  0  0  0  0  0  0  0  0  0  0
    3.4883   -1.1425    0.0000 N   0  0  0  0  0  0  0  0  0  0  0  0
    4.8461   -0.5049    0.0000 O   0  0  0  0  0  0  0  0  0  0  0  0
    3.3616   -2.6372    0.0000 O   0  0  0  0  0  0  0  0  0  0  0  0
   -4.2781   -0.4841    0.0000 C   0  0  0  0  0  0  0  0  0  0  0  0
   -4.4048   -1.9787    0.0000 O   0  0  0  0  0  0  0  0  0  0  0  0
   -5.5091    0.3730    0.0000 O   0  0  0  0  0  0  0  0  0  0  0  0
  2  1  1  1
  2  3  1  0
  3  4  1  0
  4  5  1  0
  5  6  2  0
  6  7  1  0
  7  8  1  0
  7  9  2  0
  9 10  1  0
  9 11  1  0
 11 12  2  0
 11 13  1  0
  2 14  1  0
 14 15  2  0
 14 16  1  0
 10  4  2  0
M  CHG  2  11   1  13  -1
M  END
>  <rName>  (3605) 
Tyr_3NO2

>  <PQ_SYMBOL>  (3605) 
Tyr_3NO2

>  <FULL_NAME>  (3605) 
3-Nitro-L-Tyrosine

>  <IUPAC_CONDENSED>  (3605) 
Tyr(3-NO2)

>  <IUPAC>  (3605) 
(2S)-2-amino-3-(4-hydroxy-3-nitrophenyl)propanoic acid

>  <TYPE>  (3605) 
Backbone

>  <CLASS>  (3605) 
alpha

>  <ANALOG>  (3605) 
Tyr

>  <MOL_WT>  (3605) 
226.18799999999996

>  <LOGP>  (3605) 
0.2547999999999999

>  <TPSA>  (3605) 
126.69000000000001

>  <POPULARITY>  (3605) 
18.4

>  <PROTECTED>  (3605) 
TRUE

>  <SMILES>  (3605) 
N[C@@H](Cc1(ccc(O)c(c1)[N+](=O)[O-]))C(=O)O

>  <INCHIKEY>  (3605) 
FBTSQILOGYXGMD-LURJTMIESA-N

$$$$
Tyr_3OH
     RDKit          2D

 14 14  0  0  0  0  0  0  0  0999 V2000
   -2.0094    1.6916    0.0000 N   0  0  0  0  0  0  0  0  0  0  0  0
   -2.3243    0.2250    0.0000 C   0  0  0  0  0  0  0  0  0  0  0  0
   -1.2116   -0.7809    0.0000 C   0  0  0  0  0  0  0  0  0  0  0  0
    0.2159   -0.3203    0.0000 C   0  0  0  0  0  0  0  0  0  0  0  0
    0.5308    1.1463    0.0000 C   0  0  0  0  0  0  0  0  0  0  0  0
    1.9583    1.6069    0.0000 C   0  0  0  0  0  0  0  0  0  0  0  0
    3.0710    0.6009    0.0000 C   0  0  0  0  0  0  0  0  0  0  0  0
    4.4985    1.0615    0.0000 O   0  0  0  0  0  0  0  0  0  0  0  0
    2.7561   -0.8657    0.0000 C   0  0  0  0  0  0  0  0  0  0  0  0
    3.8688   -1.8716    0.0000 O   0  0  0  0  0  0  0  0  0  0  0  0
    1.3286   -1.3263    0.0000 C   0  0  0  0  0  0  0  0  0  0  0  0
   -3.7518   -0.2356    0.0000 C   0  0  0  0  0  0  0  0  0  0  0  0
   -4.0666   -1.7022    0.0000 O   0  0  0  0  0  0  0  0  0  0  0  0
   -4.8644    0.7704    0.0000 O   0  0  0  0  0  0  0  0  0  0  0  0
  2  1  1  1
  2  3  1  0
  3  4  1  0
  4  5  1  0
  5  6  2  0
  6  7  1  0
  7  8  1  0
  7  9  2  0
  9 10  1  0
  9 11  1  0
  2 12  1  0
 12 13  2  0
 12 14  1  0
 11  4  2  0
M  END
>  <rName>  (3606) 
Tyr_3OH

>  <PQ_SYMBOL>  (3606) 
Tyr_3OH

>  <FULL_NAME>  (3606) 
3-Hydroxy-L-Tyrosine, L-Levodopa

>  <IUPAC_CONDENSED>  (3606) 
Tyr(3-OH)

>  <IUPAC>  (3606) 
(2S)-2-amino-3-(3,4-dihydroxyphenyl)propanoic acid

>  <TYPE>  (3606) 
Backbone

>  <CLASS>  (3606) 
alpha

>  <ANALOG>  (3606) 
Tyr

>  <MOL_WT>  (3606) 
197.18999999999997

>  <LOGP>  (3606) 
0.052200000000000135

>  <TPSA>  (3606) 
103.78000000000002

>  <POPULARITY>  (3606) 
32.2

>  <PROTECTED>  (3606) 
TRUE

>  <SMILES>  (3606) 
N[C@@H](Cc1(ccc(O)c(O)c1))C(=O)O

>  <INCHIKEY>  (3606) 
WTDRDQBEARUVNC-LURJTMIESA-N

$$$$
Tyr_3OMe
     RDKit          2D

 15 15  0  0  0  0  0  0  0  0999 V2000
   -2.4309    1.6735    0.0000 N   0  0  0  0  0  0  0  0  0  0  0  0
   -2.5936    0.1823    0.0000 C   0  0  0  0  0  0  0  0  0  0  0  0
   -1.3836   -0.7041    0.0000 C   0  0  0  0  0  0  0  0  0  0  0  0
   -0.0108   -0.0994    0.0000 C   0  0  0  0  0  0  0  0  0  0  0  0
    0.1518    1.3917    0.0000 C   0  0  0  0  0  0  0  0  0  0  0  0
    1.5245    1.9964    0.0000 C   0  0  0  0  0  0  0  0  0  0  0  0
    2.7346    1.1100    0.0000 C   0  0  0  0  0  0  0  0  0  0  0  0
    4.1073    1.7147    0.0000 O   0  0  0  0  0  0  0  0  0  0  0  0
    2.5719   -0.3812    0.0000 C   0  0  0  0  0  0  0  0  0  0  0  0
    3.7820   -1.2676    0.0000 O   0  0  0  0  0  0  0  0  0  0  0  0
    3.6193   -2.7588    0.0000 C   0  0  0  0  0  0  0  0  0  0  0  0
    1.1992   -0.9859    0.0000 C   0  0  0  0  0  0  0  0  0  0  0  0
   -3.9663   -0.4224    0.0000 C   0  0  0  0  0  0  0  0  0  0  0  0
   -4.1290   -1.9135    0.0000 O   0  0  0  0  0  0  0  0  0  0  0  0
   -5.1764    0.4641    0.0000 O   0  0  0  0  0  0  0  0  0  0  0  0
  2  1  1  1
  2  3  1  0
  3  4  1  0
  4  5  1  0
  5  6  2  0
  6  7  1  0
  7  8  1  0
  7  9  2  0
  9 10  1  0
 10 11  1  0
  9 12  1  0
  2 13  1  0
 13 14  2  0
 13 15  1  0
 12  4  2  0
M  END
>  <rName>  (3607) 
Tyr_3OMe

>  <PQ_SYMBOL>  (3607) 
Tyr_3OMe

>  <FULL_NAME>  (3607) 
3-Methoxy-L-tyrosine

>  <IUPAC_CONDENSED>  (3607) 
Tyr(3-OMe)

>  <IUPAC>  (3607) 
(2S)-2-amino-3-(4-hydroxy-3-methoxyphenyl)propanoic acid

>  <TYPE>  (3607) 
Backbone

>  <CLASS>  (3607) 
alpha

>  <ANALOG>  (3607) 
Tyr

>  <MOL_WT>  (3607) 
211.21699999999996

>  <LOGP>  (3607) 
0.35519999999999974

>  <TPSA>  (3607) 
92.78000000000002

>  <POPULARITY>  (3607) 
19.2

>  <PROTECTED>  (3607) 
TRUE

>  <SMILES>  (3607) 
N[C@@H](Cc1(ccc(O)c(OC)c1))C(=O)O

>  <INCHIKEY>  (3607) 
PFDUUKDQEHURQC-ZETCQYMHSA-N

$$$$
Tyr_3SMe
     RDKit          2D

 15 15  0  0  0  0  0  0  0  0999 V2000
   -2.4309    1.6735    0.0000 N   0  0  0  0  0  0  0  0  0  0  0  0
   -2.5936    0.1823    0.0000 C   0  0  0  0  0  0  0  0  0  0  0  0
   -1.3836   -0.7041    0.0000 C   0  0  0  0  0  0  0  0  0  0  0  0
   -0.0108   -0.0994    0.0000 C   0  0  0  0  0  0  0  0  0  0  0  0
    0.1518    1.3917    0.0000 C   0  0  0  0  0  0  0  0  0  0  0  0
    1.5245    1.9964    0.0000 C   0  0  0  0  0  0  0  0  0  0  0  0
    2.7346    1.1100    0.0000 C   0  0  0  0  0  0  0  0  0  0  0  0
    4.1073    1.7147    0.0000 O   0  0  0  0  0  0  0  0  0  0  0  0
    2.5719   -0.3812    0.0000 C   0  0  0  0  0  0  0  0  0  0  0  0
    1.1992   -0.9859    0.0000 C   0  0  0  0  0  0  0  0  0  0  0  0
    3.7820   -1.2676    0.0000 S   0  0  0  0  0  0  0  0  0  0  0  0
    3.6193   -2.7588    0.0000 C   0  0  0  0  0  0  0  0  0  0  0  0
   -3.9663   -0.4224    0.0000 C   0  0  0  0  0  0  0  0  0  0  0  0
   -4.1290   -1.9135    0.0000 O   0  0  0  0  0  0  0  0  0  0  0  0
   -5.1764    0.4641    0.0000 O   0  0  0  0  0  0  0  0  0  0  0  0
  2  1  1  1
  2  3  1  0
  3  4  1  0
  4  5  1  0
  5  6  2  0
  6  7  1  0
  7  8  1  0
  7  9  2  0
  9 10  1  0
  9 11  1  0
 11 12  1  0
  2 13  1  0
 13 14  2  0
 13 15  1  0
 10  4  2  0
M  END
>  <rName>  (3608) 
Tyr_3SMe

>  <PQ_SYMBOL>  (3608) 
Tyr_3SMe

>  <FULL_NAME>  (3608) 
3-(methylthio)-L-tyrosine

>  <IUPAC_CONDENSED>  (3608) 
Tyr(3-SMe)

>  <IUPAC>  (3608) 
(2S)-2-amino-3-(4-hydroxy-3-(methylsulfanyl)phenyl)propanoic acid

>  <TYPE>  (3608) 
Backbone

>  <CLASS>  (3608) 
alpha

>  <ANALOG>  (3608) 
Tyr

>  <MOL_WT>  (3608) 
227.28499999999997

>  <LOGP>  (3608) 
1.0685000000000002

>  <TPSA>  (3608) 
83.55

>  <POPULARITY>  (3608) 
3.7

>  <PROTECTED>  (3608) 
TRUE

>  <SMILES>  (3608) 
N[C@@H](Cc1(ccc(O)c(c1)SC))C(=O)O

>  <INCHIKEY>  (3608) 
IOOJLYGZFZULHP-ZETCQYMHSA-N

$$$$
Tyr_3azido
     RDKit          2D

 16 16  0  0  0  0  0  0  0  0999 V2000
   -2.8776    1.5767    0.0000 N   0  0  0  0  0  0  0  0  0  0  0  0
   -2.8441    0.0771    0.0000 C   0  0  0  0  0  0  0  0  0  0  0  0
   -1.5286   -0.6437    0.0000 C   0  0  0  0  0  0  0  0  0  0  0  0
   -0.2466    0.1351    0.0000 C   0  0  0  0  0  0  0  0  0  0  0  0
   -0.2802    1.6348    0.0000 C   0  0  0  0  0  0  0  0  0  0  0  0
    1.0018    2.4136    0.0000 C   0  0  0  0  0  0  0  0  0  0  0  0
    2.3173    1.6928    0.0000 C   0  0  0  0  0  0  0  0  0  0  0  0
    3.5992    2.4716    0.0000 O   0  0  0  0  0  0  0  0  0  0  0  0
    2.3508    0.1932    0.0000 C   0  0  0  0  0  0  0  0  0  0  0  0
    1.0688   -0.5856    0.0000 C   0  0  0  0  0  0  0  0  0  0  0  0
    3.6662   -0.5276    0.0000 N   0  0  0  0  0  0  0  0  0  0  0  0
    3.6997   -2.0272    0.0000 N   0  0  0  0  0  0  0  0  0  0  0  0
    3.7333   -3.5269    0.0000 N   0  0  0  0  0  0  0  0  0  0  0  0
   -4.1260   -0.7017    0.0000 C   0  0  0  0  0  0  0  0  0  0  0  0
   -4.0925   -2.2013    0.0000 O   0  0  0  0  0  0  0  0  0  0  0  0
   -5.4415    0.0191    0.0000 O   0  0  0  0  0  0  0  0  0  0  0  0
  2  1  1  1
  2  3  1  0
  3  4  1  0
  4  5  1  0
  5  6  2  0
  6  7  1  0
  7  8  1  0
  7  9  2  0
  9 10  1  0
  9 11  1  0
 11 12  1  0
 12 13  3  0
  2 14  1  0
 14 15  2  0
 14 16  1  0
 10  4  2  0
M  CHG  2  11  -1  12   1
M  END
>  <rName>  (3609) 
Tyr_3azido

>  <PQ_SYMBOL>  (3609) 
Tyr_3azido

>  <FULL_NAME>  (3609) 
(2S)-2-amino-3-(3-azido-4-hydroxyphenyl)propanoic acid

>  <IUPAC_CONDENSED>  (3609) 
Tyr(3-azido)

>  <IUPAC>  (3609) 
(2S)-2-amino-3-(3-azido-4-hydroxyphenyl)propanoic acid

>  <TYPE>  (3609) 
Backbone

>  <CLASS>  (3609) 
alpha

>  <ANALOG>  (3609) 
Tyr

>  <MOL_WT>  (3609) 
222.20399999999998

>  <LOGP>  (3609) 
1.11988

>  <TPSA>  (3609) 
125.8

>  <POPULARITY>  (3609) 
4.1

>  <PROTECTED>  (3609) 
TRUE

>  <SMILES>  (3609) 
N[C@@H](Cc1(ccc(O)c(c1)[N-][N+]#N))C(=O)O

>  <INCHIKEY>  (3609) 
VGCRDUSYLLNJSS-LURJTMIESA-N

$$$$
Tyr_3ethynyl
     RDKit          2D

 15 15  0  0  0  0  0  0  0  0999 V2000
   -2.5333    1.6163    0.0000 N   0  0  0  0  0  0  0  0  0  0  0  0
   -2.6860    0.1241    0.0000 C   0  0  0  0  0  0  0  0  0  0  0  0
   -1.4701   -0.7543    0.0000 C   0  0  0  0  0  0  0  0  0  0  0  0
   -0.1014   -0.1404    0.0000 C   0  0  0  0  0  0  0  0  0  0  0  0
    0.0513    1.3518    0.0000 C   0  0  0  0  0  0  0  0  0  0  0  0
    1.4199    1.9657    0.0000 C   0  0  0  0  0  0  0  0  0  0  0  0
    2.6358    1.0873    0.0000 C   0  0  0  0  0  0  0  0  0  0  0  0
    4.0045    1.7012    0.0000 O   0  0  0  0  0  0  0  0  0  0  0  0
    2.4832   -0.4049    0.0000 C   0  0  0  0  0  0  0  0  0  0  0  0
    3.6991   -1.2832    0.0000 C   0  0  0  0  0  0  0  0  0  0  0  0
    4.9151   -2.1615    0.0000 C   0  0  0  0  0  0  0  0  0  0  0  0
    1.1145   -1.0187    0.0000 C   0  0  0  0  0  0  0  0  0  0  0  0
   -4.0546   -0.4898    0.0000 C   0  0  0  0  0  0  0  0  0  0  0  0
   -4.2073   -1.9820    0.0000 O   0  0  0  0  0  0  0  0  0  0  0  0
   -5.2706    0.3885    0.0000 O   0  0  0  0  0  0  0  0  0  0  0  0
  2  1  1  1
  2  3  1  0
  3  4  1  0
  4  5  1  0
  5  6  2  0
  6  7  1  0
  7  8  1  0
  7  9  2  0
  9 10  1  0
 10 11  3  0
  9 12  1  0
  2 13  1  0
 13 14  2  0
 13 15  1  0
 12  4  2  0
M  END
>  <rName>  (3610) 
Tyr_3ethynyl

>  <PQ_SYMBOL>  (3610) 
Tyr_3ethynyl

>  <FULL_NAME>  (3610) 
(2S)-2-amino-3-(3-ethynyl-4-hydroxyphenyl)propanoic acid

>  <IUPAC_CONDENSED>  (3610) 
Tyr(3-ethynyl)

>  <IUPAC>  (3610) 
(2S)-2-amino-3-(3-ethynyl-4-hydroxyphenyl)propanoic acid

>  <TYPE>  (3610) 
Backbone

>  <CLASS>  (3610) 
alpha

>  <ANALOG>  (3610) 
Tyr

>  <MOL_WT>  (3610) 
205.21299999999997

>  <LOGP>  (3610) 
0.3279000000000001

>  <TPSA>  (3610) 
83.55

>  <POPULARITY>  (3610) 
2.2

>  <PROTECTED>  (3610) 
TRUE

>  <SMILES>  (3610) 
N[C@@H](Cc1(ccc(O)c(C#C)c1))C(=O)O

>  <INCHIKEY>  (3610) 
NVENFHCMVHAODP-VIFPVBQESA-N

$$$$
Tyr_3tBu
     RDKit          2D

 17 17  0  0  0  0  0  0  0  0999 V2000
   -3.0426    1.6364    0.0000 N   0  0  0  0  0  0  0  0  0  0  0  0
   -3.1302    0.1389    0.0000 C   0  0  0  0  0  0  0  0  0  0  0  0
   -1.8772   -0.6857    0.0000 C   0  0  0  0  0  0  0  0  0  0  0  0
   -0.5366   -0.0128    0.0000 C   0  0  0  0  0  0  0  0  0  0  0  0
   -0.4490    1.4846    0.0000 C   0  0  0  0  0  0  0  0  0  0  0  0
    0.8917    2.1575    0.0000 C   0  0  0  0  0  0  0  0  0  0  0  0
    2.1447    1.3329    0.0000 C   0  0  0  0  0  0  0  0  0  0  0  0
    3.4853    2.0058    0.0000 O   0  0  0  0  0  0  0  0  0  0  0  0
    2.0571   -0.1645    0.0000 C   0  0  0  0  0  0  0  0  0  0  0  0
    0.7165   -0.8374    0.0000 C   0  0  0  0  0  0  0  0  0  0  0  0
    3.3101   -0.9891    0.0000 C   0  0  0  0  0  0  0  0  0  0  0  0
    2.4855   -2.2421    0.0000 C   0  0  0  0  0  0  0  0  0  0  0  0
    4.1347    0.2639    0.0000 C   0  0  0  0  0  0  0  0  0  0  0  0
    4.5631   -1.8137    0.0000 C   0  0  0  0  0  0  0  0  0  0  0  0
   -4.4708   -0.5339    0.0000 C   0  0  0  0  0  0  0  0  0  0  0  0
   -4.5584   -2.0314    0.0000 O   0  0  0  0  0  0  0  0  0  0  0  0
   -5.7238    0.2906    0.0000 O   0  0  0  0  0  0  0  0  0  0  0  0
  2  1  1  1
  2  3  1  0
  3  4  1  0
  4  5  1  0
  5  6  2  0
  6  7  1  0
  7  8  1  0
  7  9  2  0
  9 10  1  0
  9 11  1  0
 11 12  1  0
 11 13  1  0
 11 14  1  0
  2 15  1  0
 15 16  2  0
 15 17  1  0
 10  4  2  0
M  END
>  <rName>  (3611) 
Tyr_3tBu

>  <PQ_SYMBOL>  (3611) 
Tyr_3tBu

>  <FULL_NAME>  (3611) 
(2S)-2-amino-3-(3-tert-butyl-4-hydroxyphenyl)propanoic acid

>  <IUPAC_CONDENSED>  (3611) 
Tyr(3-tBu)

>  <IUPAC>  (3611) 
(2S)-2-amino-3-(3-(tert-butyl)-4-hydroxyphenyl)propanoic acid

>  <TYPE>  (3611) 
Backbone

>  <CLASS>  (3611) 
alpha

>  <ANALOG>  (3611) 
Tyr

>  <MOL_WT>  (3611) 
237.29899999999995

>  <LOGP>  (3611) 
1.6441000000000001

>  <TPSA>  (3611) 
83.55

>  <POPULARITY>  (3611) 
12.2

>  <PROTECTED>  (3611) 
TRUE

>  <SMILES>  (3611) 
N[C@@H](Cc1(ccc(O)c(c1)C(C)(C)C))C(=O)O

>  <INCHIKEY>  (3611) 
OPICDRDJURXPOL-JTQLQIEISA-N

$$$$
Tyr_CH2cHex
     RDKit          2D

 20 21  0  0  0  0  0  0  0  0999 V2000
   -4.5045    1.7035    0.0000 N   0  0  0  0  0  0  0  0  0  0  0  0
   -4.9466    0.2701    0.0000 C   0  0  0  0  0  0  0  0  0  0  0  0
   -3.9264   -0.8295    0.0000 C   0  0  0  0  0  0  0  0  0  0  0  0
   -2.4640   -0.4957    0.0000 C   0  0  0  0  0  0  0  0  0  0  0  0
   -2.0218    0.9376    0.0000 C   0  0  0  0  0  0  0  0  0  0  0  0
   -0.5594    1.2714    0.0000 C   0  0  0  0  0  0  0  0  0  0  0  0
    0.4608    0.1718    0.0000 C   0  0  0  0  0  0  0  0  0  0  0  0
    1.9232    0.5056    0.0000 O   0  0  0  0  0  0  0  0  0  0  0  0
    2.9435   -0.5940    0.0000 C   0  0  0  0  0  0  0  0  0  0  0  0
    4.4059   -0.2603    0.0000 C   0  0  0  0  0  0  0  0  0  0  0  0
    5.4261   -1.3599    0.0000 C   0  0  0  0  0  0  0  0  0  0  0  0
    6.8885   -1.0261    0.0000 C   0  0  0  0  0  0  0  0  0  0  0  0
    7.3307    0.4072    0.0000 C   0  0  0  0  0  0  0  0  0  0  0  0
    6.3104    1.5068    0.0000 C   0  0  0  0  0  0  0  0  0  0  0  0
    4.8480    1.1731    0.0000 C   0  0  0  0  0  0  0  0  0  0  0  0
    0.0187   -1.2616    0.0000 C   0  0  0  0  0  0  0  0  0  0  0  0
   -1.4437   -1.5953    0.0000 C   0  0  0  0  0  0  0  0  0  0  0  0
   -6.4090   -0.0637    0.0000 C   0  0  0  0  0  0  0  0  0  0  0  0
   -6.8512   -1.4970    0.0000 O   0  0  0  0  0  0  0  0  0  0  0  0
   -7.4292    1.0359    0.0000 O   0  0  0  0  0  0  0  0  0  0  0  0
  2  1  1  1
  2  3  1  0
  3  4  1  0
  4  5  1  0
  5  6  2  0
  6  7  1  0
  7  8  1  0
  8  9  1  0
  9 10  1  0
 10 11  1  0
 11 12  1  0
 12 13  1  0
 13 14  1  0
 14 15  1  0
  7 16  2  0
 16 17  1  0
  2 18  1  0
 18 19  2  0
 18 20  1  0
 15 10  1  0
 17  4  2  0
M  END
>  <rName>  (3612) 
Tyr_CH2cHex

>  <PQ_SYMBOL>  (3612) 
Tyr_CH2cHex

>  <FULL_NAME>  (3612) 
O-(cyclohexylmethyl)-L-tyrosine

>  <IUPAC_CONDENSED>  (3612) 
Tyr(CH2cHex)

>  <IUPAC>  (3612) 
(2S)-2-amino-3-(4-(cyclohexylmethoxy)phenyl)propanoic acid

>  <TYPE>  (3612) 
Backbone

>  <CLASS>  (3612) 
alpha

>  <ANALOG>  (3612) 
Tyr

>  <MOL_WT>  (3612) 
277.3639999999999

>  <LOGP>  (3612) 
2.6001000000000003

>  <TPSA>  (3612) 
72.55

>  <POPULARITY>  (3612) 
17.3

>  <PROTECTED>  (3612) 
TRUE

>  <SMILES>  (3612) 
N[C@@H](Cc2(ccc(OCC1(CCCCC1))cc2))C(=O)O

>  <INCHIKEY>  (3612) 
ZMSRPKLDTYMXDT-HNNXBMFYSA-N

$$$$
Tyr_CHCO2H2
     RDKit          2D

 20 20  0  0  0  0  0  0  0  0999 V2000
   -4.0326    1.7102    0.0000 N   0  0  0  0  0  0  0  0  0  0  0  0
   -4.3220    0.2384    0.0000 C   0  0  0  0  0  0  0  0  0  0  0  0
   -3.1921   -0.7481    0.0000 C   0  0  0  0  0  0  0  0  0  0  0  0
   -1.7728   -0.2629    0.0000 C   0  0  0  0  0  0  0  0  0  0  0  0
   -1.4834    1.2089    0.0000 C   0  0  0  0  0  0  0  0  0  0  0  0
   -0.0640    1.6942    0.0000 C   0  0  0  0  0  0  0  0  0  0  0  0
    1.0659    0.7076    0.0000 C   0  0  0  0  0  0  0  0  0  0  0  0
    2.4852    1.1929    0.0000 O   0  0  0  0  0  0  0  0  0  0  0  0
    3.6151    0.2063    0.0000 C   0  0  0  0  0  0  0  0  0  0  0  0
    5.0345    0.6916    0.0000 C   0  0  0  0  0  0  0  0  0  0  0  0
    5.3239    2.1634    0.0000 O   0  0  0  0  0  0  0  0  0  0  0  0
    6.1644   -0.2950    0.0000 O   0  0  0  0  0  0  0  0  0  0  0  0
    3.3257   -1.2655    0.0000 C   0  0  0  0  0  0  0  0  0  0  0  0
    1.9064   -1.7507    0.0000 O   0  0  0  0  0  0  0  0  0  0  0  0
    4.4556   -2.2520    0.0000 O   0  0  0  0  0  0  0  0  0  0  0  0
    0.7765   -0.7642    0.0000 C   0  0  0  0  0  0  0  0  0  0  0  0
   -0.6429   -1.2494    0.0000 C   0  0  0  0  0  0  0  0  0  0  0  0
   -5.7414   -0.2468    0.0000 C   0  0  0  0  0  0  0  0  0  0  0  0
   -6.0308   -1.7187    0.0000 O   0  0  0  0  0  0  0  0  0  0  0  0
   -6.8713    0.7397    0.0000 O   0  0  0  0  0  0  0  0  0  0  0  0
  2  1  1  1
  2  3  1  0
  3  4  1  0
  4  5  1  0
  5  6  2  0
  6  7  1  0
  7  8  1  0
  8  9  1  0
  9 10  1  0
 10 11  2  0
 10 12  1  0
  9 13  1  0
 13 14  2  0
 13 15  1  0
  7 16  2  0
 16 17  1  0
  2 18  1  0
 18 19  2  0
 18 20  1  0
 17  4  2  0
M  END
>  <rName>  (3613) 
Tyr_CHCO2H2

>  <PQ_SYMBOL>  (3613) 
Tyr_CHCO2H2

>  <FULL_NAME>  (3613) 
2-[4-[(2S)-2-amino-2-carboxyethyl]phenoxy]propanedioic acid

>  <IUPAC_CONDENSED>  (3613) 
Tyr(CH(CO2H)2)

>  <IUPAC>  (3613) 
2-((4-((2S)-2-amino-3-hydroxy-3-oxopropyl)phenyl)oxy)malonic acid

>  <TYPE>  (3613) 
Backbone

>  <CLASS>  (3613) 
alpha

>  <ANALOG>  (3613) 
Tyr

>  <MOL_WT>  (3613) 
283.236

>  <LOGP>  (3613) 
-0.44239999999999974

>  <TPSA>  (3613) 
147.15

>  <POPULARITY>  (3613) 
12.3

>  <PROTECTED>  (3613) 
TRUE

>  <SMILES>  (3613) 
N[C@@H](Cc1(ccc(OC(C(=O)O)C(=O)O)cc1))C(=O)O

>  <INCHIKEY>  (3613) 
SZIGXRNNKJDSAT-QMMMGPOBSA-N

$$$$
Tyr_Et
     RDKit          2D

 15 15  0  0  0  0  0  0  0  0999 V2000
   -2.5029    1.6750    0.0000 N   0  0  0  0  0  0  0  0  0  0  0  0
   -2.9013    0.2288    0.0000 C   0  0  0  0  0  0  0  0  0  0  0  0
   -1.8481   -0.8393    0.0000 C   0  0  0  0  0  0  0  0  0  0  0  0
   -0.3966   -0.4612    0.0000 C   0  0  0  0  0  0  0  0  0  0  0  0
    0.0019    0.9849    0.0000 C   0  0  0  0  0  0  0  0  0  0  0  0
    1.4534    1.3629    0.0000 C   0  0  0  0  0  0  0  0  0  0  0  0
    2.5066    0.2948    0.0000 C   0  0  0  0  0  0  0  0  0  0  0  0
    3.9582    0.6728    0.0000 O   0  0  0  0  0  0  0  0  0  0  0  0
    5.0114   -0.3953    0.0000 C   0  0  0  0  0  0  0  0  0  0  0  0
    6.4629   -0.0173    0.0000 C   0  0  0  0  0  0  0  0  0  0  0  0
    2.1082   -1.1513    0.0000 C   0  0  0  0  0  0  0  0  0  0  0  0
    0.6566   -1.5293    0.0000 C   0  0  0  0  0  0  0  0  0  0  0  0
   -4.3529   -0.1492    0.0000 C   0  0  0  0  0  0  0  0  0  0  0  0
   -4.7513   -1.5953    0.0000 O   0  0  0  0  0  0  0  0  0  0  0  0
   -5.4061    0.9189    0.0000 O   0  0  0  0  0  0  0  0  0  0  0  0
  2  1  1  1
  2  3  1  0
  3  4  1  0
  4  5  1  0
  5  6  2  0
  6  7  1  0
  7  8  1  0
  8  9  1  0
  9 10  1  0
  7 11  2  0
 11 12  1  0
  2 13  1  0
 13 14  2  0
 13 15  1  0
 12  4  2  0
M  END
>  <rName>  (3614) 
Tyr_Et

>  <PQ_SYMBOL>  (3614) 
Tyr_Et

>  <FULL_NAME>  (3614) 
O-Ethyl-L-Tyrosine

>  <IUPAC_CONDENSED>  (3614) 
Tyr(Et)

>  <IUPAC>  (3614) 
(2S)-2-amino-3-(4-ethoxyphenyl)propanoic acid

>  <TYPE>  (3614) 
Backbone

>  <CLASS>  (3614) 
alpha

>  <ANALOG>  (3614) 
Tyr

>  <MOL_WT>  (3614) 
209.24499999999998

>  <LOGP>  (3614) 
1.0396999999999998

>  <TPSA>  (3614) 
72.55

>  <POPULARITY>  (3614) 
18.9

>  <PROTECTED>  (3614) 
TRUE

>  <SMILES>  (3614) 
N[C@@H](Cc1(ccc(OCC)cc1))C(=O)O

>  <INCHIKEY>  (3614) 
RMYPEYHEPIZYDJ-JTQLQIEISA-N

$$$$
Tyr_EtN3
     RDKit          2D

 18 18  0  0  0  0  0  0  0  0999 V2000
   -4.0650    1.6341    0.0000 N   0  0  0  0  0  0  0  0  0  0  0  0
   -4.4062    0.1735    0.0000 C   0  0  0  0  0  0  0  0  0  0  0  0
   -3.3118   -0.8524    0.0000 C   0  0  0  0  0  0  0  0  0  0  0  0
   -1.8762   -0.4175    0.0000 C   0  0  0  0  0  0  0  0  0  0  0  0
   -1.5350    1.0432    0.0000 C   0  0  0  0  0  0  0  0  0  0  0  0
   -0.0994    1.4780    0.0000 C   0  0  0  0  0  0  0  0  0  0  0  0
    0.9950    0.4522    0.0000 C   0  0  0  0  0  0  0  0  0  0  0  0
    2.4306    0.8871    0.0000 O   0  0  0  0  0  0  0  0  0  0  0  0
    3.5249   -0.1388    0.0000 C   0  0  0  0  0  0  0  0  0  0  0  0
    4.9605    0.2961    0.0000 C   0  0  0  0  0  0  0  0  0  0  0  0
    6.0549   -0.7297    0.0000 N   0  0  0  0  0  0  0  0  0  0  0  0
    7.4905   -0.2949    0.0000 N   0  0  0  0  0  0  0  0  0  0  0  0
    8.9261    0.1400    0.0000 N   0  0  0  0  0  0  0  0  0  0  0  0
    0.6538   -1.0085    0.0000 C   0  0  0  0  0  0  0  0  0  0  0  0
   -0.7818   -1.4433    0.0000 C   0  0  0  0  0  0  0  0  0  0  0  0
   -5.8418   -0.2614    0.0000 C   0  0  0  0  0  0  0  0  0  0  0  0
   -6.1830   -1.7221    0.0000 O   0  0  0  0  0  0  0  0  0  0  0  0
   -6.9361    0.7644    0.0000 O   0  0  0  0  0  0  0  0  0  0  0  0
  2  1  1  1
  2  3  1  0
  3  4  1  0
  4  5  1  0
  5  6  2  0
  6  7  1  0
  7  8  1  0
  8  9  1  0
  9 10  1  0
 10 11  1  0
 11 12  2  0
 12 13  2  0
  7 14  2  0
 14 15  1  0
  2 16  1  0
 16 17  2  0
 16 18  1  0
 15  4  2  0
M  CHG  2  12   1  13  -1
M  END
>  <rName>  (3615) 
Tyr_EtN3

>  <PQ_SYMBOL>  (3615) 
Tyr_EtN3

>  <FULL_NAME>  (3615) 
4-(2-azidoethoxy)-L-phenylalanine

>  <IUPAC_CONDENSED>  (3615) 
Tyr(EtN3)

>  <IUPAC>  (3615) 
(2S)-2-amino-3-[4-(2-azidoethoxy)phenyl]propanoic acid

>  <TYPE>  (3615) 
Backbone

>  <CLASS>  (3615) 
alpha

>  <ANALOG>  (3615) 
Tyr

>  <MOL_WT>  (3615) 
250.25799999999998

>  <LOGP>  (3615) 
1.3301

>  <TPSA>  (3615) 
121.31000000000002

>  <POPULARITY>  (3615) 
3.5

>  <PROTECTED>  (3615) 
TRUE

>  <SMILES>  (3615) 
N[C@@H](Cc1(ccc(OCCN=[N+]=[N-])cc1))C(=O)O

>  <INCHIKEY>  (3615) 
AFRGRMSRGXONSC-JTQLQIEISA-N

$$$$
Tyr_EtNH2
     RDKit          2D

 16 16  0  0  0  0  0  0  0  0999 V2000
   -3.0307    1.6397    0.0000 N   0  0  0  0  0  0  0  0  0  0  0  0
   -3.3793    0.1807    0.0000 C   0  0  0  0  0  0  0  0  0  0  0  0
   -2.2900   -0.8506    0.0000 C   0  0  0  0  0  0  0  0  0  0  0  0
   -0.8523   -0.4229    0.0000 C   0  0  0  0  0  0  0  0  0  0  0  0
   -0.5038    1.0360    0.0000 C   0  0  0  0  0  0  0  0  0  0  0  0
    0.9340    1.4637    0.0000 C   0  0  0  0  0  0  0  0  0  0  0  0
    2.0232    0.4324    0.0000 C   0  0  0  0  0  0  0  0  0  0  0  0
    3.4609    0.8600    0.0000 O   0  0  0  0  0  0  0  0  0  0  0  0
    4.5502   -0.1713    0.0000 C   0  0  0  0  0  0  0  0  0  0  0  0
    5.9879    0.2564    0.0000 C   0  0  0  0  0  0  0  0  0  0  0  0
    7.0771   -0.7749    0.0000 N   0  0  0  0  0  0  0  0  0  0  0  0
    1.6747   -1.0266    0.0000 C   0  0  0  0  0  0  0  0  0  0  0  0
    0.2369   -1.4542    0.0000 C   0  0  0  0  0  0  0  0  0  0  0  0
   -4.8170   -0.2469    0.0000 C   0  0  0  0  0  0  0  0  0  0  0  0
   -5.1655   -1.7059    0.0000 O   0  0  0  0  0  0  0  0  0  0  0  0
   -5.9062    0.7844    0.0000 O   0  0  0  0  0  0  0  0  0  0  0  0
  2  1  1  1
  2  3  1  0
  3  4  1  0
  4  5  1  0
  5  6  2  0
  6  7  1  0
  7  8  1  0
  8  9  1  0
  9 10  1  0
 10 11  1  0
  7 12  2  0
 12 13  1  0
  2 14  1  0
 14 15  2  0
 14 16  1  0
 13  4  2  0
M  END
>  <rName>  (3616) 
Tyr_EtNH2

>  <PQ_SYMBOL>  (3616) 
Tyr_EtNH2

>  <FULL_NAME>  (3616) 
(S)-2-amino-3-(4-(2-aminoethoxy)phenyl)propanoic acid

>  <IUPAC_CONDENSED>  (3616) 
Tyr(EtNH2)

>  <IUPAC>  (3616) 
(2S)-2-amino-3-(4-((2-aminoethyl)oxy)phenyl)propanoic acid

>  <TYPE>  (3616) 
Backbone

>  <CLASS>  (3616) 
alpha

>  <ANALOG>  (3616) 
Tyr

>  <MOL_WT>  (3616) 
224.25999999999996

>  <LOGP>  (3616) 
-0.021499999999999908

>  <TPSA>  (3616) 
98.57000000000001

>  <POPULARITY>  (3616) 
10.2

>  <PROTECTED>  (3616) 
TRUE

>  <SMILES>  (3616) 
N[C@@H](Cc1(ccc(OCCN)cc1))C(=O)O

>  <INCHIKEY>  (3616) 
YTTSZNIZRJUSDN-JTQLQIEISA-N

$$$$
Tyr_EtNMe2
     RDKit          2D

 18 18  0  0  0  0  0  0  0  0999 V2000
   -3.9599    1.5919    0.0000 N   0  0  0  0  0  0  0  0  0  0  0  0
   -4.2369    0.1177    0.0000 C   0  0  0  0  0  0  0  0  0  0  0  0
   -3.0987   -0.8593    0.0000 C   0  0  0  0  0  0  0  0  0  0  0  0
   -1.6835   -0.3620    0.0000 C   0  0  0  0  0  0  0  0  0  0  0  0
   -1.4065    1.1122    0.0000 C   0  0  0  0  0  0  0  0  0  0  0  0
    0.0087    1.6094    0.0000 C   0  0  0  0  0  0  0  0  0  0  0  0
    1.1469    0.6324    0.0000 C   0  0  0  0  0  0  0  0  0  0  0  0
    2.5621    1.1297    0.0000 O   0  0  0  0  0  0  0  0  0  0  0  0
    3.7003    0.1527    0.0000 C   0  0  0  0  0  0  0  0  0  0  0  0
    5.1155    0.6499    0.0000 C   0  0  0  0  0  0  0  0  0  0  0  0
    6.2537   -0.3270    0.0000 N   0  0  0  0  0  0  0  0  0  0  0  0
    7.6689    0.1702    0.0000 C   0  0  0  0  0  0  0  0  0  0  0  0
    5.9767   -1.8012    0.0000 C   0  0  0  0  0  0  0  0  0  0  0  0
    0.8699   -0.8418    0.0000 C   0  0  0  0  0  0  0  0  0  0  0  0
   -0.5453   -1.3390    0.0000 C   0  0  0  0  0  0  0  0  0  0  0  0
   -5.6521   -0.3795    0.0000 C   0  0  0  0  0  0  0  0  0  0  0  0
   -5.9291   -1.8537    0.0000 O   0  0  0  0  0  0  0  0  0  0  0  0
   -6.7903    0.5974    0.0000 O   0  0  0  0  0  0  0  0  0  0  0  0
  2  1  1  1
  2  3  1  0
  3  4  1  0
  4  5  1  0
  5  6  2  0
  6  7  1  0
  7  8  1  0
  8  9  1  0
  9 10  1  0
 10 11  1  0
 11 12  1  0
 11 13  1  0
  7 14  2  0
 14 15  1  0
  2 16  1  0
 16 17  2  0
 16 18  1  0
 15  4  2  0
M  END
>  <rName>  (3617) 
Tyr_EtNMe2

>  <PQ_SYMBOL>  (3617) 
Tyr_EtNMe2

>  <FULL_NAME>  (3617) 
(2S)-2-amino-3-{4-[2-(dimethylamino)ethoxy]phenyl}propanoic acid

>  <IUPAC_CONDENSED>  (3617) 
Tyr(EtNMe2)

>  <IUPAC>  (3617) 
(2S)-2-amino-3-[4-[2-(dimethylamino)ethoxy]phenyl]propanoic acid

>  <TYPE>  (3617) 
Backbone

>  <CLASS>  (3617) 
alpha

>  <ANALOG>  (3617) 
Tyr

>  <MOL_WT>  (3617) 
252.31399999999996

>  <LOGP>  (3617) 
0.5813999999999997

>  <TPSA>  (3617) 
75.79

>  <POPULARITY>  (3617) 
3.5

>  <PROTECTED>  (3617) 
TRUE

>  <SMILES>  (3617) 
N[C@@H](Cc1(ccc(OCCN(C)C)cc1))C(=O)O

>  <INCHIKEY>  (3617) 
WPQGUJCRVOREEA-LBPRGKRZSA-N

$$$$
Tyr_Me
     RDKit          2D

 14 14  0  0  0  0  0  0  0  0999 V2000
   -2.0397    1.6757    0.0000 N   0  0  0  0  0  0  0  0  0  0  0  0
   -2.4395    0.2299    0.0000 C   0  0  0  0  0  0  0  0  0  0  0  0
   -1.3873   -0.8392    0.0000 C   0  0  0  0  0  0  0  0  0  0  0  0
    0.0646   -0.4625    0.0000 C   0  0  0  0  0  0  0  0  0  0  0  0
    0.4644    0.9832    0.0000 C   0  0  0  0  0  0  0  0  0  0  0  0
    1.9164    1.3598    0.0000 C   0  0  0  0  0  0  0  0  0  0  0  0
    2.9685    0.2907    0.0000 C   0  0  0  0  0  0  0  0  0  0  0  0
    4.4205    0.6674    0.0000 O   0  0  0  0  0  0  0  0  0  0  0  0
    5.4726   -0.4017    0.0000 C   0  0  0  0  0  0  0  0  0  0  0  0
    2.5687   -1.1550    0.0000 C   0  0  0  0  0  0  0  0  0  0  0  0
    1.1168   -1.5316    0.0000 C   0  0  0  0  0  0  0  0  0  0  0  0
   -3.8914   -0.1467    0.0000 C   0  0  0  0  0  0  0  0  0  0  0  0
   -4.2912   -1.5924    0.0000 O   0  0  0  0  0  0  0  0  0  0  0  0
   -4.9436    0.9224    0.0000 O   0  0  0  0  0  0  0  0  0  0  0  0
  2  1  1  1
  2  3  1  0
  3  4  1  0
  4  5  1  0
  5  6  2  0
  6  7  1  0
  7  8  1  0
  8  9  1  0
  7 10  2  0
 10 11  1  0
  2 12  1  0
 12 13  2  0
 12 14  1  0
 11  4  2  0
M  END
>  <rName>  (3618) 
Tyr_Me

>  <PQ_SYMBOL>  (3618) 
Tyr_Me

>  <FULL_NAME>  (3618) 
O-Methyl-L-Tyrosine

>  <IUPAC_CONDENSED>  (3618) 
Tyr(Me)

>  <IUPAC>  (3618) 
(2S)-2-amino-3-(4-methoxyphenyl)propanoic acid

>  <TYPE>  (3618) 
Backbone

>  <CLASS>  (3618) 
alpha

>  <ANALOG>  (3618) 
Tyr

>  <MOL_WT>  (3618) 
195.218

>  <LOGP>  (3618) 
0.6496

>  <TPSA>  (3618) 
72.55

>  <POPULARITY>  (3618) 
39.6

>  <PROTECTED>  (3618) 
TRUE

>  <SMILES>  (3618) 
N[C@@H](Cc1(ccc(OC)cc1))C(=O)O

>  <INCHIKEY>  (3618) 
GEYBMYRBIABFTA-VIFPVBQESA-N

$$$$
Tyr_OSO2F
     RDKit          2D

 17 17  0  0  0  0  0  0  0  0999 V2000
   -3.1457    1.6694    0.0000 N   0  0  0  0  0  0  0  0  0  0  0  0
   -3.4800    0.2071    0.0000 C   0  0  0  0  0  0  0  0  0  0  0  0
   -2.3807   -0.8135    0.0000 C   0  0  0  0  0  0  0  0  0  0  0  0
   -0.9472   -0.3718    0.0000 C   0  0  0  0  0  0  0  0  0  0  0  0
   -0.6130    1.0905    0.0000 C   0  0  0  0  0  0  0  0  0  0  0  0
    0.8205    1.5322    0.0000 C   0  0  0  0  0  0  0  0  0  0  0  0
    1.9198    0.5116    0.0000 C   0  0  0  0  0  0  0  0  0  0  0  0
    3.3533    0.9532    0.0000 O   0  0  0  0  0  0  0  0  0  0  0  0
    4.4525   -0.0674    0.0000 S   0  0  0  0  0  0  0  0  0  0  0  0
    5.5518   -1.0880    0.0000 O   0  0  0  0  0  0  0  0  0  0  0  0
    5.4731    1.0319    0.0000 O   0  0  0  0  0  0  0  0  0  0  0  0
    3.4319   -1.1666    0.0000 F   0  0  0  0  0  0  0  0  0  0  0  0
    1.5855   -0.9507    0.0000 C   0  0  0  0  0  0  0  0  0  0  0  0
    0.1520   -1.3924    0.0000 C   0  0  0  0  0  0  0  0  0  0  0  0
   -4.9135   -0.2346    0.0000 C   0  0  0  0  0  0  0  0  0  0  0  0
   -5.2477   -1.6969    0.0000 O   0  0  0  0  0  0  0  0  0  0  0  0
   -6.0127    0.7860    0.0000 O   0  0  0  0  0  0  0  0  0  0  0  0
  2  1  1  1
  2  3  1  0
  3  4  1  0
  4  5  1  0
  5  6  2  0
  6  7  1  0
  7  8  1  0
  8  9  1  0
  9 10  2  0
  9 11  2  0
  9 12  1  0
  7 13  2  0
 13 14  1  0
  2 15  1  0
 15 16  2  0
 15 17  1  0
 14  4  2  0
M  END
>  <rName>  (3619) 
Tyr_OSO2F

>  <PQ_SYMBOL>  (3619) 
Tyr_OSO2F

>  <FULL_NAME>  (3619) 
L-Tyrosine-SuFEx

>  <IUPAC_CONDENSED>  (3619) 
Tyr(OSO2F)

>  <IUPAC>  (3619) 
(2S)-2-amino-3-(4-(fluorosulfonyloxy)phenyl)propanoic acid

>  <TYPE>  (3619) 
Backbone

>  <CLASS>  (3619) 
alpha

>  <ANALOG>  (3619) 
Tyr

>  <MOL_WT>  (3619) 
263.2459999999999

>  <LOGP>  (3619) 
0.23409999999999992

>  <TPSA>  (3619) 
106.69000000000001

>  <POPULARITY>  (3619) 
3.7

>  <PROTECTED>  (3619) 
TRUE

>  <SMILES>  (3619) 
N[C@@H](Cc1(ccc(OS(=O)(=O)F)cc1))C(=O)O

>  <INCHIKEY>  (3619) 
IVWVAUUBEKCCJQ-QMMMGPOBSA-N

$$$$
Tyr_PO3H2
     RDKit          2D

 17 17  0  0  0  0  0  0  0  0999 V2000
   -3.1457    1.6694    0.0000 N   0  0  0  0  0  0  0  0  0  0  0  0
   -3.4800    0.2071    0.0000 C   0  0  0  0  0  0  0  0  0  0  0  0
   -2.3807   -0.8135    0.0000 C   0  0  0  0  0  0  0  0  0  0  0  0
   -0.9472   -0.3718    0.0000 C   0  0  0  0  0  0  0  0  0  0  0  0
   -0.6130    1.0905    0.0000 C   0  0  0  0  0  0  0  0  0  0  0  0
    0.8205    1.5322    0.0000 C   0  0  0  0  0  0  0  0  0  0  0  0
    1.9198    0.5116    0.0000 C   0  0  0  0  0  0  0  0  0  0  0  0
    3.3533    0.9532    0.0000 O   0  0  0  0  0  0  0  0  0  0  0  0
    4.4525   -0.0674    0.0000 P   0  0  0  0  0  0  0  0  0  0  0  0
    5.4731    1.0319    0.0000 O   0  0  0  0  0  0  0  0  0  0  0  0
    3.4319   -1.1666    0.0000 O   0  0  0  0  0  0  0  0  0  0  0  0
    5.5518   -1.0880    0.0000 O   0  0  0  0  0  0  0  0  0  0  0  0
    1.5855   -0.9507    0.0000 C   0  0  0  0  0  0  0  0  0  0  0  0
    0.1520   -1.3924    0.0000 C   0  0  0  0  0  0  0  0  0  0  0  0
   -4.9135   -0.2346    0.0000 C   0  0  0  0  0  0  0  0  0  0  0  0
   -5.2477   -1.6969    0.0000 O   0  0  0  0  0  0  0  0  0  0  0  0
   -6.0127    0.7860    0.0000 O   0  0  0  0  0  0  0  0  0  0  0  0
  2  1  1  1
  2  3  1  0
  3  4  1  0
  4  5  1  0
  5  6  2  0
  6  7  1  0
  7  8  1  0
  8  9  1  0
  9 10  2  0
  9 11  1  0
  9 12  1  0
  7 13  2  0
 13 14  1  0
  2 15  1  0
 15 16  2  0
 15 17  1  0
 14  4  2  0
M  END
>  <rName>  (3620) 
Tyr_PO3H2

>  <PQ_SYMBOL>  (3620) 
Tyr_PO3H2

>  <FULL_NAME>  (3620) 
O-Phospho-L-Tyrosine

>  <IUPAC_CONDENSED>  (3620) 
Tyr(PO3H2)

>  <IUPAC>  (3620) 
4-((2S)-2-amino-3-hydroxy-3-oxopropyl)phenyl dihydrogen phosphate

>  <TYPE>  (3620) 
Backbone

>  <CLASS>  (3620) 
alpha

>  <ANALOG>  (3620) 
Tyr

>  <MOL_WT>  (3620) 
261.16999999999996

>  <LOGP>  (3620) 
0.1125000000000001

>  <TPSA>  (3620) 
130.07999999999998

>  <POPULARITY>  (3620) 
56.1

>  <PROTECTED>  (3620) 
TRUE

>  <SMILES>  (3620) 
N[C@@H](Cc1(ccc(OP(=O)(O)O)cc1))C(=O)O

>  <INCHIKEY>  (3620) 
DCWXELXMIBXGTH-QMMMGPOBSA-N

$$$$
Tyr_Ph_4OH
     RDKit          2D

 20 21  0  0  0  0  0  0  0  0999 V2000
   -4.5009    1.4804    0.0000 N   0  0  0  0  0  0  0  0  0  0  0  0
   -4.6300   -0.0140    0.0000 C   0  0  0  0  0  0  0  0  0  0  0  0
   -3.4003   -0.8730    0.0000 C   0  0  0  0  0  0  0  0  0  0  0  0
   -2.0415   -0.2376    0.0000 C   0  0  0  0  0  0  0  0  0  0  0  0
   -1.9124    1.2568    0.0000 C   0  0  0  0  0  0  0  0  0  0  0  0
   -0.5536    1.8922    0.0000 C   0  0  0  0  0  0  0  0  0  0  0  0
    0.6760    1.0331    0.0000 C   0  0  0  0  0  0  0  0  0  0  0  0
    2.0348    1.6685    0.0000 O   0  0  0  0  0  0  0  0  0  0  0  0
    3.2644    0.8095    0.0000 C   0  0  0  0  0  0  0  0  0  0  0  0
    3.1353   -0.6849    0.0000 C   0  0  0  0  0  0  0  0  0  0  0  0
    4.3650   -1.5440    0.0000 C   0  0  0  0  0  0  0  0  0  0  0  0
    5.7238   -0.9086    0.0000 C   0  0  0  0  0  0  0  0  0  0  0  0
    6.9534   -1.7676    0.0000 O   0  0  0  0  0  0  0  0  0  0  0  0
    5.8529    0.5858    0.0000 C   0  0  0  0  0  0  0  0  0  0  0  0
    4.6232    1.4449    0.0000 C   0  0  0  0  0  0  0  0  0  0  0  0
    0.5469   -0.4613    0.0000 C   0  0  0  0  0  0  0  0  0  0  0  0
   -0.8119   -1.0967    0.0000 C   0  0  0  0  0  0  0  0  0  0  0  0
   -5.9888   -0.6494    0.0000 C   0  0  0  0  0  0  0  0  0  0  0  0
   -6.1179   -2.1438    0.0000 O   0  0  0  0  0  0  0  0  0  0  0  0
   -7.2184    0.2097    0.0000 O   0  0  0  0  0  0  0  0  0  0  0  0
  2  1  1  1
  2  3  1  0
  3  4  1  0
  4  5  1  0
  5  6  2  0
  6  7  1  0
  7  8  1  0
  8  9  1  0
  9 10  1  0
 10 11  2  0
 11 12  1  0
 12 13  1  0
 12 14  2  0
 14 15  1  0
  7 16  2  0
 16 17  1  0
  2 18  1  0
 18 19  2  0
 18 20  1  0
 15  9  2  0
 17  4  2  0
M  END
>  <rName>  (3621) 
Tyr_Ph_4OH

>  <PQ_SYMBOL>  (3621) 
Tyr_Ph_4OH

>  <FULL_NAME>  (3621) 
(2S)-2-amino-3-[4-(4-hydroxyphenoxy)phenyl]propanoic acid

>  <IUPAC_CONDENSED>  (3621) 
Tyr(Ph(4-OH))

>  <IUPAC>  (3621) 
(2S)-2-amino-3-(4-((4-hydroxyphenyl)oxy)phenyl)propanoic acid

>  <TYPE>  (3621) 
Backbone

>  <CLASS>  (3621) 
alpha

>  <ANALOG>  (3621) 
Tyr

>  <MOL_WT>  (3621) 
273.288

>  <LOGP>  (3621) 
2.1388999999999996

>  <TPSA>  (3621) 
92.78000000000002

>  <POPULARITY>  (3621) 
5.7

>  <PROTECTED>  (3621) 
FALSE

>  <SMILES>  (3621) 
N[C@@H](Cc2(ccc(Oc1(ccc(O)cc1))cc2))C(=O)O

>  <INCHIKEY>  (3621) 
KKCIOUWDFWQUBT-AWEZNQCLSA-N

$$$$
Tyr_SO2OCHCCl2
     RDKit          2D

 21 21  0  0  0  0  0  0  0  0999 V2000
   -4.7683    1.3027    0.0000 N   0  0  0  0  0  0  0  0  0  0  0  0
   -4.7624   -0.1973    0.0000 C   0  0  0  0  0  0  0  0  0  0  0  0
   -3.4604   -0.9422    0.0000 C   0  0  0  0  0  0  0  0  0  0  0  0
   -2.1643   -0.1871    0.0000 C   0  0  0  0  0  0  0  0  0  0  0  0
   -2.1702    1.3129    0.0000 C   0  0  0  0  0  0  0  0  0  0  0  0
   -0.8742    2.0680    0.0000 C   0  0  0  0  0  0  0  0  0  0  0  0
    0.4278    1.3231    0.0000 C   0  0  0  0  0  0  0  0  0  0  0  0
    1.7239    2.0782    0.0000 O   0  0  0  0  0  0  0  0  0  0  0  0
    3.0259    1.3333    0.0000 S   0  0  0  0  0  0  0  0  0  0  0  0
    2.2810    0.0313    0.0000 O   0  0  0  0  0  0  0  0  0  0  0  0
    3.7708    2.6353    0.0000 O   0  0  0  0  0  0  0  0  0  0  0  0
    4.3279    0.5884    0.0000 O   0  0  0  0  0  0  0  0  0  0  0  0
    4.3337   -0.9116    0.0000 C   0  0  0  0  0  0  0  0  0  0  0  0
    5.6357   -1.6565    0.0000 C   0  0  0  0  0  0  0  0  0  0  0  0
    5.6416   -3.1564    0.0000 Cl  0  0  0  0  0  0  0  0  0  0  0  0
    6.9318   -0.9014    0.0000 Cl  0  0  0  0  0  0  0  0  0  0  0  0
    0.4337   -0.1769    0.0000 C   0  0  0  0  0  0  0  0  0  0  0  0
   -0.8624   -0.9320    0.0000 C   0  0  0  0  0  0  0  0  0  0  0  0
   -6.0585   -0.9524    0.0000 C   0  0  0  0  0  0  0  0  0  0  0  0
   -6.0526   -2.4524    0.0000 O   0  0  0  0  0  0  0  0  0  0  0  0
   -7.3605   -0.2075    0.0000 O   0  0  0  0  0  0  0  0  0  0  0  0
  2  1  1  1
  2  3  1  0
  3  4  1  0
  4  5  1  0
  5  6  2  0
  6  7  1  0
  7  8  1  0
  8  9  1  0
  9 10  2  0
  9 11  2  0
  9 12  1  0
 12 13  1  0
 13 14  2  0
 14 15  1  0
 14 16  1  0
  7 17  2  0
 17 18  1  0
  2 19  1  0
 19 20  2  0
 19 21  1  0
 18  4  2  0
M  END
>  <rName>  (3622) 
Tyr_SO2OCHCCl2

>  <PQ_SYMBOL>  (3622) 
Tyr_SO2OCHCCl2

>  <FULL_NAME>  (3622) 
Tyr(SO2OCH=CCl2)

>  <IUPAC_CONDENSED>  (3622) 
Tyr(SO2OCH=CCl2)

>  <IUPAC>  (3622) 
(2S)-2-amino-3-(4-((2,2-dichloroethenyl)oxysulfonyloxy)phenyl)propanoic acid

>  <TYPE>  (3622) 
Backbone

>  <CLASS>  (3622) 
alpha

>  <ANALOG>  (3622) 
Tyr

>  <MOL_WT>  (3622) 
356.183

>  <LOGP>  (3622) 
1.5577

>  <TPSA>  (3622) 
115.92

>  <POPULARITY>  (3622) 
2.2

>  <PROTECTED>  (3622) 
TRUE

>  <SMILES>  (3622) 
N[C@@H](Cc1(ccc(OS(=O)(=O)OC=C(Cl)Cl)cc1))C(=O)O

>  <INCHIKEY>  (3622) 
WLWMSQKCJNDKRX-VIFPVBQESA-N

$$$$
Tyr_SO3H
     RDKit          2D

 17 17  0  0  0  0  0  0  0  0999 V2000
   -3.1457    1.6694    0.0000 N   0  0  0  0  0  0  0  0  0  0  0  0
   -3.4800    0.2071    0.0000 C   0  0  0  0  0  0  0  0  0  0  0  0
   -2.3807   -0.8135    0.0000 C   0  0  0  0  0  0  0  0  0  0  0  0
   -0.9472   -0.3718    0.0000 C   0  0  0  0  0  0  0  0  0  0  0  0
   -0.6130    1.0905    0.0000 C   0  0  0  0  0  0  0  0  0  0  0  0
    0.8205    1.5322    0.0000 C   0  0  0  0  0  0  0  0  0  0  0  0
    1.9198    0.5116    0.0000 C   0  0  0  0  0  0  0  0  0  0  0  0
    3.3533    0.9532    0.0000 O   0  0  0  0  0  0  0  0  0  0  0  0
    4.4525   -0.0674    0.0000 S   0  0  0  0  0  0  0  0  0  0  0  0
    3.4319   -1.1666    0.0000 O   0  0  0  0  0  0  0  0  0  0  0  0
    5.4731    1.0319    0.0000 O   0  0  0  0  0  0  0  0  0  0  0  0
    5.5518   -1.0880    0.0000 O   0  0  0  0  0  0  0  0  0  0  0  0
    1.5855   -0.9507    0.0000 C   0  0  0  0  0  0  0  0  0  0  0  0
    0.1520   -1.3924    0.0000 C   0  0  0  0  0  0  0  0  0  0  0  0
   -4.9135   -0.2346    0.0000 C   0  0  0  0  0  0  0  0  0  0  0  0
   -5.2477   -1.6969    0.0000 O   0  0  0  0  0  0  0  0  0  0  0  0
   -6.0127    0.7860    0.0000 O   0  0  0  0  0  0  0  0  0  0  0  0
  2  1  1  1
  2  3  1  0
  3  4  1  0
  4  5  1  0
  5  6  2  0
  6  7  1  0
  7  8  1  0
  8  9  1  0
  9 10  2  0
  9 11  2  0
  9 12  1  0
  7 13  2  0
 13 14  1  0
  2 15  1  0
 15 16  2  0
 15 17  1  0
 14  4  2  0
M  END
>  <rName>  (3623) 
Tyr_SO3H

>  <PQ_SYMBOL>  (3623) 
Tyr_SO3H

>  <FULL_NAME>  (3623) 
O-Sulfo-L-Tyrosine

>  <IUPAC_CONDENSED>  (3623) 
Tyr(SO3H)

>  <IUPAC>  (3623) 
4-((2S)-2-amino-3-hydroxy-3-oxopropyl)phenyl hydrogen sulfate

>  <TYPE>  (3623) 
Backbone

>  <CLASS>  (3623) 
alpha

>  <ANALOG>  (3623) 
Tyr

>  <MOL_WT>  (3623) 
261.25499999999994

>  <LOGP>  (3623) 
-0.17740000000000028

>  <TPSA>  (3623) 
126.92

>  <POPULARITY>  (3623) 
44.6

>  <PROTECTED>  (3623) 
TRUE

>  <SMILES>  (3623) 
N[C@@H](Cc1(ccc(OS(=O)(=O)O)cc1))C(=O)O

>  <INCHIKEY>  (3623) 
CIQHWLTYGMYQQR-QMMMGPOBSA-N

$$$$
Tyr_SO3nP
     RDKit          2D

 22 22  0  0  0  0  0  0  0  0999 V2000
   -5.0571    1.2528    0.0000 N   0  0  0  0  0  0  0  0  0  0  0  0
   -5.0140   -0.2465    0.0000 C   0  0  0  0  0  0  0  0  0  0  0  0
   -3.6939   -0.9589    0.0000 C   0  0  0  0  0  0  0  0  0  0  0  0
   -2.4170   -0.1718    0.0000 C   0  0  0  0  0  0  0  0  0  0  0  0
   -2.4601    1.3275    0.0000 C   0  0  0  0  0  0  0  0  0  0  0  0
   -1.1832    2.1146    0.0000 C   0  0  0  0  0  0  0  0  0  0  0  0
    0.1369    1.4022    0.0000 C   0  0  0  0  0  0  0  0  0  0  0  0
    1.4138    2.1893    0.0000 O   0  0  0  0  0  0  0  0  0  0  0  0
    2.7339    1.4769    0.0000 S   0  0  0  0  0  0  0  0  0  0  0  0
    2.0215    0.1569    0.0000 O   0  0  0  0  0  0  0  0  0  0  0  0
    3.4462    2.7970    0.0000 O   0  0  0  0  0  0  0  0  0  0  0  0
    4.0539    0.7646    0.0000 O   0  0  0  0  0  0  0  0  0  0  0  0
    4.0971   -0.7348    0.0000 C   0  0  0  0  0  0  0  0  0  0  0  0
    5.4171   -1.4471    0.0000 C   0  0  0  0  0  0  0  0  0  0  0  0
    4.7048   -2.7672    0.0000 C   0  0  0  0  0  0  0  0  0  0  0  0
    6.1295   -0.1270    0.0000 C   0  0  0  0  0  0  0  0  0  0  0  0
    6.7372   -2.1594    0.0000 C   0  0  0  0  0  0  0  0  0  0  0  0
    0.1800   -0.0971    0.0000 C   0  0  0  0  0  0  0  0  0  0  0  0
   -1.0969   -0.8842    0.0000 C   0  0  0  0  0  0  0  0  0  0  0  0
   -6.2909   -1.0336    0.0000 C   0  0  0  0  0  0  0  0  0  0  0  0
   -6.2478   -2.5330    0.0000 O   0  0  0  0  0  0  0  0  0  0  0  0
   -7.6110   -0.3212    0.0000 O   0  0  0  0  0  0  0  0  0  0  0  0
  2  1  1  1
  2  3  1  0
  3  4  1  0
  4  5  1  0
  5  6  2  0
  6  7  1  0
  7  8  1  0
  8  9  1  0
  9 10  2  0
  9 11  2  0
  9 12  1  0
 12 13  1  0
 13 14  1  0
 14 15  1  0
 14 16  1  0
 14 17  1  0
  7 18  2  0
 18 19  1  0
  2 20  1  0
 20 21  2  0
 20 22  1  0
 19  4  2  0
M  END
>  <rName>  (3624) 
Tyr_SO3nP

>  <PQ_SYMBOL>  (3624) 
Tyr_SO3nP

>  <FULL_NAME>  (3624) 
(2S)-2-amino-3-[4-(2,2-dimethylpropoxysulfonyloxy)phenyl]propanoic acid

>  <IUPAC_CONDENSED>  (3624) 
Tyr(SO3nP)

>  <IUPAC>  (3624) 
(2S)-2-amino-3-(4-((2,2-dimethylpropyl)oxysulfonyloxy)phenyl)propanoic acid

>  <TYPE>  (3624) 
Backbone

>  <CLASS>  (3624) 
alpha

>  <ANALOG>  (3624) 
Tyr

>  <MOL_WT>  (3624) 
331.39

>  <LOGP>  (3624) 
1.3272999999999997

>  <TPSA>  (3624) 
115.92

>  <POPULARITY>  (3624) 
2.7

>  <PROTECTED>  (3624) 
TRUE

>  <SMILES>  (3624) 
N[C@@H](Cc1(ccc(OS(=O)(=O)OCC(C)(C)C)cc1))C(=O)O

>  <INCHIKEY>  (3624) 
JEHCBXZLLVIZPO-LBPRGKRZSA-N

$$$$
Tyr_bRMe_Me
     RDKit          2D

 15 15  0  0  0  0  0  0  0  0999 V2000
    1.6213    1.9109    0.0000 N   0  0  0  0  0  0  0  0  0  0  0  0
    2.2230    0.5369    0.0000 C   0  0  0  0  0  0  0  0  0  0  0  0
    1.3340   -0.6712    0.0000 C   0  0  0  0  0  0  0  0  0  0  0  0
    1.9357   -2.0453    0.0000 C   0  0  0  0  0  0  0  0  0  0  0  0
   -0.1568   -0.5054    0.0000 C   0  0  0  0  0  0  0  0  0  0  0  0
   -1.0459   -1.7135    0.0000 C   0  0  0  0  0  0  0  0  0  0  0  0
   -2.5367   -1.5476    0.0000 C   0  0  0  0  0  0  0  0  0  0  0  0
   -3.1384   -0.1736    0.0000 C   0  0  0  0  0  0  0  0  0  0  0  0
   -4.6292   -0.0077    0.0000 O   0  0  0  0  0  0  0  0  0  0  0  0
   -5.2310    1.3663    0.0000 C   0  0  0  0  0  0  0  0  0  0  0  0
   -2.2494    1.0345    0.0000 C   0  0  0  0  0  0  0  0  0  0  0  0
   -0.7586    0.8686    0.0000 C   0  0  0  0  0  0  0  0  0  0  0  0
    3.7138    0.3710    0.0000 C   0  0  0  0  0  0  0  0  0  0  0  0
    4.3156   -1.0030    0.0000 O   0  0  0  0  0  0  0  0  0  0  0  0
    4.6029    1.5791    0.0000 O   0  0  0  0  0  0  0  0  0  0  0  0
  2  1  1  6
  2  3  1  0
  3  4  1  6
  3  5  1  0
  5  6  1  0
  6  7  2  0
  7  8  1  0
  8  9  1  0
  9 10  1  0
  8 11  2  0
 11 12  1  0
  2 13  1  0
 13 14  2  0
 13 15  1  0
 12  5  2  0
M  END
>  <rName>  (3625) 
Tyr_bRMe_Me

>  <PQ_SYMBOL>  (3625) 
Tyr_bRMe_Me

>  <FULL_NAME>  (3625) 
(2s,3r)-2-Amino-3-(4-methoxyphenyl)butanoic acid

>  <IUPAC_CONDENSED>  (3625) 
Tyr(bR-Me,Me)

>  <IUPAC>  (3625) 
(2S,3R)-2-amino-3-(4-methoxyphenyl)butanoic acid

>  <TYPE>  (3625) 
Backbone

>  <CLASS>  (3625) 
alpha

>  <ANALOG>  (3625) 
Tyr

>  <MOL_WT>  (3625) 
209.24499999999998

>  <LOGP>  (3625) 
1.2106000000000001

>  <TPSA>  (3625) 
72.55

>  <POPULARITY>  (3625) 
2.2

>  <PROTECTED>  (3625) 
TRUE

>  <SMILES>  (3625) 
N[C@@H]([C@H](C)c1(ccc(OC)cc1))C(=O)O

>  <INCHIKEY>  (3625) 
HYOLSKLZTOUWNN-XCBNKYQSSA-N

$$$$
Tyr_cHex
     RDKit          2D

 19 20  0  0  0  0  0  0  0  0999 V2000
   -4.0697    1.5683    0.0000 N   0  0  0  0  0  0  0  0  0  0  0  0
   -4.2646    0.0811    0.0000 C   0  0  0  0  0  0  0  0  0  0  0  0
   -3.0740   -0.8314    0.0000 C   0  0  0  0  0  0  0  0  0  0  0  0
   -1.6885   -0.2565    0.0000 C   0  0  0  0  0  0  0  0  0  0  0  0
   -1.4936    1.2308    0.0000 C   0  0  0  0  0  0  0  0  0  0  0  0
   -0.1082    1.8057    0.0000 C   0  0  0  0  0  0  0  0  0  0  0  0
    1.0824    0.8933    0.0000 C   0  0  0  0  0  0  0  0  0  0  0  0
    2.4679    1.4681    0.0000 O   0  0  0  0  0  0  0  0  0  0  0  0
    3.6585    0.5557    0.0000 C   0  0  0  0  0  0  0  0  0  0  0  0
    3.4636   -0.9316    0.0000 C   0  0  0  0  0  0  0  0  0  0  0  0
    4.6542   -1.8440    0.0000 C   0  0  0  0  0  0  0  0  0  0  0  0
    6.0396   -1.2691    0.0000 C   0  0  0  0  0  0  0  0  0  0  0  0
    6.2345    0.2182    0.0000 C   0  0  0  0  0  0  0  0  0  0  0  0
    5.0439    1.1306    0.0000 C   0  0  0  0  0  0  0  0  0  0  0  0
    0.8875   -0.5940    0.0000 C   0  0  0  0  0  0  0  0  0  0  0  0
   -0.4979   -1.1689    0.0000 C   0  0  0  0  0  0  0  0  0  0  0  0
   -5.6500   -0.4938    0.0000 C   0  0  0  0  0  0  0  0  0  0  0  0
   -5.8449   -1.9811    0.0000 O   0  0  0  0  0  0  0  0  0  0  0  0
   -6.8406    0.4186    0.0000 O   0  0  0  0  0  0  0  0  0  0  0  0
  2  1  1  1
  2  3  1  0
  3  4  1  0
  4  5  1  0
  5  6  2  0
  6  7  1  0
  7  8  1  0
  8  9  1  0
  9 10  1  0
 10 11  1  0
 11 12  1  0
 12 13  1  0
 13 14  1  0
  7 15  2  0
 15 16  1  0
  2 17  1  0
 17 18  2  0
 17 19  1  0
 14  9  1  0
 16  4  2  0
M  END
>  <rName>  (3626) 
Tyr_cHex

>  <PQ_SYMBOL>  (3626) 
Tyr_cHex

>  <FULL_NAME>  (3626) 
O-Cyclohexyl-L-tyrosine

>  <IUPAC_CONDENSED>  (3626) 
Tyr(cHex)

>  <IUPAC>  (3626) 
(2S)-2-amino-3-(4-cyclohexyloxyphenyl)propanoic acid

>  <TYPE>  (3626) 
Backbone

>  <CLASS>  (3626) 
alpha

>  <ANALOG>  (3626) 
Tyr

>  <MOL_WT>  (3626) 
263.3369999999999

>  <LOGP>  (3626) 
2.3525

>  <TPSA>  (3626) 
72.55

>  <POPULARITY>  (3626) 
3.5

>  <PROTECTED>  (3626) 
TRUE

>  <SMILES>  (3626) 
N[C@@H](Cc2(ccc(OC1(CCCCC1))cc2))C(=O)O

>  <INCHIKEY>  (3626) 
OCISLIRWPWASKV-AWEZNQCLSA-N

$$$$
Tyr_iPr
     RDKit          2D

 16 16  0  0  0  0  0  0  0  0999 V2000
   -2.8646    1.6700    0.0000 N   0  0  0  0  0  0  0  0  0  0  0  0
   -3.2013    0.2083    0.0000 C   0  0  0  0  0  0  0  0  0  0  0  0
   -2.1038   -0.8141    0.0000 C   0  0  0  0  0  0  0  0  0  0  0  0
   -0.6696   -0.3749    0.0000 C   0  0  0  0  0  0  0  0  0  0  0  0
   -0.3329    1.0868    0.0000 C   0  0  0  0  0  0  0  0  0  0  0  0
    1.1014    1.5261    0.0000 C   0  0  0  0  0  0  0  0  0  0  0  0
    2.1989    0.5036    0.0000 C   0  0  0  0  0  0  0  0  0  0  0  0
    3.6332    0.9429    0.0000 O   0  0  0  0  0  0  0  0  0  0  0  0
    4.7307   -0.0796    0.0000 C   0  0  0  0  0  0  0  0  0  0  0  0
    6.1649    0.3597    0.0000 C   0  0  0  0  0  0  0  0  0  0  0  0
    4.3940   -1.5413    0.0000 C   0  0  0  0  0  0  0  0  0  0  0  0
    1.8622   -0.9581    0.0000 C   0  0  0  0  0  0  0  0  0  0  0  0
    0.4280   -1.3974    0.0000 C   0  0  0  0  0  0  0  0  0  0  0  0
   -4.6356   -0.2309    0.0000 C   0  0  0  0  0  0  0  0  0  0  0  0
   -4.9723   -1.6927    0.0000 O   0  0  0  0  0  0  0  0  0  0  0  0
   -5.7331    0.7915    0.0000 O   0  0  0  0  0  0  0  0  0  0  0  0
  2  1  1  1
  2  3  1  0
  3  4  1  0
  4  5  1  0
  5  6  2  0
  6  7  1  0
  7  8  1  0
  8  9  1  0
  9 10  1  0
  9 11  1  0
  7 12  2  0
 12 13  1  0
  2 14  1  0
 14 15  2  0
 14 16  1  0
 13  4  2  0
M  END
>  <rName>  (3627) 
Tyr_iPr

>  <PQ_SYMBOL>  (3627) 
Tyr_iPr

>  <FULL_NAME>  (3627) 
(S)-2-amino-3-(4-isopropoxyphenyl)propanoic acid

>  <IUPAC_CONDENSED>  (3627) 
Tyr(iPr)

>  <IUPAC>  (3627) 
(2S)-2-amino-3-(4-isopropoxyphenyl)propanoic acid

>  <TYPE>  (3627) 
Backbone

>  <CLASS>  (3627) 
alpha

>  <ANALOG>  (3627) 
Tyr

>  <MOL_WT>  (3627) 
223.27199999999996

>  <LOGP>  (3627) 
1.4282

>  <TPSA>  (3627) 
72.55

>  <POPULARITY>  (3627) 
7.2

>  <PROTECTED>  (3627) 
TRUE

>  <SMILES>  (3627) 
N[C@@H](Cc1(ccc(OC(C)C)cc1))C(=O)O

>  <INCHIKEY>  (3627) 
DUHXDIDGFSUWJS-NSHDSACASA-N

$$$$
Tyr_pyrid3ylmethyl
     RDKit          2D

 20 21  0  0  0  0  0  0  0  0999 V2000
   -4.5045    1.7035    0.0000 N   0  0  0  0  0  0  0  0  0  0  0  0
   -4.9466    0.2701    0.0000 C   0  0  0  0  0  0  0  0  0  0  0  0
   -3.9264   -0.8295    0.0000 C   0  0  0  0  0  0  0  0  0  0  0  0
   -2.4640   -0.4957    0.0000 C   0  0  0  0  0  0  0  0  0  0  0  0
   -2.0218    0.9376    0.0000 C   0  0  0  0  0  0  0  0  0  0  0  0
   -0.5594    1.2714    0.0000 C   0  0  0  0  0  0  0  0  0  0  0  0
    0.4608    0.1718    0.0000 C   0  0  0  0  0  0  0  0  0  0  0  0
    1.9232    0.5056    0.0000 O   0  0  0  0  0  0  0  0  0  0  0  0
    2.9435   -0.5940    0.0000 C   0  0  0  0  0  0  0  0  0  0  0  0
    4.4059   -0.2603    0.0000 C   0  0  0  0  0  0  0  0  0  0  0  0
    5.4261   -1.3599    0.0000 C   0  0  0  0  0  0  0  0  0  0  0  0
    6.8885   -1.0261    0.0000 C   0  0  0  0  0  0  0  0  0  0  0  0
    7.3307    0.4072    0.0000 C   0  0  0  0  0  0  0  0  0  0  0  0
    6.3104    1.5068    0.0000 N   0  0  0  0  0  0  0  0  0  0  0  0
    4.8480    1.1731    0.0000 C   0  0  0  0  0  0  0  0  0  0  0  0
    0.0187   -1.2616    0.0000 C   0  0  0  0  0  0  0  0  0  0  0  0
   -1.4437   -1.5953    0.0000 C   0  0  0  0  0  0  0  0  0  0  0  0
   -6.4090   -0.0637    0.0000 C   0  0  0  0  0  0  0  0  0  0  0  0
   -6.8512   -1.4970    0.0000 O   0  0  0  0  0  0  0  0  0  0  0  0
   -7.4292    1.0359    0.0000 O   0  0  0  0  0  0  0  0  0  0  0  0
  2  1  1  1
  2  3  1  0
  3  4  1  0
  4  5  1  0
  5  6  2  0
  6  7  1  0
  7  8  1  0
  8  9  1  0
  9 10  1  0
 10 11  2  0
 11 12  1  0
 12 13  2  0
 13 14  1  0
 14 15  2  0
  7 16  2  0
 16 17  1  0
  2 18  1  0
 18 19  2  0
 18 20  1  0
 15 10  1  0
 17  4  2  0
M  END
>  <rName>  (3628) 
Tyr_pyrid3ylmethyl

>  <PQ_SYMBOL>  (3628) 
Tyr_pyrid3ylmethyl

>  <FULL_NAME>  (3628) 
(S)-2-amino-3-(4-(pyridin-3-ylmethoxy)phenyl)propanoic acid

>  <IUPAC_CONDENSED>  (3628) 
Tyr(pyrid-3-ylmethyl)

>  <IUPAC>  (3628) 
(2S)-2-amino-3-(4-(((pyridin-3-yl)methyl)oxy)phenyl)propanoic acid

>  <TYPE>  (3628) 
Backbone

>  <CLASS>  (3628) 
alpha

>  <ANALOG>  (3628) 
Tyr

>  <MOL_WT>  (3628) 
272.304

>  <LOGP>  (3628) 
1.6150000000000002

>  <TPSA>  (3628) 
85.44000000000001

>  <POPULARITY>  (3628) 
3.9

>  <PROTECTED>  (3628) 
TRUE

>  <SMILES>  (3628) 
N[C@@H](Cc2(ccc(OCc1(cccnc1))cc2))C(=O)O

>  <INCHIKEY>  (3628) 
BPECVGYMQYNNFL-AWEZNQCLSA-N

$$$$
Tza
     RDKit          2D

 11 11  0  0  0  0  0  0  0  0999 V2000
   -0.9461    1.6947    0.0000 N   0  0  0  0  0  0  0  0  0  0  0  0
   -1.3100    0.2395    0.0000 C   0  0  0  0  0  0  0  0  0  0  0  0
   -0.2317   -0.8032    0.0000 C   0  0  0  0  0  0  0  0  0  0  0  0
    1.2105   -0.3908    0.0000 C   0  0  0  0  0  0  0  0  0  0  0  0
    2.3919   -1.3151    0.0000 C   0  0  0  0  0  0  0  0  0  0  0  0
    3.6360   -0.4772    0.0000 S   0  0  0  0  0  0  0  0  0  0  0  0
    3.2236    0.9650    0.0000 C   0  0  0  0  0  0  0  0  0  0  0  0
    1.7245    1.0184    0.0000 N   0  0  0  0  0  0  0  0  0  0  0  0
   -2.7522   -0.1729    0.0000 C   0  0  0  0  0  0  0  0  0  0  0  0
   -3.1161   -1.6281    0.0000 O   0  0  0  0  0  0  0  0  0  0  0  0
   -3.8304    0.8698    0.0000 O   0  0  0  0  0  0  0  0  0  0  0  0
  2  1  1  1
  2  3  1  0
  3  4  1  0
  4  5  2  0
  5  6  1  0
  6  7  1  0
  7  8  2  0
  2  9  1  0
  9 10  2  0
  9 11  1  0
  8  4  1  0
M  END
>  <rName>  (3629) 
Tza

>  <PQ_SYMBOL>  (3629) 
Tza

>  <FULL_NAME>  (3629) 
3-(4-Thiazolyl)-L-Alanine

>  <IUPAC_CONDENSED>  (3629) 
Tza

>  <IUPAC>  (3629) 
(2S)-2-amino-3-(thiazol-4-yl)propanoic acid

>  <TYPE>  (3629) 
Backbone

>  <CLASS>  (3629) 
alpha

>  <ANALOG>  (3629) 
Phe

>  <MOL_WT>  (3629) 
172.209

>  <LOGP>  (3629) 
0.09749999999999986

>  <TPSA>  (3629) 
76.21

>  <POPULARITY>  (3629) 
21.2

>  <PROTECTED>  (3629) 
TRUE

>  <SMILES>  (3629) 
N[C@@H](Cc1(cscn1))C(=O)O

>  <INCHIKEY>  (3629) 
WBZIGVCQRXJYQD-YFKPBYRVSA-N

$$$$
V
     RDKit          2D

  8  7  0  0  0  0  0  0  0  0999 V2000
    0.0000    2.0625    0.0000 N   0  0  0  0  0  0  0  0  0  0  0  0
    0.0000    0.5625    0.0000 C   0  0  0  0  0  0  0  0  0  0  0  0
   -1.2990   -0.1875    0.0000 C   0  0  0  0  0  0  0  0  0  0  0  0
   -2.5981    0.5625    0.0000 C   0  0  0  0  0  0  0  0  0  0  0  0
   -1.2990   -1.6875    0.0000 C   0  0  0  0  0  0  0  0  0  0  0  0
    1.2990   -0.1875    0.0000 C   0  0  0  0  0  0  0  0  0  0  0  0
    1.2990   -1.6875    0.0000 O   0  0  0  0  0  0  0  0  0  0  0  0
    2.5981    0.5625    0.0000 O   0  0  0  0  0  0  0  0  0  0  0  0
  2  1  1  6
  2  3  1  0
  3  4  1  0
  3  5  1  0
  2  6  1  0
  6  7  2  0
  6  8  1  0
M  END
>  <rName>  (3630) 
V

>  <PQ_SYMBOL>  (3630) 
V

>  <FULL_NAME>  (3630) 
L-Valine

>  <IUPAC_CONDENSED>  (3630) 
Val

>  <IUPAC>  (3630) 
(2S)-2-amino-3-methylbutanoic acid

>  <TYPE>  (3630) 
Backbone

>  <CLASS>  (3630) 
alpha

>  <ANALOG>  (3630) 
Val

>  <MOL_WT>  (3630) 
117.14799999999998

>  <LOGP>  (3630) 
0.05429999999999996

>  <TPSA>  (3630) 
63.32000000000001

>  <POPULARITY>  (3630) 
98.0

>  <PROTECTED>  (3630) 
TRUE

>  <SMILES>  (3630) 
N[C@@H](C(C)C)C(=O)O

>  <INCHIKEY>  (3630) 
KZSNJWFQEVHDMF-BYPYZUCNSA-N

$$$$
Val-2-amino-2-deoxyadenosine
     RDKit          2D

 26 28  0  0  0  0  0  0  0  0999 V2000
    1.0978    3.4072    0.0000 N   0  0  0  0  0  0  0  0  0  0  0  0
    2.3382    2.5638    0.0000 C   0  0  0  0  0  0  0  0  0  0  0  0
    3.6888    3.2162    0.0000 C   0  0  0  0  0  0  0  0  0  0  0  0
    3.7991    4.7122    0.0000 C   0  0  0  0  0  0  0  0  0  0  0  0
    4.9292    2.3728    0.0000 C   0  0  0  0  0  0  0  0  0  0  0  0
    2.2279    1.0678    0.0000 C   0  0  0  0  0  0  0  0  0  0  0  0
    3.4683    0.2244    0.0000 O   0  0  0  0  0  0  0  0  0  0  0  0
    0.8773    0.4153    0.0000 N   0  0  0  0  0  0  0  0  0  0  0  0
    0.7670   -1.0806    0.0000 C   0  0  0  0  0  0  0  0  0  0  0  0
   -0.5080   -1.8707    0.0000 C   0  0  0  0  0  0  0  0  0  0  0  0
   -0.1506   -3.3275    0.0000 O   0  0  0  0  0  0  0  0  0  0  0  0
    1.3453   -3.4378    0.0000 C   0  0  0  0  0  0  0  0  0  0  0  0
    2.1354   -4.7128    0.0000 C   0  0  0  0  0  0  0  0  0  0  0  0
    1.4262   -6.0346    0.0000 O   0  0  0  0  0  0  0  0  0  0  0  0
    1.9124   -2.0491    0.0000 C   0  0  0  0  0  0  0  0  0  0  0  0
    3.3692   -1.6917    0.0000 O   0  0  0  0  0  0  0  0  0  0  0  0
   -1.8967   -1.3036    0.0000 N   0  0  0  0  0  0  0  0  0  0  0  0
   -2.2541    0.1532    0.0000 C   0  0  0  0  0  0  0  0  0  0  0  0
   -1.4106    1.3936    0.0000 N   0  0  0  0  0  0  0  0  0  0  0  0
   -2.0631    2.7443    0.0000 C   0  0  0  0  0  0  0  0  0  0  0  0
   -3.5591    2.8545    0.0000 N   0  0  0  0  0  0  0  0  0  0  0  0
   -4.4025    1.6141    0.0000 C   0  0  0  0  0  0  0  0  0  0  0  0
   -5.8985    1.7244    0.0000 N   0  0  0  0  0  0  0  0  0  0  0  0
   -3.7500    0.2635    0.0000 C   0  0  0  0  0  0  0  0  0  0  0  0
   -4.3172   -1.1252    0.0000 N   0  0  0  0  0  0  0  0  0  0  0  0
   -3.1717   -2.0937    0.0000 C   0  0  0  0  0  0  0  0  0  0  0  0
  2  1  1  1
  2  3  1  0
  3  4  1  0
  3  5  1  0
  2  6  1  0
  6  7  2  0
  6  8  1  0
  9  8  1  6
  9 10  1  0
 10 11  1  0
 11 12  1  0
 12 13  1  1
 13 14  1  0
 12 15  1  0
 15 16  1  6
 10 17  1  1
 17 18  1  0
 18 19  2  0
 19 20  1  0
 20 21  2  0
 21 22  1  0
 22 23  1  0
 22 24  2  0
 24 25  1  0
 25 26  2  0
 24 18  1  0
 26 17  1  0
 15  9  1  0
M  END
>  <rName>  (3631) 
Val-2-amino-2-deoxyadenosine

>  <PQ_SYMBOL>  (3631) 
Val-2-amino-2-deoxyadenosine

>  <FULL_NAME>  (3631) 
2'-(L-VALYL)AMINO-2'-DEOXYADENOSINE

>  <IUPAC_CONDENSED>  (3631) 
Val-2-amino-2-deoxyadenosine

>  <IUPAC>  (3631) 
(2S)-2-amino-N-((2R,3R,4S,5R)-2-(5-amino-2,4,7,9-tetraazabicyclo[4.3.0]nona-1,3,5,7-tetraen-9-yl)-4-hydroxy-5-(hydroxymethyl)oxolan-3-yl)-3-methylbutanamide

>  <TYPE>  (3631) 
C-term cap

>  <CLASS>  (3631) 
c_cap

>  <ANALOG>  (3631) 
X

>  <MOL_WT>  (3631) 
365.3940000000001

>  <LOGP>  (3631) 
-1.8727999999999974

>  <TPSA>  (3631) 
174.43

>  <POPULARITY>  (3631) 
3.5

>  <PROTECTED>  (3631) 
FALSE

>  <SMILES>  (3631) 
N[C@@H](C(C)C)C(=O)N[C@H]3[C@@H](O[C@H](CO)[C@H]3O)n2c1ncnc(N)c1nc2

>  <INCHIKEY>  (3631) 
UPIKYXOKKJTWAH-QNNFVPKKSA-N

$$$$
Val-Ala
     RDKit          2D

 13 12  0  0  0  0  0  0  0  0999 V2000
    0.7388    1.2374    0.0000 N   0  0  0  0  0  0  0  0  0  0  0  0
   -0.3572    0.2133    0.0000 C   0  0  0  0  0  0  0  0  0  0  0  0
   -0.0183   -1.2479    0.0000 O   0  0  0  0  0  0  0  0  0  0  0  0
   -1.7921    0.6504    0.0000 C   0  0  0  0  0  0  0  0  0  0  0  0
   -2.1310    2.1116    0.0000 N   0  0  0  0  0  0  0  0  0  0  0  0
   -2.8881   -0.3737    0.0000 C   0  0  0  0  0  0  0  0  0  0  0  0
   -4.3230    0.0634    0.0000 C   0  0  0  0  0  0  0  0  0  0  0  0
   -2.5492   -1.8349    0.0000 C   0  0  0  0  0  0  0  0  0  0  0  0
    2.1737    0.8002    0.0000 C   0  0  0  0  0  0  0  0  0  0  0  0
    3.2697    1.8243    0.0000 C   0  0  0  0  0  0  0  0  0  0  0  0
    2.5126   -0.6610    0.0000 C   0  0  0  0  0  0  0  0  0  0  0  0
    1.4166   -1.6851    0.0000 O   0  0  0  0  0  0  0  0  0  0  0  0
    3.9475   -1.0981    0.0000 O   0  0  0  0  0  0  0  0  0  0  0  0
  1  2  1  0
  2  3  2  0
  2  4  1  0
  4  5  1  6
  4  6  1  0
  6  7  1  0
  6  8  1  0
  1  9  1  0
  9 10  1  1
  9 11  1  0
 11 12  2  0
 11 13  1  0
M  END
>  <rName>  (3632) 
Val-Ala

>  <PQ_SYMBOL>  (3632) 
Val-Ala

>  <FULL_NAME>  (3632) 
Val-Ala

>  <IUPAC_CONDENSED>  (3632) 
Val-Ala

>  <IUPAC>  (3632) 
(2S)-2-((1S)-1-amino-2-methylpropylcarbonylamino)propanoic acid

>  <TYPE>  (3632) 
Backbone

>  <CLASS>  (3632) 
alpha

>  <ANALOG>  (3632) 
Ala

>  <MOL_WT>  (3632) 
188.22699999999998

>  <LOGP>  (3632) 
-0.44100000000000056

>  <TPSA>  (3632) 
92.42

>  <POPULARITY>  (3632) 
14.8

>  <PROTECTED>  (3632) 
TRUE

>  <SMILES>  (3632) 
N(C(=O)[C@@H](N)C(C)C)[C@@H](C)C(=O)O

>  <INCHIKEY>  (3632) 
HSRXSKHRSXRCFC-WDSKDSINSA-N

$$$$
Val-Cit
     RDKit          2D

 19 18  0  0  0  0  0  0  0  0999 V2000
   -1.3913    0.8296    0.0000 N   0  0  0  0  0  0  0  0  0  0  0  0
   -2.7305    0.1539    0.0000 C   0  0  0  0  0  0  0  0  0  0  0  0
   -2.8149   -1.3437    0.0000 O   0  0  0  0  0  0  0  0  0  0  0  0
   -3.9853    0.9758    0.0000 C   0  0  0  0  0  0  0  0  0  0  0  0
   -3.9008    2.4734    0.0000 N   0  0  0  0  0  0  0  0  0  0  0  0
   -5.3244    0.3001    0.0000 C   0  0  0  0  0  0  0  0  0  0  0  0
   -6.5792    1.1220    0.0000 C   0  0  0  0  0  0  0  0  0  0  0  0
   -5.4089   -1.1975    0.0000 C   0  0  0  0  0  0  0  0  0  0  0  0
   -0.1365    0.0077    0.0000 C   0  0  0  0  0  0  0  0  0  0  0  0
    1.2027    0.6834    0.0000 C   0  0  0  0  0  0  0  0  0  0  0  0
    2.4574   -0.1385    0.0000 C   0  0  0  0  0  0  0  0  0  0  0  0
    3.7966    0.5372    0.0000 C   0  0  0  0  0  0  0  0  0  0  0  0
    5.0514   -0.2847    0.0000 N   0  0  0  0  0  0  0  0  0  0  0  0
    6.3906    0.3910    0.0000 C   0  0  0  0  0  0  0  0  0  0  0  0
    6.4750    1.8886    0.0000 O   0  0  0  0  0  0  0  0  0  0  0  0
    7.6454   -0.4309    0.0000 N   0  0  0  0  0  0  0  0  0  0  0  0
   -0.2209   -1.4899    0.0000 C   0  0  0  0  0  0  0  0  0  0  0  0
   -1.5601   -2.1656    0.0000 O   0  0  0  0  0  0  0  0  0  0  0  0
    1.0338   -2.3118    0.0000 O   0  0  0  0  0  0  0  0  0  0  0  0
  1  2  1  0
  2  3  2  0
  2  4  1  0
  4  5  1  6
  4  6  1  0
  6  7  1  0
  6  8  1  0
  1  9  1  0
  9 10  1  1
 10 11  1  0
 11 12  1  0
 12 13  1  0
 13 14  1  0
 14 15  2  0
 14 16  1  0
  9 17  1  0
 17 18  2  0
 17 19  1  0
M  END
>  <rName>  (3633) 
Val-Cit

>  <PQ_SYMBOL>  (3633) 
Val-Cit

>  <FULL_NAME>  (3633) 
L-Valyl-L-citrulline

>  <IUPAC_CONDENSED>  (3633) 
Val-Cit

>  <IUPAC>  (3633) 
(2S)-2-((1S)-1-amino-2-methylpropylcarbonylamino)-5-(carbamoylamino)pentanoic acid

>  <TYPE>  (3633) 
Backbone

>  <CLASS>  (3633) 
alpha

>  <ANALOG>  (3633) 
Arg

>  <MOL_WT>  (3633) 
274.32099999999997

>  <LOGP>  (3633) 
-1.012399999999997

>  <TPSA>  (3633) 
147.54

>  <POPULARITY>  (3633) 
4.5

>  <PROTECTED>  (3633) 
TRUE

>  <SMILES>  (3633) 
N(C(=O)[C@@H](N)C(C)C)[C@@H](CCCNC(=O)N)C(=O)O

>  <INCHIKEY>  (3633) 
AGGWFDNPHKLBBV-YUMQZZPRSA-N

$$$$
Val-Gly
     RDKit          2D

 12 11  0  0  0  0  0  0  0  0999 V2000
    0.8979    0.2905    0.0000 N   0  0  0  0  0  0  0  0  0  0  0  0
   -0.4669   -0.3319    0.0000 C   0  0  0  0  0  0  0  0  0  0  0  0
   -0.6102   -1.8250    0.0000 O   0  0  0  0  0  0  0  0  0  0  0  0
   -1.6883    0.5388    0.0000 C   0  0  0  0  0  0  0  0  0  0  0  0
   -1.5449    2.0319    0.0000 N   0  0  0  0  0  0  0  0  0  0  0  0
   -3.0531   -0.0836    0.0000 C   0  0  0  0  0  0  0  0  0  0  0  0
   -4.2745    0.7871    0.0000 C   0  0  0  0  0  0  0  0  0  0  0  0
   -3.1964   -1.5768    0.0000 C   0  0  0  0  0  0  0  0  0  0  0  0
    2.1193   -0.5802    0.0000 C   0  0  0  0  0  0  0  0  0  0  0  0
    3.4841    0.0422    0.0000 C   0  0  0  0  0  0  0  0  0  0  0  0
    3.6274    1.5354    0.0000 O   0  0  0  0  0  0  0  0  0  0  0  0
    4.7055   -0.8285    0.0000 O   0  0  0  0  0  0  0  0  0  0  0  0
  1  2  1  0
  2  3  2  0
  2  4  1  0
  4  5  1  6
  4  6  1  0
  6  7  1  0
  6  8  1  0
  1  9  1  0
  9 10  1  0
 10 11  2  0
 10 12  1  0
M  END
>  <rName>  (3634) 
Val-Gly

>  <PQ_SYMBOL>  (3634) 
Val-Gly

>  <FULL_NAME>  (3634) 
L-valylglycine

>  <IUPAC_CONDENSED>  (3634) 
Val-Gly

>  <IUPAC>  (3634) 
2-((1S)-1-amino-2-methylpropylcarbonylamino)acetic acid

>  <TYPE>  (3634) 
Backbone

>  <CLASS>  (3634) 
alpha

>  <ANALOG>  (3634) 
Gly

>  <MOL_WT>  (3634) 
174.2

>  <LOGP>  (3634) 
-0.8295000000000003

>  <TPSA>  (3634) 
92.42

>  <POPULARITY>  (3634) 
17.3

>  <PROTECTED>  (3634) 
TRUE

>  <SMILES>  (3634) 
N(C(=O)[C@@H](N)C(C)C)CC(=O)O

>  <INCHIKEY>  (3634) 
IOUPEELXVYPCPG-LURJTMIESA-N

$$$$
Val-NH2
     RDKit          2D

  8  7  0  0  0  0  0  0  0  0999 V2000
    0.0000    2.0625    0.0000 N   0  0  0  0  0  0  0  0  0  0  0  0
    0.0000    0.5625    0.0000 C   0  0  0  0  0  0  0  0  0  0  0  0
   -1.2990   -0.1875    0.0000 C   0  0  0  0  0  0  0  0  0  0  0  0
   -2.5981    0.5625    0.0000 C   0  0  0  0  0  0  0  0  0  0  0  0
   -1.2990   -1.6875    0.0000 C   0  0  0  0  0  0  0  0  0  0  0  0
    1.2990   -0.1875    0.0000 C   0  0  0  0  0  0  0  0  0  0  0  0
    2.5981    0.5625    0.0000 N   0  0  0  0  0  0  0  0  0  0  0  0
    1.2990   -1.6875    0.0000 O   0  0  0  0  0  0  0  0  0  0  0  0
  2  1  1  6
  2  3  1  0
  3  4  1  0
  3  5  1  0
  2  6  1  0
  6  7  1  0
  6  8  2  0
M  END
>  <rName>  (3635) 
Val-NH2

>  <PQ_SYMBOL>  (3635) 
Val-NH2

>  <FULL_NAME>  (3635) 
VALINYLAMINE

>  <IUPAC_CONDENSED>  (3635) 
Val-NH2

>  <IUPAC>  (3635) 
(2S)-2-amino-3-methylbutanamide

>  <TYPE>  (3635) 
C-term cap

>  <CLASS>  (3635) 
c_cap

>  <ANALOG>  (3635) 
X

>  <MOL_WT>  (3635) 
116.164

>  <LOGP>  (3635) 
-0.5450000000000004

>  <TPSA>  (3635) 
69.11

>  <POPULARITY>  (3635) 
22.3

>  <PROTECTED>  (3635) 
FALSE

>  <SMILES>  (3635) 
N[C@@H](C(C)C)C(N)=O

>  <INCHIKEY>  (3635) 
XDEHMKQLKPZERH-BYPYZUCNSA-N

$$$$
Val-OBn
     RDKit          2D

 15 15  0  0  0  0  0  0  0  0999 V2000
   -2.5285    2.0436    0.0000 N   0  0  0  0  0  0  0  0  0  0  0  0
   -2.8012    0.5686    0.0000 C   0  0  0  0  0  0  0  0  0  0  0  0
   -4.2149    0.0672    0.0000 C   0  0  0  0  0  0  0  0  0  0  0  0
   -5.3560    1.0409    0.0000 C   0  0  0  0  0  0  0  0  0  0  0  0
   -4.4876   -1.4078    0.0000 C   0  0  0  0  0  0  0  0  0  0  0  0
   -1.6601   -0.4050    0.0000 C   0  0  0  0  0  0  0  0  0  0  0  0
   -1.9328   -1.8800    0.0000 O   0  0  0  0  0  0  0  0  0  0  0  0
   -0.2464    0.0964    0.0000 O   0  0  0  0  0  0  0  0  0  0  0  0
    0.8947   -0.8772    0.0000 C   0  0  0  0  0  0  0  0  0  0  0  0
    2.3084   -0.3758    0.0000 C   0  0  0  0  0  0  0  0  0  0  0  0
    2.5811    1.0992    0.0000 C   0  0  0  0  0  0  0  0  0  0  0  0
    3.9948    1.6006    0.0000 C   0  0  0  0  0  0  0  0  0  0  0  0
    5.1359    0.6269    0.0000 C   0  0  0  0  0  0  0  0  0  0  0  0
    4.8632   -0.8481    0.0000 C   0  0  0  0  0  0  0  0  0  0  0  0
    3.4495   -1.3495    0.0000 C   0  0  0  0  0  0  0  0  0  0  0  0
  2  1  1  6
  2  3  1  0
  3  4  1  0
  3  5  1  0
  2  6  1  0
  6  7  2  0
  6  8  1  0
  8  9  1  0
  9 10  1  0
 10 11  2  0
 11 12  1  0
 12 13  2  0
 13 14  1  0
 14 15  2  0
 15 10  1  0
M  END
>  <rName>  (3636) 
Val-OBn

>  <PQ_SYMBOL>  (3636) 
Val-OBn

>  <FULL_NAME>  (3636) 
Valine benzyl ester

>  <IUPAC_CONDENSED>  (3636) 
Val-OBn

>  <IUPAC>  (3636) 
benzyl (2S)-2-amino-3-methylbutanoate

>  <TYPE>  (3636) 
C-term cap

>  <CLASS>  (3636) 
c_cap

>  <ANALOG>  (3636) 
X

>  <MOL_WT>  (3636) 
207.273

>  <LOGP>  (3636) 
1.7130999999999998

>  <TPSA>  (3636) 
52.32000000000001

>  <POPULARITY>  (3636) 
9.8

>  <PROTECTED>  (3636) 
TRUE

>  <SMILES>  (3636) 
N[C@@H](C(C)C)C(=O)OCc1ccccc1

>  <INCHIKEY>  (3636) 
YIRBOOICRQFSOK-NSHDSACASA-N

$$$$
Val-OMe
     RDKit          2D

  9  8  0  0  0  0  0  0  0  0999 V2000
   -0.4922    2.0701    0.0000 N   0  0  0  0  0  0  0  0  0  0  0  0
   -0.4495    0.5707    0.0000 C   0  0  0  0  0  0  0  0  0  0  0  0
   -1.7266   -0.2160    0.0000 C   0  0  0  0  0  0  0  0  0  0  0  0
   -3.0465    0.4967    0.0000 C   0  0  0  0  0  0  0  0  0  0  0  0
   -1.6838   -1.7154    0.0000 C   0  0  0  0  0  0  0  0  0  0  0  0
    0.8704   -0.1419    0.0000 C   0  0  0  0  0  0  0  0  0  0  0  0
    0.9132   -1.6413    0.0000 O   0  0  0  0  0  0  0  0  0  0  0  0
    2.1475    0.6448    0.0000 O   0  0  0  0  0  0  0  0  0  0  0  0
    3.4674   -0.0678    0.0000 C   0  0  0  0  0  0  0  0  0  0  0  0
  2  1  1  6
  2  3  1  0
  3  4  1  0
  3  5  1  0
  2  6  1  0
  6  7  2  0
  6  8  1  0
  8  9  1  0
M  END
>  <rName>  (3637) 
Val-OMe

>  <PQ_SYMBOL>  (3637) 
Val-OMe

>  <FULL_NAME>  (3637) 
L-Valine methyl ester

>  <IUPAC_CONDENSED>  (3637) 
Val-OMe

>  <IUPAC>  (3637) 
methyl (2S)-2-amino-3-methylbutanoate

>  <TYPE>  (3637) 
C-term cap

>  <CLASS>  (3637) 
c_cap

>  <ANALOG>  (3637) 
X

>  <MOL_WT>  (3637) 
131.17499999999998

>  <LOGP>  (3637) 
0.14269999999999983

>  <TPSA>  (3637) 
52.32000000000001

>  <POPULARITY>  (3637) 
20.8

>  <PROTECTED>  (3637) 
TRUE

>  <SMILES>  (3637) 
N[C@@H](C(C)C)C(=O)OC

>  <INCHIKEY>  (3637) 
CEMZBWPSKYISTN-YFKPBYRVSA-N

$$$$
Val-al
     RDKit          2D

  7  6  0  0  0  0  0  0  0  0999 V2000
    0.5797    1.7367    0.0000 N   0  0  0  0  0  0  0  0  0  0  0  0
    0.2514    0.2730    0.0000 C   0  0  0  0  0  0  0  0  0  0  0  0
   -1.1803   -0.1745    0.0000 C   0  0  0  0  0  0  0  0  0  0  0  0
   -2.2837    0.8417    0.0000 C   0  0  0  0  0  0  0  0  0  0  0  0
   -1.5086   -1.6381    0.0000 C   0  0  0  0  0  0  0  0  0  0  0  0
    1.3548   -0.7431    0.0000 C   0  0  0  0  0  0  0  0  0  0  0  0
    2.7865   -0.2956    0.0000 O   0  0  0  0  0  0  0  0  0  0  0  0
  2  1  1  6
  2  3  1  0
  3  4  1  0
  3  5  1  0
  2  6  1  0
  6  7  2  0
M  END
>  <rName>  (3638) 
Val-al

>  <PQ_SYMBOL>  (3638) 
Val-al

>  <FULL_NAME>  (3638) 
(2S)-2-amino-3-methylbutanal

>  <IUPAC_CONDENSED>  (3638) 
Val-al

>  <IUPAC>  (3638) 
(2S)-2-amino-3-methylbutanal

>  <TYPE>  (3638) 
C-term cap

>  <CLASS>  (3638) 
c_cap

>  <ANALOG>  (3638) 
X

>  <MOL_WT>  (3638) 
101.14899999999999

>  <LOGP>  (3638) 
0.16859999999999986

>  <TPSA>  (3638) 
43.09

>  <POPULARITY>  (3638) 
23.0

>  <PROTECTED>  (3638) 
TRUE

>  <SMILES>  (3638) 
N[C@@H](C(C)C)C=O

>  <INCHIKEY>  (3638) 
DVOFEOSDXAVUJD-RXMQYKEDSA-N

$$$$
Val-ol
     RDKit          2D

  7  6  0  0  0  0  0  0  0  0999 V2000
    0.5797    1.7367    0.0000 N   0  0  0  0  0  0  0  0  0  0  0  0
    0.2514    0.2730    0.0000 C   0  0  0  0  0  0  0  0  0  0  0  0
   -1.1803   -0.1745    0.0000 C   0  0  0  0  0  0  0  0  0  0  0  0
   -2.2837    0.8417    0.0000 C   0  0  0  0  0  0  0  0  0  0  0  0
   -1.5086   -1.6381    0.0000 C   0  0  0  0  0  0  0  0  0  0  0  0
    1.3548   -0.7431    0.0000 C   0  0  0  0  0  0  0  0  0  0  0  0
    2.7865   -0.2956    0.0000 O   0  0  0  0  0  0  0  0  0  0  0  0
  2  1  1  6
  2  3  1  0
  3  4  1  0
  3  5  1  0
  2  6  1  0
  6  7  1  0
M  END
>  <rName>  (3639) 
Val-ol

>  <PQ_SYMBOL>  (3639) 
Val-ol

>  <FULL_NAME>  (3639) 
L-VALINOL

>  <IUPAC_CONDENSED>  (3639) 
Val-ol

>  <IUPAC>  (3639) 
(2S)-2-amino-3-methylbutan-1-ol

>  <TYPE>  (3639) 
C-term cap

>  <CLASS>  (3639) 
c_cap

>  <ANALOG>  (3639) 
X

>  <MOL_WT>  (3639) 
103.16499999999999

>  <LOGP>  (3639) 
-0.0380000000000002

>  <TPSA>  (3639) 
46.25

>  <POPULARITY>  (3639) 
18.1

>  <PROTECTED>  (3639) 
FALSE

>  <SMILES>  (3639) 
N[C@@H](C(C)C)CO

>  <INCHIKEY>  (3639) 
NWYYWIJOWOLJNR-RXMQYKEDSA-N

$$$$
Val-sulfamoyladenosine
     RDKit          2D

 30 32  0  0  0  0  0  0  0  0999 V2000
    7.9986   -0.1797    0.0000 N   0  0  0  0  0  0  0  0  0  0  0  0
    6.9179    0.8605    0.0000 C   0  0  0  0  0  0  0  0  0  0  0  0
    7.2784    2.3166    0.0000 C   0  0  0  0  0  0  0  0  0  0  0  0
    8.7196    2.7324    0.0000 C   0  0  0  0  0  0  0  0  0  0  0  0
    6.1976    3.3568    0.0000 C   0  0  0  0  0  0  0  0  0  0  0  0
    5.4767    0.4447    0.0000 C   0  0  0  0  0  0  0  0  0  0  0  0
    4.3959    1.4849    0.0000 O   0  0  0  0  0  0  0  0  0  0  0  0
    5.1162   -1.0113    0.0000 N   0  0  0  0  0  0  0  0  0  0  0  0
    3.6750   -1.4272    0.0000 S   0  0  0  0  0  0  0  0  0  0  0  0
    3.2591    0.0140    0.0000 O   0  0  0  0  0  0  0  0  0  0  0  0
    4.0908   -2.8684    0.0000 O   0  0  0  0  0  0  0  0  0  0  0  0
    2.2338   -1.8430    0.0000 O   0  0  0  0  0  0  0  0  0  0  0  0
    1.1530   -0.8028    0.0000 C   0  0  0  0  0  0  0  0  0  0  0  0
   -0.2882   -1.2187    0.0000 C   0  0  0  0  0  0  0  0  0  0  0  0
   -1.4717   -0.2971    0.0000 O   0  0  0  0  0  0  0  0  0  0  0  0
   -2.7139   -1.1380    0.0000 C   0  0  0  0  0  0  0  0  0  0  0  0
   -2.2980   -2.5792    0.0000 C   0  0  0  0  0  0  0  0  0  0  0  0
   -3.2196   -3.7627    0.0000 O   0  0  0  0  0  0  0  0  0  0  0  0
   -0.7989   -2.6290    0.0000 C   0  0  0  0  0  0  0  0  0  0  0  0
    0.0420   -3.8712    0.0000 O   0  0  0  0  0  0  0  0  0  0  0  0
   -4.1243   -0.6273    0.0000 N   0  0  0  0  0  0  0  0  0  0  0  0
   -4.5401    0.8140    0.0000 C   0  0  0  0  0  0  0  0  0  0  0  0
   -3.7473    2.0873    0.0000 N   0  0  0  0  0  0  0  0  0  0  0  0
   -4.4537    3.4106    0.0000 C   0  0  0  0  0  0  0  0  0  0  0  0
   -5.9529    3.4605    0.0000 N   0  0  0  0  0  0  0  0  0  0  0  0
   -6.7457    2.1871    0.0000 C   0  0  0  0  0  0  0  0  0  0  0  0
   -8.2448    2.2370    0.0000 N   0  0  0  0  0  0  0  0  0  0  0  0
   -6.0393    0.8638    0.0000 C   0  0  0  0  0  0  0  0  0  0  0  0
   -6.5500   -0.5466    0.0000 N   0  0  0  0  0  0  0  0  0  0  0  0
   -5.3664   -1.4681    0.0000 C   0  0  0  0  0  0  0  0  0  0  0  0
  2  1  1  6
  2  3  1  0
  3  4  1  0
  3  5  1  0
  2  6  1  0
  6  7  2  0
  6  8  1  0
  8  9  1  0
  9 10  2  0
  9 11  2  0
  9 12  1  0
 12 13  1  0
 14 13  1  6
 14 15  1  0
 15 16  1  0
 16 17  1  0
 17 18  1  1
 17 19  1  0
 19 20  1  1
 16 21  1  6
 21 22  1  0
 22 23  2  0
 23 24  1  0
 24 25  2  0
 25 26  1  0
 26 27  1  0
 26 28  2  0
 28 29  1  0
 29 30  2  0
 28 22  1  0
 30 21  1  0
 19 14  1  0
M  END
>  <rName>  (3640) 
Val-sulfamoyladenosine

>  <PQ_SYMBOL>  (3640) 
Val-sulfamoyladenosine

>  <FULL_NAME>  (3640) 
5'O-[N-(L-VALYL)SULPHAMOYL]ADENOSINE

>  <IUPAC_CONDENSED>  (3640) 
Val-sulfamoyladenosine

>  <IUPAC>  (3640) 
9-((2R,3R,4S,5R)-5-(((1S)-1-amino-2-methylpropylcarbonylsulfamoyloxy)methyl)-3,4-dihydroxyoxolan-2-yl)-2,4,7,9-tetraazabicyclo[4.3.0]nona-1,3,5,7-tetraen-5-amine

>  <TYPE>  (3640) 
C-term cap

>  <CLASS>  (3640) 
c_cap

>  <ANALOG>  (3640) 
X

>  <MOL_WT>  (3640) 
445.4580000000001

>  <LOGP>  (3640) 
-2.611399999999998

>  <TPSA>  (3640) 
217.8

>  <POPULARITY>  (3640) 
4.2

>  <PROTECTED>  (3640) 
FALSE

>  <SMILES>  (3640) 
N[C@@H](C(C)C)C(=O)NS(=O)(=O)OC[C@H]3O[C@H]([C@H](O)[C@@H]3O)n2c1ncnc(N)c1nc2

>  <INCHIKEY>  (3640) 
TXCZGHBHNXNXMA-CYUGOOACSA-N

$$$$
Val_23dehydro
     RDKit          2D

  8  7  0  0  0  0  0  0  0  0999 V2000
    0.0000    2.0625    0.0000 N   0  0  0  0  0  0  0  0  0  0  0  0
    0.0000    0.5625    0.0000 C   0  0  0  0  0  0  0  0  0  0  0  0
   -1.2990   -0.1875    0.0000 C   0  0  0  0  0  0  0  0  0  0  0  0
   -2.5981    0.5625    0.0000 C   0  0  0  0  0  0  0  0  0  0  0  0
   -1.2990   -1.6875    0.0000 C   0  0  0  0  0  0  0  0  0  0  0  0
    1.2990   -0.1875    0.0000 C   0  0  0  0  0  0  0  0  0  0  0  0
    1.2990   -1.6875    0.0000 O   0  0  0  0  0  0  0  0  0  0  0  0
    2.5981    0.5625    0.0000 O   0  0  0  0  0  0  0  0  0  0  0  0
  1  2  1  0
  2  3  2  0
  3  4  1  0
  3  5  1  0
  2  6  1  0
  6  7  2  0
  6  8  1  0
M  END
>  <rName>  (3641) 
Val_23dehydro

>  <PQ_SYMBOL>  (3641) 
Val_23dehydro

>  <FULL_NAME>  (3641) 
Dehydrovaline

>  <IUPAC_CONDENSED>  (3641) 
Val(2,3-dehydro)

>  <IUPAC>  (3641) 
2-amino-3-methylbut-2-enoic acid

>  <TYPE>  (3641) 
Backbone

>  <CLASS>  (3641) 
alpha

>  <ANALOG>  (3641) 
Val

>  <MOL_WT>  (3641) 
115.13199999999998

>  <LOGP>  (3641) 
0.32359999999999983

>  <TPSA>  (3641) 
63.32000000000001

>  <POPULARITY>  (3641) 
21.3

>  <PROTECTED>  (3641) 
TRUE

>  <SMILES>  (3641) 
NC(=C(C)C)C(=O)O

>  <INCHIKEY>  (3641) 
MNDXTFKURVNNSY-UHFFFAOYSA-N

$$$$
Val_34dehydro
     RDKit          2D

  8  7  0  0  0  0  0  0  0  0999 V2000
    0.0000    2.0625    0.0000 N   0  0  0  0  0  0  0  0  0  0  0  0
    0.0000    0.5625    0.0000 C   0  0  0  0  0  0  0  0  0  0  0  0
   -1.2990   -0.1875    0.0000 C   0  0  0  0  0  0  0  0  0  0  0  0
   -2.5981    0.5625    0.0000 C   0  0  0  0  0  0  0  0  0  0  0  0
   -1.2990   -1.6875    0.0000 C   0  0  0  0  0  0  0  0  0  0  0  0
    1.2990   -0.1875    0.0000 C   0  0  0  0  0  0  0  0  0  0  0  0
    1.2990   -1.6875    0.0000 O   0  0  0  0  0  0  0  0  0  0  0  0
    2.5981    0.5625    0.0000 O   0  0  0  0  0  0  0  0  0  0  0  0
  2  1  1  6
  2  3  1  0
  3  4  2  0
  3  5  1  0
  2  6  1  0
  6  7  2  0
  6  8  1  0
M  END
>  <rName>  (3642) 
Val_34dehydro

>  <PQ_SYMBOL>  (3642) 
Val_34dehydro

>  <FULL_NAME>  (3642) 
(S)-2-amino-3-methylbut-3-enoic acid

>  <IUPAC_CONDENSED>  (3642) 
Val(3,4-dehydro)

>  <IUPAC>  (3642) 
(2S)-2-amino-3-methylbut-3-enoic acid

>  <TYPE>  (3642) 
Backbone

>  <CLASS>  (3642) 
alpha

>  <ANALOG>  (3642) 
Val

>  <MOL_WT>  (3642) 
115.13199999999998

>  <LOGP>  (3642) 
-0.0255999999999999

>  <TPSA>  (3642) 
63.32000000000001

>  <POPULARITY>  (3642) 
10.3

>  <PROTECTED>  (3642) 
TRUE

>  <SMILES>  (3642) 
N[C@@H](C(=C)C)C(=O)O

>  <INCHIKEY>  (3642) 
CJNBBWGXTPGZRW-BYPYZUCNSA-N

$$$$
Val_3OH
     RDKit          2D

  9  8  0  0  0  0  0  0  0  0999 V2000
   -0.1862    2.0800    0.0000 N   0  0  0  0  0  0  0  0  0  0  0  0
   -0.1560    0.5803    0.0000 C   0  0  0  0  0  0  0  0  0  0  0  0
    1.1578   -0.1434    0.0000 C   0  0  0  0  0  0  0  0  0  0  0  0
    2.4717   -0.8671    0.0000 O   0  0  0  0  0  0  0  0  0  0  0  0
    1.8815    1.1705    0.0000 C   0  0  0  0  0  0  0  0  0  0  0  0
    0.4341   -1.4573    0.0000 C   0  0  0  0  0  0  0  0  0  0  0  0
   -1.4397   -0.1957    0.0000 C   0  0  0  0  0  0  0  0  0  0  0  0
   -1.4095   -1.6954    0.0000 O   0  0  0  0  0  0  0  0  0  0  0  0
   -2.7536    0.5280    0.0000 O   0  0  0  0  0  0  0  0  0  0  0  0
  2  1  1  1
  2  3  1  0
  3  4  1  0
  3  5  1  0
  3  6  1  0
  2  7  1  0
  7  8  2  0
  7  9  1  0
M  END
>  <rName>  (3643) 
Val_3OH

>  <PQ_SYMBOL>  (3643) 
Val_3OH

>  <FULL_NAME>  (3643) 
3-Hydroxy-L-Valine

>  <IUPAC_CONDENSED>  (3643) 
Val(3-OH)

>  <IUPAC>  (3643) 
(2S)-2-amino-3-hydroxy-3-methylbutanoic acid

>  <TYPE>  (3643) 
Backbone

>  <CLASS>  (3643) 
alpha

>  <ANALOG>  (3643) 
Val

>  <MOL_WT>  (3643) 
133.147

>  <LOGP>  (3643) 
-0.8308000000000006

>  <TPSA>  (3643) 
83.55

>  <POPULARITY>  (3643) 
16.2

>  <PROTECTED>  (3643) 
TRUE

>  <SMILES>  (3643) 
N[C@@H](C(O)(C)C)C(=O)O

>  <INCHIKEY>  (3643) 
LDRFQSZFVGJGGP-GSVOUGTGSA-N

$$$$
Val_3R4PO3H2
     RDKit          2D

 12 11  0  0  0  0  0  0  0  0999 V2000
   -0.0306   -1.5204    0.0000 N   0  0  0  0  0  0  0  0  0  0  0  0
   -0.8599   -0.2705    0.0000 C   0  0  0  0  0  0  0  0  0  0  0  0
   -0.1920    1.0727    0.0000 C   0  0  0  0  0  0  0  0  0  0  0  0
   -1.0213    2.3226    0.0000 C   0  0  0  0  0  0  0  0  0  0  0  0
    1.3051    1.1659    0.0000 C   0  0  0  0  0  0  0  0  0  0  0  0
    2.1343   -0.0841    0.0000 P   0  0  0  0  0  0  0  0  0  0  0  0
    2.9636   -1.3340    0.0000 O   0  0  0  0  0  0  0  0  0  0  0  0
    3.3843    0.7452    0.0000 O   0  0  0  0  0  0  0  0  0  0  0  0
    0.8844   -0.9133    0.0000 O   0  0  0  0  0  0  0  0  0  0  0  0
   -2.3570   -0.3637    0.0000 C   0  0  0  0  0  0  0  0  0  0  0  0
   -3.1862    0.8863    0.0000 O   0  0  0  0  0  0  0  0  0  0  0  0
   -3.0248   -1.7068    0.0000 O   0  0  0  0  0  0  0  0  0  0  0  0
  2  1  1  6
  2  3  1  0
  3  4  1  1
  3  5  1  0
  5  6  1  0
  6  7  2  0
  6  8  1  0
  6  9  1  0
  2 10  1  0
 10 11  2  0
 10 12  1  0
M  END
>  <rName>  (3644) 
Val_3R4PO3H2

>  <PQ_SYMBOL>  (3644) 
Val_3R4PO3H2

>  <FULL_NAME>  (3644) 
(2S,3R)-2-amino-3-methyl-4-phosphonobutanoic acid

>  <IUPAC_CONDENSED>  (3644) 
Val(3R-4-PO3H2)

>  <IUPAC>  (3644) 
(2S,3R)-2-amino-3-(dihydroxyphosphorylmethyl)butanoic acid

>  <TYPE>  (3644) 
Backbone

>  <CLASS>  (3644) 
alpha

>  <ANALOG>  (3644) 
X

>  <MOL_WT>  (3644) 
197.127

>  <LOGP>  (3644) 
-0.7879000000000003

>  <TPSA>  (3644) 
120.85000000000001

>  <POPULARITY>  (3644) 
6.0

>  <PROTECTED>  (3644) 
TRUE

>  <SMILES>  (3644) 
N[C@@H]([C@@H](C)CP(=O)(O)O)C(=O)O

>  <INCHIKEY>  (3644) 
WPXHNEBMGCFKFJ-IMJSIDKUSA-N

$$$$
Val_6F
     RDKit          2D

 14 13  0  0  0  0  0  0  0  0999 V2000
    0.7246    2.4273    0.0000 N   0  0  0  0  0  0  0  0  0  0  0  0
    0.8518    0.9328    0.0000 C   0  0  0  0  0  0  0  0  0  0  0  0
   -0.3789    0.0753    0.0000 C   0  0  0  0  0  0  0  0  0  0  0  0
   -1.7369    0.7124    0.0000 C   0  0  0  0  0  0  0  0  0  0  0  0
   -3.0948    1.3495    0.0000 F   0  0  0  0  0  0  0  0  0  0  0  0
   -2.3740   -0.6456    0.0000 F   0  0  0  0  0  0  0  0  0  0  0  0
   -1.0998    2.0704    0.0000 F   0  0  0  0  0  0  0  0  0  0  0  0
   -0.2517   -1.4193    0.0000 C   0  0  0  0  0  0  0  0  0  0  0  0
   -0.1245   -2.9139    0.0000 F   0  0  0  0  0  0  0  0  0  0  0  0
   -1.7463   -1.5465    0.0000 F   0  0  0  0  0  0  0  0  0  0  0  0
    1.2429   -1.2921    0.0000 F   0  0  0  0  0  0  0  0  0  0  0  0
    2.2098    0.2956    0.0000 C   0  0  0  0  0  0  0  0  0  0  0  0
    2.3370   -1.1990    0.0000 O   0  0  0  0  0  0  0  0  0  0  0  0
    3.4406    1.1531    0.0000 O   0  0  0  0  0  0  0  0  0  0  0  0
  2  1  1  6
  2  3  1  0
  3  4  1  0
  4  5  1  0
  4  6  1  0
  4  7  1  0
  3  8  1  0
  8  9  1  0
  8 10  1  0
  8 11  1  0
  2 12  1  0
 12 13  2  0
 12 14  1  0
M  END
>  <rName>  (3645) 
Val_6F

>  <PQ_SYMBOL>  (3645) 
Val_6F

>  <FULL_NAME>  (3645) 
4,4,4,4',4',4'-Hexafluoro-L-Valine

>  <IUPAC_CONDENSED>  (3645) 
Val(6F)

>  <IUPAC>  (3645) 
(2S)-2-amino-4,4,4-trifluoro-3-(trifluoromethyl)butanoic acid

>  <TYPE>  (3645) 
Backbone

>  <CLASS>  (3645) 
alpha

>  <ANALOG>  (3645) 
X

>  <MOL_WT>  (3645) 
225.088

>  <LOGP>  (3645) 
1.1391000000000002

>  <TPSA>  (3645) 
63.32000000000001

>  <POPULARITY>  (3645) 
7.7

>  <PROTECTED>  (3645) 
TRUE

>  <SMILES>  (3645) 
N[C@@H](C(C(F)(F)F)C(F)(F)F)C(=O)O

>  <INCHIKEY>  (3645) 
KRNSHCKTGFAMPQ-SFOWXEAESA-N

$$$$
Val_vinyl
     RDKit          2D

 10  9  0  0  0  0  0  0  0  0999 V2000
    1.2586    1.9934    0.0000 N   0  0  0  0  0  0  0  0  0  0  0  0
    0.6785    0.6101    0.0000 C   0  0  0  0  0  0  0  0  0  0  0  0
   -0.8096    0.4209    0.0000 C   0  0  0  0  0  0  0  0  0  0  0  0
   -0.9988    1.9089    0.0000 C   0  0  0  0  0  0  0  0  0  0  0  0
   -0.6203   -1.0672    0.0000 C   0  0  0  0  0  0  0  0  0  0  0  0
   -2.2976    0.2316    0.0000 C   0  0  0  0  0  0  0  0  0  0  0  0
   -2.8777   -1.1516    0.0000 C   0  0  0  0  0  0  0  0  0  0  0  0
    1.5863   -0.5840    0.0000 C   0  0  0  0  0  0  0  0  0  0  0  0
    1.0062   -1.9672    0.0000 O   0  0  0  0  0  0  0  0  0  0  0  0
    3.0744   -0.3947    0.0000 O   0  0  0  0  0  0  0  0  0  0  0  0
  2  1  1  6
  2  3  1  0
  3  4  1  0
  3  5  1  0
  3  6  1  0
  6  7  2  0
  2  8  1  0
  8  9  2  0
  8 10  1  0
M  END
>  <rName>  (3646) 
Val_vinyl

>  <PQ_SYMBOL>  (3646) 
Val_vinyl

>  <FULL_NAME>  (3646) 
(2S)-2-amino-3,3-dimethylpent-4-enoic acid

>  <IUPAC_CONDENSED>  (3646) 
Val(vinyl)

>  <IUPAC>  (3646) 
(2S)-2-amino-3,3-dimethylpent-4-enoic acid

>  <TYPE>  (3646) 
Backbone

>  <CLASS>  (3646) 
alpha

>  <ANALOG>  (3646) 
Val

>  <MOL_WT>  (3646) 
143.18599999999998

>  <LOGP>  (3646) 
0.6105

>  <TPSA>  (3646) 
63.32000000000001

>  <POPULARITY>  (3646) 
3.5

>  <PROTECTED>  (3646) 
TRUE

>  <SMILES>  (3646) 
N[C@@H](C(C)(C)C=C)C(=O)O

>  <INCHIKEY>  (3646) 
WRAGCAJADTYGOO-RXMQYKEDSA-N

$$$$
W
     RDKit          2D

 15 16  0  0  0  0  0  0  0  0999 V2000
   -2.6183   -1.7023    0.0000 N   0  0  0  0  0  0  0  0  0  0  0  0
   -2.5622   -0.2034    0.0000 C   0  0  0  0  0  0  0  0  0  0  0  0
   -1.2360    0.4975    0.0000 C   0  0  0  0  0  0  0  0  0  0  0  0
    0.0341   -0.3006    0.0000 C   0  0  0  0  0  0  0  0  0  0  0  0
    0.1349   -1.7972    0.0000 C   0  0  0  0  0  0  0  0  0  0  0  0
    1.5895   -2.1637    0.0000 N   0  0  0  0  0  0  0  0  0  0  0  0
    2.3875   -0.8937    0.0000 C   0  0  0  0  0  0  0  0  0  0  0  0
    3.8654   -0.6369    0.0000 C   0  0  0  0  0  0  0  0  0  0  0  0
    4.3820    0.7713    0.0000 C   0  0  0  0  0  0  0  0  0  0  0  0
    3.4207    1.9228    0.0000 C   0  0  0  0  0  0  0  0  0  0  0  0
    1.9429    1.6661    0.0000 C   0  0  0  0  0  0  0  0  0  0  0  0
    1.4263    0.2578    0.0000 C   0  0  0  0  0  0  0  0  0  0  0  0
   -3.8322    0.5947    0.0000 C   0  0  0  0  0  0  0  0  0  0  0  0
   -3.7761    2.0937    0.0000 O   0  0  0  0  0  0  0  0  0  0  0  0
   -5.1584   -0.1061    0.0000 O   0  0  0  0  0  0  0  0  0  0  0  0
  2  1  1  6
  2  3  1  0
  3  4  1  0
  4  5  2  0
  5  6  1  0
  6  7  1  0
  7  8  2  0
  8  9  1  0
  9 10  2  0
 10 11  1  0
 11 12  2  0
  2 13  1  0
 13 14  2  0
 13 15  1  0
 12  4  1  0
 12  7  1  0
M  END
>  <rName>  (3647) 
W

>  <PQ_SYMBOL>  (3647) 
W

>  <FULL_NAME>  (3647) 
L-Tryptophan

>  <IUPAC_CONDENSED>  (3647) 
Trp

>  <IUPAC>  (3647) 
(2S)-2-amino-3-(1H-indol-3-yl)propanoic acid

>  <TYPE>  (3647) 
Backbone

>  <CLASS>  (3647) 
alpha

>  <ANALOG>  (3647) 
Trp

>  <MOL_WT>  (3647) 
204.22899999999998

>  <LOGP>  (3647) 
1.1223000000000003

>  <TPSA>  (3647) 
79.11

>  <POPULARITY>  (3647) 
93.2

>  <PROTECTED>  (3647) 
TRUE

>  <SMILES>  (3647) 
N[C@@H](Cc1(c[nH]c2(ccccc12)))C(=O)O

>  <INCHIKEY>  (3647) 
QIVBCDIJIAJPQS-VIFPVBQESA-N

$$$$
Y
     RDKit          2D

 13 13  0  0  0  0  0  0  0  0999 V2000
   -1.5766    1.6851    0.0000 N   0  0  0  0  0  0  0  0  0  0  0  0
   -2.0128    0.2500    0.0000 C   0  0  0  0  0  0  0  0  0  0  0  0
   -0.9880   -0.8454    0.0000 C   0  0  0  0  0  0  0  0  0  0  0  0
    0.4730   -0.5055    0.0000 C   0  0  0  0  0  0  0  0  0  0  0  0
    0.9092    0.9296    0.0000 C   0  0  0  0  0  0  0  0  0  0  0  0
    2.3702    1.2695    0.0000 C   0  0  0  0  0  0  0  0  0  0  0  0
    3.3950    0.1741    0.0000 C   0  0  0  0  0  0  0  0  0  0  0  0
    4.8560    0.5140    0.0000 O   0  0  0  0  0  0  0  0  0  0  0  0
    2.9588   -1.2611    0.0000 C   0  0  0  0  0  0  0  0  0  0  0  0
    1.4978   -1.6009    0.0000 C   0  0  0  0  0  0  0  0  0  0  0  0
   -3.4738   -0.0899    0.0000 C   0  0  0  0  0  0  0  0  0  0  0  0
   -3.9100   -1.5250    0.0000 O   0  0  0  0  0  0  0  0  0  0  0  0
   -4.4986    1.0055    0.0000 O   0  0  0  0  0  0  0  0  0  0  0  0
  2  1  1  1
  2  3  1  0
  3  4  1  0
  4  5  1  0
  5  6  2  0
  6  7  1  0
  7  8  1  0
  7  9  2  0
  9 10  1  0
  2 11  1  0
 11 12  2  0
 11 13  1  0
 10  4  2  0
M  END
>  <rName>  (3648) 
Y

>  <PQ_SYMBOL>  (3648) 
Y

>  <FULL_NAME>  (3648) 
L-Tyrosine

>  <IUPAC_CONDENSED>  (3648) 
Tyr

>  <IUPAC>  (3648) 
(2S)-2-amino-3-(4-hydroxyphenyl)propanoic acid

>  <TYPE>  (3648) 
Backbone

>  <CLASS>  (3648) 
alpha

>  <ANALOG>  (3648) 
Tyr

>  <MOL_WT>  (3648) 
181.19099999999997

>  <LOGP>  (3648) 
0.3466

>  <TPSA>  (3648) 
83.55

>  <POPULARITY>  (3648) 
96.6

>  <PROTECTED>  (3648) 
TRUE

>  <SMILES>  (3648) 
N[C@@H](Cc1(ccc(O)cc1))C(=O)O

>  <INCHIKEY>  (3648) 
OUYCCCASQSFEME-QMMMGPOBSA-N

$$$$
a2-carboxyethyla2-carboxyethylGaba
     RDKit          2D

 17 16  0  0  0  0  0  0  0  0999 V2000
   -0.8426   -1.5875    0.0000 N   0  0  0  0  0  0  0  0  0  0  0  0
   -0.3749   -0.1622    0.0000 C   0  0  0  0  0  0  0  0  0  0  0  0
   -1.8002    0.3054    0.0000 C   0  0  0  0  0  0  0  0  0  0  0  0
   -2.9178   -0.6950    0.0000 C   0  0  0  0  0  0  0  0  0  0  0  0
   -4.3430   -0.2274    0.0000 C   0  0  0  0  0  0  0  0  0  0  0  0
   -4.6506    1.2407    0.0000 O   0  0  0  0  0  0  0  0  0  0  0  0
   -5.4606   -1.2278    0.0000 O   0  0  0  0  0  0  0  0  0  0  0  0
    1.0503   -0.6299    0.0000 C   0  0  0  0  0  0  0  0  0  0  0  0
    1.3579   -2.0980    0.0000 C   0  0  0  0  0  0  0  0  0  0  0  0
    2.7832   -2.5657    0.0000 C   0  0  0  0  0  0  0  0  0  0  0  0
    3.9008   -1.5652    0.0000 O   0  0  0  0  0  0  0  0  0  0  0  0
    3.0908   -4.0338    0.0000 O   0  0  0  0  0  0  0  0  0  0  0  0
    0.0927    1.2630    0.0000 C   0  0  0  0  0  0  0  0  0  0  0  0
    1.5609    1.5706    0.0000 C   0  0  0  0  0  0  0  0  0  0  0  0
    2.0285    2.9958    0.0000 C   0  0  0  0  0  0  0  0  0  0  0  0
    1.0280    4.1135    0.0000 O   0  0  0  0  0  0  0  0  0  0  0  0
    3.4966    3.3035    0.0000 O   0  0  0  0  0  0  0  0  0  0  0  0
  1  2  1  0
  2  3  1  0
  3  4  1  0
  4  5  1  0
  5  6  2  0
  5  7  1  0
  2  8  1  0
  8  9  1  0
  9 10  1  0
 10 11  2  0
 10 12  1  0
  2 13  1  0
 13 14  1  0
 14 15  1  0
 15 16  2  0
 15 17  1  0
M  END
>  <rName>  (3649) 
a2-carboxyethyla2-carboxyethylGaba

>  <PQ_SYMBOL>  (3649) 
a2-carboxyethyla2-carboxyethylGaba

>  <FULL_NAME>  (3649) 
4-amino-4-(2-carboxyethyl)heptanedioic acid

>  <IUPAC_CONDENSED>  (3649) 
a2-carboxyethyla2-carboxyethylGaba

>  <IUPAC>  (3649) 
4-amino-4-(3-hydroxy-3-oxopropyl)heptanedioic acid

>  <TYPE>  (3649) 
Backbone

>  <CLASS>  (3649) 
gamma

>  <ANALOG>  (3649) 
Glu

>  <MOL_WT>  (3649) 
247.24699999999996

>  <LOGP>  (3649) 
0.27829999999999927

>  <TPSA>  (3649) 
137.92000000000002

>  <POPULARITY>  (3649) 
6.7

>  <PROTECTED>  (3649) 
TRUE

>  <SMILES>  (3649) 
NC(CCC(=O)O)(CCC(=O)O)CCC(=O)O

>  <INCHIKEY>  (3649) 
UOPIUZMVWLTGPP-UHFFFAOYSA-N

$$$$
aBnGaba
     RDKit          2D

 14 14  0  0  0  0  0  0  0  0999 V2000
   -0.2835    1.4730    0.0000 N   0  0  0  0  0  0  0  0  0  0  0  0
   -0.5669    0.0000    0.0000 C   0  0  0  0  0  0  0  0  0  0  0  0
    0.5669   -0.9820    0.0000 C   0  0  0  0  0  0  0  0  0  0  0  0
    1.9843   -0.4910    0.0000 C   0  0  0  0  0  0  0  0  0  0  0  0
    2.2678    0.9820    0.0000 C   0  0  0  0  0  0  0  0  0  0  0  0
    3.6852    1.4730    0.0000 C   0  0  0  0  0  0  0  0  0  0  0  0
    4.8190    0.4910    0.0000 C   0  0  0  0  0  0  0  0  0  0  0  0
    4.5356   -0.9820    0.0000 C   0  0  0  0  0  0  0  0  0  0  0  0
    3.1182   -1.4730    0.0000 C   0  0  0  0  0  0  0  0  0  0  0  0
   -1.9843   -0.4910    0.0000 C   0  0  0  0  0  0  0  0  0  0  0  0
   -3.1182    0.4910    0.0000 C   0  0  0  0  0  0  0  0  0  0  0  0
   -4.5356    0.0000    0.0000 C   0  0  0  0  0  0  0  0  0  0  0  0
   -4.8190   -1.4730    0.0000 O   0  0  0  0  0  0  0  0  0  0  0  0
   -5.6695    0.9820    0.0000 O   0  0  0  0  0  0  0  0  0  0  0  0
  2  1  1  6
  2  3  1  0
  3  4  1  0
  4  5  2  0
  5  6  1  0
  6  7  2  0
  7  8  1  0
  8  9  2  0
  2 10  1  0
 10 11  1  0
 11 12  1  0
 12 13  2  0
 12 14  1  0
  9  4  1  0
M  END
>  <rName>  (3650) 
aBnGaba

>  <PQ_SYMBOL>  (3650) 
aBnGaba

>  <FULL_NAME>  (3650) 
(S)-4-amino-5-phenylpentanoic acid

>  <IUPAC_CONDENSED>  (3650) 
aBnGaba

>  <IUPAC>  (3650) 
(4S)-4-amino-5-phenylpentanoic acid

>  <TYPE>  (3650) 
Backbone

>  <CLASS>  (3650) 
gamma

>  <ANALOG>  (3650) 
Phe

>  <MOL_WT>  (3650) 
193.24599999999992

>  <LOGP>  (3650) 
1.4212

>  <TPSA>  (3650) 
63.32000000000001

>  <POPULARITY>  (3650) 
9.0

>  <PROTECTED>  (3650) 
TRUE

>  <SMILES>  (3650) 
N[C@H](Cc1(ccccc1))CCC(=O)O

>  <INCHIKEY>  (3650) 
URBAOHLJWLYLQE-JTQLQIEISA-N

$$$$
aBnGaba_3ROH
     RDKit          2D

 15 15  0  0  0  0  0  0  0  0999 V2000
   -0.0890    1.6069    0.0000 N   0  0  0  0  0  0  0  0  0  0  0  0
   -0.4121    0.1421    0.0000 C   0  0  0  0  0  0  0  0  0  0  0  0
    0.6950   -0.8701    0.0000 C   0  0  0  0  0  0  0  0  0  0  0  0
    2.1250   -0.4174    0.0000 C   0  0  0  0  0  0  0  0  0  0  0  0
    2.4481    1.0474    0.0000 C   0  0  0  0  0  0  0  0  0  0  0  0
    3.8781    1.5000    0.0000 C   0  0  0  0  0  0  0  0  0  0  0  0
    4.9852    0.4879    0.0000 C   0  0  0  0  0  0  0  0  0  0  0  0
    4.6621   -0.9769    0.0000 C   0  0  0  0  0  0  0  0  0  0  0  0
    3.2321   -1.4296    0.0000 C   0  0  0  0  0  0  0  0  0  0  0  0
   -1.8422   -0.3106    0.0000 C   0  0  0  0  0  0  0  0  0  0  0  0
   -2.1652   -1.7754    0.0000 O   0  0  0  0  0  0  0  0  0  0  0  0
   -2.9492    0.7016    0.0000 C   0  0  0  0  0  0  0  0  0  0  0  0
   -4.3793    0.2489    0.0000 C   0  0  0  0  0  0  0  0  0  0  0  0
   -4.7023   -1.2159    0.0000 O   0  0  0  0  0  0  0  0  0  0  0  0
   -5.4863    1.2611    0.0000 O   0  0  0  0  0  0  0  0  0  0  0  0
  2  1  1  1
  2  3  1  0
  3  4  1  0
  4  5  2  0
  5  6  1  0
  6  7  2  0
  7  8  1  0
  8  9  2  0
  2 10  1  0
 10 11  1  6
 10 12  1  0
 12 13  1  0
 13 14  2  0
 13 15  1  0
  9  4  1  0
M  END
>  <rName>  (3651) 
aBnGaba_3ROH

>  <PQ_SYMBOL>  (3651) 
aBnGaba_3ROH

>  <FULL_NAME>  (3651) 
gamma-amino-beta-hydroxybenzenepentanoic acid

>  <IUPAC_CONDENSED>  (3651) 
aBnGaba(3R-OH)

>  <IUPAC>  (3651) 
(3R,4S)-4-amino-3-hydroxy-5-phenylpentanoic acid

>  <TYPE>  (3651) 
Backbone

>  <CLASS>  (3651) 
gamma

>  <ANALOG>  (3651) 
Phe

>  <MOL_WT>  (3651) 
209.24499999999995

>  <LOGP>  (3651) 
0.3920000000000001

>  <TPSA>  (3651) 
83.55

>  <POPULARITY>  (3651) 
4.2

>  <PROTECTED>  (3651) 
FALSE

>  <SMILES>  (3651) 
N[C@@H](Cc1(ccccc1))[C@H](O)CC(=O)O

>  <INCHIKEY>  (3651) 
JAJQQUQHMLWDFB-VHSXEESVSA-N

$$$$
aBnGaba_3SOH
     RDKit          2D

 15 15  0  0  0  0  0  0  0  0999 V2000
   -0.0890    1.6069    0.0000 N   0  0  0  0  0  0  0  0  0  0  0  0
   -0.4121    0.1421    0.0000 C   0  0  0  0  0  0  0  0  0  0  0  0
    0.6950   -0.8701    0.0000 C   0  0  0  0  0  0  0  0  0  0  0  0
    2.1250   -0.4174    0.0000 C   0  0  0  0  0  0  0  0  0  0  0  0
    2.4481    1.0474    0.0000 C   0  0  0  0  0  0  0  0  0  0  0  0
    3.8781    1.5000    0.0000 C   0  0  0  0  0  0  0  0  0  0  0  0
    4.9852    0.4879    0.0000 C   0  0  0  0  0  0  0  0  0  0  0  0
    4.6621   -0.9769    0.0000 C   0  0  0  0  0  0  0  0  0  0  0  0
    3.2321   -1.4296    0.0000 C   0  0  0  0  0  0  0  0  0  0  0  0
   -1.8422   -0.3106    0.0000 C   0  0  0  0  0  0  0  0  0  0  0  0
   -2.1652   -1.7754    0.0000 O   0  0  0  0  0  0  0  0  0  0  0  0
   -2.9492    0.7016    0.0000 C   0  0  0  0  0  0  0  0  0  0  0  0
   -4.3793    0.2489    0.0000 C   0  0  0  0  0  0  0  0  0  0  0  0
   -4.7023   -1.2159    0.0000 O   0  0  0  0  0  0  0  0  0  0  0  0
   -5.4863    1.2611    0.0000 O   0  0  0  0  0  0  0  0  0  0  0  0
  2  1  1  1
  2  3  1  0
  3  4  1  0
  4  5  2  0
  5  6  1  0
  6  7  2  0
  7  8  1  0
  8  9  2  0
  2 10  1  0
 10 11  1  1
 10 12  1  0
 12 13  1  0
 13 14  2  0
 13 15  1  0
  9  4  1  0
M  END
>  <rName>  (3652) 
aBnGaba_3SOH

>  <PQ_SYMBOL>  (3652) 
aBnGaba_3SOH

>  <FULL_NAME>  (3652) 
(3S,4S)-4-amino-3-hydroxy-5-phenylpentanoic acid

>  <IUPAC_CONDENSED>  (3652) 
aBnGaba(3S-OH)

>  <IUPAC>  (3652) 
(3S,4S)-4-amino-3-hydroxy-5-phenylpentanoic acid

>  <TYPE>  (3652) 
Backbone

>  <CLASS>  (3652) 
gamma

>  <ANALOG>  (3652) 
Phe

>  <MOL_WT>  (3652) 
209.24499999999995

>  <LOGP>  (3652) 
0.3920000000000001

>  <TPSA>  (3652) 
83.55

>  <POPULARITY>  (3652) 
9.4

>  <PROTECTED>  (3652) 
TRUE

>  <SMILES>  (3652) 
N[C@@H](Cc1(ccccc1))[C@@H](O)CC(=O)O

>  <INCHIKEY>  (3652) 
JAJQQUQHMLWDFB-UWVGGRQHSA-N

$$$$
aBnPro
     RDKit          2D

 15 16  0  0  0  0  0  0  0  0999 V2000
   -2.6747   -0.7701    0.0000 N   0  0  0  0  0  0  0  0  0  0  0  0
   -1.3819   -0.0095    0.0000 C   0  0  0  0  0  0  0  0  0  0  0  0
   -0.2590   -1.0040    0.0000 C   0  0  0  0  0  0  0  0  0  0  0  0
   -0.8578   -2.3793    0.0000 C   0  0  0  0  0  0  0  0  0  0  0  0
   -2.3509   -2.2347    0.0000 C   0  0  0  0  0  0  0  0  0  0  0  0
   -0.2754    1.0033    0.0000 C   0  0  0  0  0  0  0  0  0  0  0  0
    1.1549    0.5515    0.0000 C   0  0  0  0  0  0  0  0  0  0  0  0
    2.2614    1.5642    0.0000 C   0  0  0  0  0  0  0  0  0  0  0  0
    3.6917    1.1124    0.0000 C   0  0  0  0  0  0  0  0  0  0  0  0
    4.0156   -0.3522    0.0000 C   0  0  0  0  0  0  0  0  0  0  0  0
    2.9091   -1.3650    0.0000 C   0  0  0  0  0  0  0  0  0  0  0  0
    1.4788   -0.9132    0.0000 C   0  0  0  0  0  0  0  0  0  0  0  0
   -2.2734    1.1968    0.0000 C   0  0  0  0  0  0  0  0  0  0  0  0
   -1.6746    2.5720    0.0000 O   0  0  0  0  0  0  0  0  0  0  0  0
   -3.7639    1.0278    0.0000 O   0  0  0  0  0  0  0  0  0  0  0  0
  1  2  1  0
  2  3  1  0
  3  4  1  0
  4  5  1  0
  2  6  1  6
  6  7  1  0
  7  8  2  0
  8  9  1  0
  9 10  2  0
 10 11  1  0
 11 12  2  0
  2 13  1  0
 13 14  2  0
 13 15  1  0
  5  1  1  0
 12  7  1  0
M  END
>  <rName>  (3653) 
aBnPro

>  <PQ_SYMBOL>  (3653) 
aBnPro

>  <FULL_NAME>  (3653) 
(S)-2-benzylpyrrolidine-2-carboxylic acid

>  <IUPAC_CONDENSED>  (3653) 
aBnPro

>  <IUPAC>  (3653) 
(2S)-2-benzylpyrrolidine-2-carboxylic acid

>  <TYPE>  (3653) 
Backbone

>  <CLASS>  (3653) 
alpha

>  <ANALOG>  (3653) 
Pro

>  <MOL_WT>  (3653) 
205.257

>  <LOGP>  (3653) 
1.4359

>  <TPSA>  (3653) 
49.33

>  <POPULARITY>  (3653) 
8.6

>  <PROTECTED>  (3653) 
TRUE

>  <SMILES>  (3653) 
N1[C@@](CCC1)(Cc2(ccccc2))C(=O)O

>  <INCHIKEY>  (3653) 
LIHLFIASPODZOB-LBPRGKRZSA-N

$$$$
aBuGaba_3SOH
     RDKit          2D

 12 11  0  0  0  0  0  0  0  0999 V2000
   -1.0998    2.3671    0.0000 N   0  0  0  0  0  0  0  0  0  0  0  0
   -1.0889    0.8671    0.0000 C   0  0  0  0  0  0  0  0  0  0  0  0
   -2.3824    0.1077    0.0000 C   0  0  0  0  0  0  0  0  0  0  0  0
   -3.6869    0.8482    0.0000 C   0  0  0  0  0  0  0  0  0  0  0  0
   -2.3715   -1.3923    0.0000 C   0  0  0  0  0  0  0  0  0  0  0  0
   -1.0670   -2.1328    0.0000 C   0  0  0  0  0  0  0  0  0  0  0  0
    0.2156    0.1266    0.0000 C   0  0  0  0  0  0  0  0  0  0  0  0
    0.2265   -1.3734    0.0000 O   0  0  0  0  0  0  0  0  0  0  0  0
    1.5091    0.8860    0.0000 C   0  0  0  0  0  0  0  0  0  0  0  0
    2.8136    0.1455    0.0000 C   0  0  0  0  0  0  0  0  0  0  0  0
    2.8245   -1.3545    0.0000 O   0  0  0  0  0  0  0  0  0  0  0  0
    4.1071    0.9049    0.0000 O   0  0  0  0  0  0  0  0  0  0  0  0
  2  1  1  6
  2  3  1  0
  3  4  1  6
  3  5  1  0
  5  6  1  0
  2  7  1  0
  7  8  1  6
  7  9  1  0
  9 10  1  0
 10 11  2  0
 10 12  1  0
M  END
>  <rName>  (3654) 
aBuGaba_3SOH

>  <PQ_SYMBOL>  (3654) 
aBuGaba_3SOH

>  <FULL_NAME>  (3654) 
(3S,4S,5S)-4-amino-3-hydroxy-5-methylheptanoic acid

>  <IUPAC_CONDENSED>  (3654) 
aBuGaba(3S-OH)

>  <IUPAC>  (3654) 
(3S,4S,5S)-4-amino-3-hydroxy-5-methylheptanoic acid

>  <TYPE>  (3654) 
Backbone

>  <CLASS>  (3654) 
gamma

>  <ANALOG>  (3654) 
Ile

>  <MOL_WT>  (3654) 
175.22799999999998

>  <LOGP>  (3654) 
0.19539999999999957

>  <TPSA>  (3654) 
83.55

>  <POPULARITY>  (3654) 
7.9

>  <PROTECTED>  (3654) 
TRUE

>  <SMILES>  (3654) 
N[C@@H]([C@@H](C)CC)[C@@H](O)CC(=O)O

>  <INCHIKEY>  (3654) 
NUOADXFOULDPJQ-HAFWLYHUSA-N

$$$$
aBuNH2Gaba
     RDKit          2D

 12 11  0  0  0  0  0  0  0  0999 V2000
   -0.1554    1.8810    0.0000 N   0  0  0  0  0  0  0  0  0  0  0  0
   -0.2042    0.3818    0.0000 C   0  0  0  0  0  0  0  0  0  0  0  0
    1.0698   -0.4100    0.0000 C   0  0  0  0  0  0  0  0  0  0  0  0
    2.3925    0.2974    0.0000 C   0  0  0  0  0  0  0  0  0  0  0  0
    3.6665   -0.4944    0.0000 C   0  0  0  0  0  0  0  0  0  0  0  0
    4.9892    0.2129    0.0000 C   0  0  0  0  0  0  0  0  0  0  0  0
    6.2632   -0.5789    0.0000 N   0  0  0  0  0  0  0  0  0  0  0  0
   -1.5269   -0.3255    0.0000 C   0  0  0  0  0  0  0  0  0  0  0  0
   -2.8009    0.4663    0.0000 C   0  0  0  0  0  0  0  0  0  0  0  0
   -4.1236   -0.2411    0.0000 C   0  0  0  0  0  0  0  0  0  0  0  0
   -4.1724   -1.7403    0.0000 O   0  0  0  0  0  0  0  0  0  0  0  0
   -5.3976    0.5507    0.0000 O   0  0  0  0  0  0  0  0  0  0  0  0
  2  1  1  1
  2  3  1  0
  3  4  1  0
  4  5  1  0
  5  6  1  0
  6  7  1  0
  2  8  1  0
  8  9  1  0
  9 10  1  0
 10 11  2  0
 10 12  1  0
M  END
>  <rName>  (3655) 
aBuNH2Gaba

>  <PQ_SYMBOL>  (3655) 
aBuNH2Gaba

>  <FULL_NAME>  (3655) 
(S)-4,8-diaminooctanoic acid

>  <IUPAC_CONDENSED>  (3655) 
aBuNH2Gaba

>  <IUPAC>  (3655) 
(4S)-4,8-diaminooctanoic acid

>  <TYPE>  (3655) 
Backbone

>  <CLASS>  (3655) 
gamma

>  <ANALOG>  (3655) 
Lys

>  <MOL_WT>  (3655) 
174.244

>  <LOGP>  (3655) 
0.30749999999999944

>  <TPSA>  (3655) 
89.34

>  <POPULARITY>  (3655) 
8.5

>  <PROTECTED>  (3655) 
TRUE

>  <SMILES>  (3655) 
N[C@@H](CCCCN)CCC(=O)O

>  <INCHIKEY>  (3655) 
PJBIRKFNLCOMSB-ZETCQYMHSA-N

$$$$
aCF3Pro
     RDKit          2D

 12 12  0  0  0  0  0  0  0  0999 V2000
   -1.0627   -1.2381    0.0000 N   0  0  0  0  0  0  0  0  0  0  0  0
   -0.3042    0.0560    0.0000 C   0  0  0  0  0  0  0  0  0  0  0  0
   -1.3005    1.1773    0.0000 C   0  0  0  0  0  0  0  0  0  0  0  0
   -2.6748    0.5762    0.0000 C   0  0  0  0  0  0  0  0  0  0  0  0
   -2.5278   -0.9166    0.0000 C   0  0  0  0  0  0  0  0  0  0  0  0
    0.9036   -0.8336    0.0000 C   0  0  0  0  0  0  0  0  0  0  0  0
    2.1113   -1.7232    0.0000 F   0  0  0  0  0  0  0  0  0  0  0  0
    0.0139   -2.0413    0.0000 F   0  0  0  0  0  0  0  0  0  0  0  0
    1.8307    0.1476    0.0000 F   0  0  0  0  0  0  0  0  0  0  0  0
    0.7068    1.1641    0.0000 C   0  0  0  0  0  0  0  0  0  0  0  0
    2.0509    1.0377    0.0000 O   0  0  0  0  0  0  0  0  0  0  0  0
    0.2527    2.5937    0.0000 O   0  0  0  0  0  0  0  0  0  0  0  0
  1  2  1  0
  2  3  1  0
  3  4  1  0
  4  5  1  0
  2  6  1  6
  6  7  1  0
  6  8  1  0
  6  9  1  0
  2 10  1  0
 10 11  2  0
 10 12  1  0
  5  1  1  0
M  END
>  <rName>  (3656) 
aCF3Pro

>  <PQ_SYMBOL>  (3656) 
aCF3Pro

>  <FULL_NAME>  (3656) 
(2S)-2-(trifluoromethyl)pyrrolidine-2-carboxylic acid

>  <IUPAC_CONDENSED>  (3656) 
aCF3Pro

>  <IUPAC>  (3656) 
(2S)-2-(trifluoromethyl)pyrrolidine-2-carboxylic acid

>  <TYPE>  (3656) 
N-term cap

>  <CLASS>  (3656) 
n_cap

>  <ANALOG>  (3656) 
X

>  <MOL_WT>  (3656) 
183.129

>  <LOGP>  (3656) 
0.7554999999999998

>  <TPSA>  (3656) 
49.33

>  <POPULARITY>  (3656) 
5.3

>  <PROTECTED>  (3656) 
TRUE

>  <SMILES>  (3656) 
N1[C@](CCC1)(C(F)(F)F)C(=O)O

>  <INCHIKEY>  (3656) 
JOMHNFHOGGKSIM-YFKPBYRVSA-N

$$$$
aCF3bPro_R_2R
     RDKit          2D

 12 12  0  0  0  0  0  0  0  0999 V2000
    0.7409   -2.0609    0.0000 N   0  0  0  0  0  0  0  0  0  0  0  0
    0.5244   -0.5766    0.0000 C   0  0  0  0  0  0  0  0  0  0  0  0
    1.5979    0.4710    0.0000 C   0  0  0  0  0  0  0  0  0  0  0  0
    2.6714    1.5187    0.0000 F   0  0  0  0  0  0  0  0  0  0  0  0
    2.6455   -0.6025    0.0000 F   0  0  0  0  0  0  0  0  0  0  0  0
    0.5503    1.5445    0.0000 F   0  0  0  0  0  0  0  0  0  0  0  0
   -0.9542   -0.3239    0.0000 C   0  0  0  0  0  0  0  0  0  0  0  0
   -1.6514   -1.6520    0.0000 C   0  0  0  0  0  0  0  0  0  0  0  0
   -0.6038   -2.7255    0.0000 C   0  0  0  0  0  0  0  0  0  0  0  0
   -1.6188    1.0208    0.0000 C   0  0  0  0  0  0  0  0  0  0  0  0
   -3.1157    1.1176    0.0000 O   0  0  0  0  0  0  0  0  0  0  0  0
   -0.7866    2.2688    0.0000 O   0  0  0  0  0  0  0  0  0  0  0  0
  1  2  1  0
  2  3  1  6
  3  4  1  0
  3  5  1  0
  3  6  1  0
  2  7  1  0
  7  8  1  0
  8  9  1  0
  7 10  1  1
 10 11  2  0
 10 12  1  0
  9  1  1  0
M  END
>  <rName>  (3657) 
aCF3bPro_R_2R

>  <PQ_SYMBOL>  (3657) 
aCF3bPro_R_2R

>  <FULL_NAME>  (3657) 
(2R,3R)-2-Trifluoromethyl-pyrrolidine-3-carboxylic acid

>  <IUPAC_CONDENSED>  (3657) 
aCF3bPro(R,2R)

>  <IUPAC>  (3657) 
(2R,3R)-2-(trifluoromethyl)pyrrolidine-3-carboxylic acid

>  <TYPE>  (3657) 
Backbone

>  <CLASS>  (3657) 
beta

>  <ANALOG>  (3657) 
X

>  <MOL_WT>  (3657) 
183.129

>  <LOGP>  (3657) 
0.6113999999999999

>  <TPSA>  (3657) 
49.33

>  <POPULARITY>  (3657) 
2.2

>  <PROTECTED>  (3657) 
TRUE

>  <SMILES>  (3657) 
N1[C@@H](C(F)(F)F)[C@@H](CC1)C(=O)O

>  <INCHIKEY>  (3657) 
ZNSRLKAYJUJFGW-QWWZWVQMSA-N

$$$$
aCF3bPro_R_2S
     RDKit          2D

 12 12  0  0  0  0  0  0  0  0999 V2000
    0.7409   -2.0609    0.0000 N   0  0  0  0  0  0  0  0  0  0  0  0
    0.5244   -0.5766    0.0000 C   0  0  0  0  0  0  0  0  0  0  0  0
    1.5979    0.4710    0.0000 C   0  0  0  0  0  0  0  0  0  0  0  0
    2.6714    1.5187    0.0000 F   0  0  0  0  0  0  0  0  0  0  0  0
    2.6455   -0.6025    0.0000 F   0  0  0  0  0  0  0  0  0  0  0  0
    0.5503    1.5445    0.0000 F   0  0  0  0  0  0  0  0  0  0  0  0
   -0.9542   -0.3239    0.0000 C   0  0  0  0  0  0  0  0  0  0  0  0
   -1.6514   -1.6520    0.0000 C   0  0  0  0  0  0  0  0  0  0  0  0
   -0.6038   -2.7255    0.0000 C   0  0  0  0  0  0  0  0  0  0  0  0
   -1.6188    1.0208    0.0000 C   0  0  0  0  0  0  0  0  0  0  0  0
   -3.1157    1.1176    0.0000 O   0  0  0  0  0  0  0  0  0  0  0  0
   -0.7866    2.2688    0.0000 O   0  0  0  0  0  0  0  0  0  0  0  0
  1  2  1  0
  2  3  1  1
  3  4  1  0
  3  5  1  0
  3  6  1  0
  2  7  1  0
  7  8  1  0
  8  9  1  0
  7 10  1  1
 10 11  2  0
 10 12  1  0
  9  1  1  0
M  END
>  <rName>  (3658) 
aCF3bPro_R_2S

>  <PQ_SYMBOL>  (3658) 
aCF3bPro_R_2S

>  <FULL_NAME>  (3658) 
(2S,3R)-2-(trifluoromethyl)pyrrolidine-3-carboxylic acid

>  <IUPAC_CONDENSED>  (3658) 
aCF3bPro(R,2S)

>  <IUPAC>  (3658) 
(2S,3R)-2-(trifluoromethyl)pyrrolidine-3-carboxylic acid

>  <TYPE>  (3658) 
Backbone

>  <CLASS>  (3658) 
beta

>  <ANALOG>  (3658) 
X

>  <MOL_WT>  (3658) 
183.129

>  <LOGP>  (3658) 
0.6113999999999999

>  <TPSA>  (3658) 
49.33

>  <POPULARITY>  (3658) 
2.2

>  <PROTECTED>  (3658) 
TRUE

>  <SMILES>  (3658) 
N1[C@H](C(F)(F)F)[C@@H](CC1)C(=O)O

>  <INCHIKEY>  (3658) 
ZNSRLKAYJUJFGW-DMTCNVIQSA-N

$$$$
aCH2CH2SMeGaba_3SOH
     RDKit          2D

 12 11  0  0  0  0  0  0  0  0999 V2000
   -0.6039   -1.9552    0.0000 N   0  0  0  0  0  0  0  0  0  0  0  0
   -0.4745   -0.4608    0.0000 C   0  0  0  0  0  0  0  0  0  0  0  0
   -1.7040    0.3985    0.0000 C   0  0  0  0  0  0  0  0  0  0  0  0
   -3.0629   -0.2367    0.0000 C   0  0  0  0  0  0  0  0  0  0  0  0
   -4.2924    0.6225    0.0000 S   0  0  0  0  0  0  0  0  0  0  0  0
   -5.6513   -0.0126    0.0000 C   0  0  0  0  0  0  0  0  0  0  0  0
    0.8844    0.1744    0.0000 C   0  0  0  0  0  0  0  0  0  0  0  0
    1.0137    1.6688    0.0000 O   0  0  0  0  0  0  0  0  0  0  0  0
    2.1139   -0.6849    0.0000 C   0  0  0  0  0  0  0  0  0  0  0  0
    3.4728   -0.0497    0.0000 C   0  0  0  0  0  0  0  0  0  0  0  0
    3.6021    1.4447    0.0000 O   0  0  0  0  0  0  0  0  0  0  0  0
    4.7023   -0.9090    0.0000 O   0  0  0  0  0  0  0  0  0  0  0  0
  2  1  1  1
  2  3  1  0
  3  4  1  0
  4  5  1  0
  5  6  1  0
  2  7  1  0
  7  8  1  1
  7  9  1  0
  9 10  1  0
 10 11  2  0
 10 12  1  0
M  END
>  <rName>  (3659) 
aCH2CH2SMeGaba_3SOH

>  <PQ_SYMBOL>  (3659) 
aCH2CH2SMeGaba_3SOH

>  <FULL_NAME>  (3659) 
(3S,4S)-4-amino-3-hydroxy-6-(methylsulfanyl)hexanoic acid

>  <IUPAC_CONDENSED>  (3659) 
aCH2CH2SMeGaba(3S-OH)

>  <IUPAC>  (3659) 
(3S,4S)-4-amino-3-hydroxy-6-methylsulfanylhexanoic acid

>  <TYPE>  (3659) 
Backbone

>  <CLASS>  (3659) 
gamma

>  <ANALOG>  (3659) 
Met

>  <MOL_WT>  (3659) 
193.26799999999997

>  <LOGP>  (3659) 
-0.09760000000000063

>  <TPSA>  (3659) 
83.55

>  <POPULARITY>  (3659) 
2.2

>  <PROTECTED>  (3659) 
TRUE

>  <SMILES>  (3659) 
N[C@@H](CCSC)[C@@H](O)CC(=O)O

>  <INCHIKEY>  (3659) 
WISWCUMXFLIPIS-WDSKDSINSA-N

$$$$
aCH2cHexGaba_3SOH
     RDKit          2D

 15 15  0  0  0  0  0  0  0  0999 V2000
   -0.0890    1.6069    0.0000 N   0  0  0  0  0  0  0  0  0  0  0  0
   -0.4121    0.1421    0.0000 C   0  0  0  0  0  0  0  0  0  0  0  0
    0.6950   -0.8701    0.0000 C   0  0  0  0  0  0  0  0  0  0  0  0
    2.1250   -0.4174    0.0000 C   0  0  0  0  0  0  0  0  0  0  0  0
    2.4481    1.0474    0.0000 C   0  0  0  0  0  0  0  0  0  0  0  0
    3.8781    1.5000    0.0000 C   0  0  0  0  0  0  0  0  0  0  0  0
    4.9852    0.4879    0.0000 C   0  0  0  0  0  0  0  0  0  0  0  0
    4.6621   -0.9769    0.0000 C   0  0  0  0  0  0  0  0  0  0  0  0
    3.2321   -1.4296    0.0000 C   0  0  0  0  0  0  0  0  0  0  0  0
   -1.8422   -0.3106    0.0000 C   0  0  0  0  0  0  0  0  0  0  0  0
   -2.1652   -1.7754    0.0000 O   0  0  0  0  0  0  0  0  0  0  0  0
   -2.9492    0.7016    0.0000 C   0  0  0  0  0  0  0  0  0  0  0  0
   -4.3793    0.2489    0.0000 C   0  0  0  0  0  0  0  0  0  0  0  0
   -4.7023   -1.2159    0.0000 O   0  0  0  0  0  0  0  0  0  0  0  0
   -5.4863    1.2611    0.0000 O   0  0  0  0  0  0  0  0  0  0  0  0
  2  1  1  1
  2  3  1  0
  3  4  1  0
  4  5  1  0
  5  6  1  0
  6  7  1  0
  7  8  1  0
  8  9  1  0
  2 10  1  0
 10 11  1  1
 10 12  1  0
 12 13  1  0
 13 14  2  0
 13 15  1  0
  9  4  1  0
M  END
>  <rName>  (3660) 
aCH2cHexGaba_3SOH

>  <PQ_SYMBOL>  (3660) 
aCH2cHexGaba_3SOH

>  <FULL_NAME>  (3660) 
4-Amino-5-cyclohexyl-3-hydroxy-pentanoic acid

>  <IUPAC_CONDENSED>  (3660) 
aCH2cHexGaba(3S-OH)

>  <IUPAC>  (3660) 
(3S,4S)-4-amino-5-cyclohexyl-3-hydroxypentanoic acid

>  <TYPE>  (3660) 
Backbone

>  <CLASS>  (3660) 
gamma

>  <ANALOG>  (3660) 
Ala

>  <MOL_WT>  (3660) 
215.293

>  <LOGP>  (3660) 
1.1196999999999997

>  <TPSA>  (3660) 
83.55

>  <POPULARITY>  (3660) 
8.4

>  <PROTECTED>  (3660) 
TRUE

>  <SMILES>  (3660) 
N[C@@H](CC1(CCCCC1))[C@@H](O)CC(=O)O

>  <INCHIKEY>  (3660) 
UQWNNUPJBDWRHC-UWVGGRQHSA-N

$$$$
aCONH2Gaba
     RDKit          2D

 10  9  0  0  0  0  0  0  0  0999 V2000
    1.2717   -1.9622    0.0000 N   0  0  0  0  0  0  0  0  0  0  0  0
    1.1946   -0.4642    0.0000 C   0  0  0  0  0  0  0  0  0  0  0  0
    2.4533    0.3516    0.0000 C   0  0  0  0  0  0  0  0  0  0  0  0
    2.3762    1.8496    0.0000 O   0  0  0  0  0  0  0  0  0  0  0  0
    3.7892   -0.3306    0.0000 N   0  0  0  0  0  0  0  0  0  0  0  0
   -0.1413    0.2180    0.0000 C   0  0  0  0  0  0  0  0  0  0  0  0
   -1.4001   -0.5978    0.0000 C   0  0  0  0  0  0  0  0  0  0  0  0
   -2.7359    0.0845    0.0000 C   0  0  0  0  0  0  0  0  0  0  0  0
   -2.8131    1.5825    0.0000 O   0  0  0  0  0  0  0  0  0  0  0  0
   -3.9947   -0.7313    0.0000 O   0  0  0  0  0  0  0  0  0  0  0  0
  2  1  1  1
  2  3  1  0
  3  4  2  0
  3  5  1  0
  2  6  1  0
  6  7  1  0
  7  8  1  0
  8  9  2  0
  8 10  1  0
M  END
>  <rName>  (3661) 
aCONH2Gaba

>  <PQ_SYMBOL>  (3661) 
aCONH2Gaba

>  <FULL_NAME>  (3661) 
Isoglutamine

>  <IUPAC_CONDENSED>  (3661) 
aCONH2Gaba

>  <IUPAC>  (3661) 
(4S)-4-amino-4-carbamoylbutanoic acid

>  <TYPE>  (3661) 
Backbone

>  <CLASS>  (3661) 
gamma

>  <ANALOG>  (3661) 
X

>  <MOL_WT>  (3661) 
146.14600000000002

>  <LOGP>  (3661) 
-1.3362000000000005

>  <TPSA>  (3661) 
106.41000000000001

>  <POPULARITY>  (3661) 
27.7

>  <PROTECTED>  (3661) 
TRUE

>  <SMILES>  (3661) 
N[C@H](C(=O)N)CCC(=O)O

>  <INCHIKEY>  (3661) 
AEFLONBTGZFSGQ-VKHMYHEASA-N

$$$$
aCONHPh4-NO2Gaba
     RDKit          2D

 19 19  0  0  0  0  0  0  0  0999 V2000
   -2.8023   -2.2773    0.0000 N   0  0  0  0  0  0  0  0  0  0  0  0
   -2.5205   -0.8040    0.0000 C   0  0  0  0  0  0  0  0  0  0  0  0
   -1.1037   -0.3114    0.0000 C   0  0  0  0  0  0  0  0  0  0  0  0
   -0.8219    1.1619    0.0000 O   0  0  0  0  0  0  0  0  0  0  0  0
    0.0313   -1.2920    0.0000 N   0  0  0  0  0  0  0  0  0  0  0  0
    1.4481   -0.7994    0.0000 C   0  0  0  0  0  0  0  0  0  0  0  0
    1.7299    0.6739    0.0000 C   0  0  0  0  0  0  0  0  0  0  0  0
    3.1467    1.1665    0.0000 C   0  0  0  0  0  0  0  0  0  0  0  0
    4.2817    0.1858    0.0000 C   0  0  0  0  0  0  0  0  0  0  0  0
    3.9999   -1.2875    0.0000 C   0  0  0  0  0  0  0  0  0  0  0  0
    2.5831   -1.7801    0.0000 C   0  0  0  0  0  0  0  0  0  0  0  0
    5.6985    0.6784    0.0000 N   0  0  0  0  0  0  0  0  0  0  0  0
    5.9803    2.1517    0.0000 O   0  0  0  0  0  0  0  0  0  0  0  0
    6.8336   -0.3022    0.0000 O   0  0  0  0  0  0  0  0  0  0  0  0
   -3.6555    0.1767    0.0000 C   0  0  0  0  0  0  0  0  0  0  0  0
   -5.0723   -0.3159    0.0000 C   0  0  0  0  0  0  0  0  0  0  0  0
   -6.2073    0.6647    0.0000 C   0  0  0  0  0  0  0  0  0  0  0  0
   -5.9256    2.1380    0.0000 O   0  0  0  0  0  0  0  0  0  0  0  0
   -7.6241    0.1721    0.0000 O   0  0  0  0  0  0  0  0  0  0  0  0
  2  1  1  1
  2  3  1  0
  3  4  2  0
  3  5  1  0
  5  6  1  0
  6  7  1  0
  7  8  2  0
  8  9  1  0
  9 10  2  0
 10 11  1  0
  9 12  1  0
 12 13  2  0
 12 14  1  0
  2 15  1  0
 15 16  1  0
 16 17  1  0
 17 18  2  0
 17 19  1  0
 11  6  2  0
M  CHG  2  12   1  14  -1
M  END
>  <rName>  (3662) 
aCONHPh4-NO2Gaba

>  <PQ_SYMBOL>  (3662) 
aCONHPh4-NO2Gaba

>  <FULL_NAME>  (3662) 
(4S)-4-Amino-5-[(4-nitrophenyl)amino]-5-oxopentanoic acid

>  <IUPAC_CONDENSED>  (3662) 
aCONHPh(4-NO2)Gaba

>  <IUPAC>  (3662) 
(4S)-4-amino-5-(4-nitroanilino)-5-oxopentanoic acid

>  <TYPE>  (3662) 
Backbone

>  <CLASS>  (3662) 
gamma

>  <ANALOG>  (3662) 
X

>  <MOL_WT>  (3662) 
267.24099999999993

>  <LOGP>  (3662) 
0.7253999999999998

>  <TPSA>  (3662) 
135.56

>  <POPULARITY>  (3662) 
3.5

>  <PROTECTED>  (3662) 
TRUE

>  <SMILES>  (3662) 
N[C@H](C(=O)Nc1(ccc(cc1)[N+](=O)[O-]))CCC(=O)O

>  <INCHIKEY>  (3662) 
JXQXNQKTUGNZLD-VIFPVBQESA-N

$$$$
aCbz4-NH2Gaba
     RDKit          2D

 18 18  0  0  0  0  0  0  0  0999 V2000
   -1.9667    1.8066    0.0000 N   0  0  0  0  0  0  0  0  0  0  0  0
   -2.2136    0.3271    0.0000 C   0  0  0  0  0  0  0  0  0  0  0  0
   -1.0557   -0.6265    0.0000 C   0  0  0  0  0  0  0  0  0  0  0  0
   -1.3025   -2.1060    0.0000 O   0  0  0  0  0  0  0  0  0  0  0  0
    0.3491   -0.1005    0.0000 O   0  0  0  0  0  0  0  0  0  0  0  0
    1.5070   -1.0540    0.0000 C   0  0  0  0  0  0  0  0  0  0  0  0
    2.9117   -0.5280    0.0000 C   0  0  0  0  0  0  0  0  0  0  0  0
    3.1586    0.9515    0.0000 C   0  0  0  0  0  0  0  0  0  0  0  0
    4.5633    1.4775    0.0000 C   0  0  0  0  0  0  0  0  0  0  0  0
    5.7212    0.5240    0.0000 C   0  0  0  0  0  0  0  0  0  0  0  0
    7.1260    1.0500    0.0000 N   0  0  0  0  0  0  0  0  0  0  0  0
    5.4744   -0.9556    0.0000 C   0  0  0  0  0  0  0  0  0  0  0  0
    4.0696   -1.4816    0.0000 C   0  0  0  0  0  0  0  0  0  0  0  0
   -3.6183   -0.1989    0.0000 C   0  0  0  0  0  0  0  0  0  0  0  0
   -4.7762    0.7546    0.0000 C   0  0  0  0  0  0  0  0  0  0  0  0
   -6.1810    0.2286    0.0000 C   0  0  0  0  0  0  0  0  0  0  0  0
   -6.4278   -1.2509    0.0000 O   0  0  0  0  0  0  0  0  0  0  0  0
   -7.3389    1.1822    0.0000 O   0  0  0  0  0  0  0  0  0  0  0  0
  2  1  1  6
  2  3  1  0
  3  4  2  0
  3  5  1  0
  5  6  1  0
  6  7  1  0
  7  8  1  0
  8  9  2  0
  9 10  1  0
 10 11  1  0
 10 12  2  0
 12 13  1  0
  2 14  1  0
 14 15  1  0
 15 16  1  0
 16 17  2  0
 16 18  1  0
 13  7  2  0
M  END
>  <rName>  (3663) 
aCbz4-NH2Gaba

>  <PQ_SYMBOL>  (3663) 
aCbz4-NH2Gaba

>  <FULL_NAME>  (3663) 
(S)-4-amino-5-((4-aminobenzyl)oxy)-5-oxopentanoic acid

>  <IUPAC_CONDENSED>  (3663) 
aCbz(4-NH2)Gaba

>  <IUPAC>  (3663) 
(4S)-4-amino-4-((((4-aminophenyl)methyl)oxy)carbonyl)butanoic acid

>  <TYPE>  (3663) 
Backbone

>  <CLASS>  (3663) 
gamma

>  <ANALOG>  (3663) 
X

>  <MOL_WT>  (3663) 
252.26999999999995

>  <LOGP>  (3663) 
0.5040999999999991

>  <TPSA>  (3663) 
115.64

>  <POPULARITY>  (3663) 
3.0

>  <PROTECTED>  (3663) 
TRUE

>  <SMILES>  (3663) 
N[C@H](C(=O)OCc1(ccc(N)cc1))CCC(=O)O

>  <INCHIKEY>  (3663) 
JFYMDVPMPMTFKA-JTQLQIEISA-N

$$$$
aEtPro
     RDKit          2D

 10 10  0  0  0  0  0  0  0  0999 V2000
   -0.9564   -1.0643    0.0000 N   0  0  0  0  0  0  0  0  0  0  0  0
   -0.1967    0.2291    0.0000 C   0  0  0  0  0  0  0  0  0  0  0  0
    0.8154    1.3362    0.0000 C   0  0  0  0  0  0  0  0  0  0  0  0
    2.2802    1.0134    0.0000 C   0  0  0  0  0  0  0  0  0  0  0  0
   -1.1920    1.3513    0.0000 C   0  0  0  0  0  0  0  0  0  0  0  0
   -2.5668    0.7515    0.0000 C   0  0  0  0  0  0  0  0  0  0  0  0
   -2.4212   -0.7414    0.0000 C   0  0  0  0  0  0  0  0  0  0  0  0
    1.0102   -0.6617    0.0000 C   0  0  0  0  0  0  0  0  0  0  0  0
    2.3851   -0.0618    0.0000 O   0  0  0  0  0  0  0  0  0  0  0  0
    0.8422   -2.1522    0.0000 O   0  0  0  0  0  0  0  0  0  0  0  0
  1  2  1  0
  2  3  1  6
  3  4  1  0
  2  5  1  0
  5  6  1  0
  6  7  1  0
  2  8  1  0
  8  9  2  0
  8 10  1  0
  7  1  1  0
M  END
>  <rName>  (3664) 
aEtPro

>  <PQ_SYMBOL>  (3664) 
aEtPro

>  <FULL_NAME>  (3664) 
(S)-2-Ethylpyrrolidine-2-carboxylic acid

>  <IUPAC_CONDENSED>  (3664) 
aEtPro

>  <IUPAC>  (3664) 
(2S)-2-ethylpyrrolidine-2-carboxylic acid

>  <TYPE>  (3664) 
Backbone

>  <CLASS>  (3664) 
alpha

>  <ANALOG>  (3664) 
Pro

>  <MOL_WT>  (3664) 
143.186

>  <LOGP>  (3664) 
0.6032

>  <TPSA>  (3664) 
49.33

>  <POPULARITY>  (3664) 
2.2

>  <PROTECTED>  (3664) 
TRUE

>  <SMILES>  (3664) 
N1[C@@](CC)(CCC1)C(=O)O

>  <INCHIKEY>  (3664) 
XLWGHTVXGZCNKN-ZETCQYMHSA-N

$$$$
aEtbPro
     RDKit          2D

 10 10  0  0  0  0  0  0  0  0999 V2000
    1.6749   -1.2488    0.0000 N   0  0  0  0  0  0  0  0  0  0  0  0
    0.8743    0.0196    0.0000 C   0  0  0  0  0  0  0  0  0  0  0  0
    1.4299    1.4129    0.0000 C   0  0  0  0  0  0  0  0  0  0  0  0
    2.9143    1.6284    0.0000 C   0  0  0  0  0  0  0  0  0  0  0  0
   -0.5795   -0.3498    0.0000 C   0  0  0  0  0  0  0  0  0  0  0  0
   -0.6774   -1.8466    0.0000 C   0  0  0  0  0  0  0  0  0  0  0  0
    0.7159   -2.4022    0.0000 C   0  0  0  0  0  0  0  0  0  0  0  0
   -1.7329    0.6092    0.0000 C   0  0  0  0  0  0  0  0  0  0  0  0
   -3.1402    0.0898    0.0000 O   0  0  0  0  0  0  0  0  0  0  0  0
   -1.4791    2.0876    0.0000 O   0  0  0  0  0  0  0  0  0  0  0  0
  1  2  1  0
  2  3  1  0
  3  4  1  0
  2  5  1  0
  5  6  1  0
  6  7  1  0
  5  8  1  0
  8  9  2  0
  8 10  1  0
  7  1  1  0
M  END
>  <rName>  (3665) 
aEtbPro

>  <PQ_SYMBOL>  (3665) 
aEtbPro

>  <FULL_NAME>  (3665) 
2-Ethylpyrrolidine-3-carboxylic acid

>  <IUPAC_CONDENSED>  (3665) 
aEtbPro

>  <IUPAC>  (3665) 
2-ethylpyrrolidine-3-carboxylic acid

>  <TYPE>  (3665) 
Backbone

>  <CLASS>  (3665) 
beta

>  <ANALOG>  (3665) 
Ala

>  <MOL_WT>  (3665) 
143.186

>  <LOGP>  (3665) 
0.4591

>  <TPSA>  (3665) 
49.33

>  <POPULARITY>  (3665) 
10.1

>  <PROTECTED>  (3665) 
TRUE

>  <SMILES>  (3665) 
N1C(CC)C(CC1)C(=O)O

>  <INCHIKEY>  (3665) 
PXLUEXMNBAAHQI-UHFFFAOYSA-N

$$$$
aGuanidino-Ala
     RDKit          2D

  9  8  0  0  0  0  0  0  0  0999 V2000
    3.1492    0.4401    0.0000 N   0  0  0  0  0  0  0  0  0  0  0  0
    1.6886    0.0985    0.0000 C   0  0  0  0  0  0  0  0  0  0  0  0
    1.2542   -1.3372    0.0000 N   0  0  0  0  0  0  0  0  0  0  0  0
    0.6625    1.1926    0.0000 N   0  0  0  0  0  0  0  0  0  0  0  0
   -0.7981    0.8510    0.0000 C   0  0  0  0  0  0  0  0  0  0  0  0
   -1.8243    1.9450    0.0000 C   0  0  0  0  0  0  0  0  0  0  0  0
   -1.2325   -0.5848    0.0000 C   0  0  0  0  0  0  0  0  0  0  0  0
   -2.6931   -0.9264    0.0000 O   0  0  0  0  0  0  0  0  0  0  0  0
   -0.2064   -1.6788    0.0000 O   0  0  0  0  0  0  0  0  0  0  0  0
  1  2  1  0
  2  3  1  0
  2  4  2  0
  4  5  1  0
  5  6  1  6
  5  7  1  0
  7  8  2  0
  7  9  1  0
M  END
>  <rName>  (3666) 
aGuanidino-Ala

>  <PQ_SYMBOL>  (3666) 
aGuanidino-Ala

>  <FULL_NAME>  (3666) 
(2S)-2-(diaminomethylideneamino)propanoic acid

>  <IUPAC_CONDENSED>  (3666) 
aGuanidino-Ala

>  <IUPAC>  (3666) 
(2S)-2-((diaminomethylidene)amino)propanoic acid

>  <TYPE>  (3666) 
N-term cap

>  <CLASS>  (3666) 
n_cap

>  <ANALOG>  (3666) 
X

>  <MOL_WT>  (3666) 
131.135

>  <LOGP>  (3666) 
-1.2670999999999997

>  <TPSA>  (3666) 
101.7

>  <POPULARITY>  (3666) 
9.0

>  <PROTECTED>  (3666) 
TRUE

>  <SMILES>  (3666) 
NC(N)=N[C@@H](C)C(=O)O

>  <INCHIKEY>  (3666) 
DVNFLGLGNLXITH-REOHCLBHSA-N

$$$$
aHyp
     RDKit          2D

  9  9  0  0  0  0  0  0  0  0999 V2000
   -0.1792   -1.4541    0.0000 N   0  0  0  0  0  0  0  0  0  0  0  0
    0.4598   -0.0969    0.0000 C   0  0  0  0  0  0  0  0  0  0  0  0
   -0.6334    0.9301    0.0000 C   0  0  0  0  0  0  0  0  0  0  0  0
   -1.9481    0.2077    0.0000 C   0  0  0  0  0  0  0  0  0  0  0  0
   -3.3052    0.8467    0.0000 O   0  0  0  0  0  0  0  0  0  0  0  0
   -1.6673   -1.2657    0.0000 C   0  0  0  0  0  0  0  0  0  0  0  0
    1.9333    0.1838    0.0000 C   0  0  0  0  0  0  0  0  0  0  0  0
    2.4269    1.6003    0.0000 O   0  0  0  0  0  0  0  0  0  0  0  0
    2.9132   -0.9519    0.0000 O   0  0  0  0  0  0  0  0  0  0  0  0
  1  2  1  0
  2  3  1  0
  3  4  1  0
  4  5  1  1
  4  6  1  0
  2  7  1  1
  7  8  2  0
  7  9  1  0
  6  1  1  0
M  END
>  <rName>  (3667) 
aHyp

>  <PQ_SYMBOL>  (3667) 
aHyp

>  <FULL_NAME>  (3667) 
cis-4-Hydroxy-L-proline

>  <IUPAC_CONDENSED>  (3667) 
aHyp

>  <IUPAC>  (3667) 
(2S,4S)-4-hydroxypyrrolidine-2-carboxylic acid

>  <TYPE>  (3667) 
Backbone

>  <CLASS>  (3667) 
alpha

>  <ANALOG>  (3667) 
Pro

>  <MOL_WT>  (3667) 
131.131

>  <LOGP>  (3667) 
-1.2062000000000004

>  <TPSA>  (3667) 
69.56

>  <POPULARITY>  (3667) 
29.1

>  <PROTECTED>  (3667) 
TRUE

>  <SMILES>  (3667) 
N1[C@@H](C[C@H](O)C1)C(=O)O

>  <INCHIKEY>  (3667) 
PMMYEEVYMWASQN-IMJSIDKUSA-N

$$$$
aHyp_4SCF3
     RDKit          2D

 13 13  0  0  0  0  0  0  0  0999 V2000
    0.8560   -1.4438    0.0000 N   0  0  0  0  0  0  0  0  0  0  0  0
    1.5485   -0.1133    0.0000 C   0  0  0  0  0  0  0  0  0  0  0  0
    0.4971    0.9565    0.0000 C   0  0  0  0  0  0  0  0  0  0  0  0
   -0.8453    0.2871    0.0000 C   0  0  0  0  0  0  0  0  0  0  0  0
   -1.3707    1.6921    0.0000 O   0  0  0  0  0  0  0  0  0  0  0  0
   -0.6234   -1.1964    0.0000 C   0  0  0  0  0  0  0  0  0  0  0  0
   -2.2974   -0.0885    0.0000 C   0  0  0  0  0  0  0  0  0  0  0  0
   -3.7496   -0.4642    0.0000 F   0  0  0  0  0  0  0  0  0  0  0  0
   -2.6731    1.3636    0.0000 F   0  0  0  0  0  0  0  0  0  0  0  0
   -1.9218   -1.5407    0.0000 F   0  0  0  0  0  0  0  0  0  0  0  0
    3.0321    0.1086    0.0000 C   0  0  0  0  0  0  0  0  0  0  0  0
    3.5817    1.5042    0.0000 O   0  0  0  0  0  0  0  0  0  0  0  0
    3.9659   -1.0653    0.0000 O   0  0  0  0  0  0  0  0  0  0  0  0
  1  2  1  0
  2  3  1  0
  3  4  1  0
  4  5  1  1
  4  6  1  0
  4  7  1  0
  7  8  1  0
  7  9  1  0
  7 10  1  0
  2 11  1  1
 11 12  2  0
 11 13  1  0
  6  1  1  0
M  END
>  <rName>  (3668) 
aHyp_4SCF3

>  <PQ_SYMBOL>  (3668) 
aHyp_4SCF3

>  <FULL_NAME>  (3668) 
(2S,4S)-4-Hydroxy-4-(trifluoromethyl)pyrrolidine-2-carboxylic acid

>  <IUPAC_CONDENSED>  (3668) 
aHyp(4S-CF3)

>  <IUPAC>  (3668) 
(2S,4S)-4-hydroxy-4-(trifluoromethyl)pyrrolidine-2-carboxylic acid

>  <TYPE>  (3668) 
Backbone

>  <CLASS>  (3668) 
alpha

>  <ANALOG>  (3668) 
Pro

>  <MOL_WT>  (3668) 
199.128

>  <LOGP>  (3668) 
-0.2737000000000001

>  <TPSA>  (3668) 
69.56

>  <POPULARITY>  (3668) 
3.1

>  <PROTECTED>  (3668) 
TRUE

>  <SMILES>  (3668) 
N1[C@@H](C[C@](O)(C1)C(F)(F)F)C(=O)O

>  <INCHIKEY>  (3668) 
MMPKIKNVXAVLQW-UCORVYFPSA-N

$$$$
aHyp_4piperidyl
     RDKit          2D

 15 16  0  0  0  0  0  0  0  0999 V2000
   -1.9780    1.3585    0.0000 N   0  0  0  0  0  0  0  0  0  0  0  0
   -2.7771    0.0891    0.0000 C   0  0  0  0  0  0  0  0  0  0  0  0
   -1.8168   -1.0632    0.0000 C   0  0  0  0  0  0  0  0  0  0  0  0
   -0.4242   -0.5059    0.0000 C   0  0  0  0  0  0  0  0  0  0  0  0
    0.8452   -1.3051    0.0000 O   0  0  0  0  0  0  0  0  0  0  0  0
    2.1720   -0.6053    0.0000 C   0  0  0  0  0  0  0  0  0  0  0  0
    3.4414   -1.4044    0.0000 C   0  0  0  0  0  0  0  0  0  0  0  0
    4.7682   -0.7047    0.0000 C   0  0  0  0  0  0  0  0  0  0  0  0
    4.8256    0.7942    0.0000 N   0  0  0  0  0  0  0  0  0  0  0  0
    3.5562    1.5934    0.0000 C   0  0  0  0  0  0  0  0  0  0  0  0
    2.2294    0.8936    0.0000 C   0  0  0  0  0  0  0  0  0  0  0  0
   -0.5238    0.9908    0.0000 C   0  0  0  0  0  0  0  0  0  0  0  0
   -4.2738   -0.0105    0.0000 C   0  0  0  0  0  0  0  0  0  0  0  0
   -4.9359   -1.3565    0.0000 O   0  0  0  0  0  0  0  0  0  0  0  0
   -5.1084    1.2359    0.0000 O   0  0  0  0  0  0  0  0  0  0  0  0
  1  2  1  0
  2  3  1  0
  3  4  1  0
  4  5  1  1
  5  6  1  0
  6  7  1  0
  7  8  1  0
  8  9  1  0
  9 10  1  0
 10 11  1  0
  4 12  1  0
  2 13  1  1
 13 14  2  0
 13 15  1  0
 11  6  1  0
 12  1  1  0
M  END
>  <rName>  (3669) 
aHyp_4piperidyl

>  <PQ_SYMBOL>  (3669) 
aHyp_4piperidyl

>  <FULL_NAME>  (3669) 
aHyp(4-piperidyl)

>  <IUPAC_CONDENSED>  (3669) 
aHyp(4-piperidyl)

>  <IUPAC>  (3669) 
(2S,4S)-4-((piperidin-4-yl)oxy)pyrrolidine-2-carboxylic acid

>  <TYPE>  (3669) 
Backbone

>  <CLASS>  (3669) 
alpha

>  <ANALOG>  (3669) 
Pro

>  <MOL_WT>  (3669) 
214.26499999999996

>  <LOGP>  (3669) 
-0.42989999999999934

>  <TPSA>  (3669) 
70.59

>  <POPULARITY>  (3669) 
2.2

>  <PROTECTED>  (3669) 
TRUE

>  <SMILES>  (3669) 
N2[C@@H](C[C@H](OC1(CCNCC1))C2)C(=O)O

>  <INCHIKEY>  (3669) 
NBQNNKGFNNZOAL-IUCAKERBSA-N

$$$$
aHyp_Bn
     RDKit          2D

 16 17  0  0  0  0  0  0  0  0999 V2000
   -3.4311    1.5647    0.0000 N   0  0  0  0  0  0  0  0  0  0  0  0
   -3.3806    0.0656    0.0000 C   0  0  0  0  0  0  0  0  0  0  0  0
   -1.9392   -0.3496    0.0000 C   0  0  0  0  0  0  0  0  0  0  0  0
   -1.0989    0.8929    0.0000 C   0  0  0  0  0  0  0  0  0  0  0  0
    0.4003    0.9434    0.0000 O   0  0  0  0  0  0  0  0  0  0  0  0
    1.1936   -0.3297    0.0000 C   0  0  0  0  0  0  0  0  0  0  0  0
    2.6927   -0.2792    0.0000 C   0  0  0  0  0  0  0  0  0  0  0  0
    3.4860   -1.5522    0.0000 C   0  0  0  0  0  0  0  0  0  0  0  0
    4.9852   -1.5017    0.0000 C   0  0  0  0  0  0  0  0  0  0  0  0
    5.6910   -0.1782    0.0000 C   0  0  0  0  0  0  0  0  0  0  0  0
    4.8977    1.0949    0.0000 C   0  0  0  0  0  0  0  0  0  0  0  0
    3.3986    1.0444    0.0000 C   0  0  0  0  0  0  0  0  0  0  0  0
   -2.0209    2.0760    0.0000 C   0  0  0  0  0  0  0  0  0  0  0  0
   -4.5637   -0.8564    0.0000 C   0  0  0  0  0  0  0  0  0  0  0  0
   -4.3568   -2.3421    0.0000 O   0  0  0  0  0  0  0  0  0  0  0  0
   -5.9538   -0.2928    0.0000 O   0  0  0  0  0  0  0  0  0  0  0  0
  1  2  1  0
  2  3  1  0
  3  4  1  0
  4  5  1  1
  5  6  1  0
  6  7  1  0
  7  8  2  0
  8  9  1  0
  9 10  2  0
 10 11  1  0
 11 12  2  0
  4 13  1  0
  2 14  1  1
 14 15  2  0
 14 16  1  0
 12  7  1  0
 13  1  1  0
M  END
>  <rName>  (3670) 
aHyp_Bn

>  <PQ_SYMBOL>  (3670) 
aHyp_Bn

>  <FULL_NAME>  (3670) 
(4S)-4-(Benzyloxy)-L-proline

>  <IUPAC_CONDENSED>  (3670) 
aHyp(Bn)

>  <IUPAC>  (3670) 
(2S,4S)-4-benzyloxypyrrolidine-2-carboxylic acid

>  <TYPE>  (3670) 
Backbone

>  <CLASS>  (3670) 
alpha

>  <ANALOG>  (3670) 
Pro

>  <MOL_WT>  (3670) 
221.256

>  <LOGP>  (3670) 
1.0182999999999998

>  <TPSA>  (3670) 
58.56

>  <POPULARITY>  (3670) 
9.3

>  <PROTECTED>  (3670) 
TRUE

>  <SMILES>  (3670) 
N2[C@@H](C[C@H](OCc1(ccccc1))C2)C(=O)O

>  <INCHIKEY>  (3670) 
RJFJRYVMVNICCP-QWRGUYRKSA-N

$$$$
aHyp_Bn_2Cl
     RDKit          2D

 17 18  0  0  0  0  0  0  0  0999 V2000
   -3.5425    1.5293    0.0000 N   0  0  0  0  0  0  0  0  0  0  0  0
   -3.5344    0.0293    0.0000 C   0  0  0  0  0  0  0  0  0  0  0  0
   -2.1054   -0.4266    0.0000 C   0  0  0  0  0  0  0  0  0  0  0  0
   -1.2302    0.7917    0.0000 C   0  0  0  0  0  0  0  0  0  0  0  0
    0.2698    0.7998    0.0000 O   0  0  0  0  0  0  0  0  0  0  0  0
    1.0267   -0.4952    0.0000 C   0  0  0  0  0  0  0  0  0  0  0  0
    2.5267   -0.4872    0.0000 C   0  0  0  0  0  0  0  0  0  0  0  0
    3.2837   -1.7822    0.0000 C   0  0  0  0  0  0  0  0  0  0  0  0
    4.7836   -1.7741    0.0000 C   0  0  0  0  0  0  0  0  0  0  0  0
    5.5267   -0.4711    0.0000 C   0  0  0  0  0  0  0  0  0  0  0  0
    4.7697    0.8239    0.0000 C   0  0  0  0  0  0  0  0  0  0  0  0
    3.2697    0.8159    0.0000 C   0  0  0  0  0  0  0  0  0  0  0  0
    2.5127    2.1109    0.0000 Cl  0  0  0  0  0  0  0  0  0  0  0  0
   -2.1184    2.0005    0.0000 C   0  0  0  0  0  0  0  0  0  0  0  0
   -4.7432   -0.8589    0.0000 C   0  0  0  0  0  0  0  0  0  0  0  0
   -4.5784   -2.3498    0.0000 O   0  0  0  0  0  0  0  0  0  0  0  0
   -6.1168   -0.2562    0.0000 O   0  0  0  0  0  0  0  0  0  0  0  0
  1  2  1  0
  2  3  1  0
  3  4  1  0
  4  5  1  1
  5  6  1  0
  6  7  1  0
  7  8  2  0
  8  9  1  0
  9 10  2  0
 10 11  1  0
 11 12  2  0
 12 13  1  0
  4 14  1  0
  2 15  1  1
 15 16  2  0
 15 17  1  0
 12  7  1  0
 14  1  1  0
M  END
>  <rName>  (3671) 
aHyp_Bn_2Cl

>  <PQ_SYMBOL>  (3671) 
aHyp_Bn_2Cl

>  <FULL_NAME>  (3671) 
(2S,4S)-4-[(2-chlorophenyl)methoxy]pyrrolidine-2-carboxylic acid

>  <IUPAC_CONDENSED>  (3671) 
aHyp(Bn(2-Cl))

>  <IUPAC>  (3671) 
(2S,4S)-4-[(2-chlorophenyl)methoxy]pyrrolidine-2-carboxylic acid

>  <TYPE>  (3671) 
Backbone

>  <CLASS>  (3671) 
alpha

>  <ANALOG>  (3671) 
Pro

>  <MOL_WT>  (3671) 
255.701

>  <LOGP>  (3671) 
1.6717

>  <TPSA>  (3671) 
58.56

>  <POPULARITY>  (3671) 
2.2

>  <PROTECTED>  (3671) 
TRUE

>  <SMILES>  (3671) 
N2[C@@H](C[C@H](OCc1(ccccc1Cl))C2)C(=O)O

>  <INCHIKEY>  (3671) 
AEBZJUSOMHHCMY-ONGXEEELSA-N

$$$$
aHyp_CHF2
     RDKit          2D

 12 12  0  0  0  0  0  0  0  0999 V2000
    1.5111   -1.6952    0.0000 N   0  0  0  0  0  0  0  0  0  0  0  0
    1.5414   -0.1955    0.0000 C   0  0  0  0  0  0  0  0  0  0  0  0
    0.1245    0.2967    0.0000 C   0  0  0  0  0  0  0  0  0  0  0  0
   -0.7815   -0.8988    0.0000 C   0  0  0  0  0  0  0  0  0  0  0  0
   -2.2812   -0.8686    0.0000 O   0  0  0  0  0  0  0  0  0  0  0  0
   -3.0049    0.4453    0.0000 C   0  0  0  0  0  0  0  0  0  0  0  0
   -4.5046    0.4756    0.0000 F   0  0  0  0  0  0  0  0  0  0  0  0
   -2.2288    1.7290    0.0000 F   0  0  0  0  0  0  0  0  0  0  0  0
    0.0755   -2.1299    0.0000 C   0  0  0  0  0  0  0  0  0  0  0  0
    2.7725    0.6615    0.0000 C   0  0  0  0  0  0  0  0  0  0  0  0
    2.6458    2.1561    0.0000 O   0  0  0  0  0  0  0  0  0  0  0  0
    4.1302    0.0239    0.0000 O   0  0  0  0  0  0  0  0  0  0  0  0
  1  2  1  0
  2  3  1  0
  3  4  1  0
  4  5  1  1
  5  6  1  0
  6  7  1  0
  6  8  1  0
  4  9  1  0
  2 10  1  1
 10 11  2  0
 10 12  1  0
  9  1  1  0
M  END
>  <rName>  (3672) 
aHyp_CHF2

>  <PQ_SYMBOL>  (3672) 
aHyp_CHF2

>  <FULL_NAME>  (3672) 
(2S,4S)-4-(difluoromethoxy)pyrrolidine-2-carboxylic acid

>  <IUPAC_CONDENSED>  (3672) 
aHyp(CHF2)

>  <IUPAC>  (3672) 
(2S,4S)-4-((difluoromethyl)oxy)pyrrolidine-2-carboxylic acid

>  <TYPE>  (3672) 
Backbone

>  <CLASS>  (3672) 
alpha

>  <ANALOG>  (3672) 
Pro

>  <MOL_WT>  (3672) 
181.138

>  <LOGP>  (3672) 
0.0406999999999999

>  <TPSA>  (3672) 
58.56

>  <POPULARITY>  (3672) 
4.5

>  <PROTECTED>  (3672) 
TRUE

>  <SMILES>  (3672) 
N1[C@@H](C[C@H](OC(F)F)C1)C(=O)O

>  <INCHIKEY>  (3672) 
YYWVQGXOBZCIRD-IMJSIDKUSA-N

$$$$
aHyp_Me
     RDKit          2D

 10 10  0  0  0  0  0  0  0  0999 V2000
    0.5059   -1.6189    0.0000 N   0  0  0  0  0  0  0  0  0  0  0  0
    0.8536   -0.1598    0.0000 C   0  0  0  0  0  0  0  0  0  0  0  0
   -0.4267    0.6218    0.0000 C   0  0  0  0  0  0  0  0  0  0  0  0
   -1.5656   -0.3543    0.0000 C   0  0  0  0  0  0  0  0  0  0  0  0
   -3.0248   -0.0066    0.0000 O   0  0  0  0  0  0  0  0  0  0  0  0
   -3.4533    1.4309    0.0000 C   0  0  0  0  0  0  0  0  0  0  0  0
   -0.9893   -1.7392    0.0000 C   0  0  0  0  0  0  0  0  0  0  0  0
    2.2384    0.4166    0.0000 C   0  0  0  0  0  0  0  0  0  0  0  0
    2.4317    1.9041    0.0000 O   0  0  0  0  0  0  0  0  0  0  0  0
    3.4300   -0.4945    0.0000 O   0  0  0  0  0  0  0  0  0  0  0  0
  1  2  1  0
  2  3  1  0
  3  4  1  0
  4  5  1  1
  5  6  1  0
  4  7  1  0
  2  8  1  1
  8  9  2  0
  8 10  1  0
  7  1  1  0
M  END
>  <rName>  (3673) 
aHyp_Me

>  <PQ_SYMBOL>  (3673) 
aHyp_Me

>  <FULL_NAME>  (3673) 
(2S,4S)-4-methoxypyrrolidine-2-carboxylic acid

>  <IUPAC_CONDENSED>  (3673) 
aHyp(Me)

>  <IUPAC>  (3673) 
(2S,4S)-4-methoxypyrrolidine-2-carboxylic acid

>  <TYPE>  (3673) 
Backbone

>  <CLASS>  (3673) 
alpha

>  <ANALOG>  (3673) 
Pro

>  <MOL_WT>  (3673) 
145.15800000000002

>  <LOGP>  (3673) 
-0.5521

>  <TPSA>  (3673) 
58.56

>  <POPULARITY>  (3673) 
11.7

>  <PROTECTED>  (3673) 
TRUE

>  <SMILES>  (3673) 
N1[C@@H](C[C@H](OC)C1)C(=O)O

>  <INCHIKEY>  (3673) 
RNXKXUOGQKYKTH-WHFBIAKZSA-N

$$$$
aHyp_Ph
     RDKit          2D

 15 16  0  0  0  0  0  0  0  0999 V2000
   -1.9780    1.3585    0.0000 N   0  0  0  0  0  0  0  0  0  0  0  0
   -2.7771    0.0891    0.0000 C   0  0  0  0  0  0  0  0  0  0  0  0
   -1.8168   -1.0632    0.0000 C   0  0  0  0  0  0  0  0  0  0  0  0
   -0.4242   -0.5059    0.0000 C   0  0  0  0  0  0  0  0  0  0  0  0
    0.8452   -1.3051    0.0000 O   0  0  0  0  0  0  0  0  0  0  0  0
    2.1720   -0.6053    0.0000 C   0  0  0  0  0  0  0  0  0  0  0  0
    3.4414   -1.4044    0.0000 C   0  0  0  0  0  0  0  0  0  0  0  0
    4.7682   -0.7047    0.0000 C   0  0  0  0  0  0  0  0  0  0  0  0
    4.8256    0.7942    0.0000 C   0  0  0  0  0  0  0  0  0  0  0  0
    3.5562    1.5934    0.0000 C   0  0  0  0  0  0  0  0  0  0  0  0
    2.2294    0.8936    0.0000 C   0  0  0  0  0  0  0  0  0  0  0  0
   -0.5238    0.9908    0.0000 C   0  0  0  0  0  0  0  0  0  0  0  0
   -4.2738   -0.0105    0.0000 C   0  0  0  0  0  0  0  0  0  0  0  0
   -4.9359   -1.3565    0.0000 O   0  0  0  0  0  0  0  0  0  0  0  0
   -5.1084    1.2359    0.0000 O   0  0  0  0  0  0  0  0  0  0  0  0
  1  2  1  0
  2  3  1  0
  3  4  1  0
  4  5  1  1
  5  6  1  0
  6  7  2  0
  7  8  1  0
  8  9  2  0
  9 10  1  0
 10 11  2  0
  4 12  1  0
  2 13  1  1
 13 14  2  0
 13 15  1  0
 11  6  1  0
 12  1  1  0
M  END
>  <rName>  (3674) 
aHyp_Ph

>  <PQ_SYMBOL>  (3674) 
aHyp_Ph

>  <FULL_NAME>  (3674) 
(2S,4S)-4-phenoxypyrrolidine-2-carboxylic acid

>  <IUPAC_CONDENSED>  (3674) 
aHyp(Ph)

>  <IUPAC>  (3674) 
(2S,4S)-4-phenoxypyrrolidine-2-carboxylic acid

>  <TYPE>  (3674) 
Backbone

>  <CLASS>  (3674) 
alpha

>  <ANALOG>  (3674) 
Pro

>  <MOL_WT>  (3674) 
207.22899999999998

>  <LOGP>  (3674) 
0.8805000000000001

>  <TPSA>  (3674) 
58.56

>  <POPULARITY>  (3674) 
9.2

>  <PROTECTED>  (3674) 
TRUE

>  <SMILES>  (3674) 
N2[C@@H](C[C@H](Oc1(ccccc1))C2)C(=O)O

>  <INCHIKEY>  (3674) 
RWSHAZYNUOFZMI-UWVGGRQHSA-N

$$$$
aHyp_Ph_4I
     RDKit          2D

 16 17  0  0  0  0  0  0  0  0999 V2000
   -2.3003    1.3750    0.0000 N   0  0  0  0  0  0  0  0  0  0  0  0
   -3.1583    0.1447    0.0000 C   0  0  0  0  0  0  0  0  0  0  0  0
   -2.2534   -1.0516    0.0000 C   0  0  0  0  0  0  0  0  0  0  0  0
   -0.8360   -0.5605    0.0000 C   0  0  0  0  0  0  0  0  0  0  0  0
    0.3943   -1.4186    0.0000 O   0  0  0  0  0  0  0  0  0  0  0  0
    1.7526   -0.7821    0.0000 C   0  0  0  0  0  0  0  0  0  0  0  0
    2.9830   -1.6401    0.0000 C   0  0  0  0  0  0  0  0  0  0  0  0
    4.3412   -1.0036    0.0000 C   0  0  0  0  0  0  0  0  0  0  0  0
    4.4691    0.4909    0.0000 C   0  0  0  0  0  0  0  0  0  0  0  0
    5.8274    1.1274    0.0000 I   0  0  0  0  0  0  0  0  0  0  0  0
    3.2388    1.3489    0.0000 C   0  0  0  0  0  0  0  0  0  0  0  0
    1.8805    0.7124    0.0000 C   0  0  0  0  0  0  0  0  0  0  0  0
   -0.8650    0.9392    0.0000 C   0  0  0  0  0  0  0  0  0  0  0  0
   -4.6581    0.1157    0.0000 C   0  0  0  0  0  0  0  0  0  0  0  0
   -5.3828   -1.1976    0.0000 O   0  0  0  0  0  0  0  0  0  0  0  0
   -5.4330    1.4000    0.0000 O   0  0  0  0  0  0  0  0  0  0  0  0
  1  2  1  0
  2  3  1  0
  3  4  1  0
  4  5  1  1
  5  6  1  0
  6  7  1  0
  7  8  2  0
  8  9  1  0
  9 10  1  0
  9 11  2  0
 11 12  1  0
  4 13  1  0
  2 14  1  1
 14 15  2  0
 14 16  1  0
 12  6  2  0
 13  1  1  0
M  END
>  <rName>  (3675) 
aHyp_Ph_4I

>  <PQ_SYMBOL>  (3675) 
aHyp_Ph_4I

>  <FULL_NAME>  (3675) 
(2S,4S)-4-(4-iodophenoxy)pyrrolidine-2-carboxylic acid

>  <IUPAC_CONDENSED>  (3675) 
aHyp(Ph(4-I))

>  <IUPAC>  (3675) 
(2S,4S)-4-(4-iodophenoxy)pyrrolidine-2-carboxylic acid

>  <TYPE>  (3675) 
Backbone

>  <CLASS>  (3675) 
alpha

>  <ANALOG>  (3675) 
Pro

>  <MOL_WT>  (3675) 
333.12500000000006

>  <LOGP>  (3675) 
1.4851

>  <TPSA>  (3675) 
58.56

>  <POPULARITY>  (3675) 
2.2

>  <PROTECTED>  (3675) 
TRUE

>  <SMILES>  (3675) 
N2[C@@H](C[C@H](Oc1(ccc(I)cc1))C2)C(=O)O

>  <INCHIKEY>  (3675) 
QHDTYXVHDXZMJV-UWVGGRQHSA-N

$$$$
aHyp_amino
     RDKit          2D

 10 10  0  0  0  0  0  0  0  0999 V2000
    0.5059   -1.6189    0.0000 N   0  0  0  0  0  0  0  0  0  0  0  0
    0.8536   -0.1598    0.0000 C   0  0  0  0  0  0  0  0  0  0  0  0
   -0.4267    0.6218    0.0000 C   0  0  0  0  0  0  0  0  0  0  0  0
   -1.5656   -0.3543    0.0000 C   0  0  0  0  0  0  0  0  0  0  0  0
   -3.0248   -0.0066    0.0000 O   0  0  0  0  0  0  0  0  0  0  0  0
   -3.4533    1.4309    0.0000 N   0  0  0  0  0  0  0  0  0  0  0  0
   -0.9893   -1.7392    0.0000 C   0  0  0  0  0  0  0  0  0  0  0  0
    2.2384    0.4166    0.0000 C   0  0  0  0  0  0  0  0  0  0  0  0
    2.4317    1.9041    0.0000 O   0  0  0  0  0  0  0  0  0  0  0  0
    3.4300   -0.4945    0.0000 O   0  0  0  0  0  0  0  0  0  0  0  0
  1  2  1  0
  2  3  1  0
  3  4  1  0
  4  5  1  1
  5  6  1  0
  4  7  1  0
  2  8  1  1
  8  9  2  0
  8 10  1  0
  7  1  1  0
M  END
>  <rName>  (3676) 
aHyp_amino

>  <PQ_SYMBOL>  (3676) 
aHyp_amino

>  <FULL_NAME>  (3676) 
(2S,4S)-4-(Aminooxy)pyrrolidine-2-carboxylic acid

>  <IUPAC_CONDENSED>  (3676) 
aHyp(amino)

>  <IUPAC>  (3676) 
(2S,4S)-4-aminooxypyrrolidine-2-carboxylic acid

>  <TYPE>  (3676) 
Backbone

>  <CLASS>  (3676) 
alpha

>  <ANALOG>  (3676) 
Pro

>  <MOL_WT>  (3676) 
146.14600000000002

>  <LOGP>  (3676) 
-1.3081999999999998

>  <TPSA>  (3676) 
84.58

>  <POPULARITY>  (3676) 
3.5

>  <PROTECTED>  (3676) 
TRUE

>  <SMILES>  (3676) 
N1[C@@H](C[C@H](ON)C1)C(=O)O

>  <INCHIKEY>  (3676) 
CFHRFEWVIOURLB-IMJSIDKUSA-N

$$$$
aHyp_cHex
     RDKit          2D

 15 16  0  0  0  0  0  0  0  0999 V2000
   -1.9780    1.3585    0.0000 N   0  0  0  0  0  0  0  0  0  0  0  0
   -2.7771    0.0891    0.0000 C   0  0  0  0  0  0  0  0  0  0  0  0
   -1.8168   -1.0632    0.0000 C   0  0  0  0  0  0  0  0  0  0  0  0
   -0.4242   -0.5059    0.0000 C   0  0  0  0  0  0  0  0  0  0  0  0
    0.8452   -1.3051    0.0000 O   0  0  0  0  0  0  0  0  0  0  0  0
    2.1720   -0.6053    0.0000 C   0  0  0  0  0  0  0  0  0  0  0  0
    3.4414   -1.4044    0.0000 C   0  0  0  0  0  0  0  0  0  0  0  0
    4.7682   -0.7047    0.0000 C   0  0  0  0  0  0  0  0  0  0  0  0
    4.8256    0.7942    0.0000 C   0  0  0  0  0  0  0  0  0  0  0  0
    3.5562    1.5934    0.0000 C   0  0  0  0  0  0  0  0  0  0  0  0
    2.2294    0.8936    0.0000 C   0  0  0  0  0  0  0  0  0  0  0  0
   -0.5238    0.9908    0.0000 C   0  0  0  0  0  0  0  0  0  0  0  0
   -4.2738   -0.0105    0.0000 C   0  0  0  0  0  0  0  0  0  0  0  0
   -4.9359   -1.3565    0.0000 O   0  0  0  0  0  0  0  0  0  0  0  0
   -5.1084    1.2359    0.0000 O   0  0  0  0  0  0  0  0  0  0  0  0
  1  2  1  0
  2  3  1  0
  3  4  1  0
  4  5  1  1
  5  6  1  0
  6  7  1  0
  7  8  1  0
  8  9  1  0
  9 10  1  0
 10 11  1  0
  4 12  1  0
  2 13  1  1
 13 14  2  0
 13 15  1  0
 11  6  1  0
 12  1  1  0
M  END
>  <rName>  (3677) 
aHyp_cHex

>  <PQ_SYMBOL>  (3677) 
aHyp_cHex

>  <FULL_NAME>  (3677) 
O=C(O)[C@@H]1C[C@H](OC2CCCCC2)CN1

>  <IUPAC_CONDENSED>  (3677) 
aHyp(cHex)

>  <IUPAC>  (3677) 
(2S,4S)-4-(cyclohexyloxy)pyrrolidine-2-carboxylic acid

>  <TYPE>  (3677) 
Backbone

>  <CLASS>  (3677) 
alpha

>  <ANALOG>  (3677) 
Pro

>  <MOL_WT>  (3677) 
213.27699999999996

>  <LOGP>  (3677) 
1.1507999999999996

>  <TPSA>  (3677) 
58.56

>  <POPULARITY>  (3677) 
3.6

>  <PROTECTED>  (3677) 
TRUE

>  <SMILES>  (3677) 
N2[C@@H](C[C@H](OC1(CCCCC1))C2)C(=O)O

>  <INCHIKEY>  (3677) 
ABHXQYBHDDVLPC-UWVGGRQHSA-N

$$$$
aHyp_prop2ynyl
     RDKit          2D

 12 12  0  0  0  0  0  0  0  0999 V2000
    1.8182   -1.6019    0.0000 N   0  0  0  0  0  0  0  0  0  0  0  0
    1.8556   -0.1023    0.0000 C   0  0  0  0  0  0  0  0  0  0  0  0
    0.4409    0.3965    0.0000 C   0  0  0  0  0  0  0  0  0  0  0  0
   -0.4706   -0.7947    0.0000 C   0  0  0  0  0  0  0  0  0  0  0  0
   -1.9702   -0.7574    0.0000 O   0  0  0  0  0  0  0  0  0  0  0  0
   -2.6876    0.5599    0.0000 C   0  0  0  0  0  0  0  0  0  0  0  0
   -4.1872    0.5972    0.0000 C   0  0  0  0  0  0  0  0  0  0  0  0
   -5.6867    0.6345    0.0000 C   0  0  0  0  0  0  0  0  0  0  0  0
    0.3806   -2.0298    0.0000 C   0  0  0  0  0  0  0  0  0  0  0  0
    3.0906    0.7489    0.0000 C   0  0  0  0  0  0  0  0  0  0  0  0
    2.9710    2.2441    0.0000 O   0  0  0  0  0  0  0  0  0  0  0  0
    4.4454    0.1049    0.0000 O   0  0  0  0  0  0  0  0  0  0  0  0
  1  2  1  0
  2  3  1  0
  3  4  1  0
  4  5  1  1
  5  6  1  0
  6  7  1  0
  7  8  3  0
  4  9  1  0
  2 10  1  1
 10 11  2  0
 10 12  1  0
  9  1  1  0
M  END
>  <rName>  (3678) 
aHyp_prop2ynyl

>  <PQ_SYMBOL>  (3678) 
aHyp_prop2ynyl

>  <FULL_NAME>  (3678) 
(4S)-4-(prop-2-yn-1-yloxy)-L-proline

>  <IUPAC_CONDENSED>  (3678) 
aHyp(prop-2-ynyl)

>  <IUPAC>  (3678) 
(2S,4S)-4-prop-2-ynoxypyrrolidine-2-carboxylic acid

>  <TYPE>  (3678) 
Backbone

>  <CLASS>  (3678) 
alpha

>  <ANALOG>  (3678) 
Pro

>  <MOL_WT>  (3678) 
169.18

>  <LOGP>  (3678) 
-0.5487

>  <TPSA>  (3678) 
58.56

>  <POPULARITY>  (3678) 
2.2

>  <PROTECTED>  (3678) 
TRUE

>  <SMILES>  (3678) 
N1[C@@H](C[C@H](OCC#C)C1)C(=O)O

>  <INCHIKEY>  (3678) 
ZXFXGGZFTHVWKF-BQBZGAKWSA-N

$$$$
aHyp_pyrid4yl
     RDKit          2D

 15 16  0  0  0  0  0  0  0  0999 V2000
   -1.9780    1.3585    0.0000 N   0  0  0  0  0  0  0  0  0  0  0  0
   -2.7771    0.0891    0.0000 C   0  0  0  0  0  0  0  0  0  0  0  0
   -1.8168   -1.0632    0.0000 C   0  0  0  0  0  0  0  0  0  0  0  0
   -0.4242   -0.5059    0.0000 C   0  0  0  0  0  0  0  0  0  0  0  0
    0.8452   -1.3051    0.0000 O   0  0  0  0  0  0  0  0  0  0  0  0
    2.1720   -0.6053    0.0000 C   0  0  0  0  0  0  0  0  0  0  0  0
    3.4414   -1.4044    0.0000 C   0  0  0  0  0  0  0  0  0  0  0  0
    4.7682   -0.7047    0.0000 C   0  0  0  0  0  0  0  0  0  0  0  0
    4.8256    0.7942    0.0000 N   0  0  0  0  0  0  0  0  0  0  0  0
    3.5562    1.5934    0.0000 C   0  0  0  0  0  0  0  0  0  0  0  0
    2.2294    0.8936    0.0000 C   0  0  0  0  0  0  0  0  0  0  0  0
   -0.5238    0.9908    0.0000 C   0  0  0  0  0  0  0  0  0  0  0  0
   -4.2738   -0.0105    0.0000 C   0  0  0  0  0  0  0  0  0  0  0  0
   -4.9359   -1.3565    0.0000 O   0  0  0  0  0  0  0  0  0  0  0  0
   -5.1084    1.2359    0.0000 O   0  0  0  0  0  0  0  0  0  0  0  0
  1  2  1  0
  2  3  1  0
  3  4  1  0
  4  5  1  1
  5  6  1  0
  6  7  1  0
  7  8  2  0
  8  9  1  0
  9 10  2  0
 10 11  1  0
  4 12  1  0
  2 13  1  1
 13 14  2  0
 13 15  1  0
 11  6  2  0
 12  1  1  0
M  END
>  <rName>  (3679) 
aHyp_pyrid4yl

>  <PQ_SYMBOL>  (3679) 
aHyp_pyrid4yl

>  <FULL_NAME>  (3679) 
(2S,4S)-4-(pyridin-4-yloxy)pyrrolidine-2-carboxylic acid

>  <IUPAC_CONDENSED>  (3679) 
aHyp(pyrid-4-yl)

>  <IUPAC>  (3679) 
(2S,4S)-4-((pyridin-4-yl)oxy)pyrrolidine-2-carboxylic acid

>  <TYPE>  (3679) 
Backbone

>  <CLASS>  (3679) 
alpha

>  <ANALOG>  (3679) 
Pro

>  <MOL_WT>  (3679) 
208.21699999999998

>  <LOGP>  (3679) 
0.2755

>  <TPSA>  (3679) 
71.45

>  <POPULARITY>  (3679) 
5.6

>  <PROTECTED>  (3679) 
TRUE

>  <SMILES>  (3679) 
N2[C@@H](C[C@H](Oc1(ccncc1))C2)C(=O)O

>  <INCHIKEY>  (3679) 
YYSUHXTTYMDILY-IUCAKERBSA-N

$$$$
aIle
     RDKit          2D

  9  8  0  0  0  0  0  0  0  0999 V2000
    0.0000    2.3333    0.0000 N   0  0  0  0  0  0  0  0  0  0  0  0
    0.0000    0.8333    0.0000 C   0  0  0  0  0  0  0  0  0  0  0  0
   -1.2990    0.0833    0.0000 C   0  0  0  0  0  0  0  0  0  0  0  0
   -2.5981    0.8333    0.0000 C   0  0  0  0  0  0  0  0  0  0  0  0
   -1.2990   -1.4167    0.0000 C   0  0  0  0  0  0  0  0  0  0  0  0
   -0.0000   -2.1667    0.0000 C   0  0  0  0  0  0  0  0  0  0  0  0
    1.2990    0.0833    0.0000 C   0  0  0  0  0  0  0  0  0  0  0  0
    1.2990   -1.4167    0.0000 O   0  0  0  0  0  0  0  0  0  0  0  0
    2.5981    0.8333    0.0000 O   0  0  0  0  0  0  0  0  0  0  0  0
  2  1  1  6
  2  3  1  0
  3  4  1  1
  3  5  1  0
  5  6  1  0
  2  7  1  0
  7  8  2  0
  7  9  1  0
M  END
>  <rName>  (3680) 
aIle

>  <PQ_SYMBOL>  (3680) 
aIle

>  <FULL_NAME>  (3680) 
Allo-L-Isoleucine, (2S,3R)-Isoleucine

>  <IUPAC_CONDENSED>  (3680) 
aIle

>  <IUPAC>  (3680) 
(2S,3R)-2-amino-3-methylpentanoic acid

>  <TYPE>  (3680) 
Backbone

>  <CLASS>  (3680) 
alpha

>  <ANALOG>  (3680) 
Ile

>  <MOL_WT>  (3680) 
131.175

>  <LOGP>  (3680) 
0.44439999999999985

>  <TPSA>  (3680) 
63.32000000000001

>  <POPULARITY>  (3680) 
43.9

>  <PROTECTED>  (3680) 
TRUE

>  <SMILES>  (3680) 
N[C@@H]([C@H](C)CC)C(=O)O

>  <INCHIKEY>  (3680) 
AGPKZVBTJJNPAG-UHNVWZDZSA-N

$$$$
aIle-OMe
     RDKit          2D

 10  9  0  0  0  0  0  0  0  0999 V2000
   -0.3512    2.3311    0.0000 N   0  0  0  0  0  0  0  0  0  0  0  0
   -0.3760    0.8313    0.0000 C   0  0  0  0  0  0  0  0  0  0  0  0
   -1.6873    0.1029    0.0000 C   0  0  0  0  0  0  0  0  0  0  0  0
   -2.9737    0.8743    0.0000 C   0  0  0  0  0  0  0  0  0  0  0  0
   -1.7121   -1.3969    0.0000 C   0  0  0  0  0  0  0  0  0  0  0  0
   -0.4256   -2.1683    0.0000 C   0  0  0  0  0  0  0  0  0  0  0  0
    0.9104    0.0599    0.0000 C   0  0  0  0  0  0  0  0  0  0  0  0
    0.8856   -1.4398    0.0000 O   0  0  0  0  0  0  0  0  0  0  0  0
    2.2217    0.7884    0.0000 O   0  0  0  0  0  0  0  0  0  0  0  0
    3.5082    0.0170    0.0000 C   0  0  0  0  0  0  0  0  0  0  0  0
  2  1  1  6
  2  3  1  0
  3  4  1  1
  3  5  1  0
  5  6  1  0
  2  7  1  0
  7  8  2  0
  7  9  1  0
  9 10  1  0
M  END
>  <rName>  (3681) 
aIle-OMe

>  <PQ_SYMBOL>  (3681) 
aIle-OMe

>  <FULL_NAME>  (3681) 
L-allo-Isoleucine methyl ester

>  <IUPAC_CONDENSED>  (3681) 
aIle-OMe

>  <IUPAC>  (3681) 
methyl (2S,3R)-2-amino-3-methylpentanoate

>  <TYPE>  (3681) 
C-term cap

>  <CLASS>  (3681) 
c_cap

>  <ANALOG>  (3681) 
X

>  <MOL_WT>  (3681) 
145.202

>  <LOGP>  (3681) 
0.5327999999999997

>  <TPSA>  (3681) 
52.32000000000001

>  <POPULARITY>  (3681) 
9.2

>  <PROTECTED>  (3681) 
TRUE

>  <SMILES>  (3681) 
N[C@@H]([C@H](C)CC)C(=O)OC

>  <INCHIKEY>  (3681) 
YXMMTUJDQTVJEN-RITPCOANSA-N

$$$$
aIle_3Me
     RDKit          2D

 10  9  0  0  0  0  0  0  0  0999 V2000
    1.2586    1.9934    0.0000 N   0  0  0  0  0  0  0  0  0  0  0  0
    0.6785    0.6101    0.0000 C   0  0  0  0  0  0  0  0  0  0  0  0
   -0.8096    0.4209    0.0000 C   0  0  0  0  0  0  0  0  0  0  0  0
   -0.9988    1.9089    0.0000 C   0  0  0  0  0  0  0  0  0  0  0  0
   -0.6203   -1.0672    0.0000 C   0  0  0  0  0  0  0  0  0  0  0  0
   -2.2976    0.2316    0.0000 C   0  0  0  0  0  0  0  0  0  0  0  0
   -2.8777   -1.1516    0.0000 C   0  0  0  0  0  0  0  0  0  0  0  0
    1.5863   -0.5840    0.0000 C   0  0  0  0  0  0  0  0  0  0  0  0
    1.0062   -1.9672    0.0000 O   0  0  0  0  0  0  0  0  0  0  0  0
    3.0744   -0.3947    0.0000 O   0  0  0  0  0  0  0  0  0  0  0  0
  2  1  1  6
  2  3  1  0
  3  4  1  0
  3  5  1  0
  3  6  1  0
  6  7  1  0
  2  8  1  0
  8  9  2  0
  8 10  1  0
M  END
>  <rName>  (3682) 
aIle_3Me

>  <PQ_SYMBOL>  (3682) 
aIle_3Me

>  <FULL_NAME>  (3682) 
3-Methyl-L-Alloisoleucine

>  <IUPAC_CONDENSED>  (3682) 
aIle(3-Me)

>  <IUPAC>  (3682) 
(2S)-2-amino-3,3-dimethylpentanoic acid

>  <TYPE>  (3682) 
Backbone

>  <CLASS>  (3682) 
alpha

>  <ANALOG>  (3682) 
Val

>  <MOL_WT>  (3682) 
145.202

>  <LOGP>  (3682) 
0.8344999999999998

>  <TPSA>  (3682) 
63.32000000000001

>  <POPULARITY>  (3682) 
18.7

>  <PROTECTED>  (3682) 
TRUE

>  <SMILES>  (3682) 
N[C@@H](C(C)(C)CC)C(=O)O

>  <INCHIKEY>  (3682) 
AQIFZAKDNFZWND-RXMQYKEDSA-N

$$$$
aMe2Nal
     RDKit          2D

 17 18  0  0  0  0  0  0  0  0999 V2000
   -1.3050    1.2999    0.0000 N   0  0  0  0  0  0  0  0  0  0  0  0
   -2.6237    0.5850    0.0000 C   0  0  0  0  0  0  0  0  0  0  0  0
   -3.3386    1.9037    0.0000 C   0  0  0  0  0  0  0  0  0  0  0  0
   -1.9088   -0.7337    0.0000 C   0  0  0  0  0  0  0  0  0  0  0  0
   -0.4093   -0.7739    0.0000 C   0  0  0  0  0  0  0  0  0  0  0  0
    0.3056   -2.0926    0.0000 C   0  0  0  0  0  0  0  0  0  0  0  0
    1.8051   -2.1328    0.0000 C   0  0  0  0  0  0  0  0  0  0  0  0
    2.5896   -0.8544    0.0000 C   0  0  0  0  0  0  0  0  0  0  0  0
    4.0891   -0.8946    0.0000 C   0  0  0  0  0  0  0  0  0  0  0  0
    4.8736    0.3839    0.0000 C   0  0  0  0  0  0  0  0  0  0  0  0
    4.1587    1.7026    0.0000 C   0  0  0  0  0  0  0  0  0  0  0  0
    2.6593    1.7428    0.0000 C   0  0  0  0  0  0  0  0  0  0  0  0
    1.8747    0.4643    0.0000 C   0  0  0  0  0  0  0  0  0  0  0  0
    0.3753    0.5045    0.0000 C   0  0  0  0  0  0  0  0  0  0  0  0
   -3.9423   -0.1299    0.0000 C   0  0  0  0  0  0  0  0  0  0  0  0
   -5.2208    0.6546    0.0000 O   0  0  0  0  0  0  0  0  0  0  0  0
   -3.9826   -1.6294    0.0000 O   0  0  0  0  0  0  0  0  0  0  0  0
  1  2  1  0
  2  3  1  6
  2  4  1  0
  4  5  1  0
  5  6  1  0
  6  7  2  0
  7  8  1  0
  8  9  2  0
  9 10  1  0
 10 11  2  0
 11 12  1  0
 12 13  2  0
 13 14  1  0
  2 15  1  0
 15 16  2  0
 15 17  1  0
 13  8  1  0
 14  5  2  0
M  END
>  <rName>  (3683) 
aMe2Nal

>  <PQ_SYMBOL>  (3683) 
aMe2Nal

>  <FULL_NAME>  (3683) 
(2S)-2-amino-2-methyl-3-(2-naphthyl)propanoic acid

>  <IUPAC_CONDENSED>  (3683) 
aMe2Nal

>  <IUPAC>  (3683) 
(2S)-2-amino-2-methyl-3-naphthalen-2-ylpropanoic acid

>  <TYPE>  (3683) 
Backbone

>  <CLASS>  (3683) 
alpha

>  <ANALOG>  (3683) 
Phe

>  <MOL_WT>  (3683) 
229.279

>  <LOGP>  (3683) 
2.1843

>  <TPSA>  (3683) 
63.32000000000001

>  <POPULARITY>  (3683) 
2.2

>  <PROTECTED>  (3683) 
TRUE

>  <SMILES>  (3683) 
N[C@@](C)(Cc2(ccc1(ccccc1c2)))C(=O)O

>  <INCHIKEY>  (3683) 
KHIAMTDWCDARAE-AWEZNQCLSA-N

$$$$
aMe5-Ava_5S
     RDKit          2D

  9  8  0  0  0  0  0  0  0  0999 V2000
   -2.5981    1.5000    0.0000 N   0  0  0  0  0  0  0  0  0  0  0  0
   -2.5981    0.0000    0.0000 C   0  0  0  0  0  0  0  0  0  0  0  0
   -3.8971   -0.7500    0.0000 C   0  0  0  0  0  0  0  0  0  0  0  0
   -1.2990   -0.7500    0.0000 C   0  0  0  0  0  0  0  0  0  0  0  0
    0.0000    0.0000    0.0000 C   0  0  0  0  0  0  0  0  0  0  0  0
    1.2990   -0.7500    0.0000 C   0  0  0  0  0  0  0  0  0  0  0  0
    2.5981   -0.0000    0.0000 C   0  0  0  0  0  0  0  0  0  0  0  0
    2.5981    1.5000    0.0000 O   0  0  0  0  0  0  0  0  0  0  0  0
    3.8971   -0.7500    0.0000 O   0  0  0  0  0  0  0  0  0  0  0  0
  1  2  1  0
  2  3  1  6
  2  4  1  0
  4  5  1  0
  5  6  1  0
  6  7  1  0
  7  8  2  0
  7  9  1  0
M  END
>  <rName>  (3684) 
aMe5-Ava_5S

>  <PQ_SYMBOL>  (3684) 
aMe5-Ava_5S

>  <FULL_NAME>  (3684) 
(5S)-5-aminohexanoic acid

>  <IUPAC_CONDENSED>  (3684) 
aMe5-Ava(5S)

>  <IUPAC>  (3684) 
(5S)-5-aminohexanoic acid

>  <TYPE>  (3684) 
Backbone

>  <CLASS>  (3684) 
delta

>  <ANALOG>  (3684) 
Ala

>  <MOL_WT>  (3684) 
131.175

>  <LOGP>  (3684) 
0.5884999999999998

>  <TPSA>  (3684) 
63.32000000000001

>  <POPULARITY>  (3684) 
15.3

>  <PROTECTED>  (3684) 
TRUE

>  <SMILES>  (3684) 
N[C@@H](C)CCCC(=O)O

>  <INCHIKEY>  (3684) 
IPCUHQYGWOKSLR-YFKPBYRVSA-N

$$$$
aMeAad
     RDKit          2D

 12 11  0  0  0  0  0  0  0  0999 V2000
   -0.7973    1.7387    0.0000 N   0  0  0  0  0  0  0  0  0  0  0  0
   -1.7058    0.5451    0.0000 C   0  0  0  0  0  0  0  0  0  0  0  0
   -2.8994    1.4535    0.0000 C   0  0  0  0  0  0  0  0  0  0  0  0
   -0.5121   -0.3633    0.0000 C   0  0  0  0  0  0  0  0  0  0  0  0
    0.8714    0.2162    0.0000 C   0  0  0  0  0  0  0  0  0  0  0  0
    2.0650   -0.6923    0.0000 C   0  0  0  0  0  0  0  0  0  0  0  0
    3.4486   -0.1127    0.0000 C   0  0  0  0  0  0  0  0  0  0  0  0
    3.6385    1.3752    0.0000 O   0  0  0  0  0  0  0  0  0  0  0  0
    4.6422   -1.0212    0.0000 O   0  0  0  0  0  0  0  0  0  0  0  0
   -2.6142   -0.6485    0.0000 C   0  0  0  0  0  0  0  0  0  0  0  0
   -4.1021   -0.4586    0.0000 O   0  0  0  0  0  0  0  0  0  0  0  0
   -2.0347   -2.0321    0.0000 O   0  0  0  0  0  0  0  0  0  0  0  0
  1  2  1  0
  2  3  1  6
  2  4  1  0
  4  5  1  0
  5  6  1  0
  6  7  1  0
  7  8  2  0
  7  9  1  0
  2 10  1  0
 10 11  2  0
 10 12  1  0
M  END
>  <rName>  (3685) 
aMeAad

>  <PQ_SYMBOL>  (3685) 
aMeAad

>  <FULL_NAME>  (3685) 
alpha-methyl-L-homoglutamic acid

>  <IUPAC_CONDENSED>  (3685) 
aMeAad

>  <IUPAC>  (3685) 
(2S)-2-amino-2-methylhexanedioic acid

>  <TYPE>  (3685) 
Backbone

>  <CLASS>  (3685) 
alpha

>  <ANALOG>  (3685) 
X

>  <MOL_WT>  (3685) 
175.184

>  <LOGP>  (3685) 
0.04329999999999956

>  <TPSA>  (3685) 
100.62000000000002

>  <POPULARITY>  (3685) 
8.8

>  <PROTECTED>  (3685) 
TRUE

>  <SMILES>  (3685) 
N[C@@](C)(CCCC(=O)O)C(=O)O

>  <INCHIKEY>  (3685) 
RXHGRYUBJHFKKO-ZETCQYMHSA-N

$$$$
aMeAbu_vinyl
     RDKit          2D

 10  9  0  0  0  0  0  0  0  0999 V2000
    0.0056    1.7744    0.0000 N   0  0  0  0  0  0  0  0  0  0  0  0
   -0.8858    0.5680    0.0000 C   0  0  0  0  0  0  0  0  0  0  0  0
   -2.0922    1.4594    0.0000 C   0  0  0  0  0  0  0  0  0  0  0  0
    0.3205   -0.3234    0.0000 C   0  0  0  0  0  0  0  0  0  0  0  0
    1.6957    0.2756    0.0000 C   0  0  0  0  0  0  0  0  0  0  0  0
    2.9021   -0.6158    0.0000 C   0  0  0  0  0  0  0  0  0  0  0  0
    4.2773   -0.0167    0.0000 C   0  0  0  0  0  0  0  0  0  0  0  0
   -1.7773   -0.6384    0.0000 C   0  0  0  0  0  0  0  0  0  0  0  0
   -3.2677   -0.4696    0.0000 O   0  0  0  0  0  0  0  0  0  0  0  0
   -1.1782   -2.0136    0.0000 O   0  0  0  0  0  0  0  0  0  0  0  0
  1  2  1  0
  2  3  1  6
  2  4  1  0
  4  5  1  0
  5  6  1  0
  6  7  2  0
  2  8  1  0
  8  9  2  0
  8 10  1  0
M  END
>  <rName>  (3686) 
aMeAbu_vinyl

>  <PQ_SYMBOL>  (3686) 
aMeAbu_vinyl

>  <FULL_NAME>  (3686) 
(2S)-2-amino-2-methylhex-5-enoic acid

>  <IUPAC_CONDENSED>  (3686) 
aMeAbu(vinyl)

>  <IUPAC>  (3686) 
(2S)-2-amino-2-methylhex-5-enoic acid

>  <TYPE>  (3686) 
Backbone

>  <CLASS>  (3686) 
alpha

>  <ANALOG>  (3686) 
Leu

>  <MOL_WT>  (3686) 
143.186

>  <LOGP>  (3686) 
0.7545999999999999

>  <TPSA>  (3686) 
63.32000000000001

>  <POPULARITY>  (3686) 
12.4

>  <PROTECTED>  (3686) 
TRUE

>  <SMILES>  (3686) 
N[C@@](C)(CCC=C)C(=O)O

>  <INCHIKEY>  (3686) 
OQVMALDNOMXRAP-ZETCQYMHSA-N

$$$$
aMeArg
     RDKit          2D

 13 12  0  0  0  0  0  0  0  0999 V2000
   -1.6020    1.8645    0.0000 N   0  0  0  0  0  0  0  0  0  0  0  0
   -2.3333    0.5548    0.0000 C   0  0  0  0  0  0  0  0  0  0  0  0
   -3.6430    1.2861    0.0000 C   0  0  0  0  0  0  0  0  0  0  0  0
   -1.0236   -0.1765    0.0000 C   0  0  0  0  0  0  0  0  0  0  0  0
    0.2645    0.5921    0.0000 C   0  0  0  0  0  0  0  0  0  0  0  0
    1.5742   -0.1392    0.0000 C   0  0  0  0  0  0  0  0  0  0  0  0
    2.8623    0.6294    0.0000 N   0  0  0  0  0  0  0  0  0  0  0  0
    4.1720   -0.1019    0.0000 C   0  0  0  0  0  0  0  0  0  0  0  0
    5.4601    0.6667    0.0000 N   0  0  0  0  0  0  0  0  0  0  0  0
    4.1936   -1.6017    0.0000 N   0  0  0  0  0  0  0  0  0  0  0  0
   -3.0645   -0.7549    0.0000 C   0  0  0  0  0  0  0  0  0  0  0  0
   -4.5644   -0.7764    0.0000 O   0  0  0  0  0  0  0  0  0  0  0  0
   -2.2960   -2.0430    0.0000 O   0  0  0  0  0  0  0  0  0  0  0  0
  1  2  1  0
  2  3  1  6
  2  4  1  0
  4  5  1  0
  5  6  1  0
  6  7  1  0
  7  8  2  0
  8  9  1  0
  8 10  1  0
  2 11  1  0
 11 12  2  0
 11 13  1  0
M  END
>  <rName>  (3687) 
aMeArg

>  <PQ_SYMBOL>  (3687) 
aMeArg

>  <FULL_NAME>  (3687) 
alpha-Methyl-L-Arginine

>  <IUPAC_CONDENSED>  (3687) 
aMeArg

>  <IUPAC>  (3687) 
(2S)-2-amino-5-((diaminomethylidene)amino)-2-methylpentanoic acid

>  <TYPE>  (3687) 
Backbone

>  <CLASS>  (3687) 
alpha

>  <ANALOG>  (3687) 
Arg

>  <MOL_WT>  (3687) 
188.231

>  <LOGP>  (3687) 
-1.1579999999999986

>  <TPSA>  (3687) 
127.71999999999998

>  <POPULARITY>  (3687) 
6.6

>  <PROTECTED>  (3687) 
TRUE

>  <SMILES>  (3687) 
N[C@@](C)(CCCN=C(N)N)C(=O)O

>  <INCHIKEY>  (3687) 
LKRMSSDDHQZQHJ-ZETCQYMHSA-N

$$$$
aMeAsn
     RDKit          2D

 10  9  0  0  0  0  0  0  0  0999 V2000
    0.5181    1.5297    0.0000 N   0  0  0  0  0  0  0  0  0  0  0  0
   -0.5678    0.4949    0.0000 C   0  0  0  0  0  0  0  0  0  0  0  0
   -1.6026    1.5808    0.0000 C   0  0  0  0  0  0  0  0  0  0  0  0
    0.4670   -0.5910    0.0000 C   0  0  0  0  0  0  0  0  0  0  0  0
    1.9248   -0.2377    0.0000 C   0  0  0  0  0  0  0  0  0  0  0  0
    2.3478    1.2014    0.0000 O   0  0  0  0  0  0  0  0  0  0  0  0
    2.9596   -1.3236    0.0000 N   0  0  0  0  0  0  0  0  0  0  0  0
   -1.6537   -0.5399    0.0000 C   0  0  0  0  0  0  0  0  0  0  0  0
   -3.0928   -0.1169    0.0000 O   0  0  0  0  0  0  0  0  0  0  0  0
   -1.3005   -1.9977    0.0000 O   0  0  0  0  0  0  0  0  0  0  0  0
  1  2  1  0
  2  3  1  6
  2  4  1  0
  4  5  1  0
  5  6  2  0
  5  7  1  0
  2  8  1  0
  8  9  2  0
  8 10  1  0
M  END
>  <rName>  (3688) 
aMeAsn

>  <PQ_SYMBOL>  (3688) 
aMeAsn

>  <FULL_NAME>  (3688) 
alpha-methyl-L-asparagine

>  <IUPAC_CONDENSED>  (3688) 
aMeAsn

>  <IUPAC>  (3688) 
(2S)-2-amino-2-(2-amino-2-oxoethyl)propanoic acid

>  <TYPE>  (3688) 
Backbone

>  <CLASS>  (3688) 
alpha

>  <ANALOG>  (3688) 
Asn

>  <MOL_WT>  (3688) 
146.14600000000002

>  <LOGP>  (3688) 
-1.336199999999999

>  <TPSA>  (3688) 
106.41000000000001

>  <POPULARITY>  (3688) 
10.8

>  <PROTECTED>  (3688) 
TRUE

>  <SMILES>  (3688) 
N[C@@](C)(CC(=O)N)C(=O)O

>  <INCHIKEY>  (3688) 
XGKIMQBEEPDCSR-YFKPBYRVSA-N

$$$$
aMeAsp
     RDKit          2D

 10  9  0  0  0  0  0  0  0  0999 V2000
    0.5181    1.5297    0.0000 N   0  0  0  0  0  0  0  0  0  0  0  0
   -0.5678    0.4949    0.0000 C   0  0  0  0  0  0  0  0  0  0  0  0
   -1.6026    1.5808    0.0000 C   0  0  0  0  0  0  0  0  0  0  0  0
    0.4670   -0.5910    0.0000 C   0  0  0  0  0  0  0  0  0  0  0  0
    1.9248   -0.2377    0.0000 C   0  0  0  0  0  0  0  0  0  0  0  0
    2.3478    1.2014    0.0000 O   0  0  0  0  0  0  0  0  0  0  0  0
    2.9596   -1.3236    0.0000 O   0  0  0  0  0  0  0  0  0  0  0  0
   -1.6537   -0.5399    0.0000 C   0  0  0  0  0  0  0  0  0  0  0  0
   -3.0928   -0.1169    0.0000 O   0  0  0  0  0  0  0  0  0  0  0  0
   -1.3005   -1.9977    0.0000 O   0  0  0  0  0  0  0  0  0  0  0  0
  1  2  1  0
  2  3  1  6
  2  4  1  0
  4  5  1  0
  5  6  2  0
  5  7  1  0
  2  8  1  0
  8  9  2  0
  8 10  1  0
M  END
>  <rName>  (3689) 
aMeAsp

>  <PQ_SYMBOL>  (3689) 
aMeAsp

>  <FULL_NAME>  (3689) 
alpha-methyl-L-aspartic acid

>  <IUPAC_CONDENSED>  (3689) 
aMeAsp

>  <IUPAC>  (3689) 
(2S)-2-amino-2-methylbutanedioic acid

>  <TYPE>  (3689) 
Backbone

>  <CLASS>  (3689) 
alpha

>  <ANALOG>  (3689) 
Asp

>  <MOL_WT>  (3689) 
147.13

>  <LOGP>  (3689) 
-0.7368999999999997

>  <TPSA>  (3689) 
100.62000000000002

>  <POPULARITY>  (3689) 
11.7

>  <PROTECTED>  (3689) 
TRUE

>  <SMILES>  (3689) 
N[C@@](C)(CC(=O)O)C(=O)O

>  <INCHIKEY>  (3689) 
CWAYDJFPMMUKOI-YFKPBYRVSA-N

$$$$
aMeAze
     RDKit          2D

  8  8  0  0  0  0  0  0  0  0999 V2000
    1.6713   -0.8704    0.0000 N   0  0  0  0  0  0  0  0  0  0  0  0
    0.2785   -0.3134    0.0000 C   0  0  0  0  0  0  0  0  0  0  0  0
   -0.2785   -1.7061    0.0000 C   0  0  0  0  0  0  0  0  0  0  0  0
    0.8356    1.0794    0.0000 C   0  0  0  0  0  0  0  0  0  0  0  0
    2.2283    0.5223    0.0000 C   0  0  0  0  0  0  0  0  0  0  0  0
   -1.1142    0.2437    0.0000 C   0  0  0  0  0  0  0  0  0  0  0  0
   -2.2930   -0.6839    0.0000 O   0  0  0  0  0  0  0  0  0  0  0  0
   -1.3281    1.7284    0.0000 O   0  0  0  0  0  0  0  0  0  0  0  0
  1  2  1  0
  2  3  1  1
  2  4  1  0
  4  5  1  0
  2  6  1  0
  6  7  2  0
  6  8  1  0
  5  1  1  0
M  END
>  <rName>  (3690) 
aMeAze

>  <PQ_SYMBOL>  (3690) 
aMeAze

>  <FULL_NAME>  (3690) 
(2S)-2-methylazetidine-2-carboxylic acid

>  <IUPAC_CONDENSED>  (3690) 
aMeAze

>  <IUPAC>  (3690) 
(2S)-2-methylazetidine-2-carboxylic acid

>  <TYPE>  (3690) 
Backbone

>  <CLASS>  (3690) 
alpha

>  <ANALOG>  (3690) 
Pro

>  <MOL_WT>  (3690) 
115.13199999999999

>  <LOGP>  (3690) 
-0.17700000000000032

>  <TPSA>  (3690) 
49.33

>  <POPULARITY>  (3690) 
7.9

>  <PROTECTED>  (3690) 
TRUE

>  <SMILES>  (3690) 
N1[C@@](C)(CC1)C(=O)O

>  <INCHIKEY>  (3690) 
ADTSDDJGGMQTIE-YFKPBYRVSA-N

$$$$
aMeCha
     RDKit          2D

 13 13  0  0  0  0  0  0  0  0999 V2000
   -0.4214    1.4691    0.0000 N   0  0  0  0  0  0  0  0  0  0  0  0
   -1.5526    0.4840    0.0000 C   0  0  0  0  0  0  0  0  0  0  0  0
   -2.5377    1.6152    0.0000 C   0  0  0  0  0  0  0  0  0  0  0  0
   -0.5675   -0.6472    0.0000 C   0  0  0  0  0  0  0  0  0  0  0  0
    0.9047   -0.3597    0.0000 C   0  0  0  0  0  0  0  0  0  0  0  0
    1.3918    1.0591    0.0000 C   0  0  0  0  0  0  0  0  0  0  0  0
    2.8640    1.3466    0.0000 C   0  0  0  0  0  0  0  0  0  0  0  0
    3.8491    0.2154    0.0000 C   0  0  0  0  0  0  0  0  0  0  0  0
    3.3620   -1.2033    0.0000 C   0  0  0  0  0  0  0  0  0  0  0  0
    1.8898   -1.4908    0.0000 C   0  0  0  0  0  0  0  0  0  0  0  0
   -2.6837   -0.5011    0.0000 C   0  0  0  0  0  0  0  0  0  0  0  0
   -2.3962   -1.9733    0.0000 O   0  0  0  0  0  0  0  0  0  0  0  0
   -4.1025   -0.0140    0.0000 O   0  0  0  0  0  0  0  0  0  0  0  0
  1  2  1  0
  2  3  1  6
  2  4  1  0
  4  5  1  0
  5  6  1  0
  6  7  1  0
  7  8  1  0
  8  9  1  0
  9 10  1  0
  2 11  1  0
 11 12  2  0
 11 13  1  0
 10  5  1  0
M  END
>  <rName>  (3691) 
aMeCha

>  <PQ_SYMBOL>  (3691) 
aMeCha

>  <FULL_NAME>  (3691) 
(S)-2-amino-3-cyclohexyl-2-methylpropanoic acid

>  <IUPAC_CONDENSED>  (3691) 
aMeCha

>  <IUPAC>  (3691) 
(2S)-2-amino-2-(cyclohexylmethyl)propanoic acid

>  <TYPE>  (3691) 
Backbone

>  <CLASS>  (3691) 
alpha

>  <ANALOG>  (3691) 
Ala

>  <MOL_WT>  (3691) 
185.267

>  <LOGP>  (3691) 
1.7588

>  <TPSA>  (3691) 
63.32000000000001

>  <POPULARITY>  (3691) 
7.2

>  <PROTECTED>  (3691) 
TRUE

>  <SMILES>  (3691) 
N[C@@](C)(CC1(CCCCC1))C(=O)O

>  <INCHIKEY>  (3691) 
RAUJVFYNXLFAKY-JTQLQIEISA-N

$$$$
aMeCys
     RDKit          2D

  8  7  0  0  0  0  0  0  0  0999 V2000
    1.7991   -0.6794    0.0000 N   0  0  0  0  0  0  0  0  0  0  0  0
    0.6991    0.3404    0.0000 C   0  0  0  0  0  0  0  0  0  0  0  0
    1.7189    1.4404    0.0000 C   0  0  0  0  0  0  0  0  0  0  0  0
   -0.4009    1.3602    0.0000 C   0  0  0  0  0  0  0  0  0  0  0  0
   -1.8341    0.9174    0.0000 S   0  0  0  0  0  0  0  0  0  0  0  0
   -0.3207   -0.7596    0.0000 C   0  0  0  0  0  0  0  0  0  0  0  0
   -1.7833   -0.4265    0.0000 O   0  0  0  0  0  0  0  0  0  0  0  0
    0.1220   -2.1928    0.0000 O   0  0  0  0  0  0  0  0  0  0  0  0
  1  2  1  0
  2  3  1  1
  2  4  1  0
  4  5  1  0
  2  6  1  0
  6  7  2  0
  6  8  1  0
M  END
>  <rName>  (3692) 
aMeCys

>  <PQ_SYMBOL>  (3692) 
aMeCys

>  <FULL_NAME>  (3692) 
2-methyl-L-cysteine

>  <IUPAC_CONDENSED>  (3692) 
aMeCys

>  <IUPAC>  (3692) 
(2R)-2-amino-2-(sulfanylmethyl)propanoic acid

>  <TYPE>  (3692) 
Backbone

>  <CLASS>  (3692) 
alpha

>  <ANALOG>  (3692) 
Cys

>  <MOL_WT>  (3692) 
135.188

>  <LOGP>  (3692) 
-0.28180000000000033

>  <TPSA>  (3692) 
63.32000000000001

>  <POPULARITY>  (3692) 
14.1

>  <PROTECTED>  (3692) 
TRUE

>  <SMILES>  (3692) 
N[C@@](C)(CS)C(=O)O

>  <INCHIKEY>  (3692) 
NZBONMFLYFGTAC-BYPYZUCNSA-N

$$$$
aMeDab
     RDKit          2D

  9  8  0  0  0  0  0  0  0  0999 V2000
    0.4883    1.7705    0.0000 N   0  0  0  0  0  0  0  0  0  0  0  0
   -0.4082    0.5679    0.0000 C   0  0  0  0  0  0  0  0  0  0  0  0
   -1.6108    1.4643    0.0000 C   0  0  0  0  0  0  0  0  0  0  0  0
    0.7944   -0.3286    0.0000 C   0  0  0  0  0  0  0  0  0  0  0  0
    2.1721    0.2647    0.0000 C   0  0  0  0  0  0  0  0  0  0  0  0
    3.3748   -0.6318    0.0000 N   0  0  0  0  0  0  0  0  0  0  0  0
   -1.3047   -0.6348    0.0000 C   0  0  0  0  0  0  0  0  0  0  0  0
   -2.7944   -0.4597    0.0000 O   0  0  0  0  0  0  0  0  0  0  0  0
   -0.7114   -2.0125    0.0000 O   0  0  0  0  0  0  0  0  0  0  0  0
  1  2  1  0
  2  3  1  6
  2  4  1  0
  4  5  1  0
  5  6  1  0
  2  7  1  0
  7  8  2  0
  7  9  1  0
M  END
>  <rName>  (3693) 
aMeDab

>  <PQ_SYMBOL>  (3693) 
aMeDab

>  <FULL_NAME>  (3693) 
(S)-2,4-diamino-2-methylbutanoic acid

>  <IUPAC_CONDENSED>  (3693) 
aMeDab

>  <IUPAC>  (3693) 
(2S)-2,4-diamino-2-methylbutanoic acid

>  <TYPE>  (3693) 
Backbone

>  <CLASS>  (3693) 
alpha

>  <ANALOG>  (3693) 
X

>  <MOL_WT>  (3693) 
132.163

>  <LOGP>  (3693) 
-0.8628

>  <TPSA>  (3693) 
89.34

>  <POPULARITY>  (3693) 
10.7

>  <PROTECTED>  (3693) 
TRUE

>  <SMILES>  (3693) 
N[C@@](C)(CCN)C(=O)O

>  <INCHIKEY>  (3693) 
CSFFOBGGUBKCFN-YFKPBYRVSA-N

$$$$
aMeDap
     RDKit          2D

  8  7  0  0  0  0  0  0  0  0999 V2000
    1.3909    1.3248    0.0000 N   0  0  0  0  0  0  0  0  0  0  0  0
    0.1650    0.4604    0.0000 C   0  0  0  0  0  0  0  0  0  0  0  0
   -0.6994    1.6864    0.0000 C   0  0  0  0  0  0  0  0  0  0  0  0
    1.0293   -0.7655    0.0000 C   0  0  0  0  0  0  0  0  0  0  0  0
    2.5232   -0.6299    0.0000 N   0  0  0  0  0  0  0  0  0  0  0  0
   -1.0610   -0.4039    0.0000 C   0  0  0  0  0  0  0  0  0  0  0  0
   -2.4225    0.2256    0.0000 O   0  0  0  0  0  0  0  0  0  0  0  0
   -0.9254   -1.8978    0.0000 O   0  0  0  0  0  0  0  0  0  0  0  0
  1  2  1  0
  2  3  1  6
  2  4  1  0
  4  5  1  0
  2  6  1  0
  6  7  2  0
  6  8  1  0
M  END
>  <rName>  (3694) 
aMeDap

>  <PQ_SYMBOL>  (3694) 
aMeDap

>  <FULL_NAME>  (3694) 
(2S)-2,3-Diamino-2-methylpropanoic acid

>  <IUPAC_CONDENSED>  (3694) 
aMeDap

>  <IUPAC>  (3694) 
(2S)-2,3-diamino-2-methylpropanoic acid

>  <TYPE>  (3694) 
Backbone

>  <CLASS>  (3694) 
alpha

>  <ANALOG>  (3694) 
X

>  <MOL_WT>  (3694) 
118.13599999999998

>  <LOGP>  (3694) 
-1.2528999999999997

>  <TPSA>  (3694) 
89.34

>  <POPULARITY>  (3694) 
2.2

>  <PROTECTED>  (3694) 
TRUE

>  <SMILES>  (3694) 
N[C@@](C)(CN)C(=O)O

>  <INCHIKEY>  (3694) 
BJVNVLORPOBATD-BYPYZUCNSA-N

$$$$
aMeDap_N3
     RDKit          2D

 10  9  0  0  0  0  0  0  0  0999 V2000
   -0.2947    1.9009    0.0000 N   0  0  0  0  0  0  0  0  0  0  0  0
   -0.9752    0.5641    0.0000 C   0  0  0  0  0  0  0  0  0  0  0  0
   -2.3120    1.2446    0.0000 C   0  0  0  0  0  0  0  0  0  0  0  0
    0.3615   -0.1164    0.0000 C   0  0  0  0  0  0  0  0  0  0  0  0
    1.6192    0.7010    0.0000 N   0  0  0  0  0  0  0  0  0  0  0  0
    2.9560    0.0205    0.0000 N   0  0  0  0  0  0  0  0  0  0  0  0
    4.2928   -0.6600    0.0000 N   0  0  0  0  0  0  0  0  0  0  0  0
   -1.6557   -0.7727    0.0000 C   0  0  0  0  0  0  0  0  0  0  0  0
   -3.1536   -0.8517    0.0000 O   0  0  0  0  0  0  0  0  0  0  0  0
   -0.8383   -2.0304    0.0000 O   0  0  0  0  0  0  0  0  0  0  0  0
  1  2  1  0
  2  3  1  6
  2  4  1  0
  4  5  1  0
  5  6  2  0
  6  7  2  0
  2  8  1  0
  8  9  2  0
  8 10  1  0
M  CHG  2   6   1   7  -1
M  END
>  <rName>  (3695) 
aMeDap_N3

>  <PQ_SYMBOL>  (3695) 
aMeDap_N3

>  <FULL_NAME>  (3695) 
(2S)-2-amino-3-azido-2-methylpropanoic acid

>  <IUPAC_CONDENSED>  (3695) 
aMeDap(N3)

>  <IUPAC>  (3695) 
(2S)-2-amino-3-azido-2-methylpropanoic acid

>  <TYPE>  (3695) 
Backbone

>  <CLASS>  (3695) 
alpha

>  <ANALOG>  (3695) 
X

>  <MOL_WT>  (3695) 
144.13400000000001

>  <LOGP>  (3695) 
0.09869999999999973

>  <TPSA>  (3695) 
112.08

>  <POPULARITY>  (3695) 
2.2

>  <PROTECTED>  (3695) 
TRUE

>  <SMILES>  (3695) 
N[C@@](C)(CN=[N+]=[N-])C(=O)O

>  <INCHIKEY>  (3695) 
WDJUCIRNDRCXTL-BYPYZUCNSA-N

$$$$
aMeGaba
     RDKit          2D

  8  7  0  0  0  0  0  0  0  0999 V2000
    2.2678   -1.4730    0.0000 N   0  0  0  0  0  0  0  0  0  0  0  0
    1.9843   -0.0000    0.0000 C   0  0  0  0  0  0  0  0  0  0  0  0
    3.1182    0.9820    0.0000 C   0  0  0  0  0  0  0  0  0  0  0  0
    0.5669    0.4910    0.0000 C   0  0  0  0  0  0  0  0  0  0  0  0
   -0.5669   -0.4910    0.0000 C   0  0  0  0  0  0  0  0  0  0  0  0
   -1.9843    0.0000    0.0000 C   0  0  0  0  0  0  0  0  0  0  0  0
   -2.2678    1.4730    0.0000 O   0  0  0  0  0  0  0  0  0  0  0  0
   -3.1182   -0.9820    0.0000 O   0  0  0  0  0  0  0  0  0  0  0  0
  1  2  1  0
  2  3  1  6
  2  4  1  0
  4  5  1  0
  5  6  1  0
  6  7  2  0
  6  8  1  0
M  END
>  <rName>  (3696) 
aMeGaba

>  <PQ_SYMBOL>  (3696) 
aMeGaba

>  <FULL_NAME>  (3696) 
(4S)-4-aminopentanoic acid

>  <IUPAC_CONDENSED>  (3696) 
aMeGaba

>  <IUPAC>  (3696) 
(4S)-4-aminopentanoic acid

>  <TYPE>  (3696) 
Backbone

>  <CLASS>  (3696) 
gamma

>  <ANALOG>  (3696) 
Ala

>  <MOL_WT>  (3696) 
117.14799999999998

>  <LOGP>  (3696) 
0.19839999999999985

>  <TPSA>  (3696) 
63.32000000000001

>  <POPULARITY>  (3696) 
23.1

>  <PROTECTED>  (3696) 
TRUE

>  <SMILES>  (3696) 
N[C@@H](C)CCC(=O)O

>  <INCHIKEY>  (3696) 
ABSTXSZPGHDTAF-BYPYZUCNSA-N

$$$$
aMeGaba_3SOH
     RDKit          2D

  9  8  0  0  0  0  0  0  0  0999 V2000
    2.2062   -1.7302    0.0000 N   0  0  0  0  0  0  0  0  0  0  0  0
    1.9487   -0.2525    0.0000 C   0  0  0  0  0  0  0  0  0  0  0  0
    3.0997    0.7094    0.0000 C   0  0  0  0  0  0  0  0  0  0  0  0
    0.5402    0.2633    0.0000 C   0  0  0  0  0  0  0  0  0  0  0  0
    0.2826    1.7410    0.0000 O   0  0  0  0  0  0  0  0  0  0  0  0
   -0.6108   -0.6986    0.0000 C   0  0  0  0  0  0  0  0  0  0  0  0
   -2.0193   -0.1828    0.0000 C   0  0  0  0  0  0  0  0  0  0  0  0
   -2.2769    1.2950    0.0000 O   0  0  0  0  0  0  0  0  0  0  0  0
   -3.1703   -1.1447    0.0000 O   0  0  0  0  0  0  0  0  0  0  0  0
  1  2  1  0
  2  3  1  6
  2  4  1  0
  4  5  1  6
  4  6  1  0
  6  7  1  0
  7  8  2  0
  7  9  1  0
M  END
>  <rName>  (3697) 
aMeGaba_3SOH

>  <PQ_SYMBOL>  (3697) 
aMeGaba_3SOH

>  <FULL_NAME>  (3697) 
(3S,4S)-4-amino-3-hydroxypentanoic acid

>  <IUPAC_CONDENSED>  (3697) 
aMeGaba(3S-OH)

>  <IUPAC>  (3697) 
(3S,4S)-4-amino-3-hydroxypentanoic acid

>  <TYPE>  (3697) 
Backbone

>  <CLASS>  (3697) 
gamma

>  <ANALOG>  (3697) 
Ala

>  <MOL_WT>  (3697) 
133.147

>  <LOGP>  (3697) 
-0.8308000000000006

>  <TPSA>  (3697) 
83.55

>  <POPULARITY>  (3697) 
12.1

>  <PROTECTED>  (3697) 
TRUE

>  <SMILES>  (3697) 
N[C@@H](C)[C@@H](O)CC(=O)O

>  <INCHIKEY>  (3697) 
KYYLCNHXZCPNBW-IMJSIDKUSA-N

$$$$
aMeGln
     RDKit          2D

 11 10  0  0  0  0  0  0  0  0999 V2000
   -0.4806    1.9216    0.0000 N   0  0  0  0  0  0  0  0  0  0  0  0
   -1.2184    0.6156    0.0000 C   0  0  0  0  0  0  0  0  0  0  0  0
   -2.5244    1.3534    0.0000 C   0  0  0  0  0  0  0  0  0  0  0  0
    0.0876   -0.1222    0.0000 C   0  0  0  0  0  0  0  0  0  0  0  0
    1.3796    0.6400    0.0000 C   0  0  0  0  0  0  0  0  0  0  0  0
    2.6856   -0.0979    0.0000 C   0  0  0  0  0  0  0  0  0  0  0  0
    2.6996   -1.5978    0.0000 O   0  0  0  0  0  0  0  0  0  0  0  0
    3.9775    0.6643    0.0000 N   0  0  0  0  0  0  0  0  0  0  0  0
   -1.9562   -0.6904    0.0000 C   0  0  0  0  0  0  0  0  0  0  0  0
   -3.4561   -0.7044    0.0000 O   0  0  0  0  0  0  0  0  0  0  0  0
   -1.1941   -1.9823    0.0000 O   0  0  0  0  0  0  0  0  0  0  0  0
  1  2  1  0
  2  3  1  6
  2  4  1  0
  4  5  1  0
  5  6  1  0
  6  7  2  0
  6  8  1  0
  2  9  1  0
  9 10  2  0
  9 11  1  0
M  END
>  <rName>  (3698) 
aMeGln

>  <PQ_SYMBOL>  (3698) 
aMeGln

>  <FULL_NAME>  (3698) 
alpha-methyl-L-glutamine

>  <IUPAC_CONDENSED>  (3698) 
aMeGln

>  <IUPAC>  (3698) 
(2S)-2-amino-4-carbamoyl-2-methylbutanoic acid

>  <TYPE>  (3698) 
Backbone

>  <CLASS>  (3698) 
alpha

>  <ANALOG>  (3698) 
Gln

>  <MOL_WT>  (3698) 
160.173

>  <LOGP>  (3698) 
-0.9460999999999993

>  <TPSA>  (3698) 
106.41000000000001

>  <POPULARITY>  (3698) 
25.0

>  <PROTECTED>  (3698) 
TRUE

>  <SMILES>  (3698) 
N[C@@](C)(CCC(=O)N)C(=O)O

>  <INCHIKEY>  (3698) 
YLTNWAQTQJRBKR-LURJTMIESA-N

$$$$
aMeGlu
     RDKit          2D

 11 10  0  0  0  0  0  0  0  0999 V2000
   -0.4806    1.9216    0.0000 N   0  0  0  0  0  0  0  0  0  0  0  0
   -1.2184    0.6156    0.0000 C   0  0  0  0  0  0  0  0  0  0  0  0
   -2.5244    1.3534    0.0000 C   0  0  0  0  0  0  0  0  0  0  0  0
    0.0876   -0.1222    0.0000 C   0  0  0  0  0  0  0  0  0  0  0  0
    1.3796    0.6400    0.0000 C   0  0  0  0  0  0  0  0  0  0  0  0
    2.6856   -0.0979    0.0000 C   0  0  0  0  0  0  0  0  0  0  0  0
    2.6996   -1.5978    0.0000 O   0  0  0  0  0  0  0  0  0  0  0  0
    3.9775    0.6643    0.0000 O   0  0  0  0  0  0  0  0  0  0  0  0
   -1.9562   -0.6904    0.0000 C   0  0  0  0  0  0  0  0  0  0  0  0
   -3.4561   -0.7044    0.0000 O   0  0  0  0  0  0  0  0  0  0  0  0
   -1.1941   -1.9823    0.0000 O   0  0  0  0  0  0  0  0  0  0  0  0
  1  2  1  0
  2  3  1  6
  2  4  1  0
  4  5  1  0
  5  6  1  0
  6  7  2  0
  6  8  1  0
  2  9  1  0
  9 10  2  0
  9 11  1  0
M  END
>  <rName>  (3699) 
aMeGlu

>  <PQ_SYMBOL>  (3699) 
aMeGlu

>  <FULL_NAME>  (3699) 
alpha-methyl-L-glutamic acid

>  <IUPAC_CONDENSED>  (3699) 
aMeGlu

>  <IUPAC>  (3699) 
(2S)-2-amino-2-methylpentanedioic acid

>  <TYPE>  (3699) 
Backbone

>  <CLASS>  (3699) 
alpha

>  <ANALOG>  (3699) 
Glu

>  <MOL_WT>  (3699) 
161.15699999999998

>  <LOGP>  (3699) 
-0.3468000000000003

>  <TPSA>  (3699) 
100.62000000000002

>  <POPULARITY>  (3699) 
20.2

>  <PROTECTED>  (3699) 
TRUE

>  <SMILES>  (3699) 
N[C@@](C)(CCC(=O)O)C(=O)O

>  <INCHIKEY>  (3699) 
QHSCIWIRXWFIGH-LURJTMIESA-N

$$$$
aMeGly_allyl
     RDKit          2D

  9  8  0  0  0  0  0  0  0  0999 V2000
    0.4883    1.7705    0.0000 N   0  0  0  0  0  0  0  0  0  0  0  0
   -0.4082    0.5679    0.0000 C   0  0  0  0  0  0  0  0  0  0  0  0
   -1.6108    1.4643    0.0000 C   0  0  0  0  0  0  0  0  0  0  0  0
    0.7944   -0.3286    0.0000 C   0  0  0  0  0  0  0  0  0  0  0  0
    2.1721    0.2647    0.0000 C   0  0  0  0  0  0  0  0  0  0  0  0
    3.3748   -0.6318    0.0000 C   0  0  0  0  0  0  0  0  0  0  0  0
   -1.3047   -0.6348    0.0000 C   0  0  0  0  0  0  0  0  0  0  0  0
   -2.7944   -0.4597    0.0000 O   0  0  0  0  0  0  0  0  0  0  0  0
   -0.7114   -2.0125    0.0000 O   0  0  0  0  0  0  0  0  0  0  0  0
  1  2  1  0
  2  3  1  6
  2  4  1  0
  4  5  1  0
  5  6  2  0
  2  7  1  0
  7  8  2  0
  7  9  1  0
M  END
>  <rName>  (3700) 
aMeGly_allyl

>  <PQ_SYMBOL>  (3700) 
aMeGly_allyl

>  <FULL_NAME>  (3700) 
(S)-2-Amino-2-methylpent-4-enoic acid

>  <IUPAC_CONDENSED>  (3700) 
aMeGly(allyl)

>  <IUPAC>  (3700) 
(2S)-2-amino-2-methylpent-4-enoic acid

>  <TYPE>  (3700) 
Backbone

>  <CLASS>  (3700) 
alpha

>  <ANALOG>  (3700) 
Leu

>  <MOL_WT>  (3700) 
129.159

>  <LOGP>  (3700) 
0.3645

>  <TPSA>  (3700) 
63.32000000000001

>  <POPULARITY>  (3700) 
11.2

>  <PROTECTED>  (3700) 
TRUE

>  <SMILES>  (3700) 
N[C@@](C)(CC=C)C(=O)O

>  <INCHIKEY>  (3700) 
QMBTZYHBJFPEJB-LURJTMIESA-N

$$$$
aMeIle
     RDKit          2D

 10  9  0  0  0  0  0  0  0  0999 V2000
   -0.8453    2.0718    0.0000 N   0  0  0  0  0  0  0  0  0  0  0  0
   -0.8306    0.5718    0.0000 C   0  0  0  0  0  0  0  0  0  0  0  0
   -2.3305    0.5572    0.0000 C   0  0  0  0  0  0  0  0  0  0  0  0
    0.6693    0.5865    0.0000 C   0  0  0  0  0  0  0  0  0  0  0  0
    1.4066    1.8928    0.0000 C   0  0  0  0  0  0  0  0  0  0  0  0
    1.4320   -0.7052    0.0000 C   0  0  0  0  0  0  0  0  0  0  0  0
    2.9319   -0.6906    0.0000 C   0  0  0  0  0  0  0  0  0  0  0  0
   -0.8160   -0.9281    0.0000 C   0  0  0  0  0  0  0  0  0  0  0  0
   -2.1076   -1.6907    0.0000 O   0  0  0  0  0  0  0  0  0  0  0  0
    0.4903   -1.6654    0.0000 O   0  0  0  0  0  0  0  0  0  0  0  0
  1  2  1  0
  2  3  1  6
  2  4  1  0
  4  5  1  1
  4  6  1  0
  6  7  1  0
  2  8  1  0
  8  9  2  0
  8 10  1  0
M  END
>  <rName>  (3701) 
aMeIle

>  <PQ_SYMBOL>  (3701) 
aMeIle

>  <FULL_NAME>  (3701) 
(2S,3S)-2-amino-2,3-dimethylpentanoic acid

>  <IUPAC_CONDENSED>  (3701) 
aMeIle

>  <IUPAC>  (3701) 
(2S,3S)-2-amino-2,3-dimethylpentanoic acid

>  <TYPE>  (3701) 
Backbone

>  <CLASS>  (3701) 
alpha

>  <ANALOG>  (3701) 
Leu

>  <MOL_WT>  (3701) 
145.202

>  <LOGP>  (3701) 
0.8344999999999998

>  <TPSA>  (3701) 
63.32000000000001

>  <POPULARITY>  (3701) 
11.3

>  <PROTECTED>  (3701) 
TRUE

>  <SMILES>  (3701) 
N[C@@](C)([C@@H](C)CC)C(=O)O

>  <INCHIKEY>  (3701) 
RSPOGBIHKNKRFJ-FSPLSTOPSA-N

$$$$
aMeInp_R_6RMe
     RDKit          2D

 11 11  0  0  0  0  0  0  0  0999 V2000
    2.1818    0.0000    0.0000 N   0  0  0  0  0  0  0  0  0  0  0  0
    1.4318   -1.2990    0.0000 C   0  0  0  0  0  0  0  0  0  0  0  0
    2.1818   -2.5981    0.0000 C   0  0  0  0  0  0  0  0  0  0  0  0
   -0.0682   -1.2990    0.0000 C   0  0  0  0  0  0  0  0  0  0  0  0
   -0.8182    0.0000    0.0000 C   0  0  0  0  0  0  0  0  0  0  0  0
   -0.0682    1.2990    0.0000 C   0  0  0  0  0  0  0  0  0  0  0  0
    1.4318    1.2990    0.0000 C   0  0  0  0  0  0  0  0  0  0  0  0
    2.1818    2.5981    0.0000 C   0  0  0  0  0  0  0  0  0  0  0  0
   -2.3182    0.0000    0.0000 C   0  0  0  0  0  0  0  0  0  0  0  0
   -3.0682   -1.2990    0.0000 O   0  0  0  0  0  0  0  0  0  0  0  0
   -3.0682    1.2990    0.0000 O   0  0  0  0  0  0  0  0  0  0  0  0
  1  2  1  0
  2  3  1  1
  2  4  1  0
  4  5  1  0
  5  6  1  0
  6  7  1  0
  7  8  1  1
  5  9  1  1
  9 10  2  0
  9 11  1  0
  7  1  1  0
M  END
>  <rName>  (3702) 
aMeInp_R_6RMe

>  <PQ_SYMBOL>  (3702) 
aMeInp_R_6RMe

>  <FULL_NAME>  (3702) 
(2R,4r,6S)-2,6-dimethylpiperidine-4-carboxylic acid

>  <IUPAC_CONDENSED>  (3702) 
aMeInp(R,6R-Me)

>  <IUPAC>  (3702) 
(2S,6R)-2,6-dimethylpiperidine-4-carboxylic acid

>  <TYPE>  (3702) 
Backbone

>  <CLASS>  (3702) 
gamma

>  <ANALOG>  (3702) 
Pro

>  <MOL_WT>  (3702) 
157.213

>  <LOGP>  (3702) 
0.8476000000000001

>  <TPSA>  (3702) 
49.33

>  <POPULARITY>  (3702) 
6.3

>  <PROTECTED>  (3702) 
TRUE

>  <SMILES>  (3702) 
N1[C@@H](C)C[C@H](C[C@H]1C)C(=O)O

>  <INCHIKEY>  (3702) 
ZFUAHVNAKAJLAL-ZMONIFLSSA-N

$$$$
aMeLeu
     RDKit          2D

 10  9  0  0  0  0  0  0  0  0999 V2000
    0.5181    1.5297    0.0000 N   0  0  0  0  0  0  0  0  0  0  0  0
   -0.5678    0.4949    0.0000 C   0  0  0  0  0  0  0  0  0  0  0  0
   -1.6026    1.5808    0.0000 C   0  0  0  0  0  0  0  0  0  0  0  0
    0.4670   -0.5910    0.0000 C   0  0  0  0  0  0  0  0  0  0  0  0
    1.9248   -0.2377    0.0000 C   0  0  0  0  0  0  0  0  0  0  0  0
    2.9596   -1.3236    0.0000 C   0  0  0  0  0  0  0  0  0  0  0  0
    2.3478    1.2014    0.0000 C   0  0  0  0  0  0  0  0  0  0  0  0
   -1.6537   -0.5399    0.0000 C   0  0  0  0  0  0  0  0  0  0  0  0
   -3.0928   -0.1169    0.0000 O   0  0  0  0  0  0  0  0  0  0  0  0
   -1.3005   -1.9977    0.0000 O   0  0  0  0  0  0  0  0  0  0  0  0
  1  2  1  0
  2  3  1  6
  2  4  1  0
  4  5  1  0
  5  6  1  0
  5  7  1  0
  2  8  1  0
  8  9  2  0
  8 10  1  0
M  END
>  <rName>  (3703) 
aMeLeu

>  <PQ_SYMBOL>  (3703) 
aMeLeu

>  <FULL_NAME>  (3703) 
2-Methyl-L-Leucine

>  <IUPAC_CONDENSED>  (3703) 
aMeLeu

>  <IUPAC>  (3703) 
(2S)-2-amino-2,4-dimethylpentanoic acid

>  <TYPE>  (3703) 
Backbone

>  <CLASS>  (3703) 
alpha

>  <ANALOG>  (3703) 
Leu

>  <MOL_WT>  (3703) 
145.202

>  <LOGP>  (3703) 
0.8344999999999998

>  <TPSA>  (3703) 
63.32000000000001

>  <POPULARITY>  (3703) 
32.5

>  <PROTECTED>  (3703) 
TRUE

>  <SMILES>  (3703) 
N[C@@](C)(CC(C)C)C(=O)O

>  <INCHIKEY>  (3703) 
ARSWQPLPYROOBG-ZETCQYMHSA-N

$$$$
aMeLys
     RDKit          2D

 11 10  0  0  0  0  0  0  0  0999 V2000
   -0.6186    1.8190    0.0000 N   0  0  0  0  0  0  0  0  0  0  0  0
   -1.4256    0.5545    0.0000 C   0  0  0  0  0  0  0  0  0  0  0  0
   -2.6900    1.3614    0.0000 C   0  0  0  0  0  0  0  0  0  0  0  0
   -0.1611   -0.2524    0.0000 C   0  0  0  0  0  0  0  0  0  0  0  0
    1.1700    0.4391    0.0000 C   0  0  0  0  0  0  0  0  0  0  0  0
    2.4344   -0.3678    0.0000 C   0  0  0  0  0  0  0  0  0  0  0  0
    3.7655    0.3238    0.0000 C   0  0  0  0  0  0  0  0  0  0  0  0
    5.0299   -0.4832    0.0000 N   0  0  0  0  0  0  0  0  0  0  0  0
   -2.2325   -0.7100    0.0000 C   0  0  0  0  0  0  0  0  0  0  0  0
   -3.7310   -0.6433    0.0000 O   0  0  0  0  0  0  0  0  0  0  0  0
   -1.5409   -2.0410    0.0000 O   0  0  0  0  0  0  0  0  0  0  0  0
  1  2  1  0
  2  3  1  6
  2  4  1  0
  4  5  1  0
  5  6  1  0
  6  7  1  0
  7  8  1  0
  2  9  1  0
  9 10  2  0
  9 11  1  0
M  END
>  <rName>  (3704) 
aMeLys

>  <PQ_SYMBOL>  (3704) 
aMeLys

>  <FULL_NAME>  (3704) 
2-Methyllysine

>  <IUPAC_CONDENSED>  (3704) 
aMeLys

>  <IUPAC>  (3704) 
(2S)-2,6-diamino-2-methylhexanoic acid

>  <TYPE>  (3704) 
Backbone

>  <CLASS>  (3704) 
alpha

>  <ANALOG>  (3704) 
Lys

>  <MOL_WT>  (3704) 
160.217

>  <LOGP>  (3704) 
-0.08260000000000067

>  <TPSA>  (3704) 
89.34

>  <POPULARITY>  (3704) 
16.7

>  <PROTECTED>  (3704) 
TRUE

>  <SMILES>  (3704) 
N[C@@](C)(CCCCN)C(=O)O

>  <INCHIKEY>  (3704) 
CPUSCHYXEUZMSV-ZETCQYMHSA-N

$$$$
aMeMet
     RDKit          2D

 10  9  0  0  0  0  0  0  0  0999 V2000
    0.0056    1.7744    0.0000 N   0  0  0  0  0  0  0  0  0  0  0  0
   -0.8858    0.5680    0.0000 C   0  0  0  0  0  0  0  0  0  0  0  0
   -2.0922    1.4594    0.0000 C   0  0  0  0  0  0  0  0  0  0  0  0
    0.3205   -0.3234    0.0000 C   0  0  0  0  0  0  0  0  0  0  0  0
    1.6957    0.2756    0.0000 C   0  0  0  0  0  0  0  0  0  0  0  0
    2.9021   -0.6158    0.0000 S   0  0  0  0  0  0  0  0  0  0  0  0
    4.2773   -0.0167    0.0000 C   0  0  0  0  0  0  0  0  0  0  0  0
   -1.7773   -0.6384    0.0000 C   0  0  0  0  0  0  0  0  0  0  0  0
   -3.2677   -0.4696    0.0000 O   0  0  0  0  0  0  0  0  0  0  0  0
   -1.1782   -2.0136    0.0000 O   0  0  0  0  0  0  0  0  0  0  0  0
  1  2  1  0
  2  3  1  6
  2  4  1  0
  4  5  1  0
  5  6  1  0
  6  7  1  0
  2  8  1  0
  8  9  2  0
  8 10  1  0
M  END
>  <rName>  (3705) 
aMeMet

>  <PQ_SYMBOL>  (3705) 
aMeMet

>  <FULL_NAME>  (3705) 
alpha-Methylmethionine

>  <IUPAC_CONDENSED>  (3705) 
aMeMet

>  <IUPAC>  (3705) 
(2S)-2-amino-2-methyl-4-methylsulfanylbutanoic acid

>  <TYPE>  (3705) 
Backbone

>  <CLASS>  (3705) 
alpha

>  <ANALOG>  (3705) 
Met

>  <MOL_WT>  (3705) 
163.242

>  <LOGP>  (3705) 
0.5415000000000001

>  <TPSA>  (3705) 
63.32000000000001

>  <POPULARITY>  (3705) 
2.2

>  <PROTECTED>  (3705) 
TRUE

>  <SMILES>  (3705) 
N[C@@](C)(CCSC)C(=O)O

>  <INCHIKEY>  (3705) 
ZYVMPHJZWXIFDQ-LURJTMIESA-N

$$$$
aMeNle
     RDKit          2D

 10  9  0  0  0  0  0  0  0  0999 V2000
    0.0056    1.7744    0.0000 N   0  0  0  0  0  0  0  0  0  0  0  0
   -0.8858    0.5680    0.0000 C   0  0  0  0  0  0  0  0  0  0  0  0
   -2.0922    1.4594    0.0000 C   0  0  0  0  0  0  0  0  0  0  0  0
    0.3205   -0.3234    0.0000 C   0  0  0  0  0  0  0  0  0  0  0  0
    1.6957    0.2756    0.0000 C   0  0  0  0  0  0  0  0  0  0  0  0
    2.9021   -0.6158    0.0000 C   0  0  0  0  0  0  0  0  0  0  0  0
    4.2773   -0.0167    0.0000 C   0  0  0  0  0  0  0  0  0  0  0  0
   -1.7773   -0.6384    0.0000 C   0  0  0  0  0  0  0  0  0  0  0  0
   -3.2677   -0.4696    0.0000 O   0  0  0  0  0  0  0  0  0  0  0  0
   -1.1782   -2.0136    0.0000 O   0  0  0  0  0  0  0  0  0  0  0  0
  1  2  1  0
  2  3  1  6
  2  4  1  0
  4  5  1  0
  5  6  1  0
  6  7  1  0
  2  8  1  0
  8  9  2  0
  8 10  1  0
M  END
>  <rName>  (3706) 
aMeNle

>  <PQ_SYMBOL>  (3706) 
aMeNle

>  <FULL_NAME>  (3706) 
2-methyl-L-norleucine

>  <IUPAC_CONDENSED>  (3706) 
aMeNle

>  <IUPAC>  (3706) 
(2S)-2-amino-2-methylhexanoic acid

>  <TYPE>  (3706) 
Backbone

>  <CLASS>  (3706) 
alpha

>  <ANALOG>  (3706) 
Leu

>  <MOL_WT>  (3706) 
145.202

>  <LOGP>  (3706) 
0.9785999999999997

>  <TPSA>  (3706) 
63.32000000000001

>  <POPULARITY>  (3706) 
30.2

>  <PROTECTED>  (3706) 
TRUE

>  <SMILES>  (3706) 
N[C@@](C)(CCCC)C(=O)O

>  <INCHIKEY>  (3706) 
LKZQHZQXROBVOO-ZETCQYMHSA-N

$$$$
aMeNle_EtN3
     RDKit          2D

 15 14  0  0  0  0  0  0  0  0999 V2000
   -2.8040    1.8332    0.0000 N   0  0  0  0  0  0  0  0  0  0  0  0
   -3.6318    0.5823    0.0000 C   0  0  0  0  0  0  0  0  0  0  0  0
   -4.8827    1.4101    0.0000 C   0  0  0  0  0  0  0  0  0  0  0  0
   -2.3809   -0.2455    0.0000 C   0  0  0  0  0  0  0  0  0  0  0  0
   -1.0385    0.4239    0.0000 C   0  0  0  0  0  0  0  0  0  0  0  0
    0.2124   -0.4039    0.0000 C   0  0  0  0  0  0  0  0  0  0  0  0
    1.5547    0.2655    0.0000 C   0  0  0  0  0  0  0  0  0  0  0  0
    2.8056   -0.5623    0.0000 C   0  0  0  0  0  0  0  0  0  0  0  0
    4.1480    0.1071    0.0000 C   0  0  0  0  0  0  0  0  0  0  0  0
    5.3989   -0.7207    0.0000 N   0  0  0  0  0  0  0  0  0  0  0  0
    6.7412   -0.0513    0.0000 N   0  0  0  0  0  0  0  0  0  0  0  0
    8.0836    0.6181    0.0000 N   0  0  0  0  0  0  0  0  0  0  0  0
   -4.4596   -0.6686    0.0000 C   0  0  0  0  0  0  0  0  0  0  0  0
   -5.9568   -0.5772    0.0000 O   0  0  0  0  0  0  0  0  0  0  0  0
   -3.7902   -2.0109    0.0000 O   0  0  0  0  0  0  0  0  0  0  0  0
  1  2  1  0
  2  3  1  6
  2  4  1  0
  4  5  1  0
  5  6  1  0
  6  7  1  0
  7  8  1  0
  8  9  1  0
  9 10  1  0
 10 11  2  0
 11 12  2  0
  2 13  1  0
 13 14  2  0
 13 15  1  0
M  CHG  2  11   1  12  -1
M  END
>  <rName>  (3707) 
aMeNle_EtN3

>  <PQ_SYMBOL>  (3707) 
aMeNle_EtN3

>  <FULL_NAME>  (3707) 
(2S)-2-amino-8-azido-2-methyloctanoic acid

>  <IUPAC_CONDENSED>  (3707) 
aMeNle(EtN3)

>  <IUPAC>  (3707) 
(2S)-2-amino-8-azido-2-methyloctanoic acid

>  <TYPE>  (3707) 
Backbone

>  <CLASS>  (3707) 
alpha

>  <ANALOG>  (3707) 
X

>  <MOL_WT>  (3707) 
214.269

>  <LOGP>  (3707) 
2.0492

>  <TPSA>  (3707) 
112.08

>  <POPULARITY>  (3707) 
2.2

>  <PROTECTED>  (3707) 
TRUE

>  <SMILES>  (3707) 
N[C@@](C)(CCCCCCN=[N+]=[N-])C(=O)O

>  <INCHIKEY>  (3707) 
DVEQXGJGDKTTJF-VIFPVBQESA-N

$$$$
aMeNle_N3
     RDKit          2D

 13 12  0  0  0  0  0  0  0  0999 V2000
   -1.6166    1.8113    0.0000 N   0  0  0  0  0  0  0  0  0  0  0  0
   -2.4819    0.5860    0.0000 C   0  0  0  0  0  0  0  0  0  0  0  0
   -3.7071    1.4513    0.0000 C   0  0  0  0  0  0  0  0  0  0  0  0
   -1.2566   -0.2792    0.0000 C   0  0  0  0  0  0  0  0  0  0  0  0
    0.1054    0.3493    0.0000 C   0  0  0  0  0  0  0  0  0  0  0  0
    1.3307   -0.5159    0.0000 C   0  0  0  0  0  0  0  0  0  0  0  0
    2.6927    0.1126    0.0000 C   0  0  0  0  0  0  0  0  0  0  0  0
    3.9180   -0.7527    0.0000 N   0  0  0  0  0  0  0  0  0  0  0  0
    5.2800   -0.1241    0.0000 N   0  0  0  0  0  0  0  0  0  0  0  0
    6.6419    0.5044    0.0000 N   0  0  0  0  0  0  0  0  0  0  0  0
   -3.3471   -0.6392    0.0000 C   0  0  0  0  0  0  0  0  0  0  0  0
   -4.8409   -0.5026    0.0000 O   0  0  0  0  0  0  0  0  0  0  0  0
   -2.7186   -2.0012    0.0000 O   0  0  0  0  0  0  0  0  0  0  0  0
  1  2  1  0
  2  3  1  6
  2  4  1  0
  4  5  1  0
  5  6  1  0
  6  7  1  0
  7  8  1  0
  8  9  2  0
  9 10  2  0
  2 11  1  0
 11 12  2  0
 11 13  1  0
M  CHG  2   9   1  10  -1
M  END
>  <rName>  (3708) 
aMeNle_N3

>  <PQ_SYMBOL>  (3708) 
aMeNle_N3

>  <FULL_NAME>  (3708) 
(2S)-2-amino-6-azido-2-methylhexanoic acid

>  <IUPAC_CONDENSED>  (3708) 
aMeNle(N3)

>  <IUPAC>  (3708) 
(2S)-2-amino-6-azido-2-methylhexanoic acid

>  <TYPE>  (3708) 
Backbone

>  <CLASS>  (3708) 
alpha

>  <ANALOG>  (3708) 
Lys

>  <MOL_WT>  (3708) 
186.215

>  <LOGP>  (3708) 
1.269

>  <TPSA>  (3708) 
112.08

>  <POPULARITY>  (3708) 
2.2

>  <PROTECTED>  (3708) 
TRUE

>  <SMILES>  (3708) 
N[C@@](C)(CCCCN=[N+]=[N-])C(=O)O

>  <INCHIKEY>  (3708) 
PYGYXUWPBHVSPI-ZETCQYMHSA-N

$$$$
aMeNle_allyl
     RDKit          2D

 13 12  0  0  0  0  0  0  0  0999 V2000
   -1.7290    1.8167    0.0000 N   0  0  0  0  0  0  0  0  0  0  0  0
   -2.5120    0.5373    0.0000 C   0  0  0  0  0  0  0  0  0  0  0  0
   -3.7914    1.3203    0.0000 C   0  0  0  0  0  0  0  0  0  0  0  0
   -1.2326   -0.2457    0.0000 C   0  0  0  0  0  0  0  0  0  0  0  0
    0.0852    0.4708    0.0000 C   0  0  0  0  0  0  0  0  0  0  0  0
    1.3646   -0.3122    0.0000 C   0  0  0  0  0  0  0  0  0  0  0  0
    2.6825    0.4044    0.0000 C   0  0  0  0  0  0  0  0  0  0  0  0
    3.9619   -0.3786    0.0000 C   0  0  0  0  0  0  0  0  0  0  0  0
    5.2797    0.3379    0.0000 C   0  0  0  0  0  0  0  0  0  0  0  0
    6.5591   -0.4451    0.0000 C   0  0  0  0  0  0  0  0  0  0  0  0
   -3.2950   -0.7421    0.0000 C   0  0  0  0  0  0  0  0  0  0  0  0
   -4.7945   -0.7037    0.0000 O   0  0  0  0  0  0  0  0  0  0  0  0
   -2.5785   -2.0599    0.0000 O   0  0  0  0  0  0  0  0  0  0  0  0
  1  2  1  0
  2  3  1  6
  2  4  1  0
  4  5  1  0
  5  6  1  0
  6  7  1  0
  7  8  1  0
  8  9  1  0
  9 10  2  0
  2 11  1  0
 11 12  2  0
 11 13  1  0
M  END
>  <rName>  (3709) 
aMeNle_allyl

>  <PQ_SYMBOL>  (3709) 
aMeNle_allyl

>  <FULL_NAME>  (3709) 
(S)-2-amino-2-methylnon-8-enoic acid

>  <IUPAC_CONDENSED>  (3709) 
aMeNle(allyl)

>  <IUPAC>  (3709) 
(2S)-2-amino-2-methylnon-8-enoic acid

>  <TYPE>  (3709) 
Backbone

>  <CLASS>  (3709) 
alpha

>  <ANALOG>  (3709) 
X

>  <MOL_WT>  (3709) 
185.267

>  <LOGP>  (3709) 
1.9248999999999998

>  <TPSA>  (3709) 
63.32000000000001

>  <POPULARITY>  (3709) 
8.6

>  <PROTECTED>  (3709) 
TRUE

>  <SMILES>  (3709) 
N[C@@](C)(CCCCCC=C)C(=O)O

>  <INCHIKEY>  (3709) 
DRHBBJMAJLZSRN-JTQLQIEISA-N

$$$$
aMeNle_but3enyl
     RDKit          2D

 14 13  0  0  0  0  0  0  0  0999 V2000
   -2.2743    1.8192    0.0000 N   0  0  0  0  0  0  0  0  0  0  0  0
   -3.0695    0.5473    0.0000 C   0  0  0  0  0  0  0  0  0  0  0  0
   -4.3414    1.3425    0.0000 C   0  0  0  0  0  0  0  0  0  0  0  0
   -1.7977   -0.2479    0.0000 C   0  0  0  0  0  0  0  0  0  0  0  0
   -0.4731    0.4560    0.0000 C   0  0  0  0  0  0  0  0  0  0  0  0
    0.7988   -0.3392    0.0000 C   0  0  0  0  0  0  0  0  0  0  0  0
    2.1234    0.3646    0.0000 C   0  0  0  0  0  0  0  0  0  0  0  0
    3.3953   -0.4306    0.0000 C   0  0  0  0  0  0  0  0  0  0  0  0
    4.7199    0.2733    0.0000 C   0  0  0  0  0  0  0  0  0  0  0  0
    5.9917   -0.5219    0.0000 C   0  0  0  0  0  0  0  0  0  0  0  0
    7.3163    0.1820    0.0000 C   0  0  0  0  0  0  0  0  0  0  0  0
   -3.8647   -0.7245    0.0000 C   0  0  0  0  0  0  0  0  0  0  0  0
   -5.3638   -0.6718    0.0000 O   0  0  0  0  0  0  0  0  0  0  0  0
   -3.1609   -2.0491    0.0000 O   0  0  0  0  0  0  0  0  0  0  0  0
  1  2  1  0
  2  3  1  6
  2  4  1  0
  4  5  1  0
  5  6  1  0
  6  7  1  0
  7  8  1  0
  8  9  1  0
  9 10  1  0
 10 11  2  0
  2 12  1  0
 12 13  2  0
 12 14  1  0
M  END
>  <rName>  (3710) 
aMeNle_but3enyl

>  <PQ_SYMBOL>  (3710) 
aMeNle_but3enyl

>  <FULL_NAME>  (3710) 
(S)-2-amino-2-methyldec-9-enoic acid

>  <IUPAC_CONDENSED>  (3710) 
aMeNle(but-3-enyl)

>  <IUPAC>  (3710) 
(2S)-2-amino-2-methyldec-9-enoic acid

>  <TYPE>  (3710) 
Backbone

>  <CLASS>  (3710) 
alpha

>  <ANALOG>  (3710) 
X

>  <MOL_WT>  (3710) 
199.294

>  <LOGP>  (3710) 
2.315

>  <TPSA>  (3710) 
63.32000000000001

>  <POPULARITY>  (3710) 
9.4

>  <PROTECTED>  (3710) 
TRUE

>  <SMILES>  (3710) 
N[C@@](C)(CCCCCCC=C)C(=O)O

>  <INCHIKEY>  (3710) 
JWZFECWHKQLRGK-NSHDSACASA-N

$$$$
aMeNle_hex5enyl
     RDKit          2D

 16 15  0  0  0  0  0  0  0  0999 V2000
   -3.4499    1.8157    0.0000 N   0  0  0  0  0  0  0  0  0  0  0  0
   -4.2317    0.5355    0.0000 C   0  0  0  0  0  0  0  0  0  0  0  0
   -5.5119    1.3173    0.0000 C   0  0  0  0  0  0  0  0  0  0  0  0
   -2.9516   -0.2463    0.0000 C   0  0  0  0  0  0  0  0  0  0  0  0
   -1.6344    0.4715    0.0000 C   0  0  0  0  0  0  0  0  0  0  0  0
   -0.3543   -0.3103    0.0000 C   0  0  0  0  0  0  0  0  0  0  0  0
    0.9629    0.4075    0.0000 C   0  0  0  0  0  0  0  0  0  0  0  0
    2.2430   -0.3743    0.0000 C   0  0  0  0  0  0  0  0  0  0  0  0
    3.5601    0.3435    0.0000 C   0  0  0  0  0  0  0  0  0  0  0  0
    4.8403   -0.4383    0.0000 C   0  0  0  0  0  0  0  0  0  0  0  0
    6.1574    0.2794    0.0000 C   0  0  0  0  0  0  0  0  0  0  0  0
    7.4376   -0.5023    0.0000 C   0  0  0  0  0  0  0  0  0  0  0  0
    8.7547    0.2154    0.0000 C   0  0  0  0  0  0  0  0  0  0  0  0
   -5.0135   -0.7447    0.0000 C   0  0  0  0  0  0  0  0  0  0  0  0
   -6.5130   -0.7077    0.0000 O   0  0  0  0  0  0  0  0  0  0  0  0
   -4.2957   -2.0618    0.0000 O   0  0  0  0  0  0  0  0  0  0  0  0
  1  2  1  0
  2  3  1  6
  2  4  1  0
  4  5  1  0
  5  6  1  0
  6  7  1  0
  7  8  1  0
  8  9  1  0
  9 10  1  0
 10 11  1  0
 11 12  1  0
 12 13  2  0
  2 14  1  0
 14 15  2  0
 14 16  1  0
M  END
>  <rName>  (3711) 
aMeNle_hex5enyl

>  <PQ_SYMBOL>  (3711) 
aMeNle_hex5enyl

>  <FULL_NAME>  (3711) 
(S)-2-amino-2-methyldodec-11-enoic acid

>  <IUPAC_CONDENSED>  (3711) 
aMeNle(hex-5-enyl)

>  <IUPAC>  (3711) 
(2S)-2-amino-2-methyldodec-11-enoic acid

>  <TYPE>  (3711) 
Backbone

>  <CLASS>  (3711) 
alpha

>  <ANALOG>  (3711) 
X

>  <MOL_WT>  (3711) 
227.34799999999998

>  <LOGP>  (3711) 
3.095200000000001

>  <TPSA>  (3711) 
63.32000000000001

>  <POPULARITY>  (3711) 
7.8

>  <PROTECTED>  (3711) 
TRUE

>  <SMILES>  (3711) 
N[C@@](C)(CCCCCCCCC=C)C(=O)O

>  <INCHIKEY>  (3711) 
NIZDOMFZGSADGL-ZDUSSCGKSA-N

$$$$
aMeNle_prop2ynyl
     RDKit          2D

 13 12  0  0  0  0  0  0  0  0999 V2000
   -1.6166    1.8113    0.0000 N   0  0  0  0  0  0  0  0  0  0  0  0
   -2.4819    0.5860    0.0000 C   0  0  0  0  0  0  0  0  0  0  0  0
   -3.7071    1.4513    0.0000 C   0  0  0  0  0  0  0  0  0  0  0  0
   -1.2566   -0.2792    0.0000 C   0  0  0  0  0  0  0  0  0  0  0  0
    0.1054    0.3493    0.0000 C   0  0  0  0  0  0  0  0  0  0  0  0
    1.3307   -0.5159    0.0000 C   0  0  0  0  0  0  0  0  0  0  0  0
    2.6927    0.1126    0.0000 C   0  0  0  0  0  0  0  0  0  0  0  0
    3.9180   -0.7527    0.0000 C   0  0  0  0  0  0  0  0  0  0  0  0
    5.2800   -0.1241    0.0000 C   0  0  0  0  0  0  0  0  0  0  0  0
    6.6419    0.5044    0.0000 C   0  0  0  0  0  0  0  0  0  0  0  0
   -3.3471   -0.6392    0.0000 C   0  0  0  0  0  0  0  0  0  0  0  0
   -4.8409   -0.5026    0.0000 O   0  0  0  0  0  0  0  0  0  0  0  0
   -2.7186   -2.0012    0.0000 O   0  0  0  0  0  0  0  0  0  0  0  0
  1  2  1  0
  2  3  1  6
  2  4  1  0
  4  5  1  0
  5  6  1  0
  6  7  1  0
  7  8  1  0
  8  9  1  0
  9 10  3  0
  2 11  1  0
 11 12  2  0
 11 13  1  0
M  END
>  <rName>  (3712) 
aMeNle_prop2ynyl

>  <PQ_SYMBOL>  (3712) 
aMeNle_prop2ynyl

>  <FULL_NAME>  (3712) 
(2S)-2-amino-2-methylnon-8-ynoic acid

>  <IUPAC_CONDENSED>  (3712) 
aMeNle(prop-2-ynyl)

>  <IUPAC>  (3712) 
(2S)-2-amino-2-methylnon-8-ynoic acid

>  <TYPE>  (3712) 
Backbone

>  <CLASS>  (3712) 
alpha

>  <ANALOG>  (3712) 
X

>  <MOL_WT>  (3712) 
183.251

>  <LOGP>  (3712) 
1.3720999999999997

>  <TPSA>  (3712) 
63.32000000000001

>  <POPULARITY>  (3712) 
2.2

>  <PROTECTED>  (3712) 
TRUE

>  <SMILES>  (3712) 
N[C@@](C)(CCCCCC#C)C(=O)O

>  <INCHIKEY>  (3712) 
OCVMRPUTOUMOLZ-JTQLQIEISA-N

$$$$
aMeNle_vinyl
     RDKit          2D

 12 11  0  0  0  0  0  0  0  0999 V2000
   -1.1275    1.8149    0.0000 N   0  0  0  0  0  0  0  0  0  0  0  0
   -1.9492    0.5601    0.0000 C   0  0  0  0  0  0  0  0  0  0  0  0
   -3.2041    1.3818    0.0000 C   0  0  0  0  0  0  0  0  0  0  0  0
   -0.6943   -0.2617    0.0000 C   0  0  0  0  0  0  0  0  0  0  0  0
    0.6448    0.4142    0.0000 C   0  0  0  0  0  0  0  0  0  0  0  0
    1.8997   -0.4075    0.0000 C   0  0  0  0  0  0  0  0  0  0  0  0
    3.2388    0.2684    0.0000 C   0  0  0  0  0  0  0  0  0  0  0  0
    4.4937   -0.5533    0.0000 C   0  0  0  0  0  0  0  0  0  0  0  0
    5.8327    0.1226    0.0000 C   0  0  0  0  0  0  0  0  0  0  0  0
   -2.7709   -0.6948    0.0000 C   0  0  0  0  0  0  0  0  0  0  0  0
   -4.2686   -0.6106    0.0000 O   0  0  0  0  0  0  0  0  0  0  0  0
   -2.0950   -2.0339    0.0000 O   0  0  0  0  0  0  0  0  0  0  0  0
  1  2  1  0
  2  3  1  6
  2  4  1  0
  4  5  1  0
  5  6  1  0
  6  7  1  0
  7  8  1  0
  8  9  2  0
  2 10  1  0
 10 11  2  0
 10 12  1  0
M  END
>  <rName>  (3713) 
aMeNle_vinyl

>  <PQ_SYMBOL>  (3713) 
aMeNle_vinyl

>  <FULL_NAME>  (3713) 
(2S)-2-amino-2-methyloct-7-enoic acid

>  <IUPAC_CONDENSED>  (3713) 
aMeNle(vinyl)

>  <IUPAC>  (3713) 
(2S)-2-amino-2-methyloct-7-enoic acid

>  <TYPE>  (3713) 
Backbone

>  <CLASS>  (3713) 
alpha

>  <ANALOG>  (3713) 
X

>  <MOL_WT>  (3713) 
171.24

>  <LOGP>  (3713) 
1.5348

>  <TPSA>  (3713) 
63.32000000000001

>  <POPULARITY>  (3713) 
9.8

>  <PROTECTED>  (3713) 
TRUE

>  <SMILES>  (3713) 
N[C@@](C)(CCCCC=C)C(=O)O

>  <INCHIKEY>  (3713) 
LZZHLUIHALMSMF-VIFPVBQESA-N

$$$$
aMeNva
     RDKit          2D

  9  8  0  0  0  0  0  0  0  0999 V2000
    0.4883    1.7705    0.0000 N   0  0  0  0  0  0  0  0  0  0  0  0
   -0.4082    0.5679    0.0000 C   0  0  0  0  0  0  0  0  0  0  0  0
   -1.6108    1.4643    0.0000 C   0  0  0  0  0  0  0  0  0  0  0  0
    0.7944   -0.3286    0.0000 C   0  0  0  0  0  0  0  0  0  0  0  0
    2.1721    0.2647    0.0000 C   0  0  0  0  0  0  0  0  0  0  0  0
    3.3748   -0.6318    0.0000 C   0  0  0  0  0  0  0  0  0  0  0  0
   -1.3047   -0.6348    0.0000 C   0  0  0  0  0  0  0  0  0  0  0  0
   -2.7944   -0.4597    0.0000 O   0  0  0  0  0  0  0  0  0  0  0  0
   -0.7114   -2.0125    0.0000 O   0  0  0  0  0  0  0  0  0  0  0  0
  1  2  1  0
  2  3  1  6
  2  4  1  0
  4  5  1  0
  5  6  1  0
  2  7  1  0
  7  8  2  0
  7  9  1  0
M  END
>  <rName>  (3714) 
aMeNva

>  <PQ_SYMBOL>  (3714) 
aMeNva

>  <FULL_NAME>  (3714) 
(S)-2-amino-2-methylpentanoic acid

>  <IUPAC_CONDENSED>  (3714) 
aMeNva

>  <IUPAC>  (3714) 
(2S)-2-amino-2-methylpentanoic acid

>  <TYPE>  (3714) 
Backbone

>  <CLASS>  (3714) 
alpha

>  <ANALOG>  (3714) 
Leu

>  <MOL_WT>  (3714) 
131.175

>  <LOGP>  (3714) 
0.5884999999999998

>  <TPSA>  (3714) 
63.32000000000001

>  <POPULARITY>  (3714) 
14.2

>  <PROTECTED>  (3714) 
TRUE

>  <SMILES>  (3714) 
N[C@@](C)(CCC)C(=O)O

>  <INCHIKEY>  (3714) 
HBJGLYBWNNQMOW-LURJTMIESA-N

$$$$
aMeNva_vinyl
     RDKit          2D

 11 10  0  0  0  0  0  0  0  0999 V2000
   -0.6186    1.8190    0.0000 N   0  0  0  0  0  0  0  0  0  0  0  0
   -1.4256    0.5545    0.0000 C   0  0  0  0  0  0  0  0  0  0  0  0
   -2.6900    1.3614    0.0000 C   0  0  0  0  0  0  0  0  0  0  0  0
   -0.1611   -0.2524    0.0000 C   0  0  0  0  0  0  0  0  0  0  0  0
    1.1700    0.4391    0.0000 C   0  0  0  0  0  0  0  0  0  0  0  0
    2.4344   -0.3678    0.0000 C   0  0  0  0  0  0  0  0  0  0  0  0
    3.7655    0.3238    0.0000 C   0  0  0  0  0  0  0  0  0  0  0  0
    5.0299   -0.4832    0.0000 C   0  0  0  0  0  0  0  0  0  0  0  0
   -2.2325   -0.7100    0.0000 C   0  0  0  0  0  0  0  0  0  0  0  0
   -3.7310   -0.6433    0.0000 O   0  0  0  0  0  0  0  0  0  0  0  0
   -1.5409   -2.0410    0.0000 O   0  0  0  0  0  0  0  0  0  0  0  0
  1  2  1  0
  2  3  1  6
  2  4  1  0
  4  5  1  0
  5  6  1  0
  6  7  1  0
  7  8  2  0
  2  9  1  0
  9 10  2  0
  9 11  1  0
M  END
>  <rName>  (3715) 
aMeNva_vinyl

>  <PQ_SYMBOL>  (3715) 
aMeNva_vinyl

>  <FULL_NAME>  (3715) 
(2S)-2-amino-2-methylhept-6-enoic acid

>  <IUPAC_CONDENSED>  (3715) 
aMeNva(vinyl)

>  <IUPAC>  (3715) 
(2S)-2-amino-2-methylhept-6-enoic acid

>  <TYPE>  (3715) 
Backbone

>  <CLASS>  (3715) 
alpha

>  <ANALOG>  (3715) 
Leu

>  <MOL_WT>  (3715) 
157.213

>  <LOGP>  (3715) 
1.1446999999999998

>  <TPSA>  (3715) 
63.32000000000001

>  <POPULARITY>  (3715) 
23.8

>  <PROTECTED>  (3715) 
TRUE

>  <SMILES>  (3715) 
N[C@@](C)(CCCC=C)C(=O)O

>  <INCHIKEY>  (3715) 
AERCCJGORROTKW-QMMMGPOBSA-N

$$$$
aMeOHGaba
     RDKit          2D

  9  8  0  0  0  0  0  0  0  0999 V2000
    1.7016   -1.5966    0.0000 N   0  0  0  0  0  0  0  0  0  0  0  0
    1.4770   -0.1135    0.0000 C   0  0  0  0  0  0  0  0  0  0  0  0
    2.6491    0.8225    0.0000 C   0  0  0  0  0  0  0  0  0  0  0  0
    4.0458    0.2755    0.0000 O   0  0  0  0  0  0  0  0  0  0  0  0
    0.0803    0.4336    0.0000 C   0  0  0  0  0  0  0  0  0  0  0  0
   -1.0918   -0.5025    0.0000 C   0  0  0  0  0  0  0  0  0  0  0  0
   -2.4885    0.0446    0.0000 C   0  0  0  0  0  0  0  0  0  0  0  0
   -2.7130    1.5277    0.0000 O   0  0  0  0  0  0  0  0  0  0  0  0
   -3.6606   -0.8914    0.0000 O   0  0  0  0  0  0  0  0  0  0  0  0
  2  1  1  1
  2  3  1  0
  3  4  1  0
  2  5  1  0
  5  6  1  0
  6  7  1  0
  7  8  2  0
  7  9  1  0
M  END
>  <rName>  (3716) 
aMeOHGaba

>  <PQ_SYMBOL>  (3716) 
aMeOHGaba

>  <FULL_NAME>  (3716) 
(4S)-4-Amino-5-hydroxypentanoic acid

>  <IUPAC_CONDENSED>  (3716) 
aMeOHGaba

>  <IUPAC>  (3716) 
(4S)-4-amino-5-hydroxypentanoic acid

>  <TYPE>  (3716) 
Backbone

>  <CLASS>  (3716) 
gamma

>  <ANALOG>  (3716) 
Ser

>  <MOL_WT>  (3716) 
133.14700000000002

>  <LOGP>  (3716) 
-0.8292000000000004

>  <TPSA>  (3716) 
83.55

>  <POPULARITY>  (3716) 
2.2

>  <PROTECTED>  (3716) 
TRUE

>  <SMILES>  (3716) 
N[C@H](CO)CCC(=O)O

>  <INCHIKEY>  (3716) 
JPYGFLFUDLRNKX-BYPYZUCNSA-N

$$$$
aMeOrn
     RDKit          2D

 10  9  0  0  0  0  0  0  0  0999 V2000
    0.0056    1.7744    0.0000 N   0  0  0  0  0  0  0  0  0  0  0  0
   -0.8858    0.5680    0.0000 C   0  0  0  0  0  0  0  0  0  0  0  0
   -2.0922    1.4594    0.0000 C   0  0  0  0  0  0  0  0  0  0  0  0
    0.3205   -0.3234    0.0000 C   0  0  0  0  0  0  0  0  0  0  0  0
    1.6957    0.2756    0.0000 C   0  0  0  0  0  0  0  0  0  0  0  0
    2.9021   -0.6158    0.0000 C   0  0  0  0  0  0  0  0  0  0  0  0
    4.2773   -0.0167    0.0000 N   0  0  0  0  0  0  0  0  0  0  0  0
   -1.7773   -0.6384    0.0000 C   0  0  0  0  0  0  0  0  0  0  0  0
   -3.2677   -0.4696    0.0000 O   0  0  0  0  0  0  0  0  0  0  0  0
   -1.1782   -2.0136    0.0000 O   0  0  0  0  0  0  0  0  0  0  0  0
  1  2  1  0
  2  3  1  6
  2  4  1  0
  4  5  1  0
  5  6  1  0
  6  7  1  0
  2  8  1  0
  8  9  2  0
  8 10  1  0
M  END
>  <rName>  (3717) 
aMeOrn

>  <PQ_SYMBOL>  (3717) 
aMeOrn

>  <FULL_NAME>  (3717) 
alpha-Methyl-L-Ornithine

>  <IUPAC_CONDENSED>  (3717) 
aMeOrn

>  <IUPAC>  (3717) 
(2S)-2,5-diamino-2-methylpentanoic acid

>  <TYPE>  (3717) 
Backbone

>  <CLASS>  (3717) 
alpha

>  <ANALOG>  (3717) 
Lys

>  <MOL_WT>  (3717) 
146.19000000000003

>  <LOGP>  (3717) 
-0.4727000000000004

>  <TPSA>  (3717) 
89.34

>  <POPULARITY>  (3717) 
12.2

>  <PROTECTED>  (3717) 
TRUE

>  <SMILES>  (3717) 
N[C@@](C)(CCCN)C(=O)O

>  <INCHIKEY>  (3717) 
LNDPCYHWPSQBCA-LURJTMIESA-N

$$$$
aMePhe
     RDKit          2D

 13 13  0  0  0  0  0  0  0  0999 V2000
   -0.4214    1.4691    0.0000 N   0  0  0  0  0  0  0  0  0  0  0  0
   -1.5526    0.4840    0.0000 C   0  0  0  0  0  0  0  0  0  0  0  0
   -2.5377    1.6152    0.0000 C   0  0  0  0  0  0  0  0  0  0  0  0
   -0.5675   -0.6472    0.0000 C   0  0  0  0  0  0  0  0  0  0  0  0
    0.9047   -0.3597    0.0000 C   0  0  0  0  0  0  0  0  0  0  0  0
    1.3918    1.0591    0.0000 C   0  0  0  0  0  0  0  0  0  0  0  0
    2.8640    1.3466    0.0000 C   0  0  0  0  0  0  0  0  0  0  0  0
    3.8491    0.2154    0.0000 C   0  0  0  0  0  0  0  0  0  0  0  0
    3.3620   -1.2033    0.0000 C   0  0  0  0  0  0  0  0  0  0  0  0
    1.8898   -1.4908    0.0000 C   0  0  0  0  0  0  0  0  0  0  0  0
   -2.6837   -0.5011    0.0000 C   0  0  0  0  0  0  0  0  0  0  0  0
   -2.3962   -1.9733    0.0000 O   0  0  0  0  0  0  0  0  0  0  0  0
   -4.1025   -0.0140    0.0000 O   0  0  0  0  0  0  0  0  0  0  0  0
  1  2  1  0
  2  3  1  6
  2  4  1  0
  4  5  1  0
  5  6  2  0
  6  7  1  0
  7  8  2  0
  8  9  1  0
  9 10  2  0
  2 11  1  0
 11 12  2  0
 11 13  1  0
 10  5  1  0
M  END
>  <rName>  (3718) 
aMePhe

>  <PQ_SYMBOL>  (3718) 
aMePhe

>  <FULL_NAME>  (3718) 
alpha-Methyl-L-Phenylalanine

>  <IUPAC_CONDENSED>  (3718) 
aMePhe

>  <IUPAC>  (3718) 
(2S)-2-amino-2-benzylpropanoic acid

>  <TYPE>  (3718) 
Backbone

>  <CLASS>  (3718) 
alpha

>  <ANALOG>  (3718) 
Phe

>  <MOL_WT>  (3718) 
179.21899999999997

>  <LOGP>  (3718) 
1.0311

>  <TPSA>  (3718) 
63.32000000000001

>  <POPULARITY>  (3718) 
21.3

>  <PROTECTED>  (3718) 
TRUE

>  <SMILES>  (3718) 
N[C@@](C)(Cc1(ccccc1))C(=O)O

>  <INCHIKEY>  (3718) 
HYOWVAAEQCNGLE-JTQLQIEISA-N

$$$$
aMePhe-OMe
     RDKit          2D

 14 14  0  0  0  0  0  0  0  0999 V2000
    0.0372   -1.5408    0.0000 N   0  0  0  0  0  0  0  0  0  0  0  0
   -1.1464   -0.6193    0.0000 C   0  0  0  0  0  0  0  0  0  0  0  0
   -2.0678   -1.8029    0.0000 C   0  0  0  0  0  0  0  0  0  0  0  0
   -2.3300    0.3021    0.0000 C   0  0  0  0  0  0  0  0  0  0  0  0
   -2.1239    1.7879    0.0000 O   0  0  0  0  0  0  0  0  0  0  0  0
   -3.7198   -0.2622    0.0000 O   0  0  0  0  0  0  0  0  0  0  0  0
   -4.9035    0.6592    0.0000 C   0  0  0  0  0  0  0  0  0  0  0  0
   -0.2250    0.5643    0.0000 C   0  0  0  0  0  0  0  0  0  0  0  0
    1.2608    0.3581    0.0000 C   0  0  0  0  0  0  0  0  0  0  0  0
    1.8251   -1.0317    0.0000 C   0  0  0  0  0  0  0  0  0  0  0  0
    3.3109   -1.2378    0.0000 C   0  0  0  0  0  0  0  0  0  0  0  0
    4.2323   -0.0542    0.0000 C   0  0  0  0  0  0  0  0  0  0  0  0
    3.6680    1.3356    0.0000 C   0  0  0  0  0  0  0  0  0  0  0  0
    2.1822    1.5418    0.0000 C   0  0  0  0  0  0  0  0  0  0  0  0
  1  2  1  0
  2  3  1  1
  2  4  1  0
  4  5  2  0
  4  6  1  0
  6  7  1  0
  2  8  1  0
  8  9  1  0
  9 10  2  0
 10 11  1  0
 11 12  2  0
 12 13  1  0
 13 14  2  0
 14  9  1  0
M  END
>  <rName>  (3719) 
aMePhe-OMe

>  <PQ_SYMBOL>  (3719) 
aMePhe-OMe

>  <FULL_NAME>  (3719) 
methyl (2S)-2-amino-2-methyl-3-phenylpropanoate

>  <IUPAC_CONDENSED>  (3719) 
aMePhe-OMe

>  <IUPAC>  (3719) 
methyl (2S)-2-amino-2-benzylpropanoate

>  <TYPE>  (3719) 
C-term cap

>  <CLASS>  (3719) 
c_cap

>  <ANALOG>  (3719) 
X

>  <MOL_WT>  (3719) 
193.246

>  <LOGP>  (3719) 
1.1194999999999993

>  <TPSA>  (3719) 
52.32000000000001

>  <POPULARITY>  (3719) 
10.6

>  <PROTECTED>  (3719) 
TRUE

>  <SMILES>  (3719) 
N[C@](C)(C(=O)OC)Cc1ccccc1

>  <INCHIKEY>  (3719) 
DAOFJPZFGBKAMZ-NSHDSACASA-N

$$$$
aMePhe_26diF
     RDKit          2D

 15 15  0  0  0  0  0  0  0  0999 V2000
   -0.6309    1.4823    0.0000 N   0  0  0  0  0  0  0  0  0  0  0  0
   -1.7018    0.4319    0.0000 C   0  0  0  0  0  0  0  0  0  0  0  0
   -2.7521    1.5027    0.0000 C   0  0  0  0  0  0  0  0  0  0  0  0
   -0.6514   -0.6389    0.0000 C   0  0  0  0  0  0  0  0  0  0  0  0
    0.8012   -0.2647    0.0000 C   0  0  0  0  0  0  0  0  0  0  0  0
    1.2034    1.1804    0.0000 C   0  0  0  0  0  0  0  0  0  0  0  0
    0.1530    2.2512    0.0000 F   0  0  0  0  0  0  0  0  0  0  0  0
    2.6559    1.5546    0.0000 C   0  0  0  0  0  0  0  0  0  0  0  0
    3.7063    0.4838    0.0000 C   0  0  0  0  0  0  0  0  0  0  0  0
    3.3041   -0.9613    0.0000 C   0  0  0  0  0  0  0  0  0  0  0  0
    1.8516   -1.3355    0.0000 C   0  0  0  0  0  0  0  0  0  0  0  0
    1.4494   -2.7806    0.0000 F   0  0  0  0  0  0  0  0  0  0  0  0
   -2.7726   -0.6185    0.0000 C   0  0  0  0  0  0  0  0  0  0  0  0
   -4.2177   -0.2163    0.0000 O   0  0  0  0  0  0  0  0  0  0  0  0
   -2.3984   -2.0711    0.0000 O   0  0  0  0  0  0  0  0  0  0  0  0
  1  2  1  0
  2  3  1  6
  2  4  1  0
  4  5  1  0
  5  6  2  0
  6  7  1  0
  6  8  1  0
  8  9  2  0
  9 10  1  0
 10 11  2  0
 11 12  1  0
  2 13  1  0
 13 14  2  0
 13 15  1  0
 11  5  1  0
M  END
>  <rName>  (3720) 
aMePhe_26diF

>  <PQ_SYMBOL>  (3720) 
aMePhe_26diF

>  <FULL_NAME>  (3720) 
(2S)-2-amino-3-(2,6-difluorophenyl)-2-methylpropanoic acid

>  <IUPAC_CONDENSED>  (3720) 
aMePhe(2,6-diF)

>  <IUPAC>  (3720) 
(2S)-2-amino-2-((2,6-difluorophenyl)methyl)propanoic acid

>  <TYPE>  (3720) 
Backbone

>  <CLASS>  (3720) 
alpha

>  <ANALOG>  (3720) 
Phe

>  <MOL_WT>  (3720) 
215.19899999999998

>  <LOGP>  (3720) 
1.3093

>  <TPSA>  (3720) 
63.32000000000001

>  <POPULARITY>  (3720) 
12.4

>  <PROTECTED>  (3720) 
TRUE

>  <SMILES>  (3720) 
N[C@@](C)(Cc1(c(F)cccc1F))C(=O)O

>  <INCHIKEY>  (3720) 
WEWMIQSBLMNNMQ-JTQLQIEISA-N

$$$$
aMePhe_2F
     RDKit          2D

 14 14  0  0  0  0  0  0  0  0999 V2000
   -0.6305    1.6391    0.0000 N   0  0  0  0  0  0  0  0  0  0  0  0
   -1.6946    0.5819    0.0000 C   0  0  0  0  0  0  0  0  0  0  0  0
   -2.7518    1.6460    0.0000 C   0  0  0  0  0  0  0  0  0  0  0  0
   -0.6374   -0.4822    0.0000 C   0  0  0  0  0  0  0  0  0  0  0  0
    0.8128   -0.0987    0.0000 C   0  0  0  0  0  0  0  0  0  0  0  0
    1.2057    1.3489    0.0000 C   0  0  0  0  0  0  0  0  0  0  0  0
    2.6559    1.7324    0.0000 C   0  0  0  0  0  0  0  0  0  0  0  0
    3.7131    0.6683    0.0000 C   0  0  0  0  0  0  0  0  0  0  0  0
    3.3201   -0.7793    0.0000 C   0  0  0  0  0  0  0  0  0  0  0  0
    1.8699   -1.1628    0.0000 C   0  0  0  0  0  0  0  0  0  0  0  0
    1.4770   -2.6105    0.0000 F   0  0  0  0  0  0  0  0  0  0  0  0
   -2.7587   -0.4753    0.0000 C   0  0  0  0  0  0  0  0  0  0  0  0
   -2.3752   -1.9254    0.0000 O   0  0  0  0  0  0  0  0  0  0  0  0
   -4.2063   -0.0823    0.0000 O   0  0  0  0  0  0  0  0  0  0  0  0
  1  2  1  0
  2  3  1  6
  2  4  1  0
  4  5  1  0
  5  6  2  0
  6  7  1  0
  7  8  2  0
  8  9  1  0
  9 10  2  0
 10 11  1  0
  2 12  1  0
 12 13  2  0
 12 14  1  0
 10  5  1  0
M  END
>  <rName>  (3721) 
aMePhe_2F

>  <PQ_SYMBOL>  (3721) 
aMePhe_2F

>  <FULL_NAME>  (3721) 
alpha-Methyl-L-2-fluorophenylalanine

>  <IUPAC_CONDENSED>  (3721) 
aMePhe(2-F)

>  <IUPAC>  (3721) 
(2S)-2-amino-2-((2-fluorophenyl)methyl)propanoic acid

>  <TYPE>  (3721) 
Backbone

>  <CLASS>  (3721) 
alpha

>  <ANALOG>  (3721) 
Phe

>  <MOL_WT>  (3721) 
197.20899999999995

>  <LOGP>  (3721) 
1.1702

>  <TPSA>  (3721) 
63.32000000000001

>  <POPULARITY>  (3721) 
21.3

>  <PROTECTED>  (3721) 
TRUE

>  <SMILES>  (3721) 
N[C@@](C)(Cc1(ccccc1F))C(=O)O

>  <INCHIKEY>  (3721) 
MXECDVKIKUSSNC-JTQLQIEISA-N

$$$$
aMePhe_2I
     RDKit          2D

 14 14  0  0  0  0  0  0  0  0999 V2000
   -0.6305    1.6391    0.0000 N   0  0  0  0  0  0  0  0  0  0  0  0
   -1.6946    0.5819    0.0000 C   0  0  0  0  0  0  0  0  0  0  0  0
   -2.7518    1.6460    0.0000 C   0  0  0  0  0  0  0  0  0  0  0  0
   -0.6374   -0.4822    0.0000 C   0  0  0  0  0  0  0  0  0  0  0  0
    0.8128   -0.0987    0.0000 C   0  0  0  0  0  0  0  0  0  0  0  0
    1.2057    1.3489    0.0000 C   0  0  0  0  0  0  0  0  0  0  0  0
    2.6559    1.7324    0.0000 C   0  0  0  0  0  0  0  0  0  0  0  0
    3.7131    0.6683    0.0000 C   0  0  0  0  0  0  0  0  0  0  0  0
    3.3201   -0.7793    0.0000 C   0  0  0  0  0  0  0  0  0  0  0  0
    1.8699   -1.1628    0.0000 C   0  0  0  0  0  0  0  0  0  0  0  0
    1.4770   -2.6105    0.0000 I   0  0  0  0  0  0  0  0  0  0  0  0
   -2.7587   -0.4753    0.0000 C   0  0  0  0  0  0  0  0  0  0  0  0
   -2.3752   -1.9254    0.0000 O   0  0  0  0  0  0  0  0  0  0  0  0
   -4.2063   -0.0823    0.0000 O   0  0  0  0  0  0  0  0  0  0  0  0
  1  2  1  0
  2  3  1  6
  2  4  1  0
  4  5  1  0
  5  6  2  0
  6  7  1  0
  7  8  2  0
  8  9  1  0
  9 10  2  0
 10 11  1  0
  2 12  1  0
 12 13  2  0
 12 14  1  0
 10  5  1  0
M  END
>  <rName>  (3722) 
aMePhe_2I

>  <PQ_SYMBOL>  (3722) 
aMePhe_2I

>  <FULL_NAME>  (3722) 
(2S)-2-amino-3-(2-iodophenyl)-2-methylpropanoic acid

>  <IUPAC_CONDENSED>  (3722) 
aMePhe(2-I)

>  <IUPAC>  (3722) 
(2S)-2-amino-3-(2-iodophenyl)-2-methylpropanoic acid

>  <TYPE>  (3722) 
Backbone

>  <CLASS>  (3722) 
alpha

>  <ANALOG>  (3722) 
Phe

>  <MOL_WT>  (3722) 
305.115

>  <LOGP>  (3722) 
1.6357

>  <TPSA>  (3722) 
63.32000000000001

>  <POPULARITY>  (3722) 
2.2

>  <PROTECTED>  (3722) 
TRUE

>  <SMILES>  (3722) 
N[C@@](C)(Cc1(ccccc1I))C(=O)O

>  <INCHIKEY>  (3722) 
VLXKWRXNLMASPM-JTQLQIEISA-N

$$$$
aMePhe_3F
     RDKit          2D

 14 14  0  0  0  0  0  0  0  0999 V2000
   -0.9250    1.5349    0.0000 N   0  0  0  0  0  0  0  0  0  0  0  0
   -1.9283    0.4198    0.0000 C   0  0  0  0  0  0  0  0  0  0  0  0
   -3.0434    1.4231    0.0000 C   0  0  0  0  0  0  0  0  0  0  0  0
   -0.8132   -0.5834    0.0000 C   0  0  0  0  0  0  0  0  0  0  0  0
    0.6132   -0.1194    0.0000 C   0  0  0  0  0  0  0  0  0  0  0  0
    0.9245    1.3480    0.0000 C   0  0  0  0  0  0  0  0  0  0  0  0
    2.3509    1.8121    0.0000 C   0  0  0  0  0  0  0  0  0  0  0  0
    3.4660    0.8088    0.0000 C   0  0  0  0  0  0  0  0  0  0  0  0
    3.1548   -0.6585    0.0000 C   0  0  0  0  0  0  0  0  0  0  0  0
    4.2699   -1.6618    0.0000 F   0  0  0  0  0  0  0  0  0  0  0  0
    1.7284   -1.1226    0.0000 C   0  0  0  0  0  0  0  0  0  0  0  0
   -2.9315   -0.6953    0.0000 C   0  0  0  0  0  0  0  0  0  0  0  0
   -4.3989   -0.3840    0.0000 O   0  0  0  0  0  0  0  0  0  0  0  0
   -2.4674   -2.1217    0.0000 O   0  0  0  0  0  0  0  0  0  0  0  0
  1  2  1  0
  2  3  1  6
  2  4  1  0
  4  5  1  0
  5  6  2  0
  6  7  1  0
  7  8  2  0
  8  9  1  0
  9 10  1  0
  9 11  2  0
  2 12  1  0
 12 13  2  0
 12 14  1  0
 11  5  1  0
M  END
>  <rName>  (3723) 
aMePhe_3F

>  <PQ_SYMBOL>  (3723) 
aMePhe_3F

>  <FULL_NAME>  (3723) 
(S)-2-amino-3-(3-fluorophenyl)-2-methylpropanoic acid

>  <IUPAC_CONDENSED>  (3723) 
aMePhe(3-F)

>  <IUPAC>  (3723) 
(2S)-2-amino-2-((3-fluorophenyl)methyl)propanoic acid

>  <TYPE>  (3723) 
Backbone

>  <CLASS>  (3723) 
alpha

>  <ANALOG>  (3723) 
Phe

>  <MOL_WT>  (3723) 
197.20899999999997

>  <LOGP>  (3723) 
1.1702

>  <TPSA>  (3723) 
63.32000000000001

>  <POPULARITY>  (3723) 
5.9

>  <PROTECTED>  (3723) 
TRUE

>  <SMILES>  (3723) 
N[C@@](C)(Cc1(cccc(F)c1))C(=O)O

>  <INCHIKEY>  (3723) 
FQZGACCJFXQSCQ-JTQLQIEISA-N

$$$$
aMePhe_3I
     RDKit          2D

 14 14  0  0  0  0  0  0  0  0999 V2000
   -0.9250    1.5349    0.0000 N   0  0  0  0  0  0  0  0  0  0  0  0
   -1.9283    0.4198    0.0000 C   0  0  0  0  0  0  0  0  0  0  0  0
   -3.0434    1.4231    0.0000 C   0  0  0  0  0  0  0  0  0  0  0  0
   -0.8132   -0.5834    0.0000 C   0  0  0  0  0  0  0  0  0  0  0  0
    0.6132   -0.1194    0.0000 C   0  0  0  0  0  0  0  0  0  0  0  0
    0.9245    1.3480    0.0000 C   0  0  0  0  0  0  0  0  0  0  0  0
    2.3509    1.8121    0.0000 C   0  0  0  0  0  0  0  0  0  0  0  0
    3.4660    0.8088    0.0000 C   0  0  0  0  0  0  0  0  0  0  0  0
    3.1548   -0.6585    0.0000 C   0  0  0  0  0  0  0  0  0  0  0  0
    4.2699   -1.6618    0.0000 I   0  0  0  0  0  0  0  0  0  0  0  0
    1.7284   -1.1226    0.0000 C   0  0  0  0  0  0  0  0  0  0  0  0
   -2.9315   -0.6953    0.0000 C   0  0  0  0  0  0  0  0  0  0  0  0
   -4.3989   -0.3840    0.0000 O   0  0  0  0  0  0  0  0  0  0  0  0
   -2.4674   -2.1217    0.0000 O   0  0  0  0  0  0  0  0  0  0  0  0
  1  2  1  0
  2  3  1  6
  2  4  1  0
  4  5  1  0
  5  6  2  0
  6  7  1  0
  7  8  2  0
  8  9  1  0
  9 10  1  0
  9 11  2  0
  2 12  1  0
 12 13  2  0
 12 14  1  0
 11  5  1  0
M  END
>  <rName>  (3724) 
aMePhe_3I

>  <PQ_SYMBOL>  (3724) 
aMePhe_3I

>  <FULL_NAME>  (3724) 
(S)-alpha-Methyl-3-Iodophenylalanine

>  <IUPAC_CONDENSED>  (3724) 
aMePhe(3-I)

>  <IUPAC>  (3724) 
(2S)-2-amino-3-(3-iodophenyl)-2-methylpropanoic acid

>  <TYPE>  (3724) 
Backbone

>  <CLASS>  (3724) 
alpha

>  <ANALOG>  (3724) 
Phe

>  <MOL_WT>  (3724) 
305.115

>  <LOGP>  (3724) 
1.6357

>  <TPSA>  (3724) 
63.32000000000001

>  <POPULARITY>  (3724) 
2.2

>  <PROTECTED>  (3724) 
TRUE

>  <SMILES>  (3724) 
N[C@@](C)(Cc1(cccc(I)c1))C(=O)O

>  <INCHIKEY>  (3724) 
RCYLCZQGMUWCBV-JTQLQIEISA-N

$$$$
aMePhe_4Br
     RDKit          2D

 14 14  0  0  0  0  0  0  0  0999 V2000
   -0.7614    1.4549    0.0000 N   0  0  0  0  0  0  0  0  0  0  0  0
   -1.9195    0.5015    0.0000 C   0  0  0  0  0  0  0  0  0  0  0  0
   -2.8728    1.6596    0.0000 C   0  0  0  0  0  0  0  0  0  0  0  0
   -0.9661   -0.6566    0.0000 C   0  0  0  0  0  0  0  0  0  0  0  0
    0.5135   -0.4100    0.0000 C   0  0  0  0  0  0  0  0  0  0  0  0
    1.0397    0.9947    0.0000 C   0  0  0  0  0  0  0  0  0  0  0  0
    2.5193    1.2413    0.0000 C   0  0  0  0  0  0  0  0  0  0  0  0
    3.4726    0.0832    0.0000 C   0  0  0  0  0  0  0  0  0  0  0  0
    4.9522    0.3298    0.0000 Br  0  0  0  0  0  0  0  0  0  0  0  0
    2.9464   -1.3215    0.0000 C   0  0  0  0  0  0  0  0  0  0  0  0
    1.4668   -1.5681    0.0000 C   0  0  0  0  0  0  0  0  0  0  0  0
   -3.0776   -0.4518    0.0000 C   0  0  0  0  0  0  0  0  0  0  0  0
   -4.4822    0.0744    0.0000 O   0  0  0  0  0  0  0  0  0  0  0  0
   -2.8310   -1.9314    0.0000 O   0  0  0  0  0  0  0  0  0  0  0  0
  1  2  1  0
  2  3  1  6
  2  4  1  0
  4  5  1  0
  5  6  1  0
  6  7  2  0
  7  8  1  0
  8  9  1  0
  8 10  2  0
 10 11  1  0
  2 12  1  0
 12 13  2  0
 12 14  1  0
 11  5  2  0
M  END
>  <rName>  (3725) 
aMePhe_4Br

>  <PQ_SYMBOL>  (3725) 
aMePhe_4Br

>  <FULL_NAME>  (3725) 
4-Bromo-alpha-methyl-L-phenylalanine

>  <IUPAC_CONDENSED>  (3725) 
aMePhe(4-Br)

>  <IUPAC>  (3725) 
(2S)-2-amino-2-((4-bromophenyl)methyl)propanoic acid

>  <TYPE>  (3725) 
Backbone

>  <CLASS>  (3725) 
alpha

>  <ANALOG>  (3725) 
Phe

>  <MOL_WT>  (3725) 
258.11499999999995

>  <LOGP>  (3725) 
1.7935999999999999

>  <TPSA>  (3725) 
63.32000000000001

>  <POPULARITY>  (3725) 
6.4

>  <PROTECTED>  (3725) 
TRUE

>  <SMILES>  (3725) 
N[C@@](C)(Cc1(ccc(Br)cc1))C(=O)O

>  <INCHIKEY>  (3725) 
PEGRPUVDOKWERK-JTQLQIEISA-N

$$$$
aMePhe_4F
     RDKit          2D

 14 14  0  0  0  0  0  0  0  0999 V2000
   -0.7614    1.4549    0.0000 N   0  0  0  0  0  0  0  0  0  0  0  0
   -1.9195    0.5015    0.0000 C   0  0  0  0  0  0  0  0  0  0  0  0
   -2.8728    1.6596    0.0000 C   0  0  0  0  0  0  0  0  0  0  0  0
   -0.9661   -0.6566    0.0000 C   0  0  0  0  0  0  0  0  0  0  0  0
    0.5135   -0.4100    0.0000 C   0  0  0  0  0  0  0  0  0  0  0  0
    1.0397    0.9947    0.0000 C   0  0  0  0  0  0  0  0  0  0  0  0
    2.5193    1.2413    0.0000 C   0  0  0  0  0  0  0  0  0  0  0  0
    3.4726    0.0832    0.0000 C   0  0  0  0  0  0  0  0  0  0  0  0
    4.9522    0.3298    0.0000 F   0  0  0  0  0  0  0  0  0  0  0  0
    2.9464   -1.3215    0.0000 C   0  0  0  0  0  0  0  0  0  0  0  0
    1.4668   -1.5681    0.0000 C   0  0  0  0  0  0  0  0  0  0  0  0
   -3.0776   -0.4518    0.0000 C   0  0  0  0  0  0  0  0  0  0  0  0
   -4.4822    0.0744    0.0000 O   0  0  0  0  0  0  0  0  0  0  0  0
   -2.8310   -1.9314    0.0000 O   0  0  0  0  0  0  0  0  0  0  0  0
  1  2  1  0
  2  3  1  6
  2  4  1  0
  4  5  1  0
  5  6  1  0
  6  7  2  0
  7  8  1  0
  8  9  1  0
  8 10  2  0
 10 11  1  0
  2 12  1  0
 12 13  2  0
 12 14  1  0
 11  5  2  0
M  END
>  <rName>  (3726) 
aMePhe_4F

>  <PQ_SYMBOL>  (3726) 
aMePhe_4F

>  <FULL_NAME>  (3726) 
(S)-2-amino-3-(4-fluorophenyl)-2-methylpropanoic acid

>  <IUPAC_CONDENSED>  (3726) 
aMePhe(4-F)

>  <IUPAC>  (3726) 
(2S)-2-amino-2-((4-fluorophenyl)methyl)propanoic acid

>  <TYPE>  (3726) 
Backbone

>  <CLASS>  (3726) 
alpha

>  <ANALOG>  (3726) 
Phe

>  <MOL_WT>  (3726) 
197.209

>  <LOGP>  (3726) 
1.1702

>  <TPSA>  (3726) 
63.32000000000001

>  <POPULARITY>  (3726) 
7.3

>  <PROTECTED>  (3726) 
TRUE

>  <SMILES>  (3726) 
N[C@@](C)(Cc1(ccc(F)cc1))C(=O)O

>  <INCHIKEY>  (3726) 
BBRMBENCQBOTHY-JTQLQIEISA-N

$$$$
aMePhe_4I
     RDKit          2D

 14 14  0  0  0  0  0  0  0  0999 V2000
   -0.7614    1.4549    0.0000 N   0  0  0  0  0  0  0  0  0  0  0  0
   -1.9195    0.5015    0.0000 C   0  0  0  0  0  0  0  0  0  0  0  0
   -2.8728    1.6596    0.0000 C   0  0  0  0  0  0  0  0  0  0  0  0
   -0.9661   -0.6566    0.0000 C   0  0  0  0  0  0  0  0  0  0  0  0
    0.5135   -0.4100    0.0000 C   0  0  0  0  0  0  0  0  0  0  0  0
    1.0397    0.9947    0.0000 C   0  0  0  0  0  0  0  0  0  0  0  0
    2.5193    1.2413    0.0000 C   0  0  0  0  0  0  0  0  0  0  0  0
    3.4726    0.0832    0.0000 C   0  0  0  0  0  0  0  0  0  0  0  0
    4.9522    0.3298    0.0000 I   0  0  0  0  0  0  0  0  0  0  0  0
    2.9464   -1.3215    0.0000 C   0  0  0  0  0  0  0  0  0  0  0  0
    1.4668   -1.5681    0.0000 C   0  0  0  0  0  0  0  0  0  0  0  0
   -3.0776   -0.4518    0.0000 C   0  0  0  0  0  0  0  0  0  0  0  0
   -4.4822    0.0744    0.0000 O   0  0  0  0  0  0  0  0  0  0  0  0
   -2.8310   -1.9314    0.0000 O   0  0  0  0  0  0  0  0  0  0  0  0
  1  2  1  0
  2  3  1  6
  2  4  1  0
  4  5  1  0
  5  6  1  0
  6  7  2  0
  7  8  1  0
  8  9  1  0
  8 10  2  0
 10 11  1  0
  2 12  1  0
 12 13  2  0
 12 14  1  0
 11  5  2  0
M  END
>  <rName>  (3727) 
aMePhe_4I

>  <PQ_SYMBOL>  (3727) 
aMePhe_4I

>  <FULL_NAME>  (3727) 
(S)-alpha-methyl-4-Iodophenylalanine

>  <IUPAC_CONDENSED>  (3727) 
aMePhe(4-I)

>  <IUPAC>  (3727) 
(2S)-2-amino-2-((4-iodophenyl)methyl)propanoic acid

>  <TYPE>  (3727) 
Backbone

>  <CLASS>  (3727) 
alpha

>  <ANALOG>  (3727) 
Phe

>  <MOL_WT>  (3727) 
305.115

>  <LOGP>  (3727) 
1.6357

>  <TPSA>  (3727) 
63.32000000000001

>  <POPULARITY>  (3727) 
6.0

>  <PROTECTED>  (3727) 
TRUE

>  <SMILES>  (3727) 
N[C@@](C)(Cc1(ccc(I)cc1))C(=O)O

>  <INCHIKEY>  (3727) 
YNCJAZPOXKKAMD-JTQLQIEISA-N

$$$$
aMePhg
     RDKit          2D

 12 12  0  0  0  0  0  0  0  0999 V2000
    0.8941   -2.1463    0.0000 N   0  0  0  0  0  0  0  0  0  0  0  0
    1.2478   -0.6886    0.0000 C   0  0  0  0  0  0  0  0  0  0  0  0
    2.7055   -1.0423    0.0000 C   0  0  0  0  0  0  0  0  0  0  0  0
   -0.2099   -0.3350    0.0000 C   0  0  0  0  0  0  0  0  0  0  0  0
   -1.2451   -1.4205    0.0000 C   0  0  0  0  0  0  0  0  0  0  0  0
   -2.7028   -1.0668    0.0000 C   0  0  0  0  0  0  0  0  0  0  0  0
   -3.1253    0.3724    0.0000 C   0  0  0  0  0  0  0  0  0  0  0  0
   -2.0902    1.4580    0.0000 C   0  0  0  0  0  0  0  0  0  0  0  0
   -0.6324    1.1043    0.0000 C   0  0  0  0  0  0  0  0  0  0  0  0
    1.6015    0.7691    0.0000 C   0  0  0  0  0  0  0  0  0  0  0  0
    0.5159    1.8042    0.0000 O   0  0  0  0  0  0  0  0  0  0  0  0
    3.0408    1.1916    0.0000 O   0  0  0  0  0  0  0  0  0  0  0  0
  1  2  1  0
  2  3  1  6
  2  4  1  0
  4  5  2  0
  5  6  1  0
  6  7  2  0
  7  8  1  0
  8  9  2  0
  2 10  1  0
 10 11  2  0
 10 12  1  0
  9  4  1  0
M  END
>  <rName>  (3728) 
aMePhg

>  <PQ_SYMBOL>  (3728) 
aMePhg

>  <FULL_NAME>  (3728) 
alpha-methyl-L-Phenylglycine

>  <IUPAC_CONDENSED>  (3728) 
aMePhg

>  <IUPAC>  (3728) 
(2S)-2-amino-2-phenylpropanoic acid

>  <TYPE>  (3728) 
Backbone

>  <CLASS>  (3728) 
alpha

>  <ANALOG>  (3728) 
X

>  <MOL_WT>  (3728) 
165.19199999999995

>  <LOGP>  (3728) 
0.9451

>  <TPSA>  (3728) 
63.32000000000001

>  <POPULARITY>  (3728) 
16.4

>  <PROTECTED>  (3728) 
TRUE

>  <SMILES>  (3728) 
N[C@@](C)(c1(ccccc1))C(=O)O

>  <INCHIKEY>  (3728) 
HTCSFFGLRQDZDE-VIFPVBQESA-N

$$$$
aMePip
     RDKit          2D

 10 10  0  0  0  0  0  0  0  0999 V2000
    0.8118   -1.4296    0.0000 N   0  0  0  0  0  0  0  0  0  0  0  0
   -0.2419   -0.3621    0.0000 C   0  0  0  0  0  0  0  0  0  0  0  0
   -1.1103   -1.5851    0.0000 C   0  0  0  0  0  0  0  0  0  0  0  0
    0.1558    1.0843    0.0000 C   0  0  0  0  0  0  0  0  0  0  0  0
    1.6072    1.4630    0.0000 C   0  0  0  0  0  0  0  0  0  0  0  0
    2.6609    0.3955    0.0000 C   0  0  0  0  0  0  0  0  0  0  0  0
    2.2632   -1.0509    0.0000 C   0  0  0  0  0  0  0  0  0  0  0  0
   -1.5972    0.2807    0.0000 C   0  0  0  0  0  0  0  0  0  0  0  0
   -2.8315   -0.5716    0.0000 O   0  0  0  0  0  0  0  0  0  0  0  0
   -1.7181    1.7758    0.0000 O   0  0  0  0  0  0  0  0  0  0  0  0
  1  2  1  0
  2  3  1  1
  2  4  1  0
  4  5  1  0
  5  6  1  0
  6  7  1  0
  2  8  1  0
  8  9  2  0
  8 10  1  0
  7  1  1  0
M  END
>  <rName>  (3729) 
aMePip

>  <PQ_SYMBOL>  (3729) 
aMePip

>  <FULL_NAME>  (3729) 
(S)-2-methylpiperidine-2-carboxylic acid

>  <IUPAC_CONDENSED>  (3729) 
aMePip

>  <IUPAC>  (3729) 
(2S)-2-methylpiperidine-2-carboxylic acid

>  <TYPE>  (3729) 
Backbone

>  <CLASS>  (3729) 
alpha

>  <ANALOG>  (3729) 
Pro

>  <MOL_WT>  (3729) 
143.186

>  <LOGP>  (3729) 
0.6032

>  <TPSA>  (3729) 
49.33

>  <POPULARITY>  (3729) 
7.4

>  <PROTECTED>  (3729) 
TRUE

>  <SMILES>  (3729) 
N1[C@@](C)(CCCC1)C(=O)O

>  <INCHIKEY>  (3729) 
GLNOAERYNWZGJY-ZETCQYMHSA-N

$$$$
aMePra
     RDKit          2D

  9  8  0  0  0  0  0  0  0  0999 V2000
    0.8332    1.4497    0.0000 N   0  0  0  0  0  0  0  0  0  0  0  0
   -0.3210    0.4916    0.0000 C   0  0  0  0  0  0  0  0  0  0  0  0
   -1.2791    1.6458    0.0000 C   0  0  0  0  0  0  0  0  0  0  0  0
    0.6370   -0.6626    0.0000 C   0  0  0  0  0  0  0  0  0  0  0  0
    2.1156   -0.4100    0.0000 C   0  0  0  0  0  0  0  0  0  0  0  0
    3.5942   -0.1574    0.0000 C   0  0  0  0  0  0  0  0  0  0  0  0
   -1.4752   -0.4664    0.0000 C   0  0  0  0  0  0  0  0  0  0  0  0
   -2.8820    0.0541    0.0000 O   0  0  0  0  0  0  0  0  0  0  0  0
   -1.2226   -1.9450    0.0000 O   0  0  0  0  0  0  0  0  0  0  0  0
  1  2  1  0
  2  3  1  6
  2  4  1  0
  4  5  1  0
  5  6  3  0
  2  7  1  0
  7  8  2  0
  7  9  1  0
M  END
>  <rName>  (3730) 
aMePra

>  <PQ_SYMBOL>  (3730) 
aMePra

>  <FULL_NAME>  (3730) 
(S)-2-amino-2-methylpent-4-ynoic acid

>  <IUPAC_CONDENSED>  (3730) 
aMePra

>  <IUPAC>  (3730) 
(2S)-2-amino-2-methylpent-4-ynoic acid

>  <TYPE>  (3730) 
Backbone

>  <CLASS>  (3730) 
alpha

>  <ANALOG>  (3730) 
Leu

>  <MOL_WT>  (3730) 
127.14299999999997

>  <LOGP>  (3730) 
-0.18829999999999997

>  <TPSA>  (3730) 
63.32000000000001

>  <POPULARITY>  (3730) 
5.7

>  <PROTECTED>  (3730) 
TRUE

>  <SMILES>  (3730) 
N[C@@](C)(CC#C)C(=O)O

>  <INCHIKEY>  (3730) 
FSBNDYYRTZBHAN-LURJTMIESA-N

$$$$
aMePro
     RDKit          2D

  9  9  0  0  0  0  0  0  0  0999 V2000
   -0.4885   -1.0777    0.0000 N   0  0  0  0  0  0  0  0  0  0  0  0
   -0.0160    0.3460    0.0000 C   0  0  0  0  0  0  0  0  0  0  0  0
    0.7422    1.6403    0.0000 C   0  0  0  0  0  0  0  0  0  0  0  0
   -1.2239    1.2353    0.0000 C   0  0  0  0  0  0  0  0  0  0  0  0
   -2.4430    0.3613    0.0000 C   0  0  0  0  0  0  0  0  0  0  0  0
   -1.9885   -1.0682    0.0000 C   0  0  0  0  0  0  0  0  0  0  0  0
    1.3504   -0.2728    0.0000 C   0  0  0  0  0  0  0  0  0  0  0  0
    2.5695    0.6013    0.0000 O   0  0  0  0  0  0  0  0  0  0  0  0
    1.4978   -1.7655    0.0000 O   0  0  0  0  0  0  0  0  0  0  0  0
  1  2  1  0
  2  3  1  6
  2  4  1  0
  4  5  1  0
  5  6  1  0
  2  7  1  0
  7  8  2  0
  7  9  1  0
  6  1  1  0
M  END
>  <rName>  (3731) 
aMePro

>  <PQ_SYMBOL>  (3731) 
aMePro

>  <FULL_NAME>  (3731) 
2-Methyl-L-Proline

>  <IUPAC_CONDENSED>  (3731) 
aMePro

>  <IUPAC>  (3731) 
(2S)-2-methylpyrrolidine-2-carboxylic acid

>  <TYPE>  (3731) 
Backbone

>  <CLASS>  (3731) 
alpha

>  <ANALOG>  (3731) 
Pro

>  <MOL_WT>  (3731) 
129.15900000000002

>  <LOGP>  (3731) 
0.2131

>  <TPSA>  (3731) 
49.33

>  <POPULARITY>  (3731) 
19.9

>  <PROTECTED>  (3731) 
TRUE

>  <SMILES>  (3731) 
N1[C@@](C)(CCC1)C(=O)O

>  <INCHIKEY>  (3731) 
LWHHAVWYGIBIEU-LURJTMIESA-N

$$$$
aMePro_4SF
     RDKit          2D

 10 10  0  0  0  0  0  0  0  0999 V2000
    0.0290   -1.1651    0.0000 N   0  0  0  0  0  0  0  0  0  0  0  0
    0.3389    0.3025    0.0000 C   0  0  0  0  0  0  0  0  0  0  0  0
    0.9472    1.6736    0.0000 C   0  0  0  0  0  0  0  0  0  0  0  0
   -0.9612    1.0508    0.0000 C   0  0  0  0  0  0  0  0  0  0  0  0
   -2.0745    0.0456    0.0000 C   0  0  0  0  0  0  0  0  0  0  0  0
   -3.5422    0.3555    0.0000 F   0  0  0  0  0  0  0  0  0  0  0  0
   -1.4626   -1.3239    0.0000 C   0  0  0  0  0  0  0  0  0  0  0  0
    1.7661   -0.1591    0.0000 C   0  0  0  0  0  0  0  0  0  0  0  0
    2.8795    0.8461    0.0000 O   0  0  0  0  0  0  0  0  0  0  0  0
    2.0799   -1.6259    0.0000 O   0  0  0  0  0  0  0  0  0  0  0  0
  1  2  1  0
  2  3  1  6
  2  4  1  0
  4  5  1  0
  5  6  1  1
  5  7  1  0
  2  8  1  0
  8  9  2  0
  8 10  1  0
  7  1  1  0
M  END
>  <rName>  (3732) 
aMePro_4SF

>  <PQ_SYMBOL>  (3732) 
aMePro_4SF

>  <FULL_NAME>  (3732) 
(2S,4S)-4-fluoro-2-methylpyrrolidine-2-carboxylic acid

>  <IUPAC_CONDENSED>  (3732) 
aMePro(4S-F)

>  <IUPAC>  (3732) 
(2S,4S)-4-fluoro-2-methylpyrrolidine-2-carboxylic acid

>  <TYPE>  (3732) 
Backbone

>  <CLASS>  (3732) 
alpha

>  <ANALOG>  (3732) 
Pro

>  <MOL_WT>  (3732) 
147.149

>  <LOGP>  (3732) 
0.16109999999999974

>  <TPSA>  (3732) 
49.33

>  <POPULARITY>  (3732) 
3.8

>  <PROTECTED>  (3732) 
TRUE

>  <SMILES>  (3732) 
N1[C@@](C)(C[C@H](F)C1)C(=O)O

>  <INCHIKEY>  (3732) 
MBLJERGWEJOQMZ-NJGYIYPDSA-N

$$$$
aMeS-Nip_3R
     RDKit          2D

 10 10  0  0  0  0  0  0  0  0999 V2000
    1.8956   -1.1355    0.0000 N   0  0  0  0  0  0  0  0  0  0  0  0
    0.3975   -1.0604    0.0000 C   0  0  0  0  0  0  0  0  0  0  0  0
   -0.4166   -2.3203    0.0000 C   0  0  0  0  0  0  0  0  0  0  0  0
   -0.2866    0.2745    0.0000 C   0  0  0  0  0  0  0  0  0  0  0  0
    0.5274    1.5344    0.0000 C   0  0  0  0  0  0  0  0  0  0  0  0
    2.0255    1.4594    0.0000 C   0  0  0  0  0  0  0  0  0  0  0  0
    2.7096    0.1244    0.0000 C   0  0  0  0  0  0  0  0  0  0  0  0
   -1.7848    0.3495    0.0000 C   0  0  0  0  0  0  0  0  0  0  0  0
   -2.5988   -0.9104    0.0000 O   0  0  0  0  0  0  0  0  0  0  0  0
   -2.4688    1.6844    0.0000 O   0  0  0  0  0  0  0  0  0  0  0  0
  1  2  1  0
  2  3  1  1
  2  4  1  0
  4  5  1  0
  5  6  1  0
  6  7  1  0
  4  8  1  6
  8  9  2  0
  8 10  1  0
  7  1  1  0
M  END
>  <rName>  (3733) 
aMeS-Nip_3R

>  <PQ_SYMBOL>  (3733) 
aMeS-Nip_3R

>  <FULL_NAME>  (3733) 
(2S,3R)-2-methylpiperidine-3-carboxylic acid

>  <IUPAC_CONDENSED>  (3733) 
aMe(S)-Nip(3R)

>  <IUPAC>  (3733) 
(2S,3R)-2-methylpiperidine-3-carboxylic acid

>  <TYPE>  (3733) 
Backbone

>  <CLASS>  (3733) 
beta

>  <ANALOG>  (3733) 
Pro

>  <MOL_WT>  (3733) 
143.186

>  <LOGP>  (3733) 
0.4591

>  <TPSA>  (3733) 
49.33

>  <POPULARITY>  (3733) 
8.1

>  <PROTECTED>  (3733) 
TRUE

>  <SMILES>  (3733) 
N1[C@@H](C)[C@@H](CCC1)C(=O)O

>  <INCHIKEY>  (3733) 
LAWPBIIDJCWFFN-NTSWFWBYSA-N

$$$$
aMeS-Nip_3S
     RDKit          2D

 10 10  0  0  0  0  0  0  0  0999 V2000
    1.8956   -1.1355    0.0000 N   0  0  0  0  0  0  0  0  0  0  0  0
    0.3975   -1.0604    0.0000 C   0  0  0  0  0  0  0  0  0  0  0  0
   -0.4166   -2.3203    0.0000 C   0  0  0  0  0  0  0  0  0  0  0  0
   -0.2866    0.2745    0.0000 C   0  0  0  0  0  0  0  0  0  0  0  0
    0.5274    1.5344    0.0000 C   0  0  0  0  0  0  0  0  0  0  0  0
    2.0255    1.4594    0.0000 C   0  0  0  0  0  0  0  0  0  0  0  0
    2.7096    0.1244    0.0000 C   0  0  0  0  0  0  0  0  0  0  0  0
   -1.7848    0.3495    0.0000 C   0  0  0  0  0  0  0  0  0  0  0  0
   -2.5988   -0.9104    0.0000 O   0  0  0  0  0  0  0  0  0  0  0  0
   -2.4688    1.6844    0.0000 O   0  0  0  0  0  0  0  0  0  0  0  0
  1  2  1  0
  2  3  1  1
  2  4  1  0
  4  5  1  0
  5  6  1  0
  6  7  1  0
  4  8  1  1
  8  9  2  0
  8 10  1  0
  7  1  1  0
M  END
>  <rName>  (3734) 
aMeS-Nip_3S

>  <PQ_SYMBOL>  (3734) 
aMeS-Nip_3S

>  <FULL_NAME>  (3734) 
(2S,3S)-2-methylpiperidine-3-carboxylic acid

>  <IUPAC_CONDENSED>  (3734) 
aMe(S)-Nip(3S)

>  <IUPAC>  (3734) 
(2S,3S)-2-methylpiperidine-3-carboxylic acid

>  <TYPE>  (3734) 
Backbone

>  <CLASS>  (3734) 
beta

>  <ANALOG>  (3734) 
Pro

>  <MOL_WT>  (3734) 
143.186

>  <LOGP>  (3734) 
0.4591

>  <TPSA>  (3734) 
49.33

>  <POPULARITY>  (3734) 
11.3

>  <PROTECTED>  (3734) 
TRUE

>  <SMILES>  (3734) 
N1[C@@H](C)[C@H](CCC1)C(=O)O

>  <INCHIKEY>  (3734) 
LAWPBIIDJCWFFN-WDSKDSINSA-N

$$$$
aMeSer
     RDKit          2D

  8  7  0  0  0  0  0  0  0  0999 V2000
    1.3909    1.3248    0.0000 N   0  0  0  0  0  0  0  0  0  0  0  0
    0.1650    0.4604    0.0000 C   0  0  0  0  0  0  0  0  0  0  0  0
   -0.6994    1.6864    0.0000 C   0  0  0  0  0  0  0  0  0  0  0  0
    1.0293   -0.7655    0.0000 C   0  0  0  0  0  0  0  0  0  0  0  0
    2.5232   -0.6299    0.0000 O   0  0  0  0  0  0  0  0  0  0  0  0
   -1.0610   -0.4039    0.0000 C   0  0  0  0  0  0  0  0  0  0  0  0
   -2.4225    0.2256    0.0000 O   0  0  0  0  0  0  0  0  0  0  0  0
   -0.9254   -1.8978    0.0000 O   0  0  0  0  0  0  0  0  0  0  0  0
  1  2  1  0
  2  3  1  6
  2  4  1  0
  4  5  1  0
  2  6  1  0
  6  7  2  0
  6  8  1  0
M  END
>  <rName>  (3735) 
aMeSer

>  <PQ_SYMBOL>  (3735) 
aMeSer

>  <FULL_NAME>  (3735) 
alpha-methyl-L-serine

>  <IUPAC_CONDENSED>  (3735) 
aMeSer

>  <IUPAC>  (3735) 
(2S)-2-amino-2-(hydroxymethyl)propanoic acid

>  <TYPE>  (3735) 
Backbone

>  <CLASS>  (3735) 
alpha

>  <ANALOG>  (3735) 
Ser

>  <MOL_WT>  (3735) 
119.11999999999998

>  <LOGP>  (3735) 
-1.2192999999999998

>  <TPSA>  (3735) 
83.55

>  <POPULARITY>  (3735) 
21.1

>  <PROTECTED>  (3735) 
TRUE

>  <SMILES>  (3735) 
N[C@@](C)(CO)C(=O)O

>  <INCHIKEY>  (3735) 
CDUUKBXTEOFITR-BYPYZUCNSA-N

$$$$
aMeSer_allyl
     RDKit          2D

 11 10  0  0  0  0  0  0  0  0999 V2000
   -0.6186    1.8190    0.0000 N   0  0  0  0  0  0  0  0  0  0  0  0
   -1.4256    0.5545    0.0000 C   0  0  0  0  0  0  0  0  0  0  0  0
   -2.6900    1.3614    0.0000 C   0  0  0  0  0  0  0  0  0  0  0  0
   -0.1611   -0.2524    0.0000 C   0  0  0  0  0  0  0  0  0  0  0  0
    1.1700    0.4391    0.0000 O   0  0  0  0  0  0  0  0  0  0  0  0
    2.4344   -0.3678    0.0000 C   0  0  0  0  0  0  0  0  0  0  0  0
    3.7655    0.3238    0.0000 C   0  0  0  0  0  0  0  0  0  0  0  0
    5.0299   -0.4832    0.0000 C   0  0  0  0  0  0  0  0  0  0  0  0
   -2.2325   -0.7100    0.0000 C   0  0  0  0  0  0  0  0  0  0  0  0
   -3.7310   -0.6433    0.0000 O   0  0  0  0  0  0  0  0  0  0  0  0
   -1.5409   -2.0410    0.0000 O   0  0  0  0  0  0  0  0  0  0  0  0
  1  2  1  0
  2  3  1  6
  2  4  1  0
  4  5  1  0
  5  6  1  0
  6  7  1  0
  7  8  2  0
  2  9  1  0
  9 10  2  0
  9 11  1  0
M  END
>  <rName>  (3736) 
aMeSer_allyl

>  <PQ_SYMBOL>  (3736) 
aMeSer_allyl

>  <FULL_NAME>  (3736) 
(S)-3-(allyloxy)-2-amino-2-methylpropanoic acid

>  <IUPAC_CONDENSED>  (3736) 
aMeSer(allyl)

>  <IUPAC>  (3736) 
(2S)-2-amino-2-(((prop-2-en-1-yl)oxy)methyl)propanoic acid

>  <TYPE>  (3736) 
Backbone

>  <CLASS>  (3736) 
alpha

>  <ANALOG>  (3736) 
Ser

>  <MOL_WT>  (3736) 
159.185

>  <LOGP>  (3736) 
-0.009000000000000397

>  <TPSA>  (3736) 
72.55

>  <POPULARITY>  (3736) 
4.4

>  <PROTECTED>  (3736) 
TRUE

>  <SMILES>  (3736) 
N[C@@](C)(COCC=C)C(=O)O

>  <INCHIKEY>  (3736) 
OFYKOCUXLKQTLH-ZETCQYMHSA-N

$$$$
aMeTrp
     RDKit          2D

 16 17  0  0  0  0  0  0  0  0999 V2000
   -1.7481   -1.6804    0.0000 N   0  0  0  0  0  0  0  0  0  0  0  0
   -2.4966   -0.3805    0.0000 C   0  0  0  0  0  0  0  0  0  0  0  0
   -3.7965   -1.1291    0.0000 C   0  0  0  0  0  0  0  0  0  0  0  0
   -1.1967    0.3680    0.0000 C   0  0  0  0  0  0  0  0  0  0  0  0
    0.1015   -0.3835    0.0000 C   0  0  0  0  0  0  0  0  0  0  0  0
    0.2566   -1.8754    0.0000 C   0  0  0  0  0  0  0  0  0  0  0  0
    1.7234   -2.1889    0.0000 N   0  0  0  0  0  0  0  0  0  0  0  0
    2.4749   -0.8908    0.0000 C   0  0  0  0  0  0  0  0  0  0  0  0
    3.9425   -0.5805    0.0000 C   0  0  0  0  0  0  0  0  0  0  0  0
    4.4076    0.8455    0.0000 C   0  0  0  0  0  0  0  0  0  0  0  0
    3.4052    1.9614    0.0000 C   0  0  0  0  0  0  0  0  0  0  0  0
    1.9376    1.6512    0.0000 C   0  0  0  0  0  0  0  0  0  0  0  0
    1.4725    0.2251    0.0000 C   0  0  0  0  0  0  0  0  0  0  0  0
   -3.2451    0.9194    0.0000 C   0  0  0  0  0  0  0  0  0  0  0  0
   -4.7451    0.9211    0.0000 O   0  0  0  0  0  0  0  0  0  0  0  0
   -2.4937    2.2176    0.0000 O   0  0  0  0  0  0  0  0  0  0  0  0
  1  2  1  0
  2  3  1  1
  2  4  1  0
  4  5  1  0
  5  6  2  0
  6  7  1  0
  7  8  1  0
  8  9  2  0
  9 10  1  0
 10 11  2  0
 11 12  1  0
 12 13  2  0
  2 14  1  0
 14 15  2  0
 14 16  1  0
 13  5  1  0
 13  8  1  0
M  END
>  <rName>  (3737) 
aMeTrp

>  <PQ_SYMBOL>  (3737) 
aMeTrp

>  <FULL_NAME>  (3737) 
Alpha-Methyl-L-tryptophan

>  <IUPAC_CONDENSED>  (3737) 
aMeTrp

>  <IUPAC>  (3737) 
(2S)-2-amino-2-((1H-indol-3-yl)methyl)propanoic acid

>  <TYPE>  (3737) 
Backbone

>  <CLASS>  (3737) 
alpha

>  <ANALOG>  (3737) 
Trp

>  <MOL_WT>  (3737) 
218.256

>  <LOGP>  (3737) 
1.5123999999999997

>  <TPSA>  (3737) 
79.11

>  <POPULARITY>  (3737) 
8.6

>  <PROTECTED>  (3737) 
TRUE

>  <SMILES>  (3737) 
N[C@@](C)(Cc1(c[nH]c2(ccccc12)))C(=O)O

>  <INCHIKEY>  (3737) 
ZTTWHZHBPDYSQB-LBPRGKRZSA-N

$$$$
aMeTyr
     RDKit          2D

 14 14  0  0  0  0  0  0  0  0999 V2000
   -0.7614    1.4549    0.0000 N   0  0  0  0  0  0  0  0  0  0  0  0
   -1.9195    0.5015    0.0000 C   0  0  0  0  0  0  0  0  0  0  0  0
   -2.8728    1.6596    0.0000 C   0  0  0  0  0  0  0  0  0  0  0  0
   -0.9661   -0.6566    0.0000 C   0  0  0  0  0  0  0  0  0  0  0  0
    0.5135   -0.4100    0.0000 C   0  0  0  0  0  0  0  0  0  0  0  0
    1.0397    0.9947    0.0000 C   0  0  0  0  0  0  0  0  0  0  0  0
    2.5193    1.2413    0.0000 C   0  0  0  0  0  0  0  0  0  0  0  0
    3.4726    0.0832    0.0000 C   0  0  0  0  0  0  0  0  0  0  0  0
    4.9522    0.3298    0.0000 O   0  0  0  0  0  0  0  0  0  0  0  0
    2.9464   -1.3215    0.0000 C   0  0  0  0  0  0  0  0  0  0  0  0
    1.4668   -1.5681    0.0000 C   0  0  0  0  0  0  0  0  0  0  0  0
   -3.0776   -0.4518    0.0000 C   0  0  0  0  0  0  0  0  0  0  0  0
   -4.4822    0.0744    0.0000 O   0  0  0  0  0  0  0  0  0  0  0  0
   -2.8310   -1.9314    0.0000 O   0  0  0  0  0  0  0  0  0  0  0  0
  1  2  1  0
  2  3  1  6
  2  4  1  0
  4  5  1  0
  5  6  1  0
  6  7  2  0
  7  8  1  0
  8  9  1  0
  8 10  2  0
 10 11  1  0
  2 12  1  0
 12 13  2  0
 12 14  1  0
 11  5  2  0
M  END
>  <rName>  (3738) 
aMeTyr

>  <PQ_SYMBOL>  (3738) 
aMeTyr

>  <FULL_NAME>  (3738) 
Metyrosine

>  <IUPAC_CONDENSED>  (3738) 
aMeTyr

>  <IUPAC>  (3738) 
(2S)-2-amino-2-((4-hydroxyphenyl)methyl)propanoic acid

>  <TYPE>  (3738) 
Backbone

>  <CLASS>  (3738) 
alpha

>  <ANALOG>  (3738) 
Tyr

>  <MOL_WT>  (3738) 
195.218

>  <LOGP>  (3738) 
0.7366999999999999

>  <TPSA>  (3738) 
83.55

>  <POPULARITY>  (3738) 
18.6

>  <PROTECTED>  (3738) 
TRUE

>  <SMILES>  (3738) 
N[C@@](C)(Cc1(ccc(O)cc1))C(=O)O

>  <INCHIKEY>  (3738) 
NHTGHBARYWONDQ-JTQLQIEISA-N

$$$$
aMeTyr_3OH
     RDKit          2D

 15 15  0  0  0  0  0  0  0  0999 V2000
   -1.1644    1.5206    0.0000 N   0  0  0  0  0  0  0  0  0  0  0  0
   -2.2310    0.4660    0.0000 C   0  0  0  0  0  0  0  0  0  0  0  0
   -3.2857    1.5327    0.0000 C   0  0  0  0  0  0  0  0  0  0  0  0
   -1.1764   -0.6006    0.0000 C   0  0  0  0  0  0  0  0  0  0  0  0
    0.2747   -0.2206    0.0000 C   0  0  0  0  0  0  0  0  0  0  0  0
    0.6711    1.2260    0.0000 C   0  0  0  0  0  0  0  0  0  0  0  0
    2.1222    1.6061    0.0000 C   0  0  0  0  0  0  0  0  0  0  0  0
    3.1768    0.5394    0.0000 C   0  0  0  0  0  0  0  0  0  0  0  0
    4.6279    0.9194    0.0000 O   0  0  0  0  0  0  0  0  0  0  0  0
    2.7804   -0.9073    0.0000 C   0  0  0  0  0  0  0  0  0  0  0  0
    3.8350   -1.9739    0.0000 O   0  0  0  0  0  0  0  0  0  0  0  0
    1.3293   -1.2873    0.0000 C   0  0  0  0  0  0  0  0  0  0  0  0
   -3.2977   -0.5886    0.0000 C   0  0  0  0  0  0  0  0  0  0  0  0
   -4.7444   -0.1922    0.0000 O   0  0  0  0  0  0  0  0  0  0  0  0
   -2.9177   -2.0397    0.0000 O   0  0  0  0  0  0  0  0  0  0  0  0
  1  2  1  0
  2  3  1  6
  2  4  1  0
  4  5  1  0
  5  6  1  0
  6  7  2  0
  7  8  1  0
  8  9  1  0
  8 10  2  0
 10 11  1  0
 10 12  1  0
  2 13  1  0
 13 14  2  0
 13 15  1  0
 12  5  2  0
M  END
>  <rName>  (3739) 
aMeTyr_3OH

>  <PQ_SYMBOL>  (3739) 
aMeTyr_3OH

>  <FULL_NAME>  (3739) 
(2S)-2-amino-3-(3,4-dihydroxyphenyl)-2-methylpropanoic acid

>  <IUPAC_CONDENSED>  (3739) 
aMeTyr(3-OH)

>  <IUPAC>  (3739) 
(2S)-2-amino-2-((3,4-dihydroxyphenyl)methyl)propanoic acid

>  <TYPE>  (3739) 
Backbone

>  <CLASS>  (3739) 
alpha

>  <ANALOG>  (3739) 
Tyr

>  <MOL_WT>  (3739) 
211.21699999999998

>  <LOGP>  (3739) 
0.44229999999999975

>  <TPSA>  (3739) 
103.78000000000002

>  <POPULARITY>  (3739) 
5.8

>  <PROTECTED>  (3739) 
FALSE

>  <SMILES>  (3739) 
N[C@@](C)(Cc1(ccc(O)c(O)c1))C(=O)O

>  <INCHIKEY>  (3739) 
CJCSPKMFHVPWAR-JTQLQIEISA-N

$$$$
aMeTyr_3OMe_Me
     RDKit          2D

 17 17  0  0  0  0  0  0  0  0999 V2000
   -1.8381    1.5840    0.0000 N   0  0  0  0  0  0  0  0  0  0  0  0
   -2.8140    0.4449    0.0000 C   0  0  0  0  0  0  0  0  0  0  0  0
   -3.9531    1.4207    0.0000 C   0  0  0  0  0  0  0  0  0  0  0  0
   -1.6748   -0.5310    0.0000 C   0  0  0  0  0  0  0  0  0  0  0  0
   -0.2601   -0.0324    0.0000 C   0  0  0  0  0  0  0  0  0  0  0  0
    0.0154    1.4421    0.0000 C   0  0  0  0  0  0  0  0  0  0  0  0
    1.4301    1.9407    0.0000 C   0  0  0  0  0  0  0  0  0  0  0  0
    2.5693    0.9649    0.0000 C   0  0  0  0  0  0  0  0  0  0  0  0
    3.9840    1.4635    0.0000 O   0  0  0  0  0  0  0  0  0  0  0  0
    5.1232    0.4876    0.0000 C   0  0  0  0  0  0  0  0  0  0  0  0
    2.2938   -0.5096    0.0000 C   0  0  0  0  0  0  0  0  0  0  0  0
    3.4330   -1.4855    0.0000 O   0  0  0  0  0  0  0  0  0  0  0  0
    3.1574   -2.9599    0.0000 C   0  0  0  0  0  0  0  0  0  0  0  0
    0.8791   -1.0082    0.0000 C   0  0  0  0  0  0  0  0  0  0  0  0
   -3.7898   -0.6943    0.0000 C   0  0  0  0  0  0  0  0  0  0  0  0
   -3.2912   -2.1090    0.0000 O   0  0  0  0  0  0  0  0  0  0  0  0
   -5.2643   -0.4188    0.0000 O   0  0  0  0  0  0  0  0  0  0  0  0
  1  2  1  0
  2  3  1  6
  2  4  1  0
  4  5  1  0
  5  6  1  0
  6  7  2  0
  7  8  1  0
  8  9  1  0
  9 10  1  0
  8 11  2  0
 11 12  1  0
 12 13  1  0
 11 14  1  0
  2 15  1  0
 15 16  2  0
 15 17  1  0
 14  5  2  0
M  END
>  <rName>  (3740) 
aMeTyr_3OMe_Me

>  <PQ_SYMBOL>  (3740) 
aMeTyr_3OMe_Me

>  <FULL_NAME>  (3740) 
3-Methoxy-O,alpha-dimethyl-L-tyrosine

>  <IUPAC_CONDENSED>  (3740) 
aMeTyr(3-OMe,Me)

>  <IUPAC>  (3740) 
(2S)-2-amino-3-(3,4-dimethoxyphenyl)-2-methylpropanoic acid

>  <TYPE>  (3740) 
Backbone

>  <CLASS>  (3740) 
alpha

>  <ANALOG>  (3740) 
Tyr

>  <MOL_WT>  (3740) 
239.27099999999996

>  <LOGP>  (3740) 
1.0482999999999998

>  <TPSA>  (3740) 
81.78

>  <POPULARITY>  (3740) 
2.2

>  <PROTECTED>  (3740) 
TRUE

>  <SMILES>  (3740) 
N[C@@](C)(Cc1(ccc(OC)c(OC)c1))C(=O)O

>  <INCHIKEY>  (3740) 
QCCQWLWXLUTSAK-LBPRGKRZSA-N

$$$$
aMeTyr_Me
     RDKit          2D

 15 15  0  0  0  0  0  0  0  0999 V2000
   -1.2109    1.4657    0.0000 N   0  0  0  0  0  0  0  0  0  0  0  0
   -2.3324    0.4696    0.0000 C   0  0  0  0  0  0  0  0  0  0  0  0
   -3.3285    1.5912    0.0000 C   0  0  0  0  0  0  0  0  0  0  0  0
   -1.3363   -0.6519    0.0000 C   0  0  0  0  0  0  0  0  0  0  0  0
    0.1330   -0.3500    0.0000 C   0  0  0  0  0  0  0  0  0  0  0  0
    0.6062    1.0734    0.0000 C   0  0  0  0  0  0  0  0  0  0  0  0
    2.0755    1.3753    0.0000 C   0  0  0  0  0  0  0  0  0  0  0  0
    3.0716    0.2537    0.0000 C   0  0  0  0  0  0  0  0  0  0  0  0
    4.5409    0.5556    0.0000 O   0  0  0  0  0  0  0  0  0  0  0  0
    5.5370   -0.5659    0.0000 C   0  0  0  0  0  0  0  0  0  0  0  0
    2.5984   -1.1697    0.0000 C   0  0  0  0  0  0  0  0  0  0  0  0
    1.1291   -1.4715    0.0000 C   0  0  0  0  0  0  0  0  0  0  0  0
   -3.4540   -0.5264    0.0000 C   0  0  0  0  0  0  0  0  0  0  0  0
   -4.8773   -0.0532    0.0000 O   0  0  0  0  0  0  0  0  0  0  0  0
   -3.1521   -1.9958    0.0000 O   0  0  0  0  0  0  0  0  0  0  0  0
  1  2  1  0
  2  3  1  6
  2  4  1  0
  4  5  1  0
  5  6  1  0
  6  7  2  0
  7  8  1  0
  8  9  1  0
  9 10  1  0
  8 11  2  0
 11 12  1  0
  2 13  1  0
 13 14  2  0
 13 15  1  0
 12  5  2  0
M  END
>  <rName>  (3741) 
aMeTyr_Me

>  <PQ_SYMBOL>  (3741) 
aMeTyr_Me

>  <FULL_NAME>  (3741) 
O,alpha-dimethyl-L-tyrosine

>  <IUPAC_CONDENSED>  (3741) 
aMeTyr(Me)

>  <IUPAC>  (3741) 
(2S)-2-amino-3-(4-methoxyphenyl)-2-methylpropanoic acid

>  <TYPE>  (3741) 
Backbone

>  <CLASS>  (3741) 
alpha

>  <ANALOG>  (3741) 
Tyr

>  <MOL_WT>  (3741) 
209.24499999999998

>  <LOGP>  (3741) 
1.0396999999999998

>  <TPSA>  (3741) 
72.55

>  <POPULARITY>  (3741) 
2.2

>  <PROTECTED>  (3741) 
TRUE

>  <SMILES>  (3741) 
N[C@@](C)(Cc1(ccc(OC)cc1))C(=O)O

>  <INCHIKEY>  (3741) 
GSEIHXWCWAMTTH-NSHDSACASA-N

$$$$
aMeVal
     RDKit          2D

  9  8  0  0  0  0  0  0  0  0999 V2000
    1.0607    1.7678    0.0000 N   0  0  0  0  0  0  0  0  0  0  0  0
    0.0000    0.7071    0.0000 C   0  0  0  0  0  0  0  0  0  0  0  0
   -1.0607    1.7678    0.0000 C   0  0  0  0  0  0  0  0  0  0  0  0
    1.0607   -0.3536    0.0000 C   0  0  0  0  0  0  0  0  0  0  0  0
    2.5095    0.0347    0.0000 C   0  0  0  0  0  0  0  0  0  0  0  0
    0.6724   -1.8024    0.0000 C   0  0  0  0  0  0  0  0  0  0  0  0
   -1.0607   -0.3536    0.0000 C   0  0  0  0  0  0  0  0  0  0  0  0
   -2.5095    0.0347    0.0000 O   0  0  0  0  0  0  0  0  0  0  0  0
   -0.6724   -1.8024    0.0000 O   0  0  0  0  0  0  0  0  0  0  0  0
  1  2  1  0
  2  3  1  6
  2  4  1  0
  4  5  1  0
  4  6  1  0
  2  7  1  0
  7  8  2  0
  7  9  1  0
M  END
>  <rName>  (3742) 
aMeVal

>  <PQ_SYMBOL>  (3742) 
aMeVal

>  <FULL_NAME>  (3742) 
alpha-methyl-L-valine

>  <IUPAC_CONDENSED>  (3742) 
aMeVal

>  <IUPAC>  (3742) 
(2S)-2-amino-2,3-dimethylbutanoic acid

>  <TYPE>  (3742) 
Backbone

>  <CLASS>  (3742) 
alpha

>  <ANALOG>  (3742) 
Val

>  <MOL_WT>  (3742) 
131.175

>  <LOGP>  (3742) 
0.44439999999999985

>  <TPSA>  (3742) 
63.32000000000001

>  <POPULARITY>  (3742) 
19.7

>  <PROTECTED>  (3742) 
TRUE

>  <SMILES>  (3742) 
N[C@@](C)(C(C)C)C(=O)O

>  <INCHIKEY>  (3742) 
GPYTYOMSQHBYTK-LURJTMIESA-N

$$$$
aMeaMeGaba
     RDKit          2D

  9  8  0  0  0  0  0  0  0  0999 V2000
    3.1812   -0.4910    0.0000 N   0  0  0  0  0  0  0  0  0  0  0  0
    1.7638    0.0000    0.0000 C   0  0  0  0  0  0  0  0  0  0  0  0
    2.2548    1.4174    0.0000 C   0  0  0  0  0  0  0  0  0  0  0  0
    1.2728   -1.4174    0.0000 C   0  0  0  0  0  0  0  0  0  0  0  0
    0.3465    0.4910    0.0000 C   0  0  0  0  0  0  0  0  0  0  0  0
   -0.7874   -0.4910    0.0000 C   0  0  0  0  0  0  0  0  0  0  0  0
   -2.2048   -0.0000    0.0000 C   0  0  0  0  0  0  0  0  0  0  0  0
   -2.4883    1.4730    0.0000 O   0  0  0  0  0  0  0  0  0  0  0  0
   -3.3387   -0.9820    0.0000 O   0  0  0  0  0  0  0  0  0  0  0  0
  1  2  1  0
  2  3  1  0
  2  4  1  0
  2  5  1  0
  5  6  1  0
  6  7  1  0
  7  8  2  0
  7  9  1  0
M  END
>  <rName>  (3743) 
aMeaMeGaba

>  <PQ_SYMBOL>  (3743) 
aMeaMeGaba

>  <FULL_NAME>  (3743) 
4-amino-4-methylpentanoic acid

>  <IUPAC_CONDENSED>  (3743) 
aMeaMeGaba

>  <IUPAC>  (3743) 
4-amino-4-methylpentanoic acid

>  <TYPE>  (3743) 
Backbone

>  <CLASS>  (3743) 
gamma

>  <ANALOG>  (3743) 
Ala

>  <MOL_WT>  (3743) 
131.175

>  <LOGP>  (3743) 
0.5884999999999998

>  <TPSA>  (3743) 
63.32000000000001

>  <POPULARITY>  (3743) 
14.8

>  <PROTECTED>  (3743) 
TRUE

>  <SMILES>  (3743) 
NC(C)(C)CCC(=O)O

>  <INCHIKEY>  (3743) 
FZNOWMWZNCOYIJ-UHFFFAOYSA-N

$$$$
aMebAla_3Bu_Me
     RDKit          2D

 12 11  0  0  0  0  0  0  0  0999 V2000
   -0.4359    2.2926    0.0000 N   0  0  0  0  0  0  0  0  0  0  0  0
   -1.4004    1.1438    0.0000 C   0  0  0  0  0  0  0  0  0  0  0  0
   -2.5492    2.1083    0.0000 C   0  0  0  0  0  0  0  0  0  0  0  0
   -0.2517    0.1793    0.0000 C   0  0  0  0  0  0  0  0  0  0  0  0
    1.1580    0.6919    0.0000 C   0  0  0  0  0  0  0  0  0  0  0  0
    2.3068   -0.2726    0.0000 C   0  0  0  0  0  0  0  0  0  0  0  0
    3.7165    0.2400    0.0000 C   0  0  0  0  0  0  0  0  0  0  0  0
    4.8653   -0.7245    0.0000 C   0  0  0  0  0  0  0  0  0  0  0  0
   -2.3650   -0.0050    0.0000 C   0  0  0  0  0  0  0  0  0  0  0  0
   -1.8524   -1.4147    0.0000 C   0  0  0  0  0  0  0  0  0  0  0  0
   -0.3752   -1.6756    0.0000 O   0  0  0  0  0  0  0  0  0  0  0  0
   -2.8169   -2.5634    0.0000 O   0  0  0  0  0  0  0  0  0  0  0  0
  1  2  1  0
  2  3  1  0
  2  4  1  0
  4  5  1  0
  5  6  1  0
  6  7  1  0
  7  8  1  0
  2  9  1  0
  9 10  1  0
 10 11  2  0
 10 12  1  0
M  END
>  <rName>  (3744) 
aMebAla_3Bu_Me

>  <PQ_SYMBOL>  (3744) 
aMebAla_3Bu_Me

>  <FULL_NAME>  (3744) 
3-Amino-3-methyloctanoic acid

>  <IUPAC_CONDENSED>  (3744) 
aMebAla(3-Bu,Me)

>  <IUPAC>  (3744) 
3-amino-3-methyloctanoic acid

>  <TYPE>  (3744) 
Backbone

>  <CLASS>  (3744) 
beta

>  <ANALOG>  (3744) 
Leu

>  <MOL_WT>  (3744) 
173.256

>  <LOGP>  (3744) 
1.7588

>  <TPSA>  (3744) 
63.32000000000001

>  <POPULARITY>  (3744) 
7.2

>  <PROTECTED>  (3744) 
TRUE

>  <SMILES>  (3744) 
NC(C)(CCCCC)CC(=O)O

>  <INCHIKEY>  (3744) 
ITKXFCHHNVHHNE-UHFFFAOYSA-N

$$$$
aMebAla_3Me
     RDKit          2D

  8  7  0  0  0  0  0  0  0  0999 V2000
    2.4305   -0.6752    0.0000 N   0  0  0  0  0  0  0  0  0  0  0  0
    1.1374    0.0849    0.0000 C   0  0  0  0  0  0  0  0  0  0  0  0
    1.8975    1.3780    0.0000 C   0  0  0  0  0  0  0  0  0  0  0  0
    0.3772   -1.2083    0.0000 C   0  0  0  0  0  0  0  0  0  0  0  0
   -0.1558    0.8450    0.0000 C   0  0  0  0  0  0  0  0  0  0  0  0
   -1.4606    0.1051    0.0000 C   0  0  0  0  0  0  0  0  0  0  0  0
   -1.4723   -1.3948    0.0000 O   0  0  0  0  0  0  0  0  0  0  0  0
   -2.7538    0.8653    0.0000 O   0  0  0  0  0  0  0  0  0  0  0  0
  1  2  1  0
  2  3  1  0
  2  4  1  0
  2  5  1  0
  5  6  1  0
  6  7  2  0
  6  8  1  0
M  END
>  <rName>  (3745) 
aMebAla_3Me

>  <PQ_SYMBOL>  (3745) 
aMebAla_3Me

>  <FULL_NAME>  (3745) 
3-amino-3-methylbutanoic acid

>  <IUPAC_CONDENSED>  (3745) 
aMebAla(3-Me)

>  <IUPAC>  (3745) 
3-amino-3-methylbutanoic acid

>  <TYPE>  (3745) 
Backbone

>  <CLASS>  (3745) 
beta

>  <ANALOG>  (3745) 
Ala

>  <MOL_WT>  (3745) 
117.14799999999998

>  <LOGP>  (3745) 
0.19839999999999985

>  <TPSA>  (3745) 
63.32000000000001

>  <POPULARITY>  (3745) 
14.3

>  <PROTECTED>  (3745) 
TRUE

>  <SMILES>  (3745) 
NC(C)(C)CC(=O)O

>  <INCHIKEY>  (3745) 
NFQAIWOMJQWGSS-UHFFFAOYSA-N

$$$$
aMebAla_3Me_OH
     RDKit          2D

  9  8  0  0  0  0  0  0  0  0999 V2000
    2.4717   -0.8671    0.0000 N   0  0  0  0  0  0  0  0  0  0  0  0
    1.1578   -0.1434    0.0000 C   0  0  0  0  0  0  0  0  0  0  0  0
    1.8815    1.1705    0.0000 C   0  0  0  0  0  0  0  0  0  0  0  0
    0.4341   -1.4573    0.0000 C   0  0  0  0  0  0  0  0  0  0  0  0
   -0.1560    0.5803    0.0000 C   0  0  0  0  0  0  0  0  0  0  0  0
   -0.1862    2.0800    0.0000 O   0  0  0  0  0  0  0  0  0  0  0  0
   -1.4397   -0.1957    0.0000 C   0  0  0  0  0  0  0  0  0  0  0  0
   -1.4095   -1.6954    0.0000 O   0  0  0  0  0  0  0  0  0  0  0  0
   -2.7536    0.5280    0.0000 O   0  0  0  0  0  0  0  0  0  0  0  0
  1  2  1  0
  2  3  1  0
  2  4  1  0
  2  5  1  0
  5  6  1  0
  5  7  1  0
  7  8  2  0
  7  9  1  0
M  END
>  <rName>  (3746) 
aMebAla_3Me_OH

>  <PQ_SYMBOL>  (3746) 
aMebAla_3Me_OH

>  <FULL_NAME>  (3746) 
3-Amino-2-hydroxy-3-methylbutanoic acid

>  <IUPAC_CONDENSED>  (3746) 
aMebAla(3-Me,OH)

>  <IUPAC>  (3746) 
3-amino-2-hydroxy-3-methylbutanoic acid

>  <TYPE>  (3746) 
Backbone

>  <CLASS>  (3746) 
beta

>  <ANALOG>  (3746) 
Ala

>  <MOL_WT>  (3746) 
133.147

>  <LOGP>  (3746) 
-0.8308000000000002

>  <TPSA>  (3746) 
83.55

>  <POPULARITY>  (3746) 
6.5

>  <PROTECTED>  (3746) 
TRUE

>  <SMILES>  (3746) 
NC(C)(C)C(O)C(=O)O

>  <INCHIKEY>  (3746) 
YNEGEPKXRPUBDF-UHFFFAOYSA-N

$$$$
aMebAla_3_b_btriMe
     RDKit          2D

 10  9  0  0  0  0  0  0  0  0999 V2000
    2.8500    0.0000    0.0000 N   0  0  0  0  0  0  0  0  0  0  0  0
    1.3500    0.0000    0.0000 C   0  0  0  0  0  0  0  0  0  0  0  0
    1.3500    1.5000    0.0000 C   0  0  0  0  0  0  0  0  0  0  0  0
    1.3500   -1.5000    0.0000 C   0  0  0  0  0  0  0  0  0  0  0  0
   -0.1500    0.0000    0.0000 C   0  0  0  0  0  0  0  0  0  0  0  0
   -0.1500    1.5000    0.0000 C   0  0  0  0  0  0  0  0  0  0  0  0
   -0.1500   -1.5000    0.0000 C   0  0  0  0  0  0  0  0  0  0  0  0
   -1.6500   -0.0000    0.0000 C   0  0  0  0  0  0  0  0  0  0  0  0
   -2.4000   -1.2990    0.0000 O   0  0  0  0  0  0  0  0  0  0  0  0
   -2.4000    1.2990    0.0000 O   0  0  0  0  0  0  0  0  0  0  0  0
  1  2  1  0
  2  3  1  0
  2  4  1  0
  2  5  1  0
  5  6  1  0
  5  7  1  0
  5  8  1  0
  8  9  2  0
  8 10  1  0
M  END
>  <rName>  (3747) 
aMebAla_3_b_btriMe

>  <PQ_SYMBOL>  (3747) 
aMebAla_3_b_btriMe

>  <FULL_NAME>  (3747) 
3-Amino-2,2,3-trimethylbutanoic acid

>  <IUPAC_CONDENSED>  (3747) 
aMebAla(3,b,b-triMe)

>  <IUPAC>  (3747) 
3-amino-2,2,3-trimethylbutanoic acid

>  <TYPE>  (3747) 
Backbone

>  <CLASS>  (3747) 
beta

>  <ANALOG>  (3747) 
Ala

>  <MOL_WT>  (3747) 
145.202

>  <LOGP>  (3747) 
0.8344999999999998

>  <TPSA>  (3747) 
63.32000000000001

>  <POPULARITY>  (3747) 
9.1

>  <PROTECTED>  (3747) 
TRUE

>  <SMILES>  (3747) 
NC(C)(C)C(C)(C)C(=O)O

>  <INCHIKEY>  (3747) 
OELDQFIYPLBNJB-UHFFFAOYSA-N

$$$$
aMebPro_5Me
     RDKit          2D

 10 10  0  0  0  0  0  0  0  0999 V2000
   -1.6540   -1.0983    0.0000 N   0  0  0  0  0  0  0  0  0  0  0  0
   -0.1568   -1.1898    0.0000 C   0  0  0  0  0  0  0  0  0  0  0  0
    0.6492   -2.4549    0.0000 C   0  0  0  0  0  0  0  0  0  0  0  0
    0.3930    0.2058    0.0000 C   0  0  0  0  0  0  0  0  0  0  0  0
   -0.7645    1.1599    0.0000 C   0  0  0  0  0  0  0  0  0  0  0  0
   -2.0296    0.3539    0.0000 C   0  0  0  0  0  0  0  0  0  0  0  0
   -3.4252    0.9037    0.0000 C   0  0  0  0  0  0  0  0  0  0  0  0
    1.8452    0.5814    0.0000 C   0  0  0  0  0  0  0  0  0  0  0  0
    2.2460    2.0268    0.0000 O   0  0  0  0  0  0  0  0  0  0  0  0
    2.8966   -0.4885    0.0000 O   0  0  0  0  0  0  0  0  0  0  0  0
  1  2  1  0
  2  3  1  0
  2  4  1  0
  4  5  1  0
  5  6  1  0
  6  7  1  0
  4  8  1  0
  8  9  2  0
  8 10  1  0
  6  1  1  0
M  END
>  <rName>  (3748) 
aMebPro_5Me

>  <PQ_SYMBOL>  (3748) 
aMebPro_5Me

>  <FULL_NAME>  (3748) 
2,5-dimethylpyrrolidine-3-carboxylic acid

>  <IUPAC_CONDENSED>  (3748) 
aMebPro(5-Me)

>  <IUPAC>  (3748) 
2,5-dimethylpyrrolidine-3-carboxylic acid

>  <TYPE>  (3748) 
Backbone

>  <CLASS>  (3748) 
beta

>  <ANALOG>  (3748) 
Pro

>  <MOL_WT>  (3748) 
143.186

>  <LOGP>  (3748) 
0.45749999999999974

>  <TPSA>  (3748) 
49.33

>  <POPULARITY>  (3748) 
10.7

>  <PROTECTED>  (3748) 
TRUE

>  <SMILES>  (3748) 
N1C(C)C(CC1C)C(=O)O

>  <INCHIKEY>  (3748) 
GRQXIULZFCBQKO-UHFFFAOYSA-N

$$$$
aMehLys_N3
     RDKit          2D

 14 13  0  0  0  0  0  0  0  0999 V2000
   -2.3694    1.8033    0.0000 N   0  0  0  0  0  0  0  0  0  0  0  0
   -3.0961    0.4911    0.0000 C   0  0  0  0  0  0  0  0  0  0  0  0
   -4.4083    1.2178    0.0000 C   0  0  0  0  0  0  0  0  0  0  0  0
   -1.7839   -0.2356    0.0000 C   0  0  0  0  0  0  0  0  0  0  0  0
   -0.4985    0.5374    0.0000 C   0  0  0  0  0  0  0  0  0  0  0  0
    0.8137   -0.1893    0.0000 C   0  0  0  0  0  0  0  0  0  0  0  0
    2.0992    0.5837    0.0000 C   0  0  0  0  0  0  0  0  0  0  0  0
    3.4114   -0.1430    0.0000 C   0  0  0  0  0  0  0  0  0  0  0  0
    4.6969    0.6300    0.0000 N   0  0  0  0  0  0  0  0  0  0  0  0
    6.0091   -0.0967    0.0000 N   0  0  0  0  0  0  0  0  0  0  0  0
    7.3213   -0.8234    0.0000 N   0  0  0  0  0  0  0  0  0  0  0  0
   -3.8229   -0.8211    0.0000 C   0  0  0  0  0  0  0  0  0  0  0  0
   -5.3226   -0.8478    0.0000 O   0  0  0  0  0  0  0  0  0  0  0  0
   -3.0498   -2.1066    0.0000 O   0  0  0  0  0  0  0  0  0  0  0  0
  1  2  1  0
  2  3  1  6
  2  4  1  0
  4  5  1  0
  5  6  1  0
  6  7  1  0
  7  8  1  0
  8  9  1  0
  9 10  2  0
 10 11  2  0
  2 12  1  0
 12 13  2  0
 12 14  1  0
M  CHG  2  10   1  11  -1
M  END
>  <rName>  (3749) 
aMehLys_N3

>  <PQ_SYMBOL>  (3749) 
aMehLys_N3

>  <FULL_NAME>  (3749) 
(2S)-2-amino-7-azido-2-methylheptanoic acid

>  <IUPAC_CONDENSED>  (3749) 
aMehLys(N3)

>  <IUPAC>  (3749) 
(2S)-2-amino-7-azido-2-methylheptanoic acid

>  <TYPE>  (3749) 
Backbone

>  <CLASS>  (3749) 
alpha

>  <ANALOG>  (3749) 
Lys

>  <MOL_WT>  (3749) 
200.24200000000002

>  <LOGP>  (3749) 
1.6591

>  <TPSA>  (3749) 
112.08

>  <POPULARITY>  (3749) 
2.2

>  <PROTECTED>  (3749) 
TRUE

>  <SMILES>  (3749) 
N[C@@](C)(CCCCCN=[N+]=[N-])C(=O)O

>  <INCHIKEY>  (3749) 
APWRKZGSVYZPFX-QMMMGPOBSA-N

$$$$
aMehPhe
     RDKit          2D

 14 14  0  0  0  0  0  0  0  0999 V2000
   -2.7092    2.1394    0.0000 N   0  0  0  0  0  0  0  0  0  0  0  0
   -2.5158    0.6520    0.0000 C   0  0  0  0  0  0  0  0  0  0  0  0
   -4.0033    0.4585    0.0000 C   0  0  0  0  0  0  0  0  0  0  0  0
   -1.0283    0.8454    0.0000 C   0  0  0  0  0  0  0  0  0  0  0  0
   -0.1171   -0.3461    0.0000 C   0  0  0  0  0  0  0  0  0  0  0  0
    1.3704   -0.1526    0.0000 C   0  0  0  0  0  0  0  0  0  0  0  0
    1.9466    1.2323    0.0000 C   0  0  0  0  0  0  0  0  0  0  0  0
    3.4341    1.4257    0.0000 C   0  0  0  0  0  0  0  0  0  0  0  0
    4.3454    0.2342    0.0000 C   0  0  0  0  0  0  0  0  0  0  0  0
    3.7691   -1.1507    0.0000 C   0  0  0  0  0  0  0  0  0  0  0  0
    2.2817   -1.3441    0.0000 C   0  0  0  0  0  0  0  0  0  0  0  0
   -2.3224   -0.8355    0.0000 C   0  0  0  0  0  0  0  0  0  0  0  0
   -0.9375   -1.4117    0.0000 O   0  0  0  0  0  0  0  0  0  0  0  0
   -3.5138   -1.7468    0.0000 O   0  0  0  0  0  0  0  0  0  0  0  0
  1  2  1  0
  2  3  1  6
  2  4  1  0
  4  5  1  0
  5  6  1  0
  6  7  2  0
  7  8  1  0
  8  9  2  0
  9 10  1  0
 10 11  2  0
  2 12  1  0
 12 13  2  0
 12 14  1  0
 11  6  1  0
M  END
>  <rName>  (3750) 
aMehPhe

>  <PQ_SYMBOL>  (3750) 
aMehPhe

>  <FULL_NAME>  (3750) 
(S)-2-amino-2-methyl-4-phenylbutanoic acid

>  <IUPAC_CONDENSED>  (3750) 
aMehPhe

>  <IUPAC>  (3750) 
(2S)-2-amino-2-methyl-4-phenylbutanoic acid

>  <TYPE>  (3750) 
Backbone

>  <CLASS>  (3750) 
alpha

>  <ANALOG>  (3750) 
Phe

>  <MOL_WT>  (3750) 
193.24599999999998

>  <LOGP>  (3750) 
1.4212

>  <TPSA>  (3750) 
63.32000000000001

>  <POPULARITY>  (3750) 
10.0

>  <PROTECTED>  (3750) 
TRUE

>  <SMILES>  (3750) 
N[C@@](C)(CCc1(ccccc1))C(=O)O

>  <INCHIKEY>  (3750) 
PHZKTNAAGCQMAO-NSHDSACASA-N

$$$$
aNH2Apm
     RDKit          2D

 13 12  0  0  0  0  0  0  0  0999 V2000
    2.7138    1.6520    0.0000 N   0  0  0  0  0  0  0  0  0  0  0  0
    2.1874    0.2474    0.0000 C   0  0  0  0  0  0  0  0  0  0  0  0
    1.6611   -1.1572    0.0000 N   0  0  0  0  0  0  0  0  0  0  0  0
    0.7828    0.7738    0.0000 C   0  0  0  0  0  0  0  0  0  0  0  0
   -0.3753   -0.1795    0.0000 C   0  0  0  0  0  0  0  0  0  0  0  0
   -1.7799    0.3469    0.0000 C   0  0  0  0  0  0  0  0  0  0  0  0
   -2.9381   -0.6064    0.0000 C   0  0  0  0  0  0  0  0  0  0  0  0
   -4.3427   -0.0801    0.0000 C   0  0  0  0  0  0  0  0  0  0  0  0
   -4.5892    1.3995    0.0000 O   0  0  0  0  0  0  0  0  0  0  0  0
   -5.5008   -1.0333    0.0000 O   0  0  0  0  0  0  0  0  0  0  0  0
    3.5921   -0.2789    0.0000 C   0  0  0  0  0  0  0  0  0  0  0  0
    4.7502    0.6743    0.0000 O   0  0  0  0  0  0  0  0  0  0  0  0
    3.8386   -1.7585    0.0000 O   0  0  0  0  0  0  0  0  0  0  0  0
  1  2  1  0
  2  3  1  0
  2  4  1  0
  4  5  1  0
  5  6  1  0
  6  7  1  0
  7  8  1  0
  8  9  2  0
  8 10  1  0
  2 11  1  0
 11 12  2  0
 11 13  1  0
M  END
>  <rName>  (3751) 
aNH2Apm

>  <PQ_SYMBOL>  (3751) 
aNH2Apm

>  <FULL_NAME>  (3751) 
L-Diaminopimelic acid

>  <IUPAC_CONDENSED>  (3751) 
aNH2Apm

>  <IUPAC>  (3751) 
2,2-diaminoheptanedioic acid

>  <TYPE>  (3751) 
Backbone

>  <CLASS>  (3751) 
alpha

>  <ANALOG>  (3751) 
X

>  <MOL_WT>  (3751) 
190.199

>  <LOGP>  (3751) 
-0.6703000000000006

>  <TPSA>  (3751) 
126.64

>  <POPULARITY>  (3751) 
1.1

>  <PROTECTED>  (3751) 
FALSE

>  <SMILES>  (3751) 
NC(N)(CCCCC(=O)O)C(=O)O

>  <INCHIKEY>  (3751) 
HAWJUUUDZFZUKG-UHFFFAOYSA-N

$$$$
aPh2-FbAla_3Me
     RDKit          2D

 14 14  0  0  0  0  0  0  0  0999 V2000
   -1.9541   -1.4609    0.0000 N   0  0  0  0  0  0  0  0  0  0  0  0
   -0.6363   -0.7444    0.0000 C   0  0  0  0  0  0  0  0  0  0  0  0
    0.0802   -2.0623    0.0000 C   0  0  0  0  0  0  0  0  0  0  0  0
    0.6816   -0.0280    0.0000 C   0  0  0  0  0  0  0  0  0  0  0  0
    0.7200    1.4715    0.0000 C   0  0  0  0  0  0  0  0  0  0  0  0
    2.0379    2.1880    0.0000 C   0  0  0  0  0  0  0  0  0  0  0  0
    3.3172    1.4049    0.0000 C   0  0  0  0  0  0  0  0  0  0  0  0
    3.2788   -0.0946    0.0000 C   0  0  0  0  0  0  0  0  0  0  0  0
    1.9610   -0.8110    0.0000 C   0  0  0  0  0  0  0  0  0  0  0  0
    1.9225   -2.3105    0.0000 F   0  0  0  0  0  0  0  0  0  0  0  0
   -1.3527    0.5734    0.0000 C   0  0  0  0  0  0  0  0  0  0  0  0
   -2.8522    0.6118    0.0000 C   0  0  0  0  0  0  0  0  0  0  0  0
   -3.6353   -0.6676    0.0000 O   0  0  0  0  0  0  0  0  0  0  0  0
   -3.5687    1.9297    0.0000 O   0  0  0  0  0  0  0  0  0  0  0  0
  1  2  1  0
  2  3  1  0
  2  4  1  0
  4  5  2  0
  5  6  1  0
  6  7  2  0
  7  8  1  0
  8  9  2  0
  9 10  1  0
  2 11  1  0
 11 12  1  0
 12 13  2  0
 12 14  1  0
  9  4  1  0
M  END
>  <rName>  (3752) 
aPh2-FbAla_3Me

>  <PQ_SYMBOL>  (3752) 
aPh2-FbAla_3Me

>  <FULL_NAME>  (3752) 
3-Amino-3-(2-fluorophenyl)butanoic acid

>  <IUPAC_CONDENSED>  (3752) 
aPh(2-F)bAla(3-Me)

>  <IUPAC>  (3752) 
3-amino-3-(2-fluorophenyl)butanoic acid

>  <TYPE>  (3752) 
Backbone

>  <CLASS>  (3752) 
beta

>  <ANALOG>  (3752) 
X

>  <MOL_WT>  (3752) 
197.20899999999995

>  <LOGP>  (3752) 
1.4743000000000002

>  <TPSA>  (3752) 
63.32000000000001

>  <POPULARITY>  (3752) 
6.3

>  <PROTECTED>  (3752) 
TRUE

>  <SMILES>  (3752) 
NC(C)(c1(ccccc1F))CC(=O)O

>  <INCHIKEY>  (3752) 
FAFOAWVBMGLEDE-UHFFFAOYSA-N

$$$$
aPh3-OMebPro_S
     RDKit          2D

 16 17  0  0  0  0  0  0  0  0999 V2000
   -2.3607   -1.9589    0.0000 N   0  0  0  0  0  0  0  0  0  0  0  0
   -1.3946   -0.8114    0.0000 C   0  0  0  0  0  0  0  0  0  0  0  0
    0.1016   -0.9185    0.0000 C   0  0  0  0  0  0  0  0  0  0  0  0
    0.7569   -2.2678    0.0000 C   0  0  0  0  0  0  0  0  0  0  0  0
    2.2531   -2.3749    0.0000 C   0  0  0  0  0  0  0  0  0  0  0  0
    3.0939   -1.1328    0.0000 C   0  0  0  0  0  0  0  0  0  0  0  0
    2.4386    0.2165    0.0000 C   0  0  0  0  0  0  0  0  0  0  0  0
    3.2795    1.4587    0.0000 O   0  0  0  0  0  0  0  0  0  0  0  0
    4.7756    1.3516    0.0000 C   0  0  0  0  0  0  0  0  0  0  0  0
    0.9424    0.3236    0.0000 C   0  0  0  0  0  0  0  0  0  0  0  0
   -2.1874    0.4619    0.0000 C   0  0  0  0  0  0  0  0  0  0  0  0
   -3.6434    0.1015    0.0000 C   0  0  0  0  0  0  0  0  0  0  0  0
   -3.7505   -1.3947    0.0000 C   0  0  0  0  0  0  0  0  0  0  0  0
   -1.6231    1.8518    0.0000 C   0  0  0  0  0  0  0  0  0  0  0  0
   -0.1374    2.0581    0.0000 O   0  0  0  0  0  0  0  0  0  0  0  0
   -2.5447    3.0353    0.0000 O   0  0  0  0  0  0  0  0  0  0  0  0
  1  2  1  0
  2  3  1  6
  3  4  2  0
  4  5  1  0
  5  6  2  0
  6  7  1  0
  7  8  1  0
  8  9  1  0
  7 10  2  0
  2 11  1  0
 11 12  1  0
 12 13  1  0
 11 14  1  6
 14 15  2  0
 14 16  1  0
 13  1  1  0
 10  3  1  0
M  END
>  <rName>  (3753) 
aPh3-OMebPro_S

>  <PQ_SYMBOL>  (3753) 
aPh3-OMebPro_S

>  <FULL_NAME>  (3753) 
rac-(2R,3S)-2-(3-methoxyphenyl)pyrrolidine-3-carboxylic acid

>  <IUPAC_CONDENSED>  (3753) 
aPh(3-OMe)bPro(S)

>  <IUPAC>  (3753) 
(2R,3S)-2-(3-methoxyphenyl)pyrrolidine-3-carboxylic acid

>  <TYPE>  (3753) 
Backbone

>  <CLASS>  (3753) 
beta

>  <ANALOG>  (3753) 
X

>  <MOL_WT>  (3753) 
221.25599999999997

>  <LOGP>  (3753) 
1.4304

>  <TPSA>  (3753) 
58.56

>  <POPULARITY>  (3753) 
5.4

>  <PROTECTED>  (3753) 
TRUE

>  <SMILES>  (3753) 
N1[C@@H](c2(cccc(OC)c2))[C@H](CC1)C(=O)O

>  <INCHIKEY>  (3753) 
BEQFGVOUHJNOCT-QWRGUYRKSA-N

$$$$
aPh4-BrbAla_3Me
     RDKit          2D

 14 14  0  0  0  0  0  0  0  0999 V2000
   -2.4443   -1.3408    0.0000 N   0  0  0  0  0  0  0  0  0  0  0  0
   -1.0151   -0.8856    0.0000 C   0  0  0  0  0  0  0  0  0  0  0  0
   -0.5598   -2.3148    0.0000 C   0  0  0  0  0  0  0  0  0  0  0  0
    0.4141   -0.4303    0.0000 C   0  0  0  0  0  0  0  0  0  0  0  0
    0.7345    1.0351    0.0000 C   0  0  0  0  0  0  0  0  0  0  0  0
    2.1638    1.4903    0.0000 C   0  0  0  0  0  0  0  0  0  0  0  0
    3.2726    0.4802    0.0000 C   0  0  0  0  0  0  0  0  0  0  0  0
    4.7019    0.9354    0.0000 Br  0  0  0  0  0  0  0  0  0  0  0  0
    2.9523   -0.9852    0.0000 C   0  0  0  0  0  0  0  0  0  0  0  0
    1.5230   -1.4405    0.0000 C   0  0  0  0  0  0  0  0  0  0  0  0
   -1.4704    0.5437    0.0000 C   0  0  0  0  0  0  0  0  0  0  0  0
   -2.9357    0.8640    0.0000 C   0  0  0  0  0  0  0  0  0  0  0  0
   -3.9459   -0.2448    0.0000 O   0  0  0  0  0  0  0  0  0  0  0  0
   -3.3910    2.2933    0.0000 O   0  0  0  0  0  0  0  0  0  0  0  0
  1  2  1  0
  2  3  1  0
  2  4  1  0
  4  5  1  0
  5  6  2  0
  6  7  1  0
  7  8  1  0
  7  9  2  0
  9 10  1  0
  2 11  1  0
 11 12  1  0
 12 13  2  0
 12 14  1  0
 10  4  2  0
M  END
>  <rName>  (3754) 
aPh4-BrbAla_3Me

>  <PQ_SYMBOL>  (3754) 
aPh4-BrbAla_3Me

>  <FULL_NAME>  (3754) 
3-Amino-3-(4-bromophenyl)butanoic acid

>  <IUPAC_CONDENSED>  (3754) 
aPh(4-Br)bAla(3-Me)

>  <IUPAC>  (3754) 
3-amino-3-(4-bromophenyl)butanoic acid

>  <TYPE>  (3754) 
Backbone

>  <CLASS>  (3754) 
beta

>  <ANALOG>  (3754) 
X

>  <MOL_WT>  (3754) 
258.11499999999995

>  <LOGP>  (3754) 
2.0977

>  <TPSA>  (3754) 
63.32000000000001

>  <POPULARITY>  (3754) 
4.6

>  <PROTECTED>  (3754) 
TRUE

>  <SMILES>  (3754) 
NC(C)(c1(ccc(Br)cc1))CC(=O)O

>  <INCHIKEY>  (3754) 
VKYROEAAZJHOLJ-UHFFFAOYSA-N

$$$$
aPhGaba
     RDKit          2D

 13 13  0  0  0  0  0  0  0  0999 V2000
   -0.1920   -2.3597    0.0000 N   0  0  0  0  0  0  0  0  0  0  0  0
   -0.0074   -0.8711    0.0000 C   0  0  0  0  0  0  0  0  0  0  0  0
    1.3741   -0.2867    0.0000 C   0  0  0  0  0  0  0  0  0  0  0  0
    1.5588    1.2019    0.0000 C   0  0  0  0  0  0  0  0  0  0  0  0
    2.9403    1.7862    0.0000 C   0  0  0  0  0  0  0  0  0  0  0  0
    4.1371    0.8820    0.0000 C   0  0  0  0  0  0  0  0  0  0  0  0
    3.9524   -0.6066    0.0000 C   0  0  0  0  0  0  0  0  0  0  0  0
    2.5709   -1.1910    0.0000 C   0  0  0  0  0  0  0  0  0  0  0  0
   -1.2042    0.0331    0.0000 C   0  0  0  0  0  0  0  0  0  0  0  0
   -2.5857   -0.5512    0.0000 C   0  0  0  0  0  0  0  0  0  0  0  0
   -3.7825    0.3530    0.0000 C   0  0  0  0  0  0  0  0  0  0  0  0
   -3.5978    1.8416    0.0000 O   0  0  0  0  0  0  0  0  0  0  0  0
   -5.1640   -0.2314    0.0000 O   0  0  0  0  0  0  0  0  0  0  0  0
  2  1  1  1
  2  3  1  0
  3  4  2  0
  4  5  1  0
  5  6  2  0
  6  7  1  0
  7  8  2  0
  2  9  1  0
  9 10  1  0
 10 11  1  0
 11 12  2  0
 11 13  1  0
  8  3  1  0
M  END
>  <rName>  (3755) 
aPhGaba

>  <PQ_SYMBOL>  (3755) 
aPhGaba

>  <FULL_NAME>  (3755) 
(S)-4-Amino-4-phenyl-butyric acid

>  <IUPAC_CONDENSED>  (3755) 
aPhGaba

>  <IUPAC>  (3755) 
(4S)-4-amino-4-phenylbutanoic acid

>  <TYPE>  (3755) 
Backbone

>  <CLASS>  (3755) 
gamma

>  <ANALOG>  (3755) 
X

>  <MOL_WT>  (3755) 
179.21899999999997

>  <LOGP>  (3755) 
1.5512000000000001

>  <TPSA>  (3755) 
63.32000000000001

>  <POPULARITY>  (3755) 
2.2

>  <PROTECTED>  (3755) 
TRUE

>  <SMILES>  (3755) 
N[C@H](c1(ccccc1))CCC(=O)O

>  <INCHIKEY>  (3755) 
QCHLDIVWWGHNQB-VIFPVBQESA-N

$$$$
aPhbPro_R_2R
     RDKit          2D

 14 15  0  0  0  0  0  0  0  0999 V2000
   -1.0675   -2.2669    0.0000 N   0  0  0  0  0  0  0  0  0  0  0  0
   -0.5576   -0.8562    0.0000 C   0  0  0  0  0  0  0  0  0  0  0  0
    0.8833   -0.4396    0.0000 C   0  0  0  0  0  0  0  0  0  0  0  0
    1.9647   -1.4792    0.0000 C   0  0  0  0  0  0  0  0  0  0  0  0
    3.4056   -1.0625    0.0000 C   0  0  0  0  0  0  0  0  0  0  0  0
    3.7653    0.3937    0.0000 C   0  0  0  0  0  0  0  0  0  0  0  0
    2.6840    1.4333    0.0000 C   0  0  0  0  0  0  0  0  0  0  0  0
    1.2430    1.0167    0.0000 C   0  0  0  0  0  0  0  0  0  0  0  0
   -1.7417    0.0646    0.0000 C   0  0  0  0  0  0  0  0  0  0  0  0
   -2.9834   -0.7769    0.0000 C   0  0  0  0  0  0  0  0  0  0  0  0
   -2.5667   -2.2179    0.0000 C   0  0  0  0  0  0  0  0  0  0  0  0
   -1.6927    1.5638    0.0000 C   0  0  0  0  0  0  0  0  0  0  0  0
   -0.3698    2.2710    0.0000 O   0  0  0  0  0  0  0  0  0  0  0  0
   -2.9665    2.3559    0.0000 O   0  0  0  0  0  0  0  0  0  0  0  0
  1  2  1  0
  2  3  1  6
  3  4  2  0
  4  5  1  0
  5  6  2  0
  6  7  1  0
  7  8  2  0
  2  9  1  0
  9 10  1  0
 10 11  1  0
  9 12  1  1
 12 13  2  0
 12 14  1  0
 11  1  1  0
  8  3  1  0
M  END
>  <rName>  (3756) 
aPhbPro_R_2R

>  <PQ_SYMBOL>  (3756) 
aPhbPro_R_2R

>  <FULL_NAME>  (3756) 
(2R,3R)-2-Phenylpyrrolidine-3-carboxylic acid

>  <IUPAC_CONDENSED>  (3756) 
aPhbPro(R,2R)

>  <IUPAC>  (3756) 
(2R,3R)-2-phenylpyrrolidine-3-carboxylic acid

>  <TYPE>  (3756) 
Backbone

>  <CLASS>  (3756) 
beta

>  <ANALOG>  (3756) 
X

>  <MOL_WT>  (3756) 
191.22999999999993

>  <LOGP>  (3756) 
1.4218

>  <TPSA>  (3756) 
49.33

>  <POPULARITY>  (3756) 
2.2

>  <PROTECTED>  (3756) 
TRUE

>  <SMILES>  (3756) 
N1[C@@H](c2(ccccc2))[C@@H](CC1)C(=O)O

>  <INCHIKEY>  (3756) 
DQOBFNNHIKEOLB-ZJUUUORDSA-N

$$$$
aPhbPro_R_2S
     RDKit          2D

 14 15  0  0  0  0  0  0  0  0999 V2000
   -1.0675   -2.2669    0.0000 N   0  0  0  0  0  0  0  0  0  0  0  0
   -0.5576   -0.8562    0.0000 C   0  0  0  0  0  0  0  0  0  0  0  0
    0.8833   -0.4396    0.0000 C   0  0  0  0  0  0  0  0  0  0  0  0
    1.9647   -1.4792    0.0000 C   0  0  0  0  0  0  0  0  0  0  0  0
    3.4056   -1.0625    0.0000 C   0  0  0  0  0  0  0  0  0  0  0  0
    3.7653    0.3937    0.0000 C   0  0  0  0  0  0  0  0  0  0  0  0
    2.6840    1.4333    0.0000 C   0  0  0  0  0  0  0  0  0  0  0  0
    1.2430    1.0167    0.0000 C   0  0  0  0  0  0  0  0  0  0  0  0
   -1.7417    0.0646    0.0000 C   0  0  0  0  0  0  0  0  0  0  0  0
   -2.9834   -0.7769    0.0000 C   0  0  0  0  0  0  0  0  0  0  0  0
   -2.5667   -2.2179    0.0000 C   0  0  0  0  0  0  0  0  0  0  0  0
   -1.6927    1.5638    0.0000 C   0  0  0  0  0  0  0  0  0  0  0  0
   -0.3698    2.2710    0.0000 O   0  0  0  0  0  0  0  0  0  0  0  0
   -2.9665    2.3559    0.0000 O   0  0  0  0  0  0  0  0  0  0  0  0
  1  2  1  0
  2  3  1  1
  3  4  2  0
  4  5  1  0
  5  6  2  0
  6  7  1  0
  7  8  2  0
  2  9  1  0
  9 10  1  0
 10 11  1  0
  9 12  1  1
 12 13  2  0
 12 14  1  0
 11  1  1  0
  8  3  1  0
M  END
>  <rName>  (3757) 
aPhbPro_R_2S

>  <PQ_SYMBOL>  (3757) 
aPhbPro_R_2S

>  <FULL_NAME>  (3757) 
(2S,3R)-2-Phenylpyrrolidine-3-carboxylic acid

>  <IUPAC_CONDENSED>  (3757) 
aPhbPro(R,2S)

>  <IUPAC>  (3757) 
(2S,3R)-2-phenylpyrrolidine-3-carboxylic acid

>  <TYPE>  (3757) 
Backbone

>  <CLASS>  (3757) 
beta

>  <ANALOG>  (3757) 
X

>  <MOL_WT>  (3757) 
191.22999999999993

>  <LOGP>  (3757) 
1.4218

>  <TPSA>  (3757) 
49.33

>  <POPULARITY>  (3757) 
2.2

>  <PROTECTED>  (3757) 
TRUE

>  <SMILES>  (3757) 
N1[C@H](c2(ccccc2))[C@@H](CC1)C(=O)O

>  <INCHIKEY>  (3757) 
DQOBFNNHIKEOLB-NXEZZACHSA-N

$$$$
aPhbPro_S_2R
     RDKit          2D

 14 15  0  0  0  0  0  0  0  0999 V2000
   -1.0675   -2.2669    0.0000 N   0  0  0  0  0  0  0  0  0  0  0  0
   -0.5576   -0.8562    0.0000 C   0  0  0  0  0  0  0  0  0  0  0  0
    0.8833   -0.4396    0.0000 C   0  0  0  0  0  0  0  0  0  0  0  0
    1.9647   -1.4792    0.0000 C   0  0  0  0  0  0  0  0  0  0  0  0
    3.4056   -1.0625    0.0000 C   0  0  0  0  0  0  0  0  0  0  0  0
    3.7653    0.3937    0.0000 C   0  0  0  0  0  0  0  0  0  0  0  0
    2.6840    1.4333    0.0000 C   0  0  0  0  0  0  0  0  0  0  0  0
    1.2430    1.0167    0.0000 C   0  0  0  0  0  0  0  0  0  0  0  0
   -1.7417    0.0646    0.0000 C   0  0  0  0  0  0  0  0  0  0  0  0
   -2.9834   -0.7769    0.0000 C   0  0  0  0  0  0  0  0  0  0  0  0
   -2.5667   -2.2179    0.0000 C   0  0  0  0  0  0  0  0  0  0  0  0
   -1.6927    1.5638    0.0000 C   0  0  0  0  0  0  0  0  0  0  0  0
   -0.3698    2.2710    0.0000 O   0  0  0  0  0  0  0  0  0  0  0  0
   -2.9665    2.3559    0.0000 O   0  0  0  0  0  0  0  0  0  0  0  0
  1  2  1  0
  2  3  1  6
  3  4  2  0
  4  5  1  0
  5  6  2  0
  6  7  1  0
  7  8  2  0
  2  9  1  0
  9 10  1  0
 10 11  1  0
  9 12  1  6
 12 13  2  0
 12 14  1  0
 11  1  1  0
  8  3  1  0
M  END
>  <rName>  (3758) 
aPhbPro_S_2R

>  <PQ_SYMBOL>  (3758) 
aPhbPro_S_2R

>  <FULL_NAME>  (3758) 
(2R,3S)-2-Phenylpyrrolidine-3-carboxylic acid

>  <IUPAC_CONDENSED>  (3758) 
aPhbPro(S,2R)

>  <IUPAC>  (3758) 
(2R,3S)-2-phenylpyrrolidine-3-carboxylic acid

>  <TYPE>  (3758) 
Backbone

>  <CLASS>  (3758) 
beta

>  <ANALOG>  (3758) 
X

>  <MOL_WT>  (3758) 
191.22999999999993

>  <LOGP>  (3758) 
1.4218

>  <TPSA>  (3758) 
49.33

>  <POPULARITY>  (3758) 
2.2

>  <PROTECTED>  (3758) 
TRUE

>  <SMILES>  (3758) 
N1[C@@H](c2(ccccc2))[C@H](CC1)C(=O)O

>  <INCHIKEY>  (3758) 
DQOBFNNHIKEOLB-UWVGGRQHSA-N

$$$$
aThr
     RDKit          2D

  8  7  0  0  0  0  0  0  0  0999 V2000
    0.0000   -2.0625    0.0000 N   0  0  0  0  0  0  0  0  0  0  0  0
    0.0000   -0.5625    0.0000 C   0  0  0  0  0  0  0  0  0  0  0  0
   -1.2990    0.1875    0.0000 C   0  0  0  0  0  0  0  0  0  0  0  0
   -1.2990    1.6875    0.0000 O   0  0  0  0  0  0  0  0  0  0  0  0
   -2.5981   -0.5625    0.0000 C   0  0  0  0  0  0  0  0  0  0  0  0
    1.2990    0.1875    0.0000 C   0  0  0  0  0  0  0  0  0  0  0  0
    1.2990    1.6875    0.0000 O   0  0  0  0  0  0  0  0  0  0  0  0
    2.5981   -0.5625    0.0000 O   0  0  0  0  0  0  0  0  0  0  0  0
  2  1  1  1
  2  3  1  0
  3  4  1  0
  3  5  1  6
  2  6  1  0
  6  7  2  0
  6  8  1  0
M  END
>  <rName>  (3759) 
aThr

>  <PQ_SYMBOL>  (3759) 
aThr

>  <FULL_NAME>  (3759) 
Allo-L-Threonine, (2S,3S)-Allothreonine

>  <IUPAC_CONDENSED>  (3759) 
aThr

>  <IUPAC>  (3759) 
(2S,3S)-2-amino-3-hydroxybutanoic acid

>  <TYPE>  (3759) 
Backbone

>  <CLASS>  (3759) 
alpha

>  <ANALOG>  (3759) 
Thr

>  <MOL_WT>  (3759) 
119.11999999999999

>  <LOGP>  (3759) 
-1.2209

>  <TPSA>  (3759) 
83.55

>  <POPULARITY>  (3759) 
42.3

>  <PROTECTED>  (3759) 
TRUE

>  <SMILES>  (3759) 
N[C@@H]([C@@H](O)C)C(=O)O

>  <INCHIKEY>  (3759) 
AYFVYJQAPQTCCC-HRFVKAFMSA-N

$$$$
aThr_Et
     RDKit          2D

 10  9  0  0  0  0  0  0  0  0999 V2000
   -0.1778    1.6944    0.0000 N   0  0  0  0  0  0  0  0  0  0  0  0
    0.5357    0.3749    0.0000 C   0  0  0  0  0  0  0  0  0  0  0  0
   -0.2503   -0.9027    0.0000 C   0  0  0  0  0  0  0  0  0  0  0  0
   -1.7497   -0.8608    0.0000 O   0  0  0  0  0  0  0  0  0  0  0  0
   -2.4632    0.4586    0.0000 C   0  0  0  0  0  0  0  0  0  0  0  0
   -3.9626    0.5005    0.0000 C   0  0  0  0  0  0  0  0  0  0  0  0
    0.4632   -2.2222    0.0000 C   0  0  0  0  0  0  0  0  0  0  0  0
    2.0351    0.3331    0.0000 C   0  0  0  0  0  0  0  0  0  0  0  0
    2.7485   -0.9864    0.0000 O   0  0  0  0  0  0  0  0  0  0  0  0
    2.8210    1.6107    0.0000 O   0  0  0  0  0  0  0  0  0  0  0  0
  2  1  1  6
  2  3  1  0
  3  4  1  0
  4  5  1  0
  5  6  1  0
  3  7  1  6
  2  8  1  0
  8  9  2  0
  8 10  1  0
M  END
>  <rName>  (3760) 
aThr_Et

>  <PQ_SYMBOL>  (3760) 
aThr_Et

>  <FULL_NAME>  (3760) 
O-ethyl-L-allothreonine

>  <IUPAC_CONDENSED>  (3760) 
aThr(Et)

>  <IUPAC>  (3760) 
(2S,3S)-2-amino-3-ethoxybutanoic acid

>  <TYPE>  (3760) 
Backbone

>  <CLASS>  (3760) 
alpha

>  <ANALOG>  (3760) 
Thr

>  <MOL_WT>  (3760) 
147.174

>  <LOGP>  (3760) 
-0.17670000000000036

>  <TPSA>  (3760) 
72.55

>  <POPULARITY>  (3760) 
8.5

>  <PROTECTED>  (3760) 
TRUE

>  <SMILES>  (3760) 
N[C@@H]([C@@H](OCC)C)C(=O)O

>  <INCHIKEY>  (3760) 
LULHTUNPBBMNSJ-WHFBIAKZSA-N

$$$$
aThr_Me
     RDKit          2D

  9  8  0  0  0  0  0  0  0  0999 V2000
    0.3500    1.8226    0.0000 N   0  0  0  0  0  0  0  0  0  0  0  0
   -0.1586    0.4115    0.0000 C   0  0  0  0  0  0  0  0  0  0  0  0
    0.8093   -0.7345    0.0000 C   0  0  0  0  0  0  0  0  0  0  0  0
    2.2856   -0.4694    0.0000 O   0  0  0  0  0  0  0  0  0  0  0  0
    2.7942    0.9418    0.0000 C   0  0  0  0  0  0  0  0  0  0  0  0
    0.3007   -2.1457    0.0000 C   0  0  0  0  0  0  0  0  0  0  0  0
   -1.6349    0.1463    0.0000 C   0  0  0  0  0  0  0  0  0  0  0  0
   -2.1435   -1.2648    0.0000 O   0  0  0  0  0  0  0  0  0  0  0  0
   -2.6028    1.2923    0.0000 O   0  0  0  0  0  0  0  0  0  0  0  0
  2  1  1  1
  2  3  1  0
  3  4  1  0
  4  5  1  0
  3  6  1  1
  2  7  1  0
  7  8  2  0
  7  9  1  0
M  END
>  <rName>  (3761) 
aThr_Me

>  <PQ_SYMBOL>  (3761) 
aThr_Me

>  <FULL_NAME>  (3761) 
Allo-O-Methyl-L-Threonine

>  <IUPAC_CONDENSED>  (3761) 
aThr(Me)

>  <IUPAC>  (3761) 
(2S,3S)-2-amino-3-methoxybutanoic acid

>  <TYPE>  (3761) 
Backbone

>  <CLASS>  (3761) 
alpha

>  <ANALOG>  (3761) 
Thr

>  <MOL_WT>  (3761) 
133.147

>  <LOGP>  (3761) 
-0.5668000000000002

>  <TPSA>  (3761) 
72.55

>  <POPULARITY>  (3761) 
8.3

>  <PROTECTED>  (3761) 
TRUE

>  <SMILES>  (3761) 
N[C@@H]([C@@H](OC)C)C(=O)O

>  <INCHIKEY>  (3761) 
FYCWLJLGIAUCCL-IMJSIDKUSA-N

$$$$
aThr_Pyranose_RSRRR
     RDKit          2D

 19 19  0  0  0  0  0  0  0  0999 V2000
   -1.1225    0.9369    0.0000 N   0  0  0  0  0  0  0  0  0  0  0  0
   -2.2840   -0.0122    0.0000 C   0  0  0  0  0  0  0  0  0  0  0  0
   -2.0427   -1.4927    0.0000 C   0  0  0  0  0  0  0  0  0  0  0  0
   -0.6400   -2.0240    0.0000 O   0  0  0  0  0  0  0  0  0  0  0  0
    0.5215   -1.0749    0.0000 C   0  0  0  0  0  0  0  0  0  0  0  0
    0.2803    0.4056    0.0000 O   0  0  0  0  0  0  0  0  0  0  0  0
    1.4418    1.3548    0.0000 C   0  0  0  0  0  0  0  0  0  0  0  0
    1.2005    2.8353    0.0000 C   0  0  0  0  0  0  0  0  0  0  0  0
   -0.2023    3.3666    0.0000 O   0  0  0  0  0  0  0  0  0  0  0  0
    2.8445    0.8235    0.0000 C   0  0  0  0  0  0  0  0  0  0  0  0
    4.0060    1.7727    0.0000 O   0  0  0  0  0  0  0  0  0  0  0  0
    3.0858   -0.6570    0.0000 C   0  0  0  0  0  0  0  0  0  0  0  0
    4.4885   -1.1883    0.0000 O   0  0  0  0  0  0  0  0  0  0  0  0
    1.9243   -1.6062    0.0000 C   0  0  0  0  0  0  0  0  0  0  0  0
    2.1655   -3.0866    0.0000 O   0  0  0  0  0  0  0  0  0  0  0  0
   -3.2042   -2.4419    0.0000 C   0  0  0  0  0  0  0  0  0  0  0  0
   -3.6867    0.5191    0.0000 C   0  0  0  0  0  0  0  0  0  0  0  0
   -4.8482   -0.4301    0.0000 O   0  0  0  0  0  0  0  0  0  0  0  0
   -3.9280    1.9995    0.0000 O   0  0  0  0  0  0  0  0  0  0  0  0
  2  1  1  1
  2  3  1  0
  3  4  1  0
  5  4  1  6
  5  6  1  0
  6  7  1  0
  7  8  1  6
  8  9  1  0
  7 10  1  0
 10 11  1  6
 10 12  1  0
 12 13  1  6
 12 14  1  0
 14 15  1  1
  3 16  1  1
  2 17  1  0
 17 18  2  0
 17 19  1  0
 14  5  1  0
M  END
>  <rName>  (3762) 
aThr_Pyranose_RSRRR

>  <PQ_SYMBOL>  (3762) 
aThr_Pyranose_RSRRR

>  <FULL_NAME>  (3762) 
O-((2R,3R,4S,5R,6R)-3,4,5-trihydroxy-6-(hydroxymethyl)tetrahydro-2H-pyran-2-yl)-L-allothreonine

>  <IUPAC_CONDENSED>  (3762) 
aThr(Pyranose(RSRRR))

>  <IUPAC>  (3762) 
(2S,3S)-2-amino-3-(((2R,3R,4S,5R,6R)-3,4,5-trihydroxy-6-(hydroxymethyl)-oxan-2-yl)oxy)butanoic acid

>  <TYPE>  (3762) 
Backbone

>  <CLASS>  (3762) 
alpha

>  <ANALOG>  (3762) 
Thr

>  <MOL_WT>  (3762) 
281.261

>  <LOGP>  (3762) 
-3.3966999999999974

>  <TPSA>  (3762) 
162.70000000000002

>  <POPULARITY>  (3762) 
3.3

>  <PROTECTED>  (3762) 
TRUE

>  <SMILES>  (3762) 
N[C@@H]([C@@H](O[C@@H]1(O[C@H](CO)[C@H](O)[C@H](O)[C@H]1O))C)C(=O)O

>  <INCHIKEY>  (3762) 
DHIKRLNYEAMDOC-OBQVHOFBSA-N

$$$$
aallylPro
     RDKit          2D

 11 11  0  0  0  0  0  0  0  0999 V2000
   -1.5393   -0.8874    0.0000 N   0  0  0  0  0  0  0  0  0  0  0  0
   -0.4695    0.1640    0.0000 C   0  0  0  0  0  0  0  0  0  0  0  0
    0.7956    0.9700    0.0000 C   0  0  0  0  0  0  0  0  0  0  0  0
    2.1261    0.2773    0.0000 C   0  0  0  0  0  0  0  0  0  0  0  0
    3.3912    1.0833    0.0000 C   0  0  0  0  0  0  0  0  0  0  0  0
   -1.1388    1.5064    0.0000 C   0  0  0  0  0  0  0  0  0  0  0  0
   -2.6223    1.2847    0.0000 C   0  0  0  0  0  0  0  0  0  0  0  0
   -2.8699   -0.1947    0.0000 C   0  0  0  0  0  0  0  0  0  0  0  0
    0.4643   -1.0099    0.0000 C   0  0  0  0  0  0  0  0  0  0  0  0
    1.9478   -0.7882    0.0000 O   0  0  0  0  0  0  0  0  0  0  0  0
   -0.0854   -2.4055    0.0000 O   0  0  0  0  0  0  0  0  0  0  0  0
  1  2  1  0
  2  3  1  1
  3  4  1  0
  4  5  2  0
  2  6  1  0
  6  7  1  0
  7  8  1  0
  2  9  1  0
  9 10  2  0
  9 11  1  0
  8  1  1  0
M  END
>  <rName>  (3763) 
aallylPro

>  <PQ_SYMBOL>  (3763) 
aallylPro

>  <FULL_NAME>  (3763) 
2-(2-Propenyl)-D-proline

>  <IUPAC_CONDENSED>  (3763) 
aallylPro

>  <IUPAC>  (3763) 
(2S)-2-prop-2-enylpyrrolidine-2-carboxylic acid

>  <TYPE>  (3763) 
Backbone

>  <CLASS>  (3763) 
alpha

>  <ANALOG>  (3763) 
Pro

>  <MOL_WT>  (3763) 
155.197

>  <LOGP>  (3763) 
0.7693000000000001

>  <TPSA>  (3763) 
49.33

>  <POPULARITY>  (3763) 
2.2

>  <PROTECTED>  (3763) 
TRUE

>  <SMILES>  (3763) 
N1[C@](CC=C)(CCC1)C(=O)O

>  <INCHIKEY>  (3763) 
WRBBRKMXTLLAOB-MRVPVSSYSA-N

$$$$
acHexGaba
     RDKit          2D

 14 16  0  0  0  0  0  0  0  0999 V2000
   -2.9231   -0.7978    0.0000 N   0  0  0  0  0  0  0  0  0  0  0  0
   -1.7480    0.1346    0.0000 C   0  0  0  0  0  0  0  0  0  0  0  0
   -0.3531   -0.4169    0.0000 C   0  0  0  0  0  0  0  0  0  0  0  0
    0.8220    0.5154    0.0000 C   0  0  0  0  0  0  0  0  0  0  0  0
    0.6021    1.9992    0.0000 C   0  0  0  0  0  0  0  0  0  0  0  0
   -0.7928    2.5507    0.0000 C   0  0  0  0  0  0  0  0  0  0  0  0
   -1.0655   -0.7256    0.0000 C   0  0  0  0  0  0  0  0  0  0  0  0
   -0.1332   -1.9007    0.0000 C   0  0  0  0  0  0  0  0  0  0  0  0
   -1.5281   -1.3492    0.0000 C   0  0  0  0  0  0  0  0  0  0  0  0
    1.0419   -0.9684    0.0000 C   0  0  0  0  0  0  0  0  0  0  0  0
   -1.9679    1.6184    0.0000 C   0  0  0  0  0  0  0  0  0  0  0  0
    2.2169   -0.0361    0.0000 C   0  0  0  0  0  0  0  0  0  0  0  0
    2.4368   -1.5199    0.0000 O   0  0  0  0  0  0  0  0  0  0  0  0
    3.3920    0.8963    0.0000 O   0  0  0  0  0  0  0  0  0  0  0  0
  1  2  1  0
  2  3  1  0
  3  4  1  0
  4  5  1  0
  5  6  1  0
  6  7  1  0
  7  8  1  0
  8  9  1  0
  8 10  1  0
  6 11  1  0
  4 12  1  0
 12 13  2  0
 12 14  1  0
  9  2  1  0
 10  4  1  0
 11  2  1  0
M  END
>  <rName>  (3764) 
acHexGaba

>  <PQ_SYMBOL>  (3764) 
acHexGaba

>  <FULL_NAME>  (3764) 
3-aminoadamantane-1-carboxylic acid

>  <IUPAC_CONDENSED>  (3764) 
acHexGaba

>  <IUPAC>  (3764) 
3-aminoadamantane-1-carboxylic acid

>  <TYPE>  (3764) 
Backbone

>  <CLASS>  (3764) 
gamma

>  <ANALOG>  (3764) 
X

>  <MOL_WT>  (3764) 
195.26199999999997

>  <LOGP>  (3764) 
1.3687

>  <TPSA>  (3764) 
63.32000000000001

>  <POPULARITY>  (3764) 
9.4

>  <PROTECTED>  (3764) 
TRUE

>  <SMILES>  (3764) 
NC31CC2(CC(CC(C1)C2)C3)C(=O)O

>  <INCHIKEY>  (3764) 
ZBPOKYGSYKBAAW-UHFFFAOYSA-N

$$$$
acPrbPro_R_2S
     RDKit          2D

 11 12  0  0  0  0  0  0  0  0999 V2000
   -0.0035   -2.2411    0.0000 N   0  0  0  0  0  0  0  0  0  0  0  0
    0.3366   -0.7802    0.0000 C   0  0  0  0  0  0  0  0  0  0  0  0
    1.7185   -0.1967    0.0000 C   0  0  0  0  0  0  0  0  0  0  0  0
    2.6235    0.9996    0.0000 C   0  0  0  0  0  0  0  0  0  0  0  0
    3.2070   -0.3823    0.0000 C   0  0  0  0  0  0  0  0  0  0  0  0
   -0.9477   -0.0053    0.0000 C   0  0  0  0  0  0  0  0  0  0  0  0
   -2.0816   -0.9872    0.0000 C   0  0  0  0  0  0  0  0  0  0  0  0
   -1.4981   -2.3691    0.0000 C   0  0  0  0  0  0  0  0  0  0  0  0
   -1.0756    1.4893    0.0000 C   0  0  0  0  0  0  0  0  0  0  0  0
   -2.4339    2.1257    0.0000 O   0  0  0  0  0  0  0  0  0  0  0  0
    0.1547    2.3473    0.0000 O   0  0  0  0  0  0  0  0  0  0  0  0
  1  2  1  0
  2  3  1  6
  3  4  1  0
  4  5  1  0
  2  6  1  0
  6  7  1  0
  7  8  1  0
  6  9  1  1
  9 10  2  0
  9 11  1  0
  8  1  1  0
  5  3  1  0
M  END
>  <rName>  (3765) 
acPrbPro_R_2S

>  <PQ_SYMBOL>  (3765) 
acPrbPro_R_2S

>  <FULL_NAME>  (3765) 
rac-(2R,3S)-2-cyclopropylpyrrolidine-3-carboxylic acid

>  <IUPAC_CONDENSED>  (3765) 
acPrbPro(R,2S)

>  <IUPAC>  (3765) 
(2S,3R)-2-cyclopropylpyrrolidine-3-carboxylic acid

>  <TYPE>  (3765) 
Backbone

>  <CLASS>  (3765) 
beta

>  <ANALOG>  (3765) 
X

>  <MOL_WT>  (3765) 
155.197

>  <LOGP>  (3765) 
0.4591

>  <TPSA>  (3765) 
49.33

>  <POPULARITY>  (3765) 
2.9

>  <PROTECTED>  (3765) 
TRUE

>  <SMILES>  (3765) 
N1[C@@H](C2(CC2))[C@@H](CC1)C(=O)O

>  <INCHIKEY>  (3765) 
RAWMWGSXINGQNJ-RQJHMYQMSA-N

$$$$
aiPrGaba_3ROH
     RDKit          2D

 11 10  0  0  0  0  0  0  0  0999 V2000
   -1.3064    2.1091    0.0000 N   0  0  0  0  0  0  0  0  0  0  0  0
   -1.2188    0.6117    0.0000 C   0  0  0  0  0  0  0  0  0  0  0  0
   -2.4718   -0.2129    0.0000 C   0  0  0  0  0  0  0  0  0  0  0  0
   -3.8124    0.4599    0.0000 C   0  0  0  0  0  0  0  0  0  0  0  0
   -2.3841   -1.7104    0.0000 C   0  0  0  0  0  0  0  0  0  0  0  0
    0.1219   -0.0612    0.0000 C   0  0  0  0  0  0  0  0  0  0  0  0
    0.2095   -1.5586    0.0000 O   0  0  0  0  0  0  0  0  0  0  0  0
    1.3749    0.7634    0.0000 C   0  0  0  0  0  0  0  0  0  0  0  0
    2.7155    0.0906    0.0000 C   0  0  0  0  0  0  0  0  0  0  0  0
    2.8031   -1.4068    0.0000 O   0  0  0  0  0  0  0  0  0  0  0  0
    3.9685    0.9152    0.0000 O   0  0  0  0  0  0  0  0  0  0  0  0
  2  1  1  6
  2  3  1  0
  3  4  1  0
  3  5  1  0
  2  6  1  0
  6  7  1  1
  6  8  1  0
  8  9  1  0
  9 10  2  0
  9 11  1  0
M  END
>  <rName>  (3766) 
aiPrGaba_3ROH

>  <PQ_SYMBOL>  (3766) 
aiPrGaba_3ROH

>  <FULL_NAME>  (3766) 
(3R,4S)-4-amino-3-hydroxy-5-methylhexanoic acid

>  <IUPAC_CONDENSED>  (3766) 
aiPrGaba(3R-OH)

>  <IUPAC>  (3766) 
(3R,4S)-4-amino-3-hydroxy-5-methylhexanoic acid

>  <TYPE>  (3766) 
Backbone

>  <CLASS>  (3766) 
gamma

>  <ANALOG>  (3766) 
Val

>  <MOL_WT>  (3766) 
161.201

>  <LOGP>  (3766) 
-0.19470000000000037

>  <TPSA>  (3766) 
83.55

>  <POPULARITY>  (3766) 
9.5

>  <PROTECTED>  (3766) 
TRUE

>  <SMILES>  (3766) 
N[C@@H](C(C)C)[C@H](O)CC(=O)O

>  <INCHIKEY>  (3766) 
RCCKTSYFWDUPRI-VDTYLAMSSA-N

$$$$
aiPrGaba_3SOH
     RDKit          2D

 11 10  0  0  0  0  0  0  0  0999 V2000
   -1.3064    2.1091    0.0000 N   0  0  0  0  0  0  0  0  0  0  0  0
   -1.2188    0.6117    0.0000 C   0  0  0  0  0  0  0  0  0  0  0  0
   -2.4718   -0.2129    0.0000 C   0  0  0  0  0  0  0  0  0  0  0  0
   -3.8124    0.4599    0.0000 C   0  0  0  0  0  0  0  0  0  0  0  0
   -2.3841   -1.7104    0.0000 C   0  0  0  0  0  0  0  0  0  0  0  0
    0.1219   -0.0612    0.0000 C   0  0  0  0  0  0  0  0  0  0  0  0
    0.2095   -1.5586    0.0000 O   0  0  0  0  0  0  0  0  0  0  0  0
    1.3749    0.7634    0.0000 C   0  0  0  0  0  0  0  0  0  0  0  0
    2.7155    0.0906    0.0000 C   0  0  0  0  0  0  0  0  0  0  0  0
    2.8031   -1.4068    0.0000 O   0  0  0  0  0  0  0  0  0  0  0  0
    3.9685    0.9152    0.0000 O   0  0  0  0  0  0  0  0  0  0  0  0
  2  1  1  6
  2  3  1  0
  3  4  1  0
  3  5  1  0
  2  6  1  0
  6  7  1  6
  6  8  1  0
  8  9  1  0
  9 10  2  0
  9 11  1  0
M  END
>  <rName>  (3767) 
aiPrGaba_3SOH

>  <PQ_SYMBOL>  (3767) 
aiPrGaba_3SOH

>  <FULL_NAME>  (3767) 
(3S,4S)-4-amino-3-hydroxy-5-methylhexanoic acid

>  <IUPAC_CONDENSED>  (3767) 
aiPrGaba(3S-OH)

>  <IUPAC>  (3767) 
(3S,4S)-4-amino-3-hydroxy-5-methylhexanoic acid

>  <TYPE>  (3767) 
Backbone

>  <CLASS>  (3767) 
gamma

>  <ANALOG>  (3767) 
Val

>  <MOL_WT>  (3767) 
161.201

>  <LOGP>  (3767) 
-0.19470000000000037

>  <TPSA>  (3767) 
83.55

>  <POPULARITY>  (3767) 
7.3

>  <PROTECTED>  (3767) 
TRUE

>  <SMILES>  (3767) 
N[C@@H](C(C)C)[C@@H](O)CC(=O)O

>  <INCHIKEY>  (3767) 
RCCKTSYFWDUPRI-FSPLSTOPSA-N

$$$$
amidino-D-Pro
     RDKit          2D

 11 11  0  0  0  0  0  0  0  0999 V2000
   -3.1235   -0.6434    0.0000 N   0  0  0  0  0  0  0  0  0  0  0  0
   -1.6317   -0.8002    0.0000 C   0  0  0  0  0  0  0  0  0  0  0  0
   -1.0216   -2.1705    0.0000 N   0  0  0  0  0  0  0  0  0  0  0  0
   -0.7500    0.4133    0.0000 N   0  0  0  0  0  0  0  0  0  0  0  0
    0.7500    0.4133    0.0000 C   0  0  0  0  0  0  0  0  0  0  0  0
    1.2135    1.8399    0.0000 C   0  0  0  0  0  0  0  0  0  0  0  0
   -0.0000    2.7216    0.0000 C   0  0  0  0  0  0  0  0  0  0  0  0
   -1.2135    1.8399    0.0000 C   0  0  0  0  0  0  0  0  0  0  0  0
    1.6317   -0.8002    0.0000 C   0  0  0  0  0  0  0  0  0  0  0  0
    3.1235   -0.6434    0.0000 O   0  0  0  0  0  0  0  0  0  0  0  0
    1.0216   -2.1705    0.0000 O   0  0  0  0  0  0  0  0  0  0  0  0
  1  2  1  0
  2  3  2  0
  2  4  1  0
  4  5  1  0
  5  6  1  0
  6  7  1  0
  7  8  1  0
  5  9  1  6
  9 10  2  0
  9 11  1  0
  8  4  1  0
M  END
>  <rName>  (3768) 
amidino-D-Pro

>  <PQ_SYMBOL>  (3768) 
amidino-D-Pro

>  <FULL_NAME>  (3768) 
(2R)-1-carbamimidoylpyrrolidine-2-carboxylic acid

>  <IUPAC_CONDENSED>  (3768) 
amidino-D-Pro

>  <IUPAC>  (3768) 
(2R)-1-((amino)(imino)methyl)pyrrolidine-2-carboxylic acid

>  <TYPE>  (3768) 
N-term cap

>  <CLASS>  (3768) 
n_cap

>  <ANALOG>  (3768) 
X

>  <MOL_WT>  (3768) 
157.173

>  <LOGP>  (3768) 
-0.5711299999999999

>  <TPSA>  (3768) 
90.41000000000001

>  <POPULARITY>  (3768) 
7.9

>  <PROTECTED>  (3768) 
TRUE

>  <SMILES>  (3768) 
NC(=N)N1[C@H](CCC1)C(=O)O

>  <INCHIKEY>  (3768) 
ZXPRYJHVDMWTMA-SCSAIBSYSA-N

$$$$
amidino-Pro
     RDKit          2D

 11 11  0  0  0  0  0  0  0  0999 V2000
   -3.1235   -0.6434    0.0000 N   0  0  0  0  0  0  0  0  0  0  0  0
   -1.6317   -0.8002    0.0000 C   0  0  0  0  0  0  0  0  0  0  0  0
   -1.0216   -2.1705    0.0000 N   0  0  0  0  0  0  0  0  0  0  0  0
   -0.7500    0.4133    0.0000 N   0  0  0  0  0  0  0  0  0  0  0  0
    0.7500    0.4133    0.0000 C   0  0  0  0  0  0  0  0  0  0  0  0
    1.2135    1.8399    0.0000 C   0  0  0  0  0  0  0  0  0  0  0  0
   -0.0000    2.7216    0.0000 C   0  0  0  0  0  0  0  0  0  0  0  0
   -1.2135    1.8399    0.0000 C   0  0  0  0  0  0  0  0  0  0  0  0
    1.6317   -0.8002    0.0000 C   0  0  0  0  0  0  0  0  0  0  0  0
    3.1235   -0.6434    0.0000 O   0  0  0  0  0  0  0  0  0  0  0  0
    1.0216   -2.1705    0.0000 O   0  0  0  0  0  0  0  0  0  0  0  0
  1  2  1  0
  2  3  2  0
  2  4  1  0
  4  5  1  0
  5  6  1  0
  6  7  1  0
  7  8  1  0
  5  9  1  1
  9 10  2  0
  9 11  1  0
  8  4  1  0
M  END
>  <rName>  (3769) 
amidino-Pro

>  <PQ_SYMBOL>  (3769) 
amidino-Pro

>  <FULL_NAME>  (3769) 
(2S)-1-carbamimidoylpyrrolidine-2-carboxylic acid

>  <IUPAC_CONDENSED>  (3769) 
amidino-Pro

>  <IUPAC>  (3769) 
(2S)-1-((amino)(imino)methyl)pyrrolidine-2-carboxylic acid

>  <TYPE>  (3769) 
N-term cap

>  <CLASS>  (3769) 
n_cap

>  <ANALOG>  (3769) 
X

>  <MOL_WT>  (3769) 
157.173

>  <LOGP>  (3769) 
-0.5711299999999999

>  <TPSA>  (3769) 
90.41000000000001

>  <POPULARITY>  (3769) 
7.6

>  <PROTECTED>  (3769) 
TRUE

>  <SMILES>  (3769) 
NC(=N)N1[C@@H](CCC1)C(=O)O

>  <INCHIKEY>  (3769) 
ZXPRYJHVDMWTMA-BYPYZUCNSA-N

$$$$
amidino-Sar
     RDKit          2D

  9  8  0  0  0  0  0  0  0  0999 V2000
    0.2064   -1.6788    0.0000 N   0  0  0  0  0  0  0  0  0  0  0  0
    1.2325   -0.5848    0.0000 C   0  0  0  0  0  0  0  0  0  0  0  0
    2.6931   -0.9264    0.0000 N   0  0  0  0  0  0  0  0  0  0  0  0
    0.7981    0.8510    0.0000 N   0  0  0  0  0  0  0  0  0  0  0  0
    1.8243    1.9450    0.0000 C   0  0  0  0  0  0  0  0  0  0  0  0
   -0.6625    1.1926    0.0000 C   0  0  0  0  0  0  0  0  0  0  0  0
   -1.6886    0.0985    0.0000 C   0  0  0  0  0  0  0  0  0  0  0  0
   -1.2542   -1.3372    0.0000 O   0  0  0  0  0  0  0  0  0  0  0  0
   -3.1492    0.4401    0.0000 O   0  0  0  0  0  0  0  0  0  0  0  0
  1  2  1  0
  2  3  2  0
  2  4  1  0
  4  5  1  0
  4  6  1  0
  6  7  1  0
  7  8  2  0
  7  9  1  0
M  END
>  <rName>  (3770) 
amidino-Sar

>  <PQ_SYMBOL>  (3770) 
amidino-Sar

>  <FULL_NAME>  (3770) 
2-[carbamimidoyl(methyl)amino]acetic acid

>  <IUPAC_CONDENSED>  (3770) 
amidino-Sar

>  <IUPAC>  (3770) 
2-(((amino)(imino)methyl)(methyl)amino)acetic acid

>  <TYPE>  (3770) 
N-term cap

>  <CLASS>  (3770) 
n_cap

>  <ANALOG>  (3770) 
X

>  <MOL_WT>  (3770) 
131.135

>  <LOGP>  (3770) 
-1.1037299999999999

>  <TPSA>  (3770) 
90.41000000000001

>  <POPULARITY>  (3770) 
13.0

>  <PROTECTED>  (3770) 
TRUE

>  <SMILES>  (3770) 
NC(=N)N(C)CC(=O)O

>  <INCHIKEY>  (3770) 
CVSVTCORWBXHQV-UHFFFAOYSA-N

$$$$
amino-sulfooxypropyl-oxazolethioate
     RDKit          2D

 18 18  0  0  0  0  0  0  0  0999 V2000
   -0.5001   -3.1508    0.0000 N   0  0  0  0  0  0  0  0  0  0  0  0
   -0.6777   -1.6614    0.0000 C   0  0  0  0  0  0  0  0  0  0  0  0
   -2.0564   -1.0704    0.0000 C   0  0  0  0  0  0  0  0  0  0  0  0
   -2.2339    0.4191    0.0000 O   0  0  0  0  0  0  0  0  0  0  0  0
   -3.6126    1.0100    0.0000 S   0  0  0  0  0  0  0  0  0  0  0  0
   -4.2036   -0.3687    0.0000 O   0  0  0  0  0  0  0  0  0  0  0  0
   -3.0216    2.3887    0.0000 O   0  0  0  0  0  0  0  0  0  0  0  0
   -4.9913    1.6010    0.0000 O   0  0  0  0  0  0  0  0  0  0  0  0
   -3.2575   -1.9689    0.0000 C   0  0  0  0  0  0  0  0  0  0  0  0
    0.5234   -0.7629    0.0000 C   0  0  0  0  0  0  0  0  0  0  0  0
    1.9563   -1.2065    0.0000 N   0  0  0  0  0  0  0  0  0  0  0  0
    2.8210    0.0192    0.0000 C   0  0  0  0  0  0  0  0  0  0  0  0
    1.9226    1.2203    0.0000 C   0  0  0  0  0  0  0  0  0  0  0  0
    2.3662    2.6532    0.0000 O   0  0  0  0  0  0  0  0  0  0  0  0
    0.5026    0.7370    0.0000 O   0  0  0  0  0  0  0  0  0  0  0  0
    4.3209    0.0401    0.0000 C   0  0  0  0  0  0  0  0  0  0  0  0
    5.0889   -1.2484    0.0000 O   0  0  0  0  0  0  0  0  0  0  0  0
    5.0527    1.3494    0.0000 S   0  0  0  0  0  0  0  0  0  0  0  0
  2  1  1  1
  2  3  1  0
  3  4  1  0
  4  5  1  0
  5  6  2  0
  5  7  2  0
  5  8  1  0
  3  9  1  1
  2 10  1  0
 10 11  2  0
 11 12  1  0
 12 13  2  0
 13 14  1  0
 13 15  1  0
 12 16  1  0
 16 17  1  0
 16 18  2  0
 15 10  1  0
M  END
>  <rName>  (3771) 
amino-sulfooxypropyl-oxazolethioate

>  <PQ_SYMBOL>  (3771) 
amino-sulfooxypropyl-oxazolethioate

>  <FULL_NAME>  (3771) 
2-[(1S,2R)-1-amino-2-(sulfooxy)propyl]-5-hydroxy-1,3-oxazole-4-carbothioic O-acid

>  <IUPAC_CONDENSED>  (3771) 
amino-sulfooxypropyl-oxazolethioate

>  <IUPAC>  (3771) 
(1S,2R)-1-amino-1-(5-hydroxy-4-((hydroxy)(thioxo)methyl)oxazol-2-yl)propan-2-yl hydrogen sulfate

>  <TYPE>  (3771) 
C-term cap

>  <CLASS>  (3771) 
c_cap

>  <ANALOG>  (3771) 
X

>  <MOL_WT>  (3771) 
298.298

>  <LOGP>  (3771) 
-0.17859999999999965

>  <TPSA>  (3771) 
156.10999999999999

>  <POPULARITY>  (3771) 
4.9

>  <PROTECTED>  (3771) 
FALSE

>  <SMILES>  (3771) 
N[C@@H]([C@H](OS(=O)(=O)O)C)c1nc(c(O)o1)C(O)=S

>  <INCHIKEY>  (3771) 
ARRKNNQNBGDPEN-GBXIJSLDSA-N

$$$$
aminohydroxyhexyl-iminohexanetriol
     RDKit          2D

 19 18  0  0  0  0  0  0  0  0999 V2000
   -5.7983   -1.8051    0.0000 N   0  0  0  0  0  0  0  0  0  0  0  0
   -5.7545   -0.3058    0.0000 C   0  0  0  0  0  0  0  0  0  0  0  0
   -7.0311    0.4818    0.0000 C   0  0  0  0  0  0  0  0  0  0  0  0
   -8.3515   -0.2299    0.0000 O   0  0  0  0  0  0  0  0  0  0  0  0
   -6.9873    1.9812    0.0000 O   0  0  0  0  0  0  0  0  0  0  0  0
   -4.4341    0.4060    0.0000 C   0  0  0  0  0  0  0  0  0  0  0  0
   -3.1575   -0.3816    0.0000 C   0  0  0  0  0  0  0  0  0  0  0  0
   -1.8371    0.3301    0.0000 C   0  0  0  0  0  0  0  0  0  0  0  0
   -0.5606   -0.4575    0.0000 C   0  0  0  0  0  0  0  0  0  0  0  0
    0.7598    0.2542    0.0000 N   0  0  0  0  0  0  0  0  0  0  0  0
    2.0364   -0.5334    0.0000 C   0  0  0  0  0  0  0  0  0  0  0  0
    1.9926   -2.0327    0.0000 C   0  0  0  0  0  0  0  0  0  0  0  0
    3.3568    0.1784    0.0000 C   0  0  0  0  0  0  0  0  0  0  0  0
    3.4006    1.6777    0.0000 O   0  0  0  0  0  0  0  0  0  0  0  0
    4.6334   -0.6092    0.0000 C   0  0  0  0  0  0  0  0  0  0  0  0
    5.9538    0.1025    0.0000 C   0  0  0  0  0  0  0  0  0  0  0  0
    5.9976    1.6019    0.0000 O   0  0  0  0  0  0  0  0  0  0  0  0
    7.2303   -0.6851    0.0000 C   0  0  0  0  0  0  0  0  0  0  0  0
    8.5507    0.0266    0.0000 O   0  0  0  0  0  0  0  0  0  0  0  0
  2  1  1  6
  2  3  1  0
  3  4  1  0
  3  5  1  0
  2  6  1  0
  6  7  1  0
  7  8  1  0
  8  9  1  0
  9 10  1  0
 10 11  2  0
 11 12  1  0
 11 13  1  0
 13 14  1  6
 13 15  1  0
 15 16  1  0
 16 17  1  6
 16 18  1  0
 18 19  1  0
M  END
>  <rName>  (3772) 
aminohydroxyhexyl-iminohexanetriol

>  <PQ_SYMBOL>  (3772) 
aminohydroxyhexyl-iminohexanetriol

>  <FULL_NAME>  (3772) 
(2~{S},4~{R},5~{E})-5-[(5~{S})-5-azanyl-6-oxidanyl-hexyl]iminohexane-1,2,4-triol

>  <IUPAC_CONDENSED>  (3772) 
aminohydroxyhexyl-iminohexanetriol

>  <IUPAC>  (3772) 
(2S,4R,5E)-5-(((5S)-5-amino-6,6-dihydroxyhexyl)imino)hexane-1,2,4-triol

>  <TYPE>  (3772) 
C-term cap

>  <CLASS>  (3772) 
c_cap

>  <ANALOG>  (3772) 
X

>  <MOL_WT>  (3772) 
278.34900000000005

>  <LOGP>  (3772) 
-1.6401999999999992

>  <TPSA>  (3772) 
139.53

>  <POPULARITY>  (3772) 
3.2

>  <PROTECTED>  (3772) 
FALSE

>  <SMILES>  (3772) 
N[C@H](C(O)O)CCCC/N=C(\C)[C@H](O)C[C@H](O)CO

>  <INCHIKEY>  (3772) 
NOGRJEXZOQDSRE-WDLDIGNLSA-N

$$$$
azepan-2-ylAc
     RDKit          2D

 11 11  0  0  0  0  0  0  0  0999 V2000
   -0.0779   -0.9502    0.0000 N   0  0  0  0  0  0  0  0  0  0  0  0
    0.1213    0.5365    0.0000 C   0  0  0  0  0  0  0  0  0  0  0  0
   -0.9169    1.6192    0.0000 C   0  0  0  0  0  0  0  0  0  0  0  0
   -2.4106    1.4826    0.0000 C   0  0  0  0  0  0  0  0  0  0  0  0
   -3.2352    0.2296    0.0000 C   0  0  0  0  0  0  0  0  0  0  0  0
   -2.7696   -1.1963    0.0000 C   0  0  0  0  0  0  0  0  0  0  0  0
   -1.3645   -1.7214    0.0000 C   0  0  0  0  0  0  0  0  0  0  0  0
    1.5472    1.0021    0.0000 C   0  0  0  0  0  0  0  0  0  0  0  0
    2.6634    0.0000    0.0000 C   0  0  0  0  0  0  0  0  0  0  0  0
    2.3536   -1.4677    0.0000 O   0  0  0  0  0  0  0  0  0  0  0  0
    4.0893    0.4656    0.0000 O   0  0  0  0  0  0  0  0  0  0  0  0
  1  2  1  0
  2  3  1  0
  3  4  1  0
  4  5  1  0
  5  6  1  0
  6  7  1  0
  2  8  1  0
  8  9  1  0
  9 10  2  0
  9 11  1  0
  7  1  1  0
M  END
>  <rName>  (3773) 
azepan-2-ylAc

>  <PQ_SYMBOL>  (3773) 
azepan-2-ylAc

>  <FULL_NAME>  (3773) 
2-(Azepan-2-yl)acetic acid

>  <IUPAC_CONDENSED>  (3773) 
azepan-2-ylAc

>  <IUPAC>  (3773) 
2-(1-azacycloheptan-2-yl)acetic acid

>  <TYPE>  (3773) 
Backbone

>  <CLASS>  (3773) 
beta

>  <ANALOG>  (3773) 
Pro

>  <MOL_WT>  (3773) 
157.21300000000002

>  <LOGP>  (3773) 
0.9932999999999998

>  <TPSA>  (3773) 
49.33

>  <POPULARITY>  (3773) 
5.7

>  <PROTECTED>  (3773) 
TRUE

>  <SMILES>  (3773) 
N1C(CCCCC1)CC(=O)O

>  <INCHIKEY>  (3773) 
QZEBYGMFUIXUEF-UHFFFAOYSA-N

$$$$
azepan-3-ylPr
     RDKit          2D

 12 12  0  0  0  0  0  0  0  0999 V2000
   -2.1404   -1.7710    0.0000 N   0  0  0  0  0  0  0  0  0  0  0  0
   -0.7885   -1.1212    0.0000 C   0  0  0  0  0  0  0  0  0  0  0  0
   -0.4536    0.3409    0.0000 C   0  0  0  0  0  0  0  0  0  0  0  0
   -1.3879    1.5144    0.0000 C   0  0  0  0  0  0  0  0  0  0  0  0
   -2.8879    1.5156    0.0000 C   0  0  0  0  0  0  0  0  0  0  0  0
   -3.8240    0.3435    0.0000 C   0  0  0  0  0  0  0  0  0  0  0  0
   -3.4914   -1.1191    0.0000 C   0  0  0  0  0  0  0  0  0  0  0  0
    1.0091    0.6736    0.0000 C   0  0  0  0  0  0  0  0  0  0  0  0
    2.0285   -0.4268    0.0000 C   0  0  0  0  0  0  0  0  0  0  0  0
    3.4911   -0.0942    0.0000 C   0  0  0  0  0  0  0  0  0  0  0  0
    3.9344    1.3389    0.0000 O   0  0  0  0  0  0  0  0  0  0  0  0
    4.5106   -1.1945    0.0000 O   0  0  0  0  0  0  0  0  0  0  0  0
  1  2  1  0
  2  3  1  0
  3  4  1  0
  4  5  1  0
  5  6  1  0
  6  7  1  0
  3  8  1  0
  8  9  1  0
  9 10  1  0
 10 11  2  0
 10 12  1  0
  7  1  1  0
M  END
>  <rName>  (3774) 
azepan-3-ylPr

>  <PQ_SYMBOL>  (3774) 
azepan-3-ylPr

>  <FULL_NAME>  (3774) 
3-(Azepan-3-yl)propanoic acid

>  <IUPAC_CONDENSED>  (3774) 
azepan-3-ylPr

>  <IUPAC>  (3774) 
3-(1-azacycloheptan-3-yl)propanoic acid

>  <TYPE>  (3774) 
Backbone

>  <CLASS>  (3774) 
delta

>  <ANALOG>  (3774) 
Pro

>  <MOL_WT>  (3774) 
171.24

>  <LOGP>  (3774) 
1.2409000000000001

>  <TPSA>  (3774) 
49.33

>  <POPULARITY>  (3774) 
5.6

>  <PROTECTED>  (3774) 
TRUE

>  <SMILES>  (3774) 
N1CC(CCCC1)CCC(=O)O

>  <INCHIKEY>  (3774) 
BQPMVADLPWDNLY-UHFFFAOYSA-N

$$$$
azepan-4-ylAc
     RDKit          2D

 11 11  0  0  0  0  0  0  0  0999 V2000
   -2.7696   -1.1963    0.0000 N   0  0  0  0  0  0  0  0  0  0  0  0
   -1.3645   -1.7214    0.0000 C   0  0  0  0  0  0  0  0  0  0  0  0
   -0.0779   -0.9502    0.0000 C   0  0  0  0  0  0  0  0  0  0  0  0
    0.1213    0.5365    0.0000 C   0  0  0  0  0  0  0  0  0  0  0  0
   -0.9169    1.6192    0.0000 C   0  0  0  0  0  0  0  0  0  0  0  0
   -2.4106    1.4826    0.0000 C   0  0  0  0  0  0  0  0  0  0  0  0
   -3.2352    0.2296    0.0000 C   0  0  0  0  0  0  0  0  0  0  0  0
    1.5472    1.0021    0.0000 C   0  0  0  0  0  0  0  0  0  0  0  0
    2.6634   -0.0000    0.0000 C   0  0  0  0  0  0  0  0  0  0  0  0
    2.3536   -1.4677    0.0000 O   0  0  0  0  0  0  0  0  0  0  0  0
    4.0893    0.4656    0.0000 O   0  0  0  0  0  0  0  0  0  0  0  0
  1  2  1  0
  2  3  1  0
  3  4  1  0
  4  5  1  0
  5  6  1  0
  6  7  1  0
  4  8  1  0
  8  9  1  0
  9 10  2  0
  9 11  1  0
  7  1  1  0
M  END
>  <rName>  (3775) 
azepan-4-ylAc

>  <PQ_SYMBOL>  (3775) 
azepan-4-ylAc

>  <FULL_NAME>  (3775) 
2-(Azepan-4-yl)acetic acid

>  <IUPAC_CONDENSED>  (3775) 
azepan-4-ylAc

>  <IUPAC>  (3775) 
2-(1-azacycloheptan-4-yl)acetic acid

>  <TYPE>  (3775) 
Backbone

>  <CLASS>  (3775) 
delta

>  <ANALOG>  (3775) 
Pro

>  <MOL_WT>  (3775) 
157.21300000000002

>  <LOGP>  (3775) 
0.8507999999999998

>  <TPSA>  (3775) 
49.33

>  <POPULARITY>  (3775) 
5.9

>  <PROTECTED>  (3775) 
TRUE

>  <SMILES>  (3775) 
N1CCC(CCC1)CC(=O)O

>  <INCHIKEY>  (3775) 
MGZFMPKGTJRPAQ-UHFFFAOYSA-N

$$$$
azepan-4-ylAc_22diF
     RDKit          2D

 13 13  0  0  0  0  0  0  0  0999 V2000
   -3.5090   -0.7500    0.0000 N   0  0  0  0  0  0  0  0  0  0  0  0
   -2.3363   -1.6852    0.0000 C   0  0  0  0  0  0  0  0  0  0  0  0
   -0.8739   -1.3515    0.0000 C   0  0  0  0  0  0  0  0  0  0  0  0
   -0.2231   -0.0000    0.0000 C   0  0  0  0  0  0  0  0  0  0  0  0
   -0.8739    1.3515    0.0000 C   0  0  0  0  0  0  0  0  0  0  0  0
   -2.3363    1.6852    0.0000 C   0  0  0  0  0  0  0  0  0  0  0  0
   -3.5090    0.7500    0.0000 C   0  0  0  0  0  0  0  0  0  0  0  0
    1.2769   -0.0000    0.0000 C   0  0  0  0  0  0  0  0  0  0  0  0
    1.2769   -1.5000    0.0000 F   0  0  0  0  0  0  0  0  0  0  0  0
    1.2769    1.5000    0.0000 F   0  0  0  0  0  0  0  0  0  0  0  0
    2.7769   -0.0000    0.0000 C   0  0  0  0  0  0  0  0  0  0  0  0
    3.5269   -1.2990    0.0000 O   0  0  0  0  0  0  0  0  0  0  0  0
    3.5269    1.2990    0.0000 O   0  0  0  0  0  0  0  0  0  0  0  0
  1  2  1  0
  2  3  1  0
  3  4  1  0
  4  5  1  0
  5  6  1  0
  6  7  1  0
  4  8  1  0
  8  9  1  0
  8 10  1  0
  8 11  1  0
 11 12  2  0
 11 13  1  0
  7  1  1  0
M  END
>  <rName>  (3776) 
azepan-4-ylAc_22diF

>  <PQ_SYMBOL>  (3776) 
azepan-4-ylAc_22diF

>  <FULL_NAME>  (3776) 
O=C(O)C(F)(F)C1CCCNCC1

>  <IUPAC_CONDENSED>  (3776) 
azepan-4-ylAc(2,2-diF)

>  <IUPAC>  (3776) 
2-(1-azacycloheptan-4-yl)-2,2-difluoroacetic acid

>  <TYPE>  (3776) 
Backbone

>  <CLASS>  (3776) 
delta

>  <ANALOG>  (3776) 
Pro

>  <MOL_WT>  (3776) 
193.19299999999998

>  <LOGP>  (3776) 
1.096

>  <TPSA>  (3776) 
49.33

>  <POPULARITY>  (3776) 
2.8

>  <PROTECTED>  (3776) 
TRUE

>  <SMILES>  (3776) 
N1CCC(CCC1)C(F)(F)C(=O)O

>  <INCHIKEY>  (3776) 
ARKVHXWVKRJYQT-UHFFFAOYSA-N

$$$$
azepan-4-yl_55diF_Ac
     RDKit          2D

 13 13  0  0  0  0  0  0  0  0999 V2000
   -2.5450   -1.8370    0.0000 N   0  0  0  0  0  0  0  0  0  0  0  0
   -1.1004   -2.2409    0.0000 C   0  0  0  0  0  0  0  0  0  0  0  0
    0.1161   -1.3634    0.0000 C   0  0  0  0  0  0  0  0  0  0  0  0
    0.1884    0.1349    0.0000 C   0  0  0  0  0  0  0  0  0  0  0  0
   -0.9378    1.1256    0.0000 C   0  0  0  0  0  0  0  0  0  0  0  0
   -1.5227    2.5069    0.0000 F   0  0  0  0  0  0  0  0  0  0  0  0
    0.2787    2.0032    0.0000 F   0  0  0  0  0  0  0  0  0  0  0  0
   -2.4146    0.8628    0.0000 C   0  0  0  0  0  0  0  0  0  0  0  0
   -3.1299   -0.4557    0.0000 C   0  0  0  0  0  0  0  0  0  0  0  0
    1.5697    0.7197    0.0000 C   0  0  0  0  0  0  0  0  0  0  0  0
    2.7669   -0.1840    0.0000 C   0  0  0  0  0  0  0  0  0  0  0  0
    2.5827   -1.6727    0.0000 O   0  0  0  0  0  0  0  0  0  0  0  0
    4.1481    0.4008    0.0000 O   0  0  0  0  0  0  0  0  0  0  0  0
  1  2  1  0
  2  3  1  0
  3  4  1  0
  4  5  1  0
  5  6  1  0
  5  7  1  0
  5  8  1  0
  8  9  1  0
  4 10  1  0
 10 11  1  0
 11 12  2  0
 11 13  1  0
  9  1  1  0
M  END
>  <rName>  (3777) 
azepan-4-yl_55diF_Ac

>  <PQ_SYMBOL>  (3777) 
azepan-4-yl_55diF_Ac

>  <FULL_NAME>  (3777) 
2-(5,5-Difluoroazepan-4-yl)acetic acid

>  <IUPAC_CONDENSED>  (3777) 
azepan-4-yl(5,5-diF)Ac

>  <IUPAC>  (3777) 
2-(5,5-difluoro-1-azacycloheptan-4-yl)acetic acid

>  <TYPE>  (3777) 
Backbone

>  <CLASS>  (3777) 
delta

>  <ANALOG>  (3777) 
Pro

>  <MOL_WT>  (3777) 
193.19299999999998

>  <LOGP>  (3777) 
1.096

>  <TPSA>  (3777) 
49.33

>  <POPULARITY>  (3777) 
2.9

>  <PROTECTED>  (3777) 
TRUE

>  <SMILES>  (3777) 
N1CCC(C(F)(F)CC1)CC(=O)O

>  <INCHIKEY>  (3777) 
CXPFAFDQLBAFHM-UHFFFAOYSA-N

$$$$
azepane-3-CO2H
     RDKit          2D

 10 10  0  0  0  0  0  0  0  0999 V2000
   -1.5032   -1.6852    0.0000 N   0  0  0  0  0  0  0  0  0  0  0  0
   -0.0408   -1.3515    0.0000 C   0  0  0  0  0  0  0  0  0  0  0  0
    0.6100    0.0000    0.0000 C   0  0  0  0  0  0  0  0  0  0  0  0
   -0.0408    1.3515    0.0000 C   0  0  0  0  0  0  0  0  0  0  0  0
   -1.5032    1.6852    0.0000 C   0  0  0  0  0  0  0  0  0  0  0  0
   -2.6760    0.7500    0.0000 C   0  0  0  0  0  0  0  0  0  0  0  0
   -2.6760   -0.7500    0.0000 C   0  0  0  0  0  0  0  0  0  0  0  0
    2.1100    0.0000    0.0000 C   0  0  0  0  0  0  0  0  0  0  0  0
    2.8600    1.2990    0.0000 O   0  0  0  0  0  0  0  0  0  0  0  0
    2.8600   -1.2990    0.0000 O   0  0  0  0  0  0  0  0  0  0  0  0
  1  2  1  0
  2  3  1  0
  3  4  1  0
  4  5  1  0
  5  6  1  0
  6  7  1  0
  3  8  1  0
  8  9  2  0
  8 10  1  0
  7  1  1  0
M  END
>  <rName>  (3778) 
azepane-3-CO2H

>  <PQ_SYMBOL>  (3778) 
azepane-3-CO2H

>  <FULL_NAME>  (3778) 
Azepane-3-carboxylic acid

>  <IUPAC_CONDENSED>  (3778) 
azepane-3-CO2H

>  <IUPAC>  (3778) 
1-azacycloheptane-3-carboxylic acid

>  <TYPE>  (3778) 
Backbone

>  <CLASS>  (3778) 
beta

>  <ANALOG>  (3778) 
Pro

>  <MOL_WT>  (3778) 
143.186

>  <LOGP>  (3778) 
0.46069999999999983

>  <TPSA>  (3778) 
49.33

>  <POPULARITY>  (3778) 
7.2

>  <PROTECTED>  (3778) 
TRUE

>  <SMILES>  (3778) 
N1CC(CCCC1)C(=O)O

>  <INCHIKEY>  (3778) 
DXCWXFLBYQNTOP-UHFFFAOYSA-N

$$$$
azepane-3R-CO2H
     RDKit          2D

 10 10  0  0  0  0  0  0  0  0999 V2000
   -1.5032   -1.6852    0.0000 N   0  0  0  0  0  0  0  0  0  0  0  0
   -0.0408   -1.3515    0.0000 C   0  0  0  0  0  0  0  0  0  0  0  0
    0.6100    0.0000    0.0000 C   0  0  0  0  0  0  0  0  0  0  0  0
   -0.0408    1.3515    0.0000 C   0  0  0  0  0  0  0  0  0  0  0  0
   -1.5032    1.6852    0.0000 C   0  0  0  0  0  0  0  0  0  0  0  0
   -2.6760    0.7500    0.0000 C   0  0  0  0  0  0  0  0  0  0  0  0
   -2.6760   -0.7500    0.0000 C   0  0  0  0  0  0  0  0  0  0  0  0
    2.1100    0.0000    0.0000 C   0  0  0  0  0  0  0  0  0  0  0  0
    2.8600    1.2990    0.0000 O   0  0  0  0  0  0  0  0  0  0  0  0
    2.8600   -1.2990    0.0000 O   0  0  0  0  0  0  0  0  0  0  0  0
  1  2  1  0
  2  3  1  0
  3  4  1  0
  4  5  1  0
  5  6  1  0
  6  7  1  0
  3  8  1  1
  8  9  2  0
  8 10  1  0
  7  1  1  0
M  END
>  <rName>  (3779) 
azepane-3R-CO2H

>  <PQ_SYMBOL>  (3779) 
azepane-3R-CO2H

>  <FULL_NAME>  (3779) 
(R)-azepane-3-carboxylic acid

>  <IUPAC_CONDENSED>  (3779) 
azepane-3R-CO2H

>  <IUPAC>  (3779) 
(3R)-azepane-3-carboxylic acid

>  <TYPE>  (3779) 
Backbone

>  <CLASS>  (3779) 
beta

>  <ANALOG>  (3779) 
Pro

>  <MOL_WT>  (3779) 
143.186

>  <LOGP>  (3779) 
0.46069999999999983

>  <TPSA>  (3779) 
49.33

>  <POPULARITY>  (3779) 
2.2

>  <PROTECTED>  (3779) 
TRUE

>  <SMILES>  (3779) 
N1C[C@@H](CCCC1)C(=O)O

>  <INCHIKEY>  (3779) 
DXCWXFLBYQNTOP-ZCFIWIBFSA-N

$$$$
azepane-4-CO2H
     RDKit          2D

 10 10  0  0  0  0  0  0  0  0999 V2000
   -2.6760   -0.7500    0.0000 N   0  0  0  0  0  0  0  0  0  0  0  0
   -1.5032   -1.6852    0.0000 C   0  0  0  0  0  0  0  0  0  0  0  0
   -0.0408   -1.3515    0.0000 C   0  0  0  0  0  0  0  0  0  0  0  0
    0.6100    0.0000    0.0000 C   0  0  0  0  0  0  0  0  0  0  0  0
   -0.0408    1.3515    0.0000 C   0  0  0  0  0  0  0  0  0  0  0  0
   -1.5032    1.6852    0.0000 C   0  0  0  0  0  0  0  0  0  0  0  0
   -2.6760    0.7500    0.0000 C   0  0  0  0  0  0  0  0  0  0  0  0
    2.1100    0.0000    0.0000 C   0  0  0  0  0  0  0  0  0  0  0  0
    2.8600    1.2990    0.0000 O   0  0  0  0  0  0  0  0  0  0  0  0
    2.8600   -1.2990    0.0000 O   0  0  0  0  0  0  0  0  0  0  0  0
  1  2  1  0
  2  3  1  0
  3  4  1  0
  4  5  1  0
  5  6  1  0
  6  7  1  0
  4  8  1  0
  8  9  2  0
  8 10  1  0
  7  1  1  0
M  END
>  <rName>  (3780) 
azepane-4-CO2H

>  <PQ_SYMBOL>  (3780) 
azepane-4-CO2H

>  <FULL_NAME>  (3780) 
Azepane-4-carboxylic acid

>  <IUPAC_CONDENSED>  (3780) 
azepane-4-CO2H

>  <IUPAC>  (3780) 
1-azacycloheptane-4-carboxylic acid

>  <TYPE>  (3780) 
Backbone

>  <CLASS>  (3780) 
gamma

>  <ANALOG>  (3780) 
Pro

>  <MOL_WT>  (3780) 
143.186

>  <LOGP>  (3780) 
0.46069999999999983

>  <TPSA>  (3780) 
49.33

>  <POPULARITY>  (3780) 
9.3

>  <PROTECTED>  (3780) 
TRUE

>  <SMILES>  (3780) 
N1CCC(CCC1)C(=O)O

>  <INCHIKEY>  (3780) 
BCVGGQNBSCMMPV-UHFFFAOYSA-N

$$$$
azetidin-2-ylAc
     RDKit          2D

  8  8  0  0  0  0  0  0  0  0999 V2000
    2.1656   -0.9874    0.0000 N   0  0  0  0  0  0  0  0  0  0  0  0
    0.7908   -0.3874    0.0000 C   0  0  0  0  0  0  0  0  0  0  0  0
    1.3908    0.9874    0.0000 C   0  0  0  0  0  0  0  0  0  0  0  0
    2.7656    0.3874    0.0000 C   0  0  0  0  0  0  0  0  0  0  0  0
   -0.6055   -0.9353    0.0000 C   0  0  0  0  0  0  0  0  0  0  0  0
   -1.7782    0.0000    0.0000 C   0  0  0  0  0  0  0  0  0  0  0  0
   -1.5545    1.4832    0.0000 O   0  0  0  0  0  0  0  0  0  0  0  0
   -3.1746   -0.5479    0.0000 O   0  0  0  0  0  0  0  0  0  0  0  0
  1  2  1  0
  2  3  1  0
  3  4  1  0
  2  5  1  0
  5  6  1  0
  6  7  2  0
  6  8  1  0
  4  1  1  0
M  END
>  <rName>  (3781) 
azetidin-2-ylAc

>  <PQ_SYMBOL>  (3781) 
azetidin-2-ylAc

>  <FULL_NAME>  (3781) 
(Azetidin-2-yl)acetic acid

>  <IUPAC_CONDENSED>  (3781) 
azetidin-2-ylAc

>  <IUPAC>  (3781) 
2-(azetidin-2-yl)acetic acid

>  <TYPE>  (3781) 
Backbone

>  <CLASS>  (3781) 
beta

>  <ANALOG>  (3781) 
Pro

>  <MOL_WT>  (3781) 
115.13199999999999

>  <LOGP>  (3781) 
-0.17700000000000032

>  <TPSA>  (3781) 
49.33

>  <POPULARITY>  (3781) 
5.7

>  <PROTECTED>  (3781) 
TRUE

>  <SMILES>  (3781) 
N1C(CC1)CC(=O)O

>  <INCHIKEY>  (3781) 
LDPCMSFHHDVNDF-UHFFFAOYSA-N

$$$$
azetidin-3-yl3-OHAc_22diF
     RDKit          2D

 11 11  0  0  0  0  0  0  0  0999 V2000
    2.7917   -0.8825    0.0000 N   0  0  0  0  0  0  0  0  0  0  0  0
    1.3155   -1.1485    0.0000 C   0  0  0  0  0  0  0  0  0  0  0  0
    1.0494    0.3277    0.0000 C   0  0  0  0  0  0  0  0  0  0  0  0
    0.7834    1.8039    0.0000 O   0  0  0  0  0  0  0  0  0  0  0  0
    2.5256    0.5937    0.0000 C   0  0  0  0  0  0  0  0  0  0  0  0
   -0.4268    0.0616    0.0000 C   0  0  0  0  0  0  0  0  0  0  0  0
   -0.6928    1.5379    0.0000 F   0  0  0  0  0  0  0  0  0  0  0  0
   -0.1607   -1.4146    0.0000 F   0  0  0  0  0  0  0  0  0  0  0  0
   -1.9030   -0.2044    0.0000 C   0  0  0  0  0  0  0  0  0  0  0  0
   -2.8715    0.9410    0.0000 O   0  0  0  0  0  0  0  0  0  0  0  0
   -2.4107   -1.6159    0.0000 O   0  0  0  0  0  0  0  0  0  0  0  0
  1  2  1  0
  2  3  1  0
  3  4  1  0
  3  5  1  0
  3  6  1  0
  6  7  1  0
  6  8  1  0
  6  9  1  0
  9 10  2  0
  9 11  1  0
  5  1  1  0
M  END
>  <rName>  (3782) 
azetidin-3-yl3-OHAc_22diF

>  <PQ_SYMBOL>  (3782) 
azetidin-3-yl3-OHAc_22diF

>  <FULL_NAME>  (3782) 
2,2-Difluoro-2-(3-hydroxyazetidin-3-yl)acetic acid

>  <IUPAC_CONDENSED>  (3782) 
azetidin-3-yl(3-OH)Ac(2,2-diF)

>  <IUPAC>  (3782) 
2,2-difluoro-2-(3-hydroxy-azetidin-3-yl)acetic acid

>  <TYPE>  (3782) 
Backbone

>  <CLASS>  (3782) 
gamma

>  <ANALOG>  (3782) 
X

>  <MOL_WT>  (3782) 
167.11100000000002

>  <LOGP>  (3782) 
-0.9594

>  <TPSA>  (3782) 
69.56

>  <POPULARITY>  (3782) 
2.9

>  <PROTECTED>  (3782) 
TRUE

>  <SMILES>  (3782) 
N1CC(O)(C1)C(F)(F)C(=O)O

>  <INCHIKEY>  (3782) 
QUPJOLPZCCUCFN-UHFFFAOYSA-N

$$$$
azetidin-3-yl3-OHAc_2F
     RDKit          2D

 10 10  0  0  0  0  0  0  0  0999 V2000
    2.8958   -0.2155    0.0000 N   0  0  0  0  0  0  0  0  0  0  0  0
    1.6314   -1.0226    0.0000 C   0  0  0  0  0  0  0  0  0  0  0  0
    0.8244    0.2418    0.0000 C   0  0  0  0  0  0  0  0  0  0  0  0
    0.0173    1.5062    0.0000 O   0  0  0  0  0  0  0  0  0  0  0  0
    2.0888    1.0489    0.0000 C   0  0  0  0  0  0  0  0  0  0  0  0
   -0.4400   -0.5652    0.0000 C   0  0  0  0  0  0  0  0  0  0  0  0
   -0.3733   -2.0637    0.0000 F   0  0  0  0  0  0  0  0  0  0  0  0
   -1.7711    0.1262    0.0000 C   0  0  0  0  0  0  0  0  0  0  0  0
   -1.8379    1.6247    0.0000 O   0  0  0  0  0  0  0  0  0  0  0  0
   -3.0355   -0.6808    0.0000 O   0  0  0  0  0  0  0  0  0  0  0  0
  1  2  1  0
  2  3  1  0
  3  4  1  0
  3  5  1  0
  3  6  1  0
  6  7  1  0
  6  8  1  0
  8  9  2  0
  8 10  1  0
  5  1  1  0
M  END
>  <rName>  (3783) 
azetidin-3-yl3-OHAc_2F

>  <PQ_SYMBOL>  (3783) 
azetidin-3-yl3-OHAc_2F

>  <FULL_NAME>  (3783) 
2-Fluoro-2-(3-hydroxyazetidin-3-yl)acetic acid

>  <IUPAC_CONDENSED>  (3783) 
azetidin-3-yl(3-OH)Ac(2-F)

>  <IUPAC>  (3783) 
2-fluoro-2-(3-hydroxy-azetidin-3-yl)acetic acid

>  <TYPE>  (3783) 
Backbone

>  <CLASS>  (3783) 
gamma

>  <ANALOG>  (3783) 
X

>  <MOL_WT>  (3783) 
149.121

>  <LOGP>  (3783) 
-1.2566000000000004

>  <TPSA>  (3783) 
69.56

>  <POPULARITY>  (3783) 
2.9

>  <PROTECTED>  (3783) 
TRUE

>  <SMILES>  (3783) 
N1CC(O)(C1)C(F)C(=O)O

>  <INCHIKEY>  (3783) 
RHWQOTKNPGZOMB-UHFFFAOYSA-N

$$$$
azetidin-3-yl3-OHAc_2OH
     RDKit          2D

 10 10  0  0  0  0  0  0  0  0999 V2000
    2.8958   -0.2155    0.0000 N   0  0  0  0  0  0  0  0  0  0  0  0
    1.6314   -1.0226    0.0000 C   0  0  0  0  0  0  0  0  0  0  0  0
    0.8244    0.2418    0.0000 C   0  0  0  0  0  0  0  0  0  0  0  0
    0.0173    1.5062    0.0000 O   0  0  0  0  0  0  0  0  0  0  0  0
    2.0888    1.0489    0.0000 C   0  0  0  0  0  0  0  0  0  0  0  0
   -0.4400   -0.5652    0.0000 C   0  0  0  0  0  0  0  0  0  0  0  0
   -0.3733   -2.0637    0.0000 O   0  0  0  0  0  0  0  0  0  0  0  0
   -1.7711    0.1262    0.0000 C   0  0  0  0  0  0  0  0  0  0  0  0
   -1.8379    1.6247    0.0000 O   0  0  0  0  0  0  0  0  0  0  0  0
   -3.0355   -0.6808    0.0000 O   0  0  0  0  0  0  0  0  0  0  0  0
  1  2  1  0
  2  3  1  0
  3  4  1  0
  3  5  1  0
  3  6  1  0
  6  7  1  0
  6  8  1  0
  8  9  2  0
  8 10  1  0
  5  1  1  0
M  END
>  <rName>  (3784) 
azetidin-3-yl3-OHAc_2OH

>  <PQ_SYMBOL>  (3784) 
azetidin-3-yl3-OHAc_2OH

>  <FULL_NAME>  (3784) 
2-Hydroxy-2-(3-hydroxyazetidin-3-yl)acetic acid

>  <IUPAC_CONDENSED>  (3784) 
azetidin-3-yl(3-OH)Ac(2-OH)

>  <IUPAC>  (3784) 
2-hydroxy-2-(3-hydroxy-azetidin-3-yl)acetic acid

>  <TYPE>  (3784) 
Backbone

>  <CLASS>  (3784) 
gamma

>  <ANALOG>  (3784) 
X

>  <MOL_WT>  (3784) 
147.13

>  <LOGP>  (3784) 
-2.2338

>  <TPSA>  (3784) 
89.79

>  <POPULARITY>  (3784) 
2.9

>  <PROTECTED>  (3784) 
TRUE

>  <SMILES>  (3784) 
N1CC(O)(C1)C(O)C(=O)O

>  <INCHIKEY>  (3784) 
SCAZRPIZASLVCS-UHFFFAOYSA-N

$$$$
azetidin-3-yl3-OMeAc_22diF
     RDKit          2D

 12 12  0  0  0  0  0  0  0  0999 V2000
    2.2871   -1.7121    0.0000 N   0  0  0  0  0  0  0  0  0  0  0  0
    0.7901   -1.6163    0.0000 C   0  0  0  0  0  0  0  0  0  0  0  0
    0.8859   -0.1193    0.0000 C   0  0  0  0  0  0  0  0  0  0  0  0
    0.9817    1.3776    0.0000 O   0  0  0  0  0  0  0  0  0  0  0  0
    2.3260    2.0431    0.0000 C   0  0  0  0  0  0  0  0  0  0  0  0
    2.3829   -0.2151    0.0000 C   0  0  0  0  0  0  0  0  0  0  0  0
   -0.6110   -0.0235    0.0000 C   0  0  0  0  0  0  0  0  0  0  0  0
   -0.5152    1.4734    0.0000 F   0  0  0  0  0  0  0  0  0  0  0  0
   -0.7068   -1.5205    0.0000 F   0  0  0  0  0  0  0  0  0  0  0  0
   -2.1079    0.0723    0.0000 C   0  0  0  0  0  0  0  0  0  0  0  0
   -2.7734    1.4166    0.0000 O   0  0  0  0  0  0  0  0  0  0  0  0
   -2.9394   -1.1762    0.0000 O   0  0  0  0  0  0  0  0  0  0  0  0
  1  2  1  0
  2  3  1  0
  3  4  1  0
  4  5  1  0
  3  6  1  0
  3  7  1  0
  7  8  1  0
  7  9  1  0
  7 10  1  0
 10 11  2  0
 10 12  1  0
  6  1  1  0
M  END
>  <rName>  (3785) 
azetidin-3-yl3-OMeAc_22diF

>  <PQ_SYMBOL>  (3785) 
azetidin-3-yl3-OMeAc_22diF

>  <FULL_NAME>  (3785) 
2,2-Difluoro-2-(3-methoxyazetidin-3-yl)acetic acid

>  <IUPAC_CONDENSED>  (3785) 
azetidin-3-yl(3-OMe)Ac(2,2-diF)

>  <IUPAC>  (3785) 
2,2-difluoro-2-(3-methoxy-azetidin-3-yl)acetic acid

>  <TYPE>  (3785) 
Backbone

>  <CLASS>  (3785) 
gamma

>  <ANALOG>  (3785) 
Ser

>  <MOL_WT>  (3785) 
181.138

>  <LOGP>  (3785) 
-0.3053000000000002

>  <TPSA>  (3785) 
58.56

>  <POPULARITY>  (3785) 
2.6

>  <PROTECTED>  (3785) 
TRUE

>  <SMILES>  (3785) 
N1CC(OC)(C1)C(F)(F)C(=O)O

>  <INCHIKEY>  (3785) 
AJHDYLLQAJGVQB-UHFFFAOYSA-N

$$$$
azetidin-3-ylAc
     RDKit          2D

  8  8  0  0  0  0  0  0  0  0999 V2000
   -2.7656   -0.3874    0.0000 N   0  0  0  0  0  0  0  0  0  0  0  0
   -2.1656    0.9874    0.0000 C   0  0  0  0  0  0  0  0  0  0  0  0
   -0.7908    0.3874    0.0000 C   0  0  0  0  0  0  0  0  0  0  0  0
   -1.3908   -0.9874    0.0000 C   0  0  0  0  0  0  0  0  0  0  0  0
    0.6055    0.9353    0.0000 C   0  0  0  0  0  0  0  0  0  0  0  0
    1.7782   -0.0000    0.0000 C   0  0  0  0  0  0  0  0  0  0  0  0
    1.5545   -1.4832    0.0000 O   0  0  0  0  0  0  0  0  0  0  0  0
    3.1746    0.5479    0.0000 O   0  0  0  0  0  0  0  0  0  0  0  0
  1  2  1  0
  2  3  1  0
  3  4  1  0
  3  5  1  0
  5  6  1  0
  6  7  2  0
  6  8  1  0
  4  1  1  0
M  END
>  <rName>  (3786) 
azetidin-3-ylAc

>  <PQ_SYMBOL>  (3786) 
azetidin-3-ylAc

>  <FULL_NAME>  (3786) 
2-(azetidin-3-yl)acetic acid

>  <IUPAC_CONDENSED>  (3786) 
azetidin-3-ylAc

>  <IUPAC>  (3786) 
2-(azetidin-3-yl)acetic acid

>  <TYPE>  (3786) 
Backbone

>  <CLASS>  (3786) 
gamma

>  <ANALOG>  (3786) 
Ala

>  <MOL_WT>  (3786) 
115.13199999999999

>  <LOGP>  (3786) 
-0.31949999999999995

>  <TPSA>  (3786) 
49.33

>  <POPULARITY>  (3786) 
10.9

>  <PROTECTED>  (3786) 
TRUE

>  <SMILES>  (3786) 
N1CC(C1)CC(=O)O

>  <INCHIKEY>  (3786) 
SCBDSTCOJNNUCN-UHFFFAOYSA-N

$$$$
azetidin-3-ylAc_22diMe
     RDKit          2D

 10 10  0  0  0  0  0  0  0  0999 V2000
    3.1971   -0.0000    0.0000 N   0  0  0  0  0  0  0  0  0  0  0  0
    2.1364   -1.0607    0.0000 C   0  0  0  0  0  0  0  0  0  0  0  0
    1.0757   -0.0000    0.0000 C   0  0  0  0  0  0  0  0  0  0  0  0
    2.1364    1.0607    0.0000 C   0  0  0  0  0  0  0  0  0  0  0  0
   -0.4243   -0.0000    0.0000 C   0  0  0  0  0  0  0  0  0  0  0  0
   -0.4243   -1.5000    0.0000 C   0  0  0  0  0  0  0  0  0  0  0  0
   -0.4243    1.5000    0.0000 C   0  0  0  0  0  0  0  0  0  0  0  0
   -1.9243    0.0000    0.0000 C   0  0  0  0  0  0  0  0  0  0  0  0
   -2.6743    1.2990    0.0000 O   0  0  0  0  0  0  0  0  0  0  0  0
   -2.6743   -1.2990    0.0000 O   0  0  0  0  0  0  0  0  0  0  0  0
  1  2  1  0
  2  3  1  0
  3  4  1  0
  3  5  1  0
  5  6  1  0
  5  7  1  0
  5  8  1  0
  8  9  2  0
  8 10  1  0
  4  1  1  0
M  END
>  <rName>  (3787) 
azetidin-3-ylAc_22diMe

>  <PQ_SYMBOL>  (3787) 
azetidin-3-ylAc_22diMe

>  <FULL_NAME>  (3787) 
2-(Azetidin-3-yl)-2-methylpropanoic acid

>  <IUPAC_CONDENSED>  (3787) 
azetidin-3-ylAc(2,2-diMe)

>  <IUPAC>  (3787) 
2-(azetidin-3-yl)-2-methylpropanoic acid

>  <TYPE>  (3787) 
Backbone

>  <CLASS>  (3787) 
gamma

>  <ANALOG>  (3787) 
Ala

>  <MOL_WT>  (3787) 
143.186

>  <LOGP>  (3787) 
0.31659999999999994

>  <TPSA>  (3787) 
49.33

>  <POPULARITY>  (3787) 
4.3

>  <PROTECTED>  (3787) 
TRUE

>  <SMILES>  (3787) 
N1CC(C1)C(C)(C)C(=O)O

>  <INCHIKEY>  (3787) 
CKADDBBZFSBVNZ-UHFFFAOYSA-N

$$$$
azetidin-3-ylAc_2F
     RDKit          2D

  9  9  0  0  0  0  0  0  0  0999 V2000
   -2.9032   -0.4104    0.0000 N   0  0  0  0  0  0  0  0  0  0  0  0
   -2.1884    0.9083    0.0000 C   0  0  0  0  0  0  0  0  0  0  0  0
   -0.8696    0.1934    0.0000 C   0  0  0  0  0  0  0  0  0  0  0  0
   -1.5845   -1.1253    0.0000 C   0  0  0  0  0  0  0  0  0  0  0  0
    0.5683    0.6205    0.0000 C   0  0  0  0  0  0  0  0  0  0  0  0
    0.9174    2.0793    0.0000 F   0  0  0  0  0  0  0  0  0  0  0  0
    1.6571   -0.4113    0.0000 C   0  0  0  0  0  0  0  0  0  0  0  0
    1.3079   -1.8701    0.0000 O   0  0  0  0  0  0  0  0  0  0  0  0
    3.0950    0.0157    0.0000 O   0  0  0  0  0  0  0  0  0  0  0  0
  1  2  1  0
  2  3  1  0
  3  4  1  0
  3  5  1  0
  5  6  1  0
  5  7  1  0
  7  8  2  0
  7  9  1  0
  4  1  1  0
M  END
>  <rName>  (3788) 
azetidin-3-ylAc_2F

>  <PQ_SYMBOL>  (3788) 
azetidin-3-ylAc_2F

>  <FULL_NAME>  (3788) 
2-(Azetidin-3-yl)-2-fluoroacetic acid

>  <IUPAC_CONDENSED>  (3788) 
azetidin-3-ylAc(2-F)

>  <IUPAC>  (3788) 
2-(azetidin-3-yl)-2-fluoroacetic acid

>  <TYPE>  (3788) 
Backbone

>  <CLASS>  (3788) 
gamma

>  <ANALOG>  (3788) 
Ala

>  <MOL_WT>  (3788) 
133.122

>  <LOGP>  (3788) 
-0.3715000000000002

>  <TPSA>  (3788) 
49.33

>  <POPULARITY>  (3788) 
3.5

>  <PROTECTED>  (3788) 
TRUE

>  <SMILES>  (3788) 
N1CC(C1)C(F)C(=O)O

>  <INCHIKEY>  (3788) 
GLIZPVGFQMDMHL-UHFFFAOYSA-N

$$$$
azetidin-3-ylAc_2Me
     RDKit          2D

  9  9  0  0  0  0  0  0  0  0999 V2000
    2.9032   -0.4104    0.0000 N   0  0  0  0  0  0  0  0  0  0  0  0
    1.5845   -1.1253    0.0000 C   0  0  0  0  0  0  0  0  0  0  0  0
    0.8696    0.1934    0.0000 C   0  0  0  0  0  0  0  0  0  0  0  0
    2.1884    0.9083    0.0000 C   0  0  0  0  0  0  0  0  0  0  0  0
   -0.5683    0.6205    0.0000 C   0  0  0  0  0  0  0  0  0  0  0  0
   -0.9174    2.0793    0.0000 C   0  0  0  0  0  0  0  0  0  0  0  0
   -1.6571   -0.4113    0.0000 C   0  0  0  0  0  0  0  0  0  0  0  0
   -1.3079   -1.8701    0.0000 O   0  0  0  0  0  0  0  0  0  0  0  0
   -3.0950    0.0157    0.0000 O   0  0  0  0  0  0  0  0  0  0  0  0
  1  2  1  0
  2  3  1  0
  3  4  1  0
  3  5  1  0
  5  6  1  0
  5  7  1  0
  7  8  2  0
  7  9  1  0
  4  1  1  0
M  END
>  <rName>  (3789) 
azetidin-3-ylAc_2Me

>  <PQ_SYMBOL>  (3789) 
azetidin-3-ylAc_2Me

>  <FULL_NAME>  (3789) 
2-(Azetidin-3-yl)propanoic acid

>  <IUPAC_CONDENSED>  (3789) 
azetidin-3-ylAc(2-Me)

>  <IUPAC>  (3789) 
2-(azetidin-3-yl)propanoic acid

>  <TYPE>  (3789) 
Backbone

>  <CLASS>  (3789) 
gamma

>  <ANALOG>  (3789) 
Ala

>  <MOL_WT>  (3789) 
129.159

>  <LOGP>  (3789) 
-0.07349999999999995

>  <TPSA>  (3789) 
49.33

>  <POPULARITY>  (3789) 
6.0

>  <PROTECTED>  (3789) 
TRUE

>  <SMILES>  (3789) 
N1CC(C1)C(C)C(=O)O

>  <INCHIKEY>  (3789) 
AYXWYUKDVYYPKN-UHFFFAOYSA-N

$$$$
azetidin-3-ylAc_2Me_2OH
     RDKit          2D

 10 10  0  0  0  0  0  0  0  0999 V2000
    2.7582   -0.3759    0.0000 N   0  0  0  0  0  0  0  0  0  0  0  0
    1.4330   -1.0786    0.0000 C   0  0  0  0  0  0  0  0  0  0  0  0
    0.7302    0.2466    0.0000 C   0  0  0  0  0  0  0  0  0  0  0  0
    2.0554    0.9493    0.0000 C   0  0  0  0  0  0  0  0  0  0  0  0
   -0.7037    0.6867    0.0000 C   0  0  0  0  0  0  0  0  0  0  0  0
   -0.2636    2.1207    0.0000 O   0  0  0  0  0  0  0  0  0  0  0  0
   -2.1377    1.1269    0.0000 C   0  0  0  0  0  0  0  0  0  0  0  0
   -1.1439   -0.7472    0.0000 C   0  0  0  0  0  0  0  0  0  0  0  0
   -0.1221   -1.8454    0.0000 O   0  0  0  0  0  0  0  0  0  0  0  0
   -2.6058   -1.0830    0.0000 O   0  0  0  0  0  0  0  0  0  0  0  0
  1  2  1  0
  2  3  1  0
  3  4  1  0
  3  5  1  0
  5  6  1  0
  5  7  1  0
  5  8  1  0
  8  9  2  0
  8 10  1  0
  4  1  1  0
M  END
>  <rName>  (3790) 
azetidin-3-ylAc_2Me_2OH

>  <PQ_SYMBOL>  (3790) 
azetidin-3-ylAc_2Me_2OH

>  <FULL_NAME>  (3790) 
CC(O)(C(=O)O)C1CNC1

>  <IUPAC_CONDENSED>  (3790) 
azetidin-3-ylAc(2-Me,2-OH)

>  <IUPAC>  (3790) 
2-(azetidin-3-yl)-2-hydroxypropanoic acid

>  <TYPE>  (3790) 
Backbone

>  <CLASS>  (3790) 
gamma

>  <ANALOG>  (3790) 
Ala

>  <MOL_WT>  (3790) 
145.158

>  <LOGP>  (3790) 
-0.9586000000000006

>  <TPSA>  (3790) 
69.56

>  <POPULARITY>  (3790) 
2.9

>  <PROTECTED>  (3790) 
TRUE

>  <SMILES>  (3790) 
N1CC(C1)C(O)(C)C(=O)O

>  <INCHIKEY>  (3790) 
HASOLIQVYVSJMB-UHFFFAOYSA-N

$$$$
azetidin-3-ylPr
     RDKit          2D

  9  9  0  0  0  0  0  0  0  0999 V2000
   -3.5132   -0.3515    0.0000 N   0  0  0  0  0  0  0  0  0  0  0  0
   -2.7661    0.9492    0.0000 C   0  0  0  0  0  0  0  0  0  0  0  0
   -1.4654    0.2020    0.0000 C   0  0  0  0  0  0  0  0  0  0  0  0
   -2.2126   -1.0987    0.0000 C   0  0  0  0  0  0  0  0  0  0  0  0
   -0.0174    0.5934    0.0000 C   0  0  0  0  0  0  0  0  0  0  0  0
    1.0456   -0.4650    0.0000 C   0  0  0  0  0  0  0  0  0  0  0  0
    2.4937   -0.0736    0.0000 C   0  0  0  0  0  0  0  0  0  0  0  0
    2.8787    1.3761    0.0000 O   0  0  0  0  0  0  0  0  0  0  0  0
    3.5566   -1.1319    0.0000 O   0  0  0  0  0  0  0  0  0  0  0  0
  1  2  1  0
  2  3  1  0
  3  4  1  0
  3  5  1  0
  5  6  1  0
  6  7  1  0
  7  8  2  0
  7  9  1  0
  4  1  1  0
M  END
>  <rName>  (3791) 
azetidin-3-ylPr

>  <PQ_SYMBOL>  (3791) 
azetidin-3-ylPr

>  <FULL_NAME>  (3791) 
3-(Azetidin-3-yl)propanoic acid

>  <IUPAC_CONDENSED>  (3791) 
azetidin-3-ylPr

>  <IUPAC>  (3791) 
3-(azetidin-3-yl)propanoic acid

>  <TYPE>  (3791) 
Backbone

>  <CLASS>  (3791) 
delta

>  <ANALOG>  (3791) 
Ala

>  <MOL_WT>  (3791) 
129.15900000000002

>  <LOGP>  (3791) 
0.07059999999999994

>  <TPSA>  (3791) 
49.33

>  <POPULARITY>  (3791) 
6.7

>  <PROTECTED>  (3791) 
TRUE

>  <SMILES>  (3791) 
N1CC(C1)CCC(=O)O

>  <INCHIKEY>  (3791) 
YXCDCEDVDFXYCL-UHFFFAOYSA-N

$$$$
azetidin-3-ylPr_2F
     RDKit          2D

 10 10  0  0  0  0  0  0  0  0999 V2000
   -3.5743   -0.2478    0.0000 N   0  0  0  0  0  0  0  0  0  0  0  0
   -2.8592    1.0708    0.0000 C   0  0  0  0  0  0  0  0  0  0  0  0
   -1.5406    0.3558    0.0000 C   0  0  0  0  0  0  0  0  0  0  0  0
   -2.2557   -0.9628    0.0000 C   0  0  0  0  0  0  0  0  0  0  0  0
   -0.1026    0.7826    0.0000 C   0  0  0  0  0  0  0  0  0  0  0  0
    0.9860   -0.2494    0.0000 C   0  0  0  0  0  0  0  0  0  0  0  0
    0.6366   -1.7081    0.0000 F   0  0  0  0  0  0  0  0  0  0  0  0
    2.4240    0.1774    0.0000 C   0  0  0  0  0  0  0  0  0  0  0  0
    2.7734    1.6361    0.0000 O   0  0  0  0  0  0  0  0  0  0  0  0
    3.5126   -0.8546    0.0000 O   0  0  0  0  0  0  0  0  0  0  0  0
  1  2  1  0
  2  3  1  0
  3  4  1  0
  3  5  1  0
  5  6  1  0
  6  7  1  0
  6  8  1  0
  8  9  2  0
  8 10  1  0
  4  1  1  0
M  END
>  <rName>  (3792) 
azetidin-3-ylPr_2F

>  <PQ_SYMBOL>  (3792) 
azetidin-3-ylPr_2F

>  <FULL_NAME>  (3792) 
3-(Azetidin-3-yl)-2-fluoropropanoic acid

>  <IUPAC_CONDENSED>  (3792) 
azetidin-3-ylPr(2-F)

>  <IUPAC>  (3792) 
3-(azetidin-3-yl)-2-fluoropropanoic acid

>  <TYPE>  (3792) 
Backbone

>  <CLASS>  (3792) 
delta

>  <ANALOG>  (3792) 
Ala

>  <MOL_WT>  (3792) 
147.149

>  <LOGP>  (3792) 
0.018600000000000116

>  <TPSA>  (3792) 
49.33

>  <POPULARITY>  (3792) 
2.8

>  <PROTECTED>  (3792) 
TRUE

>  <SMILES>  (3792) 
N1CC(C1)CC(F)C(=O)O

>  <INCHIKEY>  (3792) 
TXSHAUXWCZQNKJ-UHFFFAOYSA-N

$$$$
azetidin-3-yl_3CN_Pr
     RDKit          2D

 11 11  0  0  0  0  0  0  0  0999 V2000
    3.3185   -0.9339    0.0000 N   0  0  0  0  0  0  0  0  0  0  0  0
    1.9277   -1.4957    0.0000 C   0  0  0  0  0  0  0  0  0  0  0  0
    1.3659   -0.1048    0.0000 C   0  0  0  0  0  0  0  0  0  0  0  0
    0.8042    1.2860    0.0000 C   0  0  0  0  0  0  0  0  0  0  0  0
    0.2424    2.6769    0.0000 N   0  0  0  0  0  0  0  0  0  0  0  0
    2.7568    0.4569    0.0000 C   0  0  0  0  0  0  0  0  0  0  0  0
   -0.0249   -0.6666    0.0000 C   0  0  0  0  0  0  0  0  0  0  0  0
   -1.2068    0.2570    0.0000 C   0  0  0  0  0  0  0  0  0  0  0  0
   -2.5977   -0.3047    0.0000 C   0  0  0  0  0  0  0  0  0  0  0  0
   -2.8066   -1.7901    0.0000 O   0  0  0  0  0  0  0  0  0  0  0  0
   -3.7796    0.6189    0.0000 O   0  0  0  0  0  0  0  0  0  0  0  0
  1  2  1  0
  2  3  1  0
  3  4  1  0
  4  5  3  0
  3  6  1  0
  3  7  1  0
  7  8  1  0
  8  9  1  0
  9 10  2  0
  9 11  1  0
  6  1  1  0
M  END
>  <rName>  (3793) 
azetidin-3-yl_3CN_Pr

>  <PQ_SYMBOL>  (3793) 
azetidin-3-yl_3CN_Pr

>  <FULL_NAME>  (3793) 
3-(3-Cyanoazetidin-3-yl)propanoic acid

>  <IUPAC_CONDENSED>  (3793) 
azetidin-3-yl(3-CN)Pr

>  <IUPAC>  (3793) 
3-(3-(nitrilomethyl)-azetidin-3-yl)propanoic acid

>  <TYPE>  (3793) 
Backbone

>  <CLASS>  (3793) 
delta

>  <ANALOG>  (3793) 
X

>  <MOL_WT>  (3793) 
154.169

>  <LOGP>  (3793) 
-0.03562000000000026

>  <TPSA>  (3793) 
73.12

>  <POPULARITY>  (3793) 
2.7

>  <PROTECTED>  (3793) 
TRUE

>  <SMILES>  (3793) 
N1CC(C#N)(C1)CCC(=O)O

>  <INCHIKEY>  (3793) 
BVMKLVSUUYHJMM-UHFFFAOYSA-N

$$$$
azetidin-3-yl_3F_Ac
     RDKit          2D

  9  9  0  0  0  0  0  0  0  0999 V2000
    2.8681   -0.3451    0.0000 N   0  0  0  0  0  0  0  0  0  0  0  0
    1.6326   -1.1957    0.0000 C   0  0  0  0  0  0  0  0  0  0  0  0
    0.7820    0.0398    0.0000 C   0  0  0  0  0  0  0  0  0  0  0  0
   -0.0686    1.2753    0.0000 F   0  0  0  0  0  0  0  0  0  0  0  0
    2.0175    0.8904    0.0000 C   0  0  0  0  0  0  0  0  0  0  0  0
   -0.4535   -0.8108    0.0000 C   0  0  0  0  0  0  0  0  0  0  0  0
   -1.8079   -0.1662    0.0000 C   0  0  0  0  0  0  0  0  0  0  0  0
   -1.9268    1.3291    0.0000 O   0  0  0  0  0  0  0  0  0  0  0  0
   -3.0434   -1.0168    0.0000 O   0  0  0  0  0  0  0  0  0  0  0  0
  1  2  1  0
  2  3  1  0
  3  4  1  0
  3  5  1  0
  3  6  1  0
  6  7  1  0
  7  8  2  0
  7  9  1  0
  5  1  1  0
M  END
>  <rName>  (3794) 
azetidin-3-yl_3F_Ac

>  <PQ_SYMBOL>  (3794) 
azetidin-3-yl_3F_Ac

>  <FULL_NAME>  (3794) 
2-(3-Fluoroazetidin-3-yl)acetic acid

>  <IUPAC_CONDENSED>  (3794) 
azetidin-3-yl(3-F)Ac

>  <IUPAC>  (3794) 
2-(3-fluoro-azetidin-3-yl)acetic acid

>  <TYPE>  (3794) 
Backbone

>  <CLASS>  (3794) 
gamma

>  <ANALOG>  (3794) 
X

>  <MOL_WT>  (3794) 
133.122

>  <LOGP>  (3794) 
-0.22740000000000032

>  <TPSA>  (3794) 
49.33

>  <POPULARITY>  (3794) 
2.8

>  <PROTECTED>  (3794) 
TRUE

>  <SMILES>  (3794) 
N1CC(F)(C1)CC(=O)O

>  <INCHIKEY>  (3794) 
QBEKNCADVSALIV-UHFFFAOYSA-N

$$$$
azetidin-3-yl_3Me_Pr
     RDKit          2D

 10 10  0  0  0  0  0  0  0  0999 V2000
   -2.6074   -1.4191    0.0000 N   0  0  0  0  0  0  0  0  0  0  0  0
   -2.9272    0.0464    0.0000 C   0  0  0  0  0  0  0  0  0  0  0  0
   -1.4617    0.3663    0.0000 C   0  0  0  0  0  0  0  0  0  0  0  0
   -1.7816    1.8318    0.0000 C   0  0  0  0  0  0  0  0  0  0  0  0
   -1.1419   -1.0992    0.0000 C   0  0  0  0  0  0  0  0  0  0  0  0
    0.0038    0.6862    0.0000 C   0  0  0  0  0  0  0  0  0  0  0  0
    1.0135   -0.4230    0.0000 C   0  0  0  0  0  0  0  0  0  0  0  0
    2.4790   -0.1031    0.0000 C   0  0  0  0  0  0  0  0  0  0  0  0
    2.9347    1.3260    0.0000 O   0  0  0  0  0  0  0  0  0  0  0  0
    3.4888   -1.2123    0.0000 O   0  0  0  0  0  0  0  0  0  0  0  0
  1  2  1  0
  2  3  1  0
  3  4  1  0
  3  5  1  0
  3  6  1  0
  6  7  1  0
  7  8  1  0
  8  9  2  0
  8 10  1  0
  5  1  1  0
M  END
>  <rName>  (3795) 
azetidin-3-yl_3Me_Pr

>  <PQ_SYMBOL>  (3795) 
azetidin-3-yl_3Me_Pr

>  <FULL_NAME>  (3795) 
3-(3-Methylazetidin-3-yl)propanoic acid

>  <IUPAC_CONDENSED>  (3795) 
azetidin-3-yl(3-Me)Pr

>  <IUPAC>  (3795) 
3-(3-methyl-azetidin-3-yl)propanoic acid

>  <TYPE>  (3795) 
Backbone

>  <CLASS>  (3795) 
delta

>  <ANALOG>  (3795) 
Ala

>  <MOL_WT>  (3795) 
143.186

>  <LOGP>  (3795) 
0.46069999999999983

>  <TPSA>  (3795) 
49.33

>  <POPULARITY>  (3795) 
5.8

>  <PROTECTED>  (3795) 
TRUE

>  <SMILES>  (3795) 
N1CC(C)(C1)CCC(=O)O

>  <INCHIKEY>  (3795) 
NDRFNSGQGOIMNV-UHFFFAOYSA-N

$$$$
azetidin-3-yl_3OH_Ac
     RDKit          2D

  9  9  0  0  0  0  0  0  0  0999 V2000
    2.8681   -0.3451    0.0000 N   0  0  0  0  0  0  0  0  0  0  0  0
    1.6326   -1.1957    0.0000 C   0  0  0  0  0  0  0  0  0  0  0  0
    0.7820    0.0398    0.0000 C   0  0  0  0  0  0  0  0  0  0  0  0
   -0.0686    1.2753    0.0000 O   0  0  0  0  0  0  0  0  0  0  0  0
    2.0175    0.8904    0.0000 C   0  0  0  0  0  0  0  0  0  0  0  0
   -0.4535   -0.8108    0.0000 C   0  0  0  0  0  0  0  0  0  0  0  0
   -1.8079   -0.1662    0.0000 C   0  0  0  0  0  0  0  0  0  0  0  0
   -1.9268    1.3291    0.0000 O   0  0  0  0  0  0  0  0  0  0  0  0
   -3.0434   -1.0168    0.0000 O   0  0  0  0  0  0  0  0  0  0  0  0
  1  2  1  0
  2  3  1  0
  3  4  1  0
  3  5  1  0
  3  6  1  0
  6  7  1  0
  7  8  2  0
  7  9  1  0
  5  1  1  0
M  END
>  <rName>  (3796) 
azetidin-3-yl_3OH_Ac

>  <PQ_SYMBOL>  (3796) 
azetidin-3-yl_3OH_Ac

>  <FULL_NAME>  (3796) 
2-(3-Hydroxyazetidin-3-yl)acetic acid

>  <IUPAC_CONDENSED>  (3796) 
azetidin-3-yl(3-OH)Ac

>  <IUPAC>  (3796) 
2-(3-hydroxy-azetidin-3-yl)acetic acid

>  <TYPE>  (3796) 
Backbone

>  <CLASS>  (3796) 
gamma

>  <ANALOG>  (3796) 
X

>  <MOL_WT>  (3796) 
131.131

>  <LOGP>  (3796) 
-1.2046000000000006

>  <TPSA>  (3796) 
69.56

>  <POPULARITY>  (3796) 
5.2

>  <PROTECTED>  (3796) 
TRUE

>  <SMILES>  (3796) 
N1CC(O)(C1)CC(=O)O

>  <INCHIKEY>  (3796) 
IJAMLRCIYUCTPK-UHFFFAOYSA-N

$$$$
azetidin-3-yl_3OMe_Ac
     RDKit          2D

 10 10  0  0  0  0  0  0  0  0999 V2000
    2.7590   -0.8103    0.0000 N   0  0  0  0  0  0  0  0  0  0  0  0
    1.4651   -1.5691    0.0000 C   0  0  0  0  0  0  0  0  0  0  0  0
    0.7063   -0.2751    0.0000 C   0  0  0  0  0  0  0  0  0  0  0  0
   -0.0525    1.0188    0.0000 O   0  0  0  0  0  0  0  0  0  0  0  0
    0.6887    2.3229    0.0000 C   0  0  0  0  0  0  0  0  0  0  0  0
    2.0002    0.4836    0.0000 C   0  0  0  0  0  0  0  0  0  0  0  0
   -0.5876   -1.0339    0.0000 C   0  0  0  0  0  0  0  0  0  0  0  0
   -1.8917   -0.2927    0.0000 C   0  0  0  0  0  0  0  0  0  0  0  0
   -1.9019    1.2072    0.0000 O   0  0  0  0  0  0  0  0  0  0  0  0
   -3.1856   -1.0515    0.0000 O   0  0  0  0  0  0  0  0  0  0  0  0
  1  2  1  0
  2  3  1  0
  3  4  1  0
  4  5  1  0
  3  6  1  0
  3  7  1  0
  7  8  1  0
  8  9  2  0
  8 10  1  0
  6  1  1  0
M  END
>  <rName>  (3797) 
azetidin-3-yl_3OMe_Ac

>  <PQ_SYMBOL>  (3797) 
azetidin-3-yl_3OMe_Ac

>  <FULL_NAME>  (3797) 
2-(3-Methoxyazetidin-3-yl)acetic acid

>  <IUPAC_CONDENSED>  (3797) 
azetidin-3-yl(3-OMe)Ac

>  <IUPAC>  (3797) 
2-(3-methoxy-azetidin-3-yl)acetic acid

>  <TYPE>  (3797) 
Backbone

>  <CLASS>  (3797) 
gamma

>  <ANALOG>  (3797) 
Ser

>  <MOL_WT>  (3797) 
145.15800000000002

>  <LOGP>  (3797) 
-0.5505000000000002

>  <TPSA>  (3797) 
58.56

>  <POPULARITY>  (3797) 
5.1

>  <PROTECTED>  (3797) 
TRUE

>  <SMILES>  (3797) 
N1CC(OC)(C1)CC(=O)O

>  <INCHIKEY>  (3797) 
MQWACXONDOABMC-UHFFFAOYSA-N

$$$$
azetidin-4-one-2-CO2H
     RDKit          2D

  8  8  0  0  0  0  0  0  0  0999 V2000
    3.3883   -0.0000    0.0000 O   0  0  0  0  0  0  0  0  0  0  0  0
    1.8883   -0.0000    0.0000 C   0  0  0  0  0  0  0  0  0  0  0  0
    0.8277   -1.0607    0.0000 C   0  0  0  0  0  0  0  0  0  0  0  0
   -0.2330   -0.0000    0.0000 C   0  0  0  0  0  0  0  0  0  0  0  0
    0.8277    1.0607    0.0000 N   0  0  0  0  0  0  0  0  0  0  0  0
   -1.7330    0.0000    0.0000 C   0  0  0  0  0  0  0  0  0  0  0  0
   -2.4830   -1.2990    0.0000 O   0  0  0  0  0  0  0  0  0  0  0  0
   -2.4830    1.2990    0.0000 O   0  0  0  0  0  0  0  0  0  0  0  0
  1  2  2  0
  2  3  1  0
  3  4  1  0
  4  5  1  0
  4  6  1  1
  6  7  2  0
  6  8  1  0
  5  2  1  0
M  END
>  <rName>  (3798) 
azetidin-4-one-2-CO2H

>  <PQ_SYMBOL>  (3798) 
azetidin-4-one-2-CO2H

>  <FULL_NAME>  (3798) 
(2S)-4-oxoazetidine-2-carboxylic acid

>  <IUPAC_CONDENSED>  (3798) 
azetidin-4-one-2-CO2H

>  <IUPAC>  (3798) 
(2S)-4-oxoazetidine-2-carboxylic acid

>  <TYPE>  (3798) 
N-term cap

>  <CLASS>  (3798) 
n_cap

>  <ANALOG>  (3798) 
X

>  <MOL_WT>  (3798) 
115.08799999999998

>  <LOGP>  (3798) 
-1.0405

>  <TPSA>  (3798) 
66.4

>  <POPULARITY>  (3798) 
10.3

>  <PROTECTED>  (3798) 
TRUE

>  <SMILES>  (3798) 
O=C1C[C@H](N1)C(=O)O

>  <INCHIKEY>  (3798) 
YSPMLLKKKHCTBN-REOHCLBHSA-N

$$$$
azetidine-3-CO2H
     RDKit          2D

  7  7  0  0  0  0  0  0  0  0999 V2000
    2.3724   -0.0000    0.0000 N   0  0  0  0  0  0  0  0  0  0  0  0
    1.3117   -1.0607    0.0000 C   0  0  0  0  0  0  0  0  0  0  0  0
    0.2511   -0.0000    0.0000 C   0  0  0  0  0  0  0  0  0  0  0  0
    1.3117    1.0607    0.0000 C   0  0  0  0  0  0  0  0  0  0  0  0
   -1.2489    0.0000    0.0000 C   0  0  0  0  0  0  0  0  0  0  0  0
   -1.9989   -1.2990    0.0000 O   0  0  0  0  0  0  0  0  0  0  0  0
   -1.9989    1.2990    0.0000 O   0  0  0  0  0  0  0  0  0  0  0  0
  1  2  1  0
  2  3  1  0
  3  4  1  0
  3  5  1  0
  5  6  2  0
  5  7  1  0
  4  1  1  0
M  END
>  <rName>  (3799) 
azetidine-3-CO2H

>  <PQ_SYMBOL>  (3799) 
azetidine-3-CO2H

>  <FULL_NAME>  (3799) 
azetidine-3-carboxylic acid

>  <IUPAC_CONDENSED>  (3799) 
azetidine-3-CO2H

>  <IUPAC>  (3799) 
azetidine-3-carboxylic acid

>  <TYPE>  (3799) 
Backbone

>  <CLASS>  (3799) 
beta

>  <ANALOG>  (3799) 
Ala

>  <MOL_WT>  (3799) 
101.10499999999999

>  <LOGP>  (3799) 
-0.7096000000000002

>  <TPSA>  (3799) 
49.33

>  <POPULARITY>  (3799) 
12.6

>  <PROTECTED>  (3799) 
TRUE

>  <SMILES>  (3799) 
N1CC(C1)C(=O)O

>  <INCHIKEY>  (3799) 
GFZWHAAOIVMHOI-UHFFFAOYSA-N

$$$$
azetidine-3-CO2H_3CH2CHF2
     RDKit          2D

 11 11  0  0  0  0  0  0  0  0999 V2000
    0.6453   -2.3363    0.0000 N   0  0  0  0  0  0  0  0  0  0  0  0
   -0.4674   -1.3304    0.0000 C   0  0  0  0  0  0  0  0  0  0  0  0
    0.5385   -0.2177    0.0000 C   0  0  0  0  0  0  0  0  0  0  0  0
    1.6512   -1.2236    0.0000 C   0  0  0  0  0  0  0  0  0  0  0  0
   -0.5742    0.7882    0.0000 C   0  0  0  0  0  0  0  0  0  0  0  0
   -2.0017    0.3276    0.0000 C   0  0  0  0  0  0  0  0  0  0  0  0
   -3.1144    1.3335    0.0000 F   0  0  0  0  0  0  0  0  0  0  0  0
   -2.3165   -1.1390    0.0000 F   0  0  0  0  0  0  0  0  0  0  0  0
    1.5444    0.8950    0.0000 C   0  0  0  0  0  0  0  0  0  0  0  0
    1.0838    2.3225    0.0000 O   0  0  0  0  0  0  0  0  0  0  0  0
    3.0110    0.5802    0.0000 O   0  0  0  0  0  0  0  0  0  0  0  0
  1  2  1  0
  2  3  1  0
  3  4  1  0
  3  5  1  0
  5  6  1  0
  6  7  1  0
  6  8  1  0
  3  9  1  0
  9 10  2  0
  9 11  1  0
  4  1  1  0
M  END
>  <rName>  (3800) 
azetidine-3-CO2H_3CH2CHF2

>  <PQ_SYMBOL>  (3800) 
azetidine-3-CO2H_3CH2CHF2

>  <FULL_NAME>  (3800) 
3-(2,2-Difluoroethyl)azetidine-3-carboxylic acid

>  <IUPAC_CONDENSED>  (3800) 
azetidine-3-CO2H(3-CH2CHF2)

>  <IUPAC>  (3800) 
3-(2,2-difluoroethyl)azetidine-3-carboxylic acid

>  <TYPE>  (3800) 
Backbone

>  <CLASS>  (3800) 
beta

>  <ANALOG>  (3800) 
X

>  <MOL_WT>  (3800) 
165.139

>  <LOGP>  (3800) 
0.3158

>  <TPSA>  (3800) 
49.33

>  <POPULARITY>  (3800) 
2.6

>  <PROTECTED>  (3800) 
TRUE

>  <SMILES>  (3800) 
N1CC(C1)(CC(F)F)C(=O)O

>  <INCHIKEY>  (3800) 
KVDITABIXXQVGJ-UHFFFAOYSA-N

$$$$
azetidine-3-CO2H_3CH2F
     RDKit          2D

  9  9  0  0  0  0  0  0  0  0999 V2000
    1.2625   -1.9405    0.0000 N   0  0  0  0  0  0  0  0  0  0  0  0
   -0.1942   -1.5827    0.0000 C   0  0  0  0  0  0  0  0  0  0  0  0
    0.1637   -0.1260    0.0000 C   0  0  0  0  0  0  0  0  0  0  0  0
    0.5215    1.3307    0.0000 C   0  0  0  0  0  0  0  0  0  0  0  0
    1.9619    1.7491    0.0000 F   0  0  0  0  0  0  0  0  0  0  0  0
    1.6204   -0.4838    0.0000 C   0  0  0  0  0  0  0  0  0  0  0  0
   -1.2930    0.2318    0.0000 C   0  0  0  0  0  0  0  0  0  0  0  0
   -2.3313   -0.8508    0.0000 O   0  0  0  0  0  0  0  0  0  0  0  0
   -1.7115    1.6723    0.0000 O   0  0  0  0  0  0  0  0  0  0  0  0
  1  2  1  0
  2  3  1  0
  3  4  1  0
  4  5  1  0
  3  6  1  0
  3  7  1  0
  7  8  2  0
  7  9  1  0
  6  1  1  0
M  END
>  <rName>  (3801) 
azetidine-3-CO2H_3CH2F

>  <PQ_SYMBOL>  (3801) 
azetidine-3-CO2H_3CH2F

>  <FULL_NAME>  (3801) 
3-(Fluoromethyl)azetidine-3-carboxylic acid

>  <IUPAC_CONDENSED>  (3801) 
azetidine-3-CO2H(3-CH2F)

>  <IUPAC>  (3801) 
3-(fluoromethyl)azetidine-3-carboxylic acid

>  <TYPE>  (3801) 
Backbone

>  <CLASS>  (3801) 
beta

>  <ANALOG>  (3801) 
X

>  <MOL_WT>  (3801) 
133.12199999999999

>  <LOGP>  (3801) 
-0.36989999999999995

>  <TPSA>  (3801) 
49.33

>  <POPULARITY>  (3801) 
2.9

>  <PROTECTED>  (3801) 
TRUE

>  <SMILES>  (3801) 
N1CC(CF)(C1)C(=O)O

>  <INCHIKEY>  (3801) 
SPIKXXPYVIKXMI-UHFFFAOYSA-N

$$$$
azetidine-3-CO2H_3CN
     RDKit          2D

  9  9  0  0  0  0  0  0  0  0999 V2000
    2.2803   -0.9692    0.0000 N   0  0  0  0  0  0  0  0  0  0  0  0
    0.9175   -1.5960    0.0000 C   0  0  0  0  0  0  0  0  0  0  0  0
    0.2907   -0.2332    0.0000 C   0  0  0  0  0  0  0  0  0  0  0  0
   -1.0721   -0.8600    0.0000 C   0  0  0  0  0  0  0  0  0  0  0  0
   -2.4348   -1.4868    0.0000 N   0  0  0  0  0  0  0  0  0  0  0  0
    1.6535    0.3936    0.0000 C   0  0  0  0  0  0  0  0  0  0  0  0
   -0.3361    1.1296    0.0000 C   0  0  0  0  0  0  0  0  0  0  0  0
   -1.8297    1.2681    0.0000 O   0  0  0  0  0  0  0  0  0  0  0  0
    0.5307    2.3538    0.0000 O   0  0  0  0  0  0  0  0  0  0  0  0
  1  2  1  0
  2  3  1  0
  3  4  1  0
  4  5  3  0
  3  6  1  0
  3  7  1  0
  7  8  2  0
  7  9  1  0
  6  1  1  0
M  END
>  <rName>  (3802) 
azetidine-3-CO2H_3CN

>  <PQ_SYMBOL>  (3802) 
azetidine-3-CO2H_3CN

>  <FULL_NAME>  (3802) 
3-Cyano-3-azetidinecarboxylic acid

>  <IUPAC_CONDENSED>  (3802) 
azetidine-3-CO2H(3-CN)

>  <IUPAC>  (3802) 
3-cyanoazetidine-3-carboxylic acid

>  <TYPE>  (3802) 
Backbone

>  <CLASS>  (3802) 
beta

>  <ANALOG>  (3802) 
X

>  <MOL_WT>  (3802) 
126.11499999999998

>  <LOGP>  (3802) 
-0.81582

>  <TPSA>  (3802) 
73.12

>  <POPULARITY>  (3802) 
3.5

>  <PROTECTED>  (3802) 
TRUE

>  <SMILES>  (3802) 
N1CC(C#N)(C1)C(=O)O

>  <INCHIKEY>  (3802) 
UXYXRPVBONLRAD-UHFFFAOYSA-N

$$$$
azetidine-3-CO2H_3Et
     RDKit          2D

  9  9  0  0  0  0  0  0  0  0999 V2000
   -2.5315    0.0986    0.0000 N   0  0  0  0  0  0  0  0  0  0  0  0
   -1.5492    1.2322    0.0000 C   0  0  0  0  0  0  0  0  0  0  0  0
   -0.4156    0.2498    0.0000 C   0  0  0  0  0  0  0  0  0  0  0  0
    0.5668    1.3834    0.0000 C   0  0  0  0  0  0  0  0  0  0  0  0
    2.0396    1.0995    0.0000 C   0  0  0  0  0  0  0  0  0  0  0  0
   -1.3979   -0.8838    0.0000 C   0  0  0  0  0  0  0  0  0  0  0  0
    0.7180   -0.7325    0.0000 C   0  0  0  0  0  0  0  0  0  0  0  0
    2.1355   -0.2419    0.0000 O   0  0  0  0  0  0  0  0  0  0  0  0
    0.4341   -2.2054    0.0000 O   0  0  0  0  0  0  0  0  0  0  0  0
  1  2  1  0
  2  3  1  0
  3  4  1  0
  4  5  1  0
  3  6  1  0
  3  7  1  0
  7  8  2  0
  7  9  1  0
  6  1  1  0
M  END
>  <rName>  (3803) 
azetidine-3-CO2H_3Et

>  <PQ_SYMBOL>  (3803) 
azetidine-3-CO2H_3Et

>  <FULL_NAME>  (3803) 
3-Ethylazetidine-3-carboxylic acid

>  <IUPAC_CONDENSED>  (3803) 
azetidine-3-CO2H(3-Et)

>  <IUPAC>  (3803) 
3-ethylazetidine-3-carboxylic acid

>  <TYPE>  (3803) 
Backbone

>  <CLASS>  (3803) 
beta

>  <ANALOG>  (3803) 
Val

>  <MOL_WT>  (3803) 
129.159

>  <LOGP>  (3803) 
0.07059999999999994

>  <TPSA>  (3803) 
49.33

>  <POPULARITY>  (3803) 
5.8

>  <PROTECTED>  (3803) 
TRUE

>  <SMILES>  (3803) 
N1CC(CC)(C1)C(=O)O

>  <INCHIKEY>  (3803) 
HCFIMLHWRVBLOE-UHFFFAOYSA-N

$$$$
azetidine-3-CO2H_3EtOMe
     RDKit          2D

 11 11  0  0  0  0  0  0  0  0999 V2000
    3.0909   -0.9277    0.0000 N   0  0  0  0  0  0  0  0  0  0  0  0
    1.7589   -1.6175    0.0000 C   0  0  0  0  0  0  0  0  0  0  0  0
    1.0692   -0.2854    0.0000 C   0  0  0  0  0  0  0  0  0  0  0  0
   -0.2629   -0.9752    0.0000 C   0  0  0  0  0  0  0  0  0  0  0  0
   -1.5262   -0.1665    0.0000 C   0  0  0  0  0  0  0  0  0  0  0  0
   -2.8582   -0.8562    0.0000 O   0  0  0  0  0  0  0  0  0  0  0  0
   -4.1215   -0.0475    0.0000 C   0  0  0  0  0  0  0  0  0  0  0  0
    2.4012    0.4043    0.0000 C   0  0  0  0  0  0  0  0  0  0  0  0
    0.3794    1.0466    0.0000 C   0  0  0  0  0  0  0  0  0  0  0  0
   -1.1190    1.1153    0.0000 O   0  0  0  0  0  0  0  0  0  0  0  0
    1.1881    2.3099    0.0000 O   0  0  0  0  0  0  0  0  0  0  0  0
  1  2  1  0
  2  3  1  0
  3  4  1  0
  4  5  1  0
  5  6  1  0
  6  7  1  0
  3  8  1  0
  3  9  1  0
  9 10  2  0
  9 11  1  0
  8  1  1  0
M  END
>  <rName>  (3804) 
azetidine-3-CO2H_3EtOMe

>  <PQ_SYMBOL>  (3804) 
azetidine-3-CO2H_3EtOMe

>  <FULL_NAME>  (3804) 
3-(2-Methoxyethyl)azetidine-3-carboxylic acid

>  <IUPAC_CONDENSED>  (3804) 
azetidine-3-CO2H(3-EtOMe)

>  <IUPAC>  (3804) 
3-(2-methoxyethyl)azetidine-3-carboxylic acid

>  <TYPE>  (3804) 
Backbone

>  <CLASS>  (3804) 
beta

>  <ANALOG>  (3804) 
Ser

>  <MOL_WT>  (3804) 
159.185

>  <LOGP>  (3804) 
-0.3029

>  <TPSA>  (3804) 
58.56

>  <POPULARITY>  (3804) 
2.9

>  <PROTECTED>  (3804) 
TRUE

>  <SMILES>  (3804) 
N1CC(CCOC)(C1)C(=O)O

>  <INCHIKEY>  (3804) 
OQPGBCATOVPRAI-UHFFFAOYSA-N

$$$$
azetidine-3-CO2H_3F
     RDKit          2D

  8  8  0  0  0  0  0  0  0  0999 V2000
    2.2283   -0.5223    0.0000 N   0  0  0  0  0  0  0  0  0  0  0  0
    0.8356   -1.0794    0.0000 C   0  0  0  0  0  0  0  0  0  0  0  0
    0.2785    0.3134    0.0000 C   0  0  0  0  0  0  0  0  0  0  0  0
   -0.2785    1.7061    0.0000 F   0  0  0  0  0  0  0  0  0  0  0  0
    1.6713    0.8704    0.0000 C   0  0  0  0  0  0  0  0  0  0  0  0
   -1.1142   -0.2437    0.0000 C   0  0  0  0  0  0  0  0  0  0  0  0
   -1.3281   -1.7284    0.0000 O   0  0  0  0  0  0  0  0  0  0  0  0
   -2.2930    0.6839    0.0000 O   0  0  0  0  0  0  0  0  0  0  0  0
  1  2  1  0
  2  3  1  0
  3  4  1  0
  3  5  1  0
  3  6  1  0
  6  7  2  0
  6  8  1  0
  5  1  1  0
M  END
>  <rName>  (3805) 
azetidine-3-CO2H_3F

>  <PQ_SYMBOL>  (3805) 
azetidine-3-CO2H_3F

>  <FULL_NAME>  (3805) 
3-Fluoro-3-azetidinecarboxylic acid

>  <IUPAC_CONDENSED>  (3805) 
azetidine-3-CO2H(3-F)

>  <IUPAC>  (3805) 
3-fluoroazetidine-3-carboxylic acid

>  <TYPE>  (3805) 
Backbone

>  <CLASS>  (3805) 
beta

>  <ANALOG>  (3805) 
X

>  <MOL_WT>  (3805) 
119.09499999999998

>  <LOGP>  (3805) 
-0.6175000000000002

>  <TPSA>  (3805) 
49.33

>  <POPULARITY>  (3805) 
5.1

>  <PROTECTED>  (3805) 
TRUE

>  <SMILES>  (3805) 
N1CC(F)(C1)C(=O)O

>  <INCHIKEY>  (3805) 
HIFHBCHSYYDAJN-UHFFFAOYSA-N

$$$$
azetidine-3-CO2H_3Me
     RDKit          2D

  8  8  0  0  0  0  0  0  0  0999 V2000
   -2.2283   -0.5223    0.0000 N   0  0  0  0  0  0  0  0  0  0  0  0
   -1.6713    0.8704    0.0000 C   0  0  0  0  0  0  0  0  0  0  0  0
   -0.2785    0.3134    0.0000 C   0  0  0  0  0  0  0  0  0  0  0  0
    0.2785    1.7061    0.0000 C   0  0  0  0  0  0  0  0  0  0  0  0
   -0.8356   -1.0794    0.0000 C   0  0  0  0  0  0  0  0  0  0  0  0
    1.1142   -0.2437    0.0000 C   0  0  0  0  0  0  0  0  0  0  0  0
    2.2930    0.6839    0.0000 O   0  0  0  0  0  0  0  0  0  0  0  0
    1.3281   -1.7284    0.0000 O   0  0  0  0  0  0  0  0  0  0  0  0
  1  2  1  0
  2  3  1  0
  3  4  1  0
  3  5  1  0
  3  6  1  0
  6  7  2  0
  6  8  1  0
  5  1  1  0
M  END
>  <rName>  (3806) 
azetidine-3-CO2H_3Me

>  <PQ_SYMBOL>  (3806) 
azetidine-3-CO2H_3Me

>  <FULL_NAME>  (3806) 
3-Methylazetidine-3-carboxylic acid

>  <IUPAC_CONDENSED>  (3806) 
azetidine-3-CO2H(3-Me)

>  <IUPAC>  (3806) 
3-methylazetidine-3-carboxylic acid

>  <TYPE>  (3806) 
Backbone

>  <CLASS>  (3806) 
beta

>  <ANALOG>  (3806) 
Ala

>  <MOL_WT>  (3806) 
115.13199999999998

>  <LOGP>  (3806) 
-0.31949999999999995

>  <TPSA>  (3806) 
49.33

>  <POPULARITY>  (3806) 
8.1

>  <PROTECTED>  (3806) 
TRUE

>  <SMILES>  (3806) 
N1CC(C)(C1)C(=O)O

>  <INCHIKEY>  (3806) 
KFNKFPRGDANMEX-UHFFFAOYSA-N

$$$$
azetidine-3-CO2H_3MeOH
     RDKit          2D

  9  9  0  0  0  0  0  0  0  0999 V2000
   -2.5315    0.0986    0.0000 N   0  0  0  0  0  0  0  0  0  0  0  0
   -1.5492    1.2322    0.0000 C   0  0  0  0  0  0  0  0  0  0  0  0
   -0.4156    0.2498    0.0000 C   0  0  0  0  0  0  0  0  0  0  0  0
    0.5668    1.3834    0.0000 C   0  0  0  0  0  0  0  0  0  0  0  0
    2.0396    1.0995    0.0000 O   0  0  0  0  0  0  0  0  0  0  0  0
   -1.3979   -0.8838    0.0000 C   0  0  0  0  0  0  0  0  0  0  0  0
    0.7180   -0.7325    0.0000 C   0  0  0  0  0  0  0  0  0  0  0  0
    2.1355   -0.2419    0.0000 O   0  0  0  0  0  0  0  0  0  0  0  0
    0.4341   -2.2054    0.0000 O   0  0  0  0  0  0  0  0  0  0  0  0
  1  2  1  0
  2  3  1  0
  3  4  1  0
  4  5  1  0
  3  6  1  0
  3  7  1  0
  7  8  2  0
  7  9  1  0
  6  1  1  0
M  END
>  <rName>  (3807) 
azetidine-3-CO2H_3MeOH

>  <PQ_SYMBOL>  (3807) 
azetidine-3-CO2H_3MeOH

>  <FULL_NAME>  (3807) 
3-(Hydroxymethyl)azetidine-3-carboxylic acid

>  <IUPAC_CONDENSED>  (3807) 
azetidine-3-CO2H(3-MeOH)

>  <IUPAC>  (3807) 
3-(hydroxymethyl)azetidine-3-carboxylic acid

>  <TYPE>  (3807) 
Backbone

>  <CLASS>  (3807) 
beta

>  <ANALOG>  (3807) 
Ser

>  <MOL_WT>  (3807) 
131.131

>  <LOGP>  (3807) 
-1.3470999999999997

>  <TPSA>  (3807) 
69.56

>  <POPULARITY>  (3807) 
4.4

>  <PROTECTED>  (3807) 
TRUE

>  <SMILES>  (3807) 
N1CC(CO)(C1)C(=O)O

>  <INCHIKEY>  (3807) 
CTKOKGGHIAYFMP-UHFFFAOYSA-N

$$$$
azetidine-3-CO2H_3MeOMe
     RDKit          2D

 10 10  0  0  0  0  0  0  0  0999 V2000
    2.6896   -0.9006    0.0000 N   0  0  0  0  0  0  0  0  0  0  0  0
    1.3659   -1.6061    0.0000 C   0  0  0  0  0  0  0  0  0  0  0  0
    0.6604   -0.2824    0.0000 C   0  0  0  0  0  0  0  0  0  0  0  0
    1.9842    0.4231    0.0000 C   0  0  0  0  0  0  0  0  0  0  0  0
   -0.6633   -0.9879    0.0000 C   0  0  0  0  0  0  0  0  0  0  0  0
   -1.9362   -0.1942    0.0000 O   0  0  0  0  0  0  0  0  0  0  0  0
   -3.2599   -0.8997    0.0000 C   0  0  0  0  0  0  0  0  0  0  0  0
   -0.0451    1.0414    0.0000 C   0  0  0  0  0  0  0  0  0  0  0  0
   -1.5442    1.0922    0.0000 O   0  0  0  0  0  0  0  0  0  0  0  0
    0.7486    2.3142    0.0000 O   0  0  0  0  0  0  0  0  0  0  0  0
  1  2  1  0
  2  3  1  0
  3  4  1  0
  3  5  1  0
  5  6  1  0
  6  7  1  0
  3  8  1  0
  8  9  2  0
  8 10  1  0
  4  1  1  0
M  END
>  <rName>  (3808) 
azetidine-3-CO2H_3MeOMe

>  <PQ_SYMBOL>  (3808) 
azetidine-3-CO2H_3MeOMe

>  <FULL_NAME>  (3808) 
3-(Methoxymethyl)azetidine-3-carboxylic acid

>  <IUPAC_CONDENSED>  (3808) 
azetidine-3-CO2H(3-MeOMe)

>  <IUPAC>  (3808) 
3-(methoxymethyl)azetidine-3-carboxylic acid

>  <TYPE>  (3808) 
Backbone

>  <CLASS>  (3808) 
beta

>  <ANALOG>  (3808) 
Ser

>  <MOL_WT>  (3808) 
145.158

>  <LOGP>  (3808) 
-0.6929999999999998

>  <TPSA>  (3808) 
58.56

>  <POPULARITY>  (3808) 
3.7

>  <PROTECTED>  (3808) 
TRUE

>  <SMILES>  (3808) 
N1CC(C1)(COC)C(=O)O

>  <INCHIKEY>  (3808) 
JCLRGYAJXCZPHQ-UHFFFAOYSA-N

$$$$
azetidine-3-CO2H_3OEt
     RDKit          2D

 10 10  0  0  0  0  0  0  0  0999 V2000
   -0.9469   -2.2974    0.0000 N   0  0  0  0  0  0  0  0  0  0  0  0
   -1.6809   -0.9892    0.0000 C   0  0  0  0  0  0  0  0  0  0  0  0
   -0.3728   -0.2552    0.0000 C   0  0  0  0  0  0  0  0  0  0  0  0
    0.9354    0.4787    0.0000 O   0  0  0  0  0  0  0  0  0  0  0  0
    2.2251   -0.2871    0.0000 C   0  0  0  0  0  0  0  0  0  0  0  0
    3.5333    0.4468    0.0000 C   0  0  0  0  0  0  0  0  0  0  0  0
    0.3612   -1.5634    0.0000 C   0  0  0  0  0  0  0  0  0  0  0  0
   -1.1068    1.0529    0.0000 C   0  0  0  0  0  0  0  0  0  0  0  0
   -2.6067    1.0713    0.0000 O   0  0  0  0  0  0  0  0  0  0  0  0
   -0.3409    2.3426    0.0000 O   0  0  0  0  0  0  0  0  0  0  0  0
  1  2  1  0
  2  3  1  0
  3  4  1  0
  4  5  1  0
  5  6  1  0
  3  7  1  0
  3  8  1  0
  8  9  2  0
  8 10  1  0
  7  1  1  0
M  END
>  <rName>  (3809) 
azetidine-3-CO2H_3OEt

>  <PQ_SYMBOL>  (3809) 
azetidine-3-CO2H_3OEt

>  <FULL_NAME>  (3809) 
3-Ethoxyazetidine-3-carboxylic acid

>  <IUPAC_CONDENSED>  (3809) 
azetidine-3-CO2H(3-OEt)

>  <IUPAC>  (3809) 
3-ethoxyazetidine-3-carboxylic acid

>  <TYPE>  (3809) 
Backbone

>  <CLASS>  (3809) 
beta

>  <ANALOG>  (3809) 
Ser

>  <MOL_WT>  (3809) 
145.15800000000002

>  <LOGP>  (3809) 
-0.5505000000000002

>  <TPSA>  (3809) 
58.56

>  <POPULARITY>  (3809) 
3.8

>  <PROTECTED>  (3809) 
TRUE

>  <SMILES>  (3809) 
N1CC(OCC)(C1)C(=O)O

>  <INCHIKEY>  (3809) 
RLENEUIXGITAMT-UHFFFAOYSA-N

$$$$
azetidine-3-CO2H_3OH
     RDKit          2D

  8  8  0  0  0  0  0  0  0  0999 V2000
    2.2283   -0.5223    0.0000 N   0  0  0  0  0  0  0  0  0  0  0  0
    0.8356   -1.0794    0.0000 C   0  0  0  0  0  0  0  0  0  0  0  0
    0.2785    0.3134    0.0000 C   0  0  0  0  0  0  0  0  0  0  0  0
   -0.2785    1.7061    0.0000 O   0  0  0  0  0  0  0  0  0  0  0  0
    1.6713    0.8704    0.0000 C   0  0  0  0  0  0  0  0  0  0  0  0
   -1.1142   -0.2437    0.0000 C   0  0  0  0  0  0  0  0  0  0  0  0
   -1.3281   -1.7284    0.0000 O   0  0  0  0  0  0  0  0  0  0  0  0
   -2.2930    0.6839    0.0000 O   0  0  0  0  0  0  0  0  0  0  0  0
  1  2  1  0
  2  3  1  0
  3  4  1  0
  3  5  1  0
  3  6  1  0
  6  7  2  0
  6  8  1  0
  5  1  1  0
M  END
>  <rName>  (3810) 
azetidine-3-CO2H_3OH

>  <PQ_SYMBOL>  (3810) 
azetidine-3-CO2H_3OH

>  <FULL_NAME>  (3810) 
3-Hydroxyazetidine-3-carboxylic acid

>  <IUPAC_CONDENSED>  (3810) 
azetidine-3-CO2H(3-OH)

>  <IUPAC>  (3810) 
3-hydroxyazetidine-3-carboxylic acid

>  <TYPE>  (3810) 
Backbone

>  <CLASS>  (3810) 
beta

>  <ANALOG>  (3810) 
X

>  <MOL_WT>  (3810) 
117.10399999999998

>  <LOGP>  (3810) 
-1.5946999999999998

>  <TPSA>  (3810) 
69.56

>  <POPULARITY>  (3810) 
5.8

>  <PROTECTED>  (3810) 
TRUE

>  <SMILES>  (3810) 
N1CC(O)(C1)C(=O)O

>  <INCHIKEY>  (3810) 
CQFLYEKKMHZALH-UHFFFAOYSA-N

$$$$
azetidine-3-CO2H_3OMe
     RDKit          2D

  9  9  0  0  0  0  0  0  0  0999 V2000
    1.2625   -1.9405    0.0000 N   0  0  0  0  0  0  0  0  0  0  0  0
   -0.1942   -1.5827    0.0000 C   0  0  0  0  0  0  0  0  0  0  0  0
    0.1637   -0.1260    0.0000 C   0  0  0  0  0  0  0  0  0  0  0  0
    0.5215    1.3307    0.0000 O   0  0  0  0  0  0  0  0  0  0  0  0
    1.9619    1.7491    0.0000 C   0  0  0  0  0  0  0  0  0  0  0  0
    1.6204   -0.4838    0.0000 C   0  0  0  0  0  0  0  0  0  0  0  0
   -1.2930    0.2318    0.0000 C   0  0  0  0  0  0  0  0  0  0  0  0
   -2.3313   -0.8508    0.0000 O   0  0  0  0  0  0  0  0  0  0  0  0
   -1.7115    1.6723    0.0000 O   0  0  0  0  0  0  0  0  0  0  0  0
  1  2  1  0
  2  3  1  0
  3  4  1  0
  4  5  1  0
  3  6  1  0
  3  7  1  0
  7  8  2  0
  7  9  1  0
  6  1  1  0
M  END
>  <rName>  (3811) 
azetidine-3-CO2H_3OMe

>  <PQ_SYMBOL>  (3811) 
azetidine-3-CO2H_3OMe

>  <FULL_NAME>  (3811) 
3-Methoxyazetidine-3-carboxylic acid

>  <IUPAC_CONDENSED>  (3811) 
azetidine-3-CO2H(3-OMe)

>  <IUPAC>  (3811) 
3-methoxyazetidine-3-carboxylic acid

>  <TYPE>  (3811) 
Backbone

>  <CLASS>  (3811) 
beta

>  <ANALOG>  (3811) 
Ser

>  <MOL_WT>  (3811) 
131.131

>  <LOGP>  (3811) 
-0.9406000000000001

>  <TPSA>  (3811) 
58.56

>  <POPULARITY>  (3811) 
5.5

>  <PROTECTED>  (3811) 
TRUE

>  <SMILES>  (3811) 
N1CC(OC)(C1)C(=O)O

>  <INCHIKEY>  (3811) 
SYOIGABPTOWTOE-UHFFFAOYSA-N

$$$$
azetidine-3-CO2H_3Ph_2F
     RDKit          2D

 14 15  0  0  0  0  0  0  0  0999 V2000
   -2.5137    1.7868    0.0000 N   0  0  0  0  0  0  0  0  0  0  0  0
   -1.0211    1.6381    0.0000 C   0  0  0  0  0  0  0  0  0  0  0  0
   -1.1699    0.1455    0.0000 C   0  0  0  0  0  0  0  0  0  0  0  0
   -2.6625    0.2942    0.0000 C   0  0  0  0  0  0  0  0  0  0  0  0
    0.3227   -0.0033    0.0000 C   0  0  0  0  0  0  0  0  0  0  0  0
    0.9401   -1.3703    0.0000 C   0  0  0  0  0  0  0  0  0  0  0  0
    2.4327   -1.5191    0.0000 C   0  0  0  0  0  0  0  0  0  0  0  0
    3.3079   -0.3009    0.0000 C   0  0  0  0  0  0  0  0  0  0  0  0
    2.6904    1.0661    0.0000 C   0  0  0  0  0  0  0  0  0  0  0  0
    1.1978    1.2149    0.0000 C   0  0  0  0  0  0  0  0  0  0  0  0
    0.5804    2.5820    0.0000 F   0  0  0  0  0  0  0  0  0  0  0  0
   -1.3187   -1.3471    0.0000 C   0  0  0  0  0  0  0  0  0  0  0  0
   -0.1005   -2.2223    0.0000 O   0  0  0  0  0  0  0  0  0  0  0  0
   -2.6857   -1.9646    0.0000 O   0  0  0  0  0  0  0  0  0  0  0  0
  1  2  1  0
  2  3  1  0
  3  4  1  0
  3  5  1  0
  5  6  2  0
  6  7  1  0
  7  8  2  0
  8  9  1  0
  9 10  2  0
 10 11  1  0
  3 12  1  0
 12 13  2  0
 12 14  1  0
  4  1  1  0
 10  5  1  0
M  END
>  <rName>  (3812) 
azetidine-3-CO2H_3Ph_2F

>  <PQ_SYMBOL>  (3812) 
azetidine-3-CO2H_3Ph_2F

>  <FULL_NAME>  (3812) 
azetidine-3-CO2H(3-Ph(2-F))

>  <IUPAC_CONDENSED>  (3812) 
azetidine-3-CO2H(3-Ph(2-F))

>  <IUPAC>  (3812) 
3-(2-fluorophenyl)azetidine-3-carboxylic acid

>  <TYPE>  (3812) 
Backbone

>  <CLASS>  (3812) 
beta

>  <ANALOG>  (3812) 
X

>  <MOL_WT>  (3812) 
195.19299999999996

>  <LOGP>  (3812) 
0.7512999999999999

>  <TPSA>  (3812) 
49.33

>  <POPULARITY>  (3812) 
2.2

>  <PROTECTED>  (3812) 
TRUE

>  <SMILES>  (3812) 
N1CC(C1)(c2(ccccc2F))C(=O)O

>  <INCHIKEY>  (3812) 
KUSABNBSDCNYDS-UHFFFAOYSA-N

$$$$
azetidine-3-CO2H_3Ph_3F
     RDKit          2D

 14 15  0  0  0  0  0  0  0  0999 V2000
   -2.3487    2.2779    0.0000 N   0  0  0  0  0  0  0  0  0  0  0  0
   -0.9088    1.8577    0.0000 C   0  0  0  0  0  0  0  0  0  0  0  0
   -1.3290    0.4178    0.0000 C   0  0  0  0  0  0  0  0  0  0  0  0
   -2.7690    0.8380    0.0000 C   0  0  0  0  0  0  0  0  0  0  0  0
    0.1109   -0.0025    0.0000 C   0  0  0  0  0  0  0  0  0  0  0  0
    0.4669   -1.4596    0.0000 C   0  0  0  0  0  0  0  0  0  0  0  0
    1.9069   -1.8798    0.0000 C   0  0  0  0  0  0  0  0  0  0  0  0
    2.9908   -0.8429    0.0000 C   0  0  0  0  0  0  0  0  0  0  0  0
    2.6347    0.6142    0.0000 C   0  0  0  0  0  0  0  0  0  0  0  0
    3.7186    1.6511    0.0000 F   0  0  0  0  0  0  0  0  0  0  0  0
    1.1948    1.0344    0.0000 C   0  0  0  0  0  0  0  0  0  0  0  0
   -1.7493   -1.0222    0.0000 C   0  0  0  0  0  0  0  0  0  0  0  0
   -0.7124   -2.1061    0.0000 O   0  0  0  0  0  0  0  0  0  0  0  0
   -3.2064   -1.3782    0.0000 O   0  0  0  0  0  0  0  0  0  0  0  0
  1  2  1  0
  2  3  1  0
  3  4  1  0
  3  5  1  0
  5  6  2  0
  6  7  1  0
  7  8  2  0
  8  9  1  0
  9 10  1  0
  9 11  2  0
  3 12  1  0
 12 13  2  0
 12 14  1  0
  4  1  1  0
 11  5  1  0
M  END
>  <rName>  (3813) 
azetidine-3-CO2H_3Ph_3F

>  <PQ_SYMBOL>  (3813) 
azetidine-3-CO2H_3Ph_3F

>  <FULL_NAME>  (3813) 
azetidine-3-CO2H(3-Ph(3-F))

>  <IUPAC_CONDENSED>  (3813) 
azetidine-3-CO2H(3-Ph(3-F))

>  <IUPAC>  (3813) 
3-(3-fluorophenyl)azetidine-3-carboxylic acid

>  <TYPE>  (3813) 
Backbone

>  <CLASS>  (3813) 
beta

>  <ANALOG>  (3813) 
X

>  <MOL_WT>  (3813) 
195.19299999999996

>  <LOGP>  (3813) 
0.7512999999999999

>  <TPSA>  (3813) 
49.33

>  <POPULARITY>  (3813) 
2.2

>  <PROTECTED>  (3813) 
TRUE

>  <SMILES>  (3813) 
N1CC(C1)(c2(cccc(F)c2))C(=O)O

>  <INCHIKEY>  (3813) 
RUCKBKAOYZRMJZ-UHFFFAOYSA-N

$$$$
azocan-5-ylAc
     RDKit          2D

 12 12  0  0  0  0  0  0  0  0999 V2000
   -3.3413   -0.5779    0.0000 N   0  0  0  0  0  0  0  0  0  0  0  0
   -3.2014    0.9156    0.0000 C   0  0  0  0  0  0  0  0  0  0  0  0
   -2.0464    1.8727    0.0000 C   0  0  0  0  0  0  0  0  0  0  0  0
   -0.5530    1.7328    0.0000 C   0  0  0  0  0  0  0  0  0  0  0  0
    0.4041    0.5779    0.0000 C   0  0  0  0  0  0  0  0  0  0  0  0
    0.2643   -0.9156    0.0000 C   0  0  0  0  0  0  0  0  0  0  0  0
   -0.8907   -1.8727    0.0000 C   0  0  0  0  0  0  0  0  0  0  0  0
   -2.3842   -1.7328    0.0000 C   0  0  0  0  0  0  0  0  0  0  0  0
    1.8375    1.0201    0.0000 C   0  0  0  0  0  0  0  0  0  0  0  0
    2.9371   -0.0000    0.0000 C   0  0  0  0  0  0  0  0  0  0  0  0
    2.6035   -1.4624    0.0000 O   0  0  0  0  0  0  0  0  0  0  0  0
    4.3705    0.4423    0.0000 O   0  0  0  0  0  0  0  0  0  0  0  0
  1  2  1  0
  2  3  1  0
  3  4  1  0
  4  5  1  0
  5  6  1  0
  6  7  1  0
  7  8  1  0
  5  9  1  0
  9 10  1  0
 10 11  2  0
 10 12  1  0
  8  1  1  0
M  END
>  <rName>  (3814) 
azocan-5-ylAc

>  <PQ_SYMBOL>  (3814) 
azocan-5-ylAc

>  <FULL_NAME>  (3814) 
2-(Azocan-5-yl)acetic acid

>  <IUPAC_CONDENSED>  (3814) 
azocan-5-ylAc

>  <IUPAC>  (3814) 
2-(1-azacyclooctan-5-yl)acetic acid

>  <TYPE>  (3814) 
Backbone

>  <CLASS>  (3814) 
epsilon

>  <ANALOG>  (3814) 
Pro

>  <MOL_WT>  (3814) 
171.24

>  <LOGP>  (3814) 
1.2409000000000001

>  <TPSA>  (3814) 
49.33

>  <POPULARITY>  (3814) 
6.1

>  <PROTECTED>  (3814) 
TRUE

>  <SMILES>  (3814) 
N1CCCC(CCC1)CC(=O)O

>  <INCHIKEY>  (3814) 
OIBBNZLVAZSUQZ-UHFFFAOYSA-N

$$$$
azocane-5-CO2H
     RDKit          2D

 11 11  0  0  0  0  0  0  0  0999 V2000
    3.0398   -0.0000    0.0000 N   0  0  0  0  0  0  0  0  0  0  0  0
    2.4658   -1.3858    0.0000 C   0  0  0  0  0  0  0  0  0  0  0  0
    1.0800   -1.9598    0.0000 C   0  0  0  0  0  0  0  0  0  0  0  0
   -0.3059   -1.3858    0.0000 C   0  0  0  0  0  0  0  0  0  0  0  0
   -0.8799    0.0000    0.0000 C   0  0  0  0  0  0  0  0  0  0  0  0
   -0.3059    1.3858    0.0000 C   0  0  0  0  0  0  0  0  0  0  0  0
    1.0800    1.9598    0.0000 C   0  0  0  0  0  0  0  0  0  0  0  0
    2.4658    1.3858    0.0000 C   0  0  0  0  0  0  0  0  0  0  0  0
   -2.3799    0.0000    0.0000 C   0  0  0  0  0  0  0  0  0  0  0  0
   -3.1299   -1.2990    0.0000 O   0  0  0  0  0  0  0  0  0  0  0  0
   -3.1299    1.2990    0.0000 O   0  0  0  0  0  0  0  0  0  0  0  0
  1  2  1  0
  2  3  1  0
  3  4  1  0
  4  5  1  0
  5  6  1  0
  6  7  1  0
  7  8  1  0
  5  9  1  0
  9 10  2  0
  9 11  1  0
  8  1  1  0
M  END
>  <rName>  (3815) 
azocane-5-CO2H

>  <PQ_SYMBOL>  (3815) 
azocane-5-CO2H

>  <FULL_NAME>  (3815) 
Azocane-5-carboxylic acid

>  <IUPAC_CONDENSED>  (3815) 
azocane-5-CO2H

>  <IUPAC>  (3815) 
1-azacyclooctane-5-carboxylic acid

>  <TYPE>  (3815) 
Backbone

>  <CLASS>  (3815) 
delta

>  <ANALOG>  (3815) 
Pro

>  <MOL_WT>  (3815) 
157.213

>  <LOGP>  (3815) 
0.8507999999999998

>  <TPSA>  (3815) 
49.33

>  <POPULARITY>  (3815) 
7.0

>  <PROTECTED>  (3815) 
TRUE

>  <SMILES>  (3815) 
N1CCCC(CCC1)C(=O)O

>  <INCHIKEY>  (3815) 
REDKJPXXOWMWEM-UHFFFAOYSA-N

$$$$
b-3-oxa-Ac4c
     RDKit          2D

  9  9  0  0  0  0  0  0  0  0999 V2000
    0.0686   -1.2753    0.0000 N   0  0  0  0  0  0  0  0  0  0  0  0
   -0.7820   -0.0398    0.0000 C   0  0  0  0  0  0  0  0  0  0  0  0
   -2.0175   -0.8904    0.0000 C   0  0  0  0  0  0  0  0  0  0  0  0
   -2.8681    0.3451    0.0000 O   0  0  0  0  0  0  0  0  0  0  0  0
   -1.6326    1.1957    0.0000 C   0  0  0  0  0  0  0  0  0  0  0  0
    0.4535    0.8108    0.0000 C   0  0  0  0  0  0  0  0  0  0  0  0
    1.8079    0.1662    0.0000 C   0  0  0  0  0  0  0  0  0  0  0  0
    1.9268   -1.3291    0.0000 O   0  0  0  0  0  0  0  0  0  0  0  0
    3.0434    1.0168    0.0000 O   0  0  0  0  0  0  0  0  0  0  0  0
  1  2  1  0
  2  3  1  0
  3  4  1  0
  4  5  1  0
  2  6  1  0
  6  7  1  0
  7  8  2  0
  7  9  1  0
  5  2  1  0
M  END
>  <rName>  (3816) 
b-3-oxa-Ac4c

>  <PQ_SYMBOL>  (3816) 
b-3-oxa-Ac4c

>  <FULL_NAME>  (3816) 
2-(3-aminooxetan-3-yl)acetic acid

>  <IUPAC_CONDENSED>  (3816) 
b-3-oxa-Ac4c

>  <IUPAC>  (3816) 
2-(3-amino-1-oxacyclobutan-3-yl)acetic acid

>  <TYPE>  (3816) 
Backbone

>  <CLASS>  (3816) 
beta

>  <ANALOG>  (3816) 
Ser

>  <MOL_WT>  (3816) 
131.131

>  <LOGP>  (3816) 
-0.8112000000000004

>  <TPSA>  (3816) 
72.55

>  <POPULARITY>  (3816) 
5.3

>  <PROTECTED>  (3816) 
TRUE

>  <SMILES>  (3816) 
NC1(COC1)CC(=O)O

>  <INCHIKEY>  (3816) 
JWDQOMXRJMVQIQ-UHFFFAOYSA-N

$$$$
b-3-oxa-Ac6c
     RDKit          2D

 11 11  0  0  0  0  0  0  0  0999 V2000
    0.8408   -1.1159    0.0000 N   0  0  0  0  0  0  0  0  0  0  0  0
   -0.2224   -0.0578    0.0000 C   0  0  0  0  0  0  0  0  0  0  0  0
   -1.0798   -1.2885    0.0000 C   0  0  0  0  0  0  0  0  0  0  0  0
   -2.5744   -1.1613    0.0000 C   0  0  0  0  0  0  0  0  0  0  0  0
   -3.2116    0.1967    0.0000 C   0  0  0  0  0  0  0  0  0  0  0  0
   -2.3541    1.4274    0.0000 O   0  0  0  0  0  0  0  0  0  0  0  0
   -0.8595    1.3002    0.0000 C   0  0  0  0  0  0  0  0  0  0  0  0
    1.0043    0.8055    0.0000 C   0  0  0  0  0  0  0  0  0  0  0  0
    2.3653    0.1748    0.0000 C   0  0  0  0  0  0  0  0  0  0  0  0
    2.4995   -1.3192    0.0000 O   0  0  0  0  0  0  0  0  0  0  0  0
    3.5920    1.0381    0.0000 O   0  0  0  0  0  0  0  0  0  0  0  0
  1  2  1  0
  2  3  1  0
  3  4  1  0
  4  5  1  0
  5  6  1  0
  6  7  1  0
  2  8  1  0
  8  9  1  0
  9 10  2  0
  9 11  1  0
  7  2  1  0
M  END
>  <rName>  (3817) 
b-3-oxa-Ac6c

>  <PQ_SYMBOL>  (3817) 
b-3-oxa-Ac6c

>  <FULL_NAME>  (3817) 
2-(3-Aminooxan-3-yl)acetic acid

>  <IUPAC_CONDENSED>  (3817) 
b-3-oxa-Ac6c

>  <IUPAC>  (3817) 
2-(3-amino-oxan-3-yl)acetic acid

>  <TYPE>  (3817) 
Backbone

>  <CLASS>  (3817) 
beta

>  <ANALOG>  (3817) 
Ser

>  <MOL_WT>  (3817) 
159.185

>  <LOGP>  (3817) 
-0.031000000000000194

>  <TPSA>  (3817) 
72.55

>  <POPULARITY>  (3817) 
3.7

>  <PROTECTED>  (3817) 
TRUE

>  <SMILES>  (3817) 
NC1(CCCOC1)CC(=O)O

>  <INCHIKEY>  (3817) 
KKOAGCQXFCPYMD-UHFFFAOYSA-N

$$$$
b-4-aza-Ac6c
     RDKit          2D

 11 11  0  0  0  0  0  0  0  0999 V2000
    0.8408   -1.1159    0.0000 N   0  0  0  0  0  0  0  0  0  0  0  0
   -0.2224   -0.0578    0.0000 C   0  0  0  0  0  0  0  0  0  0  0  0
   -1.0798   -1.2885    0.0000 C   0  0  0  0  0  0  0  0  0  0  0  0
   -2.5744   -1.1613    0.0000 C   0  0  0  0  0  0  0  0  0  0  0  0
   -3.2116    0.1967    0.0000 N   0  0  0  0  0  0  0  0  0  0  0  0
   -2.3541    1.4274    0.0000 C   0  0  0  0  0  0  0  0  0  0  0  0
   -0.8595    1.3002    0.0000 C   0  0  0  0  0  0  0  0  0  0  0  0
    1.0043    0.8055    0.0000 C   0  0  0  0  0  0  0  0  0  0  0  0
    2.3653    0.1748    0.0000 C   0  0  0  0  0  0  0  0  0  0  0  0
    2.4995   -1.3192    0.0000 O   0  0  0  0  0  0  0  0  0  0  0  0
    3.5920    1.0381    0.0000 O   0  0  0  0  0  0  0  0  0  0  0  0
  1  2  1  0
  2  3  1  0
  3  4  1  0
  4  5  1  0
  5  6  1  0
  6  7  1  0
  2  8  1  0
  8  9  1  0
  9 10  2  0
  9 11  1  0
  7  2  1  0
M  END
>  <rName>  (3818) 
b-4-aza-Ac6c

>  <PQ_SYMBOL>  (3818) 
b-4-aza-Ac6c

>  <FULL_NAME>  (3818) 
2-(4-aminopiperidin-4-yl)acetic acid

>  <IUPAC_CONDENSED>  (3818) 
b-4-aza-Ac6c

>  <IUPAC>  (3818) 
2-(4-aminopiperidin-4-yl)acetic acid

>  <TYPE>  (3818) 
Backbone

>  <CLASS>  (3818) 
beta

>  <ANALOG>  (3818) 
X

>  <MOL_WT>  (3818) 
158.201

>  <LOGP>  (3818) 
-0.45800000000000046

>  <TPSA>  (3818) 
75.35

>  <POPULARITY>  (3818) 
8.7

>  <PROTECTED>  (3818) 
TRUE

>  <SMILES>  (3818) 
NC1(CCNCC1)CC(=O)O

>  <INCHIKEY>  (3818) 
RYPZAKWOLNJEHN-UHFFFAOYSA-N

$$$$
b-4-oxa-Ac6c
     RDKit          2D

 11 11  0  0  0  0  0  0  0  0999 V2000
    0.8408   -1.1159    0.0000 N   0  0  0  0  0  0  0  0  0  0  0  0
   -0.2224   -0.0578    0.0000 C   0  0  0  0  0  0  0  0  0  0  0  0
   -1.0798   -1.2885    0.0000 C   0  0  0  0  0  0  0  0  0  0  0  0
   -2.5744   -1.1613    0.0000 C   0  0  0  0  0  0  0  0  0  0  0  0
   -3.2116    0.1967    0.0000 O   0  0  0  0  0  0  0  0  0  0  0  0
   -2.3541    1.4274    0.0000 C   0  0  0  0  0  0  0  0  0  0  0  0
   -0.8595    1.3002    0.0000 C   0  0  0  0  0  0  0  0  0  0  0  0
    1.0043    0.8055    0.0000 C   0  0  0  0  0  0  0  0  0  0  0  0
    2.3653    0.1748    0.0000 C   0  0  0  0  0  0  0  0  0  0  0  0
    2.4995   -1.3192    0.0000 O   0  0  0  0  0  0  0  0  0  0  0  0
    3.5920    1.0381    0.0000 O   0  0  0  0  0  0  0  0  0  0  0  0
  1  2  1  0
  2  3  1  0
  3  4  1  0
  4  5  1  0
  5  6  1  0
  6  7  1  0
  2  8  1  0
  8  9  1  0
  9 10  2  0
  9 11  1  0
  7  2  1  0
M  END
>  <rName>  (3819) 
b-4-oxa-Ac6c

>  <PQ_SYMBOL>  (3819) 
b-4-oxa-Ac6c

>  <FULL_NAME>  (3819) 
2-(4-aminotetrahydro-2H-pyran-4-yl)acetic acid

>  <IUPAC_CONDENSED>  (3819) 
b-4-oxa-Ac6c

>  <IUPAC>  (3819) 
2-(4-amino-oxan-4-yl)acetic acid

>  <TYPE>  (3819) 
Backbone

>  <CLASS>  (3819) 
beta

>  <ANALOG>  (3819) 
Ser

>  <MOL_WT>  (3819) 
159.185

>  <LOGP>  (3819) 
-0.031000000000000638

>  <TPSA>  (3819) 
72.55

>  <POPULARITY>  (3819) 
8.6

>  <PROTECTED>  (3819) 
TRUE

>  <SMILES>  (3819) 
NC1(CCOCC1)CC(=O)O

>  <INCHIKEY>  (3819) 
QRIAWCUEIMQLGG-UHFFFAOYSA-N

$$$$
b-4-thia-Ac6c
     RDKit          2D

 11 11  0  0  0  0  0  0  0  0999 V2000
    0.8408   -1.1159    0.0000 N   0  0  0  0  0  0  0  0  0  0  0  0
   -0.2224   -0.0578    0.0000 C   0  0  0  0  0  0  0  0  0  0  0  0
   -1.0798   -1.2885    0.0000 C   0  0  0  0  0  0  0  0  0  0  0  0
   -2.5744   -1.1613    0.0000 C   0  0  0  0  0  0  0  0  0  0  0  0
   -3.2116    0.1967    0.0000 S   0  0  0  0  0  0  0  0  0  0  0  0
   -2.3541    1.4274    0.0000 C   0  0  0  0  0  0  0  0  0  0  0  0
   -0.8595    1.3002    0.0000 C   0  0  0  0  0  0  0  0  0  0  0  0
    1.0043    0.8055    0.0000 C   0  0  0  0  0  0  0  0  0  0  0  0
    2.3653    0.1748    0.0000 C   0  0  0  0  0  0  0  0  0  0  0  0
    2.4995   -1.3192    0.0000 O   0  0  0  0  0  0  0  0  0  0  0  0
    3.5920    1.0381    0.0000 O   0  0  0  0  0  0  0  0  0  0  0  0
  1  2  1  0
  2  3  1  0
  3  4  1  0
  4  5  1  0
  5  6  1  0
  6  7  1  0
  2  8  1  0
  8  9  1  0
  9 10  2  0
  9 11  1  0
  7  2  1  0
M  END
>  <rName>  (3820) 
b-4-thia-Ac6c

>  <PQ_SYMBOL>  (3820) 
b-4-thia-Ac6c

>  <FULL_NAME>  (3820) 
2-(4-aminotetrahydro-2H-thiopyran-4-yl)acetic acid

>  <IUPAC_CONDENSED>  (3820) 
b-4-thia-Ac6c

>  <IUPAC>  (3820) 
2-(4-amino-thian-4-yl)acetic acid

>  <TYPE>  (3820) 
Backbone

>  <CLASS>  (3820) 
beta

>  <ANALOG>  (3820) 
Met

>  <MOL_WT>  (3820) 
175.253

>  <LOGP>  (3820) 
0.6856

>  <TPSA>  (3820) 
63.32000000000001

>  <POPULARITY>  (3820) 
8.2

>  <PROTECTED>  (3820) 
TRUE

>  <SMILES>  (3820) 
NC1(CCSCC1)CC(=O)O

>  <INCHIKEY>  (3820) 
AGEPUGUICFKKBP-UHFFFAOYSA-N

$$$$
b2-3-oxa-Ac6c
     RDKit          2D

 11 11  0  0  0  0  0  0  0  0999 V2000
   -0.7853   -2.6007    0.0000 N   0  0  0  0  0  0  0  0  0  0  0  0
   -1.2281   -1.1676    0.0000 C   0  0  0  0  0  0  0  0  0  0  0  0
   -0.2083   -0.0675    0.0000 C   0  0  0  0  0  0  0  0  0  0  0  0
    0.3737    1.3149    0.0000 C   0  0  0  0  0  0  0  0  0  0  0  0
    1.8620    1.5021    0.0000 C   0  0  0  0  0  0  0  0  0  0  0  0
    2.7683    0.3068    0.0000 C   0  0  0  0  0  0  0  0  0  0  0  0
    2.1862   -1.0757    0.0000 O   0  0  0  0  0  0  0  0  0  0  0  0
    0.6979   -1.2628    0.0000 C   0  0  0  0  0  0  0  0  0  0  0  0
   -1.4687    0.7457    0.0000 C   0  0  0  0  0  0  0  0  0  0  0  0
   -2.8032    0.0608    0.0000 O   0  0  0  0  0  0  0  0  0  0  0  0
   -1.3946    2.2439    0.0000 O   0  0  0  0  0  0  0  0  0  0  0  0
  1  2  1  0
  2  3  1  0
  3  4  1  0
  4  5  1  0
  5  6  1  0
  6  7  1  0
  7  8  1  0
  3  9  1  0
  9 10  2  0
  9 11  1  0
  8  3  1  0
M  END
>  <rName>  (3821) 
b2-3-oxa-Ac6c

>  <PQ_SYMBOL>  (3821) 
b2-3-oxa-Ac6c

>  <FULL_NAME>  (3821) 
3-(aminomethyl)oxane-3-carboxylic Acid

>  <IUPAC_CONDENSED>  (3821) 
b2-3-oxa-Ac6c

>  <IUPAC>  (3821) 
3-(aminomethyl)oxane-3-carboxylic acid

>  <TYPE>  (3821) 
Backbone

>  <CLASS>  (3821) 
beta

>  <ANALOG>  (3821) 
Ser

>  <MOL_WT>  (3821) 
159.185

>  <LOGP>  (3821) 
-0.17349999999999982

>  <TPSA>  (3821) 
72.55

>  <POPULARITY>  (3821) 
4.9

>  <PROTECTED>  (3821) 
TRUE

>  <SMILES>  (3821) 
NCC1(CCCOC1)C(=O)O

>  <INCHIKEY>  (3821) 
INHDQDDHTKYUOB-UHFFFAOYSA-N

$$$$
b2-4-aza-Ac6c
     RDKit          2D

 11 11  0  0  0  0  0  0  0  0999 V2000
   -0.7853   -2.6007    0.0000 N   0  0  0  0  0  0  0  0  0  0  0  0
   -1.2281   -1.1676    0.0000 C   0  0  0  0  0  0  0  0  0  0  0  0
   -0.2083   -0.0675    0.0000 C   0  0  0  0  0  0  0  0  0  0  0  0
    0.3737    1.3149    0.0000 C   0  0  0  0  0  0  0  0  0  0  0  0
    1.8620    1.5021    0.0000 C   0  0  0  0  0  0  0  0  0  0  0  0
    2.7683    0.3068    0.0000 N   0  0  0  0  0  0  0  0  0  0  0  0
    2.1862   -1.0757    0.0000 C   0  0  0  0  0  0  0  0  0  0  0  0
    0.6979   -1.2628    0.0000 C   0  0  0  0  0  0  0  0  0  0  0  0
   -1.4687    0.7457    0.0000 C   0  0  0  0  0  0  0  0  0  0  0  0
   -2.8032    0.0608    0.0000 O   0  0  0  0  0  0  0  0  0  0  0  0
   -1.3946    2.2439    0.0000 O   0  0  0  0  0  0  0  0  0  0  0  0
  1  2  1  0
  2  3  1  0
  3  4  1  0
  4  5  1  0
  5  6  1  0
  6  7  1  0
  7  8  1  0
  3  9  1  0
  9 10  2  0
  9 11  1  0
  8  3  1  0
M  END
>  <rName>  (3822) 
b2-4-aza-Ac6c

>  <PQ_SYMBOL>  (3822) 
b2-4-aza-Ac6c

>  <FULL_NAME>  (3822) 
4-(Aminomethyl)piperidine-4-carboxylic acid

>  <IUPAC_CONDENSED>  (3822) 
b2-4-aza-Ac6c

>  <IUPAC>  (3822) 
4-(aminomethyl)piperidine-4-carboxylic acid

>  <TYPE>  (3822) 
Backbone

>  <CLASS>  (3822) 
beta

>  <ANALOG>  (3822) 
X

>  <MOL_WT>  (3822) 
158.201

>  <LOGP>  (3822) 
-0.6005000000000003

>  <TPSA>  (3822) 
75.35

>  <POPULARITY>  (3822) 
3.5

>  <PROTECTED>  (3822) 
TRUE

>  <SMILES>  (3822) 
NCC1(CCNCC1)C(=O)O

>  <INCHIKEY>  (3822) 
MVSUXCVXOPOLOF-UHFFFAOYSA-N

$$$$
b2-4-oxa-Ac6c
     RDKit          2D

 11 11  0  0  0  0  0  0  0  0999 V2000
   -0.7853   -2.6007    0.0000 N   0  0  0  0  0  0  0  0  0  0  0  0
   -1.2281   -1.1676    0.0000 C   0  0  0  0  0  0  0  0  0  0  0  0
   -0.2083   -0.0675    0.0000 C   0  0  0  0  0  0  0  0  0  0  0  0
    0.3737    1.3149    0.0000 C   0  0  0  0  0  0  0  0  0  0  0  0
    1.8620    1.5021    0.0000 C   0  0  0  0  0  0  0  0  0  0  0  0
    2.7683    0.3068    0.0000 O   0  0  0  0  0  0  0  0  0  0  0  0
    2.1862   -1.0757    0.0000 C   0  0  0  0  0  0  0  0  0  0  0  0
    0.6979   -1.2628    0.0000 C   0  0  0  0  0  0  0  0  0  0  0  0
   -1.4687    0.7457    0.0000 C   0  0  0  0  0  0  0  0  0  0  0  0
   -2.8032    0.0608    0.0000 O   0  0  0  0  0  0  0  0  0  0  0  0
   -1.3946    2.2439    0.0000 O   0  0  0  0  0  0  0  0  0  0  0  0
  1  2  1  0
  2  3  1  0
  3  4  1  0
  4  5  1  0
  5  6  1  0
  6  7  1  0
  7  8  1  0
  3  9  1  0
  9 10  2  0
  9 11  1  0
  8  3  1  0
M  END
>  <rName>  (3823) 
b2-4-oxa-Ac6c

>  <PQ_SYMBOL>  (3823) 
b2-4-oxa-Ac6c

>  <FULL_NAME>  (3823) 
4-(aminomethyl)tetrahydro-2H-pyran-4-carboxylic acid

>  <IUPAC_CONDENSED>  (3823) 
b2-4-oxa-Ac6c

>  <IUPAC>  (3823) 
4-(aminomethyl)oxane-4-carboxylic acid

>  <TYPE>  (3823) 
Backbone

>  <CLASS>  (3823) 
beta

>  <ANALOG>  (3823) 
Ser

>  <MOL_WT>  (3823) 
159.185

>  <LOGP>  (3823) 
-0.17350000000000027

>  <TPSA>  (3823) 
72.55

>  <POPULARITY>  (3823) 
8.5

>  <PROTECTED>  (3823) 
TRUE

>  <SMILES>  (3823) 
NCC1(CCOCC1)C(=O)O

>  <INCHIKEY>  (3823) 
MOQXTRBNZFLFOF-UHFFFAOYSA-N

$$$$
b2-bicyclo222octane
     RDKit          2D

 13 14  0  0  0  0  0  0  0  0999 V2000
    2.8662    0.9995    0.0000 N   0  0  0  0  0  0  0  0  0  0  0  0
    1.4141    1.3754    0.0000 C   0  0  0  0  0  0  0  0  0  0  0  0
    0.2897    0.2318    0.0000 C   0  0  0  0  0  0  0  0  0  0  0  0
   -0.3796   -1.2325    0.0000 C   0  0  0  0  0  0  0  0  0  0  0  0
   -1.9764   -1.3822    0.0000 C   0  0  0  0  0  0  0  0  0  0  0  0
   -1.9159   -0.1674    0.0000 C   0  0  0  0  0  0  0  0  0  0  0  0
   -0.5958    0.2188    0.0000 C   0  0  0  0  0  0  0  0  0  0  0  0
   -0.6419    1.5372    0.0000 C   0  0  0  0  0  0  0  0  0  0  0  0
   -2.2296    1.3834    0.0000 C   0  0  0  0  0  0  0  0  0  0  0  0
   -2.8989   -0.0809    0.0000 C   0  0  0  0  0  0  0  0  0  0  0  0
    1.6108   -0.6775    0.0000 C   0  0  0  0  0  0  0  0  0  0  0  0
    2.9651   -0.0327    0.0000 O   0  0  0  0  0  0  0  0  0  0  0  0
    1.4921   -2.1728    0.0000 O   0  0  0  0  0  0  0  0  0  0  0  0
  1  2  1  0
  2  3  1  0
  3  4  1  0
  4  5  1  0
  5  6  1  0
  6  7  1  0
  7  8  1  0
  8  9  1  0
  9 10  1  0
  3 11  1  0
 11 12  2  0
 11 13  1  0
  8  3  1  0
 10  5  1  0
M  END
>  <rName>  (3824) 
b2-bicyclo222octane

>  <PQ_SYMBOL>  (3824) 
b2-bicyclo222octane

>  <FULL_NAME>  (3824) 
2-(Aminomethyl)bicyclo[2.2.2]octane-2-carboxylic acid

>  <IUPAC_CONDENSED>  (3824) 
b2-bicyclo[2.2.2]octane

>  <IUPAC>  (3824) 
2-(aminomethyl)bicyclo[2.2.2]octane-2-carboxylic acid

>  <TYPE>  (3824) 
Backbone

>  <CLASS>  (3824) 
beta

>  <ANALOG>  (3824) 
X

>  <MOL_WT>  (3824) 
183.25099999999998

>  <LOGP>  (3824) 
1.2262

>  <TPSA>  (3824) 
63.32000000000001

>  <POPULARITY>  (3824) 
3.2

>  <PROTECTED>  (3824) 
TRUE

>  <SMILES>  (3824) 
NCC1(CC2(CCC1CC2))C(=O)O

>  <INCHIKEY>  (3824) 
WMMJBRAJSIKUPF-UHFFFAOYSA-N

$$$$
b2Ac3c
     RDKit          2D

  8  8  0  0  0  0  0  0  0  0999 V2000
    1.9631    1.0296    0.0000 N   0  0  0  0  0  0  0  0  0  0  0  0
    0.5166    1.4269    0.0000 C   0  0  0  0  0  0  0  0  0  0  0  0
   -0.5506    0.3729    0.0000 C   0  0  0  0  0  0  0  0  0  0  0  0
   -1.7739    1.2409    0.0000 C   0  0  0  0  0  0  0  0  0  0  0  0
   -1.9140   -0.2526    0.0000 C   0  0  0  0  0  0  0  0  0  0  0  0
    0.3021   -0.8612    0.0000 C   0  0  0  0  0  0  0  0  0  0  0  0
    1.7971   -0.7398    0.0000 O   0  0  0  0  0  0  0  0  0  0  0  0
   -0.3403   -2.2167    0.0000 O   0  0  0  0  0  0  0  0  0  0  0  0
  1  2  1  0
  2  3  1  0
  3  4  1  0
  4  5  1  0
  3  6  1  0
  6  7  2  0
  6  8  1  0
  5  3  1  0
M  END
>  <rName>  (3825) 
b2Ac3c

>  <PQ_SYMBOL>  (3825) 
b2Ac3c

>  <FULL_NAME>  (3825) 
1-(aminomethyl)cyclopropane-1-carboxylic acid

>  <IUPAC_CONDENSED>  (3825) 
b2Ac3c

>  <IUPAC>  (3825) 
1-(aminomethyl)cyclopropanecarboxylic acid

>  <TYPE>  (3825) 
Backbone

>  <CLASS>  (3825) 
beta

>  <ANALOG>  (3825) 
X

>  <MOL_WT>  (3825) 
115.13199999999998

>  <LOGP>  (3825) 
-0.19009999999999977

>  <TPSA>  (3825) 
63.32000000000001

>  <POPULARITY>  (3825) 
13.6

>  <PROTECTED>  (3825) 
TRUE

>  <SMILES>  (3825) 
NCC1(CC1)C(=O)O

>  <INCHIKEY>  (3825) 
MJQJJFZHAQFTDZ-UHFFFAOYSA-N

$$$$
b2Ac4c
     RDKit          2D

  9  9  0  0  0  0  0  0  0  0999 V2000
   -2.0396   -1.0995    0.0000 N   0  0  0  0  0  0  0  0  0  0  0  0
   -0.5668   -1.3834    0.0000 C   0  0  0  0  0  0  0  0  0  0  0  0
    0.4156   -0.2498    0.0000 C   0  0  0  0  0  0  0  0  0  0  0  0
    1.3979    0.8838    0.0000 C   0  0  0  0  0  0  0  0  0  0  0  0
    2.5315   -0.0986    0.0000 C   0  0  0  0  0  0  0  0  0  0  0  0
    1.5492   -1.2322    0.0000 C   0  0  0  0  0  0  0  0  0  0  0  0
   -0.7180    0.7325    0.0000 C   0  0  0  0  0  0  0  0  0  0  0  0
   -2.1355    0.2419    0.0000 O   0  0  0  0  0  0  0  0  0  0  0  0
   -0.4341    2.2054    0.0000 O   0  0  0  0  0  0  0  0  0  0  0  0
  1  2  1  0
  2  3  1  0
  3  4  1  0
  4  5  1  0
  5  6  1  0
  3  7  1  0
  7  8  2  0
  7  9  1  0
  6  3  1  0
M  END
>  <rName>  (3826) 
b2Ac4c

>  <PQ_SYMBOL>  (3826) 
b2Ac4c

>  <FULL_NAME>  (3826) 
1-(Aminomethyl)cyclobutanecarboxylic acid

>  <IUPAC_CONDENSED>  (3826) 
b2Ac4c

>  <IUPAC>  (3826) 
1-(aminomethyl)cyclobutanecarboxylic acid

>  <TYPE>  (3826) 
Backbone

>  <CLASS>  (3826) 
beta

>  <ANALOG>  (3826) 
X

>  <MOL_WT>  (3826) 
129.159

>  <LOGP>  (3826) 
0.20000000000000012

>  <TPSA>  (3826) 
63.32000000000001

>  <POPULARITY>  (3826) 
8.9

>  <PROTECTED>  (3826) 
TRUE

>  <SMILES>  (3826) 
NCC1(CCC1)C(=O)O

>  <INCHIKEY>  (3826) 
BKYSXQMTMYOAGR-UHFFFAOYSA-N

$$$$
b2Ac5c
     RDKit          2D

 10 10  0  0  0  0  0  0  0  0999 V2000
   -2.2802   -1.0134    0.0000 N   0  0  0  0  0  0  0  0  0  0  0  0
   -0.8154   -1.3362    0.0000 C   0  0  0  0  0  0  0  0  0  0  0  0
    0.1967   -0.2291    0.0000 C   0  0  0  0  0  0  0  0  0  0  0  0
    1.1920   -1.3513    0.0000 C   0  0  0  0  0  0  0  0  0  0  0  0
    2.5668   -0.7515    0.0000 C   0  0  0  0  0  0  0  0  0  0  0  0
    2.4212    0.7414    0.0000 C   0  0  0  0  0  0  0  0  0  0  0  0
    0.9564    1.0643    0.0000 C   0  0  0  0  0  0  0  0  0  0  0  0
   -1.0102    0.6617    0.0000 C   0  0  0  0  0  0  0  0  0  0  0  0
   -2.3851    0.0618    0.0000 O   0  0  0  0  0  0  0  0  0  0  0  0
   -0.8422    2.1522    0.0000 O   0  0  0  0  0  0  0  0  0  0  0  0
  1  2  1  0
  2  3  1  0
  3  4  1  0
  4  5  1  0
  5  6  1  0
  6  7  1  0
  3  8  1  0
  8  9  2  0
  8 10  1  0
  7  3  1  0
M  END
>  <rName>  (3827) 
b2Ac5c

>  <PQ_SYMBOL>  (3827) 
b2Ac5c

>  <FULL_NAME>  (3827) 
1-(Aminomethyl)cyclopentanecarboxylic acid

>  <IUPAC_CONDENSED>  (3827) 
b2Ac5c

>  <IUPAC>  (3827) 
1-(aminomethyl)cyclopentanecarboxylic acid

>  <TYPE>  (3827) 
Backbone

>  <CLASS>  (3827) 
beta

>  <ANALOG>  (3827) 
X

>  <MOL_WT>  (3827) 
143.186

>  <LOGP>  (3827) 
0.5901000000000001

>  <TPSA>  (3827) 
63.32000000000001

>  <POPULARITY>  (3827) 
10.3

>  <PROTECTED>  (3827) 
TRUE

>  <SMILES>  (3827) 
NCC1(CCCC1)C(=O)O

>  <INCHIKEY>  (3827) 
VZQSZPCSJJSCDJ-UHFFFAOYSA-N

$$$$
b2Ac6c
     RDKit          2D

 11 11  0  0  0  0  0  0  0  0999 V2000
   -0.7853   -2.6007    0.0000 N   0  0  0  0  0  0  0  0  0  0  0  0
   -1.2281   -1.1676    0.0000 C   0  0  0  0  0  0  0  0  0  0  0  0
   -0.2083   -0.0675    0.0000 C   0  0  0  0  0  0  0  0  0  0  0  0
    0.3737    1.3149    0.0000 C   0  0  0  0  0  0  0  0  0  0  0  0
    1.8620    1.5021    0.0000 C   0  0  0  0  0  0  0  0  0  0  0  0
    2.7683    0.3068    0.0000 C   0  0  0  0  0  0  0  0  0  0  0  0
    2.1862   -1.0757    0.0000 C   0  0  0  0  0  0  0  0  0  0  0  0
    0.6979   -1.2628    0.0000 C   0  0  0  0  0  0  0  0  0  0  0  0
   -1.4687    0.7457    0.0000 C   0  0  0  0  0  0  0  0  0  0  0  0
   -2.8032    0.0608    0.0000 O   0  0  0  0  0  0  0  0  0  0  0  0
   -1.3946    2.2439    0.0000 O   0  0  0  0  0  0  0  0  0  0  0  0
  1  2  1  0
  2  3  1  0
  3  4  1  0
  4  5  1  0
  5  6  1  0
  6  7  1  0
  7  8  1  0
  3  9  1  0
  9 10  2  0
  9 11  1  0
  8  3  1  0
M  END
>  <rName>  (3828) 
b2Ac6c

>  <PQ_SYMBOL>  (3828) 
b2Ac6c

>  <FULL_NAME>  (3828) 
1-(aminomethyl)cyclohexane-1-carboxylic acid

>  <IUPAC_CONDENSED>  (3828) 
b2Ac6c

>  <IUPAC>  (3828) 
1-(aminomethyl)cyclohexanecarboxylic acid

>  <TYPE>  (3828) 
Backbone

>  <CLASS>  (3828) 
beta

>  <ANALOG>  (3828) 
X

>  <MOL_WT>  (3828) 
157.213

>  <LOGP>  (3828) 
0.9802

>  <TPSA>  (3828) 
63.32000000000001

>  <POPULARITY>  (3828) 
10.4

>  <PROTECTED>  (3828) 
TRUE

>  <SMILES>  (3828) 
NCC1(CCCCC1)C(=O)O

>  <INCHIKEY>  (3828) 
UAFHRUBCOQPFFM-UHFFFAOYSA-N

$$$$
b2Ac6c_44diF
     RDKit          2D

 13 13  0  0  0  0  0  0  0  0999 V2000
   -1.5969   -2.5498    0.0000 N   0  0  0  0  0  0  0  0  0  0  0  0
   -1.9229   -1.0856    0.0000 C   0  0  0  0  0  0  0  0  0  0  0  0
   -0.8180   -0.0712    0.0000 C   0  0  0  0  0  0  0  0  0  0  0  0
   -0.1266    1.2599    0.0000 C   0  0  0  0  0  0  0  0  0  0  0  0
    1.3719    1.3268    0.0000 C   0  0  0  0  0  0  0  0  0  0  0  0
    2.1791    0.0624    0.0000 C   0  0  0  0  0  0  0  0  0  0  0  0
    3.2840    1.0768    0.0000 F   0  0  0  0  0  0  0  0  0  0  0  0
    3.3699   -0.8496    0.0000 F   0  0  0  0  0  0  0  0  0  0  0  0
    1.4877   -1.2687    0.0000 C   0  0  0  0  0  0  0  0  0  0  0  0
   -0.0108   -1.3356    0.0000 C   0  0  0  0  0  0  0  0  0  0  0  0
   -2.0088    0.8408    0.0000 C   0  0  0  0  0  0  0  0  0  0  0  0
   -3.3941    0.2655    0.0000 O   0  0  0  0  0  0  0  0  0  0  0  0
   -1.8144    2.3282    0.0000 O   0  0  0  0  0  0  0  0  0  0  0  0
  1  2  1  0
  2  3  1  0
  3  4  1  0
  4  5  1  0
  5  6  1  0
  6  7  1  0
  6  8  1  0
  6  9  1  0
  9 10  1  0
  3 11  1  0
 11 12  2  0
 11 13  1  0
 10  3  1  0
M  END
>  <rName>  (3829) 
b2Ac6c_44diF

>  <PQ_SYMBOL>  (3829) 
b2Ac6c_44diF

>  <FULL_NAME>  (3829) 
1-(Aminomethyl)-4,4-difluorocyclohexane-1-carboxylic acid

>  <IUPAC_CONDENSED>  (3829) 
b2Ac6c(4,4-diF)

>  <IUPAC>  (3829) 
1-(aminomethyl)-4,4-difluorocyclohexanecarboxylic acid

>  <TYPE>  (3829) 
Backbone

>  <CLASS>  (3829) 
beta

>  <ANALOG>  (3829) 
X

>  <MOL_WT>  (3829) 
193.19299999999998

>  <LOGP>  (3829) 
1.2254000000000003

>  <TPSA>  (3829) 
63.32000000000001

>  <POPULARITY>  (3829) 
3.0

>  <PROTECTED>  (3829) 
TRUE

>  <SMILES>  (3829) 
NCC1(CCC(F)(F)CC1)C(=O)O

>  <INCHIKEY>  (3829) 
DTNAGFFLGNQRNF-UHFFFAOYSA-N

$$$$
b2Val_Et
     RDKit          2D

 10  9  0  0  0  0  0  0  0  0999 V2000
    2.8430    0.8739    0.0000 N   0  0  0  0  0  0  0  0  0  0  0  0
    1.4313    1.3812    0.0000 C   0  0  0  0  0  0  0  0  0  0  0  0
    0.2862    0.4123    0.0000 C   0  0  0  0  0  0  0  0  0  0  0  0
   -0.6826    1.5574    0.0000 C   0  0  0  0  0  0  0  0  0  0  0  0
   -2.1588    1.2910    0.0000 C   0  0  0  0  0  0  0  0  0  0  0  0
    1.2551   -0.7328    0.0000 C   0  0  0  0  0  0  0  0  0  0  0  0
    0.7478   -2.1444    0.0000 C   0  0  0  0  0  0  0  0  0  0  0  0
   -0.8589   -0.5565    0.0000 C   0  0  0  0  0  0  0  0  0  0  0  0
   -2.2705   -0.0492    0.0000 O   0  0  0  0  0  0  0  0  0  0  0  0
   -0.5925   -2.0327    0.0000 O   0  0  0  0  0  0  0  0  0  0  0  0
  1  2  1  0
  2  3  1  0
  3  4  1  0
  4  5  1  0
  3  6  1  0
  6  7  1  0
  3  8  1  0
  8  9  2  0
  8 10  1  0
M  END
>  <rName>  (3830) 
b2Val_Et

>  <PQ_SYMBOL>  (3830) 
b2Val_Et

>  <FULL_NAME>  (3830) 
2-(Aminomethyl)-2-ethylbutanoic acid

>  <IUPAC_CONDENSED>  (3830) 
b2Val(Et)

>  <IUPAC>  (3830) 
2-(aminomethyl)-2-ethylbutanoic acid

>  <TYPE>  (3830) 
Backbone

>  <CLASS>  (3830) 
beta

>  <ANALOG>  (3830) 
Leu

>  <MOL_WT>  (3830) 
145.202

>  <LOGP>  (3830) 
0.8361000000000001

>  <TPSA>  (3830) 
63.32000000000001

>  <POPULARITY>  (3830) 
14.0

>  <PROTECTED>  (3830) 
TRUE

>  <SMILES>  (3830) 
NCC(CC)(CC)C(=O)O

>  <INCHIKEY>  (3830) 
DJMGOQPIWSFBOK-UHFFFAOYSA-N

$$$$
b2Val_Pr_Me
     RDKit          2D

 12 11  0  0  0  0  0  0  0  0999 V2000
    1.5808   -2.6756    0.0000 N   0  0  0  0  0  0  0  0  0  0  0  0
    0.1896   -2.1148    0.0000 C   0  0  0  0  0  0  0  0  0  0  0  0
   -0.0203   -0.6296    0.0000 C   0  0  0  0  0  0  0  0  0  0  0  0
   -1.5056   -0.8395    0.0000 C   0  0  0  0  0  0  0  0  0  0  0  0
   -2.4300    0.3418    0.0000 C   0  0  0  0  0  0  0  0  0  0  0  0
   -3.9152    0.1319    0.0000 C   0  0  0  0  0  0  0  0  0  0  0  0
    1.4649   -0.4196    0.0000 C   0  0  0  0  0  0  0  0  0  0  0  0
    2.0257    0.9716    0.0000 C   0  0  0  0  0  0  0  0  0  0  0  0
    3.5109    1.1815    0.0000 C   0  0  0  0  0  0  0  0  0  0  0  0
   -0.2303    0.8557    0.0000 C   0  0  0  0  0  0  0  0  0  0  0  0
   -1.6215    1.4165    0.0000 O   0  0  0  0  0  0  0  0  0  0  0  0
    0.9510    1.7801    0.0000 O   0  0  0  0  0  0  0  0  0  0  0  0
  1  2  1  0
  2  3  1  0
  3  4  1  0
  4  5  1  0
  5  6  1  0
  3  7  1  0
  7  8  1  0
  8  9  1  0
  3 10  1  0
 10 11  2  0
 10 12  1  0
M  END
>  <rName>  (3831) 
b2Val_Pr_Me

>  <PQ_SYMBOL>  (3831) 
b2Val_Pr_Me

>  <FULL_NAME>  (3831) 
2-(Aminomethyl)-2-propylpentanoic acid

>  <IUPAC_CONDENSED>  (3831) 
b2Val(Pr,Me)

>  <IUPAC>  (3831) 
2-(aminomethyl)-2-propylpentanoic acid

>  <TYPE>  (3831) 
Backbone

>  <CLASS>  (3831) 
beta

>  <ANALOG>  (3831) 
Leu

>  <MOL_WT>  (3831) 
173.25599999999997

>  <LOGP>  (3831) 
1.6163000000000003

>  <TPSA>  (3831) 
63.32000000000001

>  <POPULARITY>  (3831) 
8.1

>  <PROTECTED>  (3831) 
TRUE

>  <SMILES>  (3831) 
NCC(CCC)(CCC)C(=O)O

>  <INCHIKEY>  (3831) 
SLVWPVNFBCERMA-UHFFFAOYSA-N

$$$$
b2Val_vinyl
     RDKit          2D

 10  9  0  0  0  0  0  0  0  0999 V2000
   -3.4137   -0.8883    0.0000 N   0  0  0  0  0  0  0  0  0  0  0  0
   -2.0182   -1.4385    0.0000 C   0  0  0  0  0  0  0  0  0  0  0  0
   -0.8441   -0.5050    0.0000 C   0  0  0  0  0  0  0  0  0  0  0  0
    0.5514   -1.0552    0.0000 C   0  0  0  0  0  0  0  0  0  0  0  0
    1.7256   -0.1218    0.0000 C   0  0  0  0  0  0  0  0  0  0  0  0
    3.1211   -0.6719    0.0000 C   0  0  0  0  0  0  0  0  0  0  0  0
    4.2952    0.2615    0.0000 C   0  0  0  0  0  0  0  0  0  0  0  0
   -1.0653    0.9785    0.0000 C   0  0  0  0  0  0  0  0  0  0  0  0
    0.1088    1.9120    0.0000 O   0  0  0  0  0  0  0  0  0  0  0  0
   -2.4608    1.5287    0.0000 O   0  0  0  0  0  0  0  0  0  0  0  0
  1  2  1  0
  2  3  1  0
  3  4  1  0
  4  5  1  0
  5  6  1  0
  6  7  2  0
  3  8  1  0
  8  9  2  0
  8 10  1  0
M  END
>  <rName>  (3832) 
b2Val_vinyl

>  <PQ_SYMBOL>  (3832) 
b2Val_vinyl

>  <FULL_NAME>  (3832) 
C=CCCC(CN)C(=O)O

>  <IUPAC_CONDENSED>  (3832) 
b2Val(vinyl)

>  <IUPAC>  (3832) 
2-(aminomethyl)hex-5-enoic acid

>  <TYPE>  (3832) 
Backbone

>  <CLASS>  (3832) 
beta

>  <ANALOG>  (3832) 
Leu

>  <MOL_WT>  (3832) 
143.186

>  <LOGP>  (3832) 
0.6121000000000003

>  <TPSA>  (3832) 
63.32000000000001

>  <POPULARITY>  (3832) 
12.1

>  <PROTECTED>  (3832) 
TRUE

>  <SMILES>  (3832) 
NCC(CCC=C)C(=O)O

>  <INCHIKEY>  (3832) 
DFFNBBZCSZQWLV-UHFFFAOYSA-N

$$$$
bAad_R
     RDKit          2D

 11 10  0  0  0  0  0  0  0  0999 V2000
    0.8169   -1.6084    0.0000 N   0  0  0  0  0  0  0  0  0  0  0  0
    0.6128   -0.1223    0.0000 C   0  0  0  0  0  0  0  0  0  0  0  0
   -0.7762    0.4440    0.0000 C   0  0  0  0  0  0  0  0  0  0  0  0
   -1.9611   -0.4758    0.0000 C   0  0  0  0  0  0  0  0  0  0  0  0
   -3.3501    0.0905    0.0000 C   0  0  0  0  0  0  0  0  0  0  0  0
   -3.5542    1.5766    0.0000 O   0  0  0  0  0  0  0  0  0  0  0  0
   -4.5350   -0.8292    0.0000 O   0  0  0  0  0  0  0  0  0  0  0  0
    1.7977    0.7974    0.0000 C   0  0  0  0  0  0  0  0  0  0  0  0
    3.1867    0.2312    0.0000 C   0  0  0  0  0  0  0  0  0  0  0  0
    3.3908   -1.2549    0.0000 O   0  0  0  0  0  0  0  0  0  0  0  0
    4.3717    1.1509    0.0000 O   0  0  0  0  0  0  0  0  0  0  0  0
  2  1  1  6
  2  3  1  0
  3  4  1  0
  4  5  1  0
  5  6  2  0
  5  7  1  0
  2  8  1  0
  8  9  1  0
  9 10  2  0
  9 11  1  0
M  END
>  <rName>  (3833) 
bAad_R

>  <PQ_SYMBOL>  (3833) 
bAad_R

>  <FULL_NAME>  (3833) 
beta-D-homoglutamic acid

>  <IUPAC_CONDENSED>  (3833) 
bAad(R)

>  <IUPAC>  (3833) 
(3R)-3-aminohexanedioic acid

>  <TYPE>  (3833) 
Backbone

>  <CLASS>  (3833) 
beta

>  <ANALOG>  (3833) 
Glu

>  <MOL_WT>  (3833) 
161.15699999999998

>  <LOGP>  (3833) 
-0.3468000000000003

>  <TPSA>  (3833) 
100.62000000000002

>  <POPULARITY>  (3833) 
7.6

>  <PROTECTED>  (3833) 
TRUE

>  <SMILES>  (3833) 
N[C@H](CCC(=O)O)CC(=O)O

>  <INCHIKEY>  (3833) 
XABCFXXGZPWJQP-SCSAIBSYSA-N

$$$$
bAad_S
     RDKit          2D

 11 10  0  0  0  0  0  0  0  0999 V2000
    0.8169   -1.6084    0.0000 N   0  0  0  0  0  0  0  0  0  0  0  0
    0.6128   -0.1223    0.0000 C   0  0  0  0  0  0  0  0  0  0  0  0
   -0.7762    0.4440    0.0000 C   0  0  0  0  0  0  0  0  0  0  0  0
   -1.9611   -0.4758    0.0000 C   0  0  0  0  0  0  0  0  0  0  0  0
   -3.3501    0.0905    0.0000 C   0  0  0  0  0  0  0  0  0  0  0  0
   -3.5542    1.5766    0.0000 O   0  0  0  0  0  0  0  0  0  0  0  0
   -4.5350   -0.8292    0.0000 O   0  0  0  0  0  0  0  0  0  0  0  0
    1.7977    0.7974    0.0000 C   0  0  0  0  0  0  0  0  0  0  0  0
    3.1867    0.2312    0.0000 C   0  0  0  0  0  0  0  0  0  0  0  0
    3.3908   -1.2549    0.0000 O   0  0  0  0  0  0  0  0  0  0  0  0
    4.3717    1.1509    0.0000 O   0  0  0  0  0  0  0  0  0  0  0  0
  2  1  1  1
  2  3  1  0
  3  4  1  0
  4  5  1  0
  5  6  2  0
  5  7  1  0
  2  8  1  0
  8  9  1  0
  9 10  2  0
  9 11  1  0
M  END
>  <rName>  (3834) 
bAad_S

>  <PQ_SYMBOL>  (3834) 
bAad_S

>  <FULL_NAME>  (3834) 
beta-L-homoglutamic acid

>  <IUPAC_CONDENSED>  (3834) 
bAad(S)

>  <IUPAC>  (3834) 
(3S)-3-aminohexanedioic acid

>  <TYPE>  (3834) 
Backbone

>  <CLASS>  (3834) 
beta

>  <ANALOG>  (3834) 
Glu

>  <MOL_WT>  (3834) 
161.15699999999998

>  <LOGP>  (3834) 
-0.3468000000000003

>  <TPSA>  (3834) 
100.62000000000002

>  <POPULARITY>  (3834) 
24.1

>  <PROTECTED>  (3834) 
TRUE

>  <SMILES>  (3834) 
N[C@@H](CCC(=O)O)CC(=O)O

>  <INCHIKEY>  (3834) 
XABCFXXGZPWJQP-BYPYZUCNSA-N

$$$$
bAc4c
     RDKit          2D

  9  9  0  0  0  0  0  0  0  0999 V2000
    0.0686   -1.2753    0.0000 N   0  0  0  0  0  0  0  0  0  0  0  0
   -0.7820   -0.0398    0.0000 C   0  0  0  0  0  0  0  0  0  0  0  0
   -2.0175   -0.8904    0.0000 C   0  0  0  0  0  0  0  0  0  0  0  0
   -2.8681    0.3451    0.0000 C   0  0  0  0  0  0  0  0  0  0  0  0
   -1.6326    1.1957    0.0000 C   0  0  0  0  0  0  0  0  0  0  0  0
    0.4535    0.8108    0.0000 C   0  0  0  0  0  0  0  0  0  0  0  0
    1.8079    0.1662    0.0000 C   0  0  0  0  0  0  0  0  0  0  0  0
    1.9268   -1.3291    0.0000 O   0  0  0  0  0  0  0  0  0  0  0  0
    3.0434    1.0168    0.0000 O   0  0  0  0  0  0  0  0  0  0  0  0
  1  2  1  0
  2  3  1  0
  3  4  1  0
  4  5  1  0
  2  6  1  0
  6  7  1  0
  7  8  2  0
  7  9  1  0
  5  2  1  0
M  END
>  <rName>  (3835) 
bAc4c

>  <PQ_SYMBOL>  (3835) 
bAc4c

>  <FULL_NAME>  (3835) 
2-(1-Aminocyclobutyl)acetic acid

>  <IUPAC_CONDENSED>  (3835) 
bAc4c

>  <IUPAC>  (3835) 
2-(1-aminocyclobutyl)acetic acid

>  <TYPE>  (3835) 
Backbone

>  <CLASS>  (3835) 
beta

>  <ANALOG>  (3835) 
X

>  <MOL_WT>  (3835) 
129.15900000000002

>  <LOGP>  (3835) 
0.34249999999999975

>  <TPSA>  (3835) 
63.32000000000001

>  <POPULARITY>  (3835) 
7.3

>  <PROTECTED>  (3835) 
TRUE

>  <SMILES>  (3835) 
NC1(CCC1)CC(=O)O

>  <INCHIKEY>  (3835) 
NQFXADOWWKULAR-UHFFFAOYSA-N

$$$$
bAc5c
     RDKit          2D

 10 10  0  0  0  0  0  0  0  0999 V2000
    0.4848   -1.1867    0.0000 N   0  0  0  0  0  0  0  0  0  0  0  0
   -0.5004   -0.0556    0.0000 C   0  0  0  0  0  0  0  0  0  0  0  0
   -1.2289    1.2556    0.0000 C   0  0  0  0  0  0  0  0  0  0  0  0
   -2.7010    0.9680    0.0000 C   0  0  0  0  0  0  0  0  0  0  0  0
   -2.8824   -0.5210    0.0000 C   0  0  0  0  0  0  0  0  0  0  0  0
   -1.5223   -1.1536    0.0000 C   0  0  0  0  0  0  0  0  0  0  0  0
    0.7275    0.8059    0.0000 C   0  0  0  0  0  0  0  0  0  0  0  0
    2.0876    0.1733    0.0000 C   0  0  0  0  0  0  0  0  0  0  0  0
    2.2197   -1.3209    0.0000 O   0  0  0  0  0  0  0  0  0  0  0  0
    3.3155    1.0349    0.0000 O   0  0  0  0  0  0  0  0  0  0  0  0
  1  2  1  0
  2  3  1  0
  3  4  1  0
  4  5  1  0
  5  6  1  0
  2  7  1  0
  7  8  1  0
  8  9  2  0
  8 10  1  0
  6  2  1  0
M  END
>  <rName>  (3836) 
bAc5c

>  <PQ_SYMBOL>  (3836) 
bAc5c

>  <FULL_NAME>  (3836) 
(1-Aminocyclopentyl)acetic acid

>  <IUPAC_CONDENSED>  (3836) 
bAc5c

>  <IUPAC>  (3836) 
2-(1-aminocyclopentyl)acetic acid

>  <TYPE>  (3836) 
Backbone

>  <CLASS>  (3836) 
beta

>  <ANALOG>  (3836) 
X

>  <MOL_WT>  (3836) 
143.186

>  <LOGP>  (3836) 
0.7325999999999997

>  <TPSA>  (3836) 
63.32000000000001

>  <POPULARITY>  (3836) 
8.5

>  <PROTECTED>  (3836) 
TRUE

>  <SMILES>  (3836) 
NC1(CCCC1)CC(=O)O

>  <INCHIKEY>  (3836) 
RSIDSVRZFUOPFV-UHFFFAOYSA-N

$$$$
bAc6c
     RDKit          2D

 11 11  0  0  0  0  0  0  0  0999 V2000
    0.8408   -1.1159    0.0000 N   0  0  0  0  0  0  0  0  0  0  0  0
   -0.2224   -0.0578    0.0000 C   0  0  0  0  0  0  0  0  0  0  0  0
   -1.0798   -1.2885    0.0000 C   0  0  0  0  0  0  0  0  0  0  0  0
   -2.5744   -1.1613    0.0000 C   0  0  0  0  0  0  0  0  0  0  0  0
   -3.2116    0.1967    0.0000 C   0  0  0  0  0  0  0  0  0  0  0  0
   -2.3541    1.4274    0.0000 C   0  0  0  0  0  0  0  0  0  0  0  0
   -0.8595    1.3002    0.0000 C   0  0  0  0  0  0  0  0  0  0  0  0
    1.0043    0.8055    0.0000 C   0  0  0  0  0  0  0  0  0  0  0  0
    2.3653    0.1748    0.0000 C   0  0  0  0  0  0  0  0  0  0  0  0
    2.4995   -1.3192    0.0000 O   0  0  0  0  0  0  0  0  0  0  0  0
    3.5920    1.0381    0.0000 O   0  0  0  0  0  0  0  0  0  0  0  0
  1  2  1  0
  2  3  1  0
  3  4  1  0
  4  5  1  0
  5  6  1  0
  6  7  1  0
  2  8  1  0
  8  9  1  0
  9 10  2  0
  9 11  1  0
  7  2  1  0
M  END
>  <rName>  (3837) 
bAc6c

>  <PQ_SYMBOL>  (3837) 
bAc6c

>  <FULL_NAME>  (3837) 
2-(1-aminocyclohexyl)acetic acid

>  <IUPAC_CONDENSED>  (3837) 
bAc6c

>  <IUPAC>  (3837) 
2-(1-aminocyclohexyl)acetic acid

>  <TYPE>  (3837) 
Backbone

>  <CLASS>  (3837) 
beta

>  <ANALOG>  (3837) 
X

>  <MOL_WT>  (3837) 
157.21300000000002

>  <LOGP>  (3837) 
1.1227

>  <TPSA>  (3837) 
63.32000000000001

>  <POPULARITY>  (3837) 
11.0

>  <PROTECTED>  (3837) 
TRUE

>  <SMILES>  (3837) 
NC1(CCCCC1)CC(=O)O

>  <INCHIKEY>  (3837) 
JTBWDIQPPZCDHV-UHFFFAOYSA-N

$$$$
bAib
     RDKit          2D

  7  6  0  0  0  0  0  0  0  0999 V2000
   -2.2500   -0.5567    0.0000 N   0  0  0  0  0  0  0  0  0  0  0  0
   -1.5000    0.7423    0.0000 C   0  0  0  0  0  0  0  0  0  0  0  0
   -0.0000    0.7423    0.0000 C   0  0  0  0  0  0  0  0  0  0  0  0
    0.7500    2.0413    0.0000 C   0  0  0  0  0  0  0  0  0  0  0  0
    0.7500   -0.5567    0.0000 C   0  0  0  0  0  0  0  0  0  0  0  0
    2.2500   -0.5567    0.0000 O   0  0  0  0  0  0  0  0  0  0  0  0
    0.0000   -1.8558    0.0000 O   0  0  0  0  0  0  0  0  0  0  0  0
  1  2  1  0
  2  3  1  0
  3  4  1  0
  3  5  1  0
  5  6  2  0
  5  7  1  0
M  END
>  <rName>  (3838) 
bAib

>  <PQ_SYMBOL>  (3838) 
bAib

>  <FULL_NAME>  (3838) 
3-amino-2-methylpropanoic acid

>  <IUPAC_CONDENSED>  (3838) 
bAib

>  <IUPAC>  (3838) 
3-amino-2-methylpropanoic acid

>  <TYPE>  (3838) 
Backbone

>  <CLASS>  (3838) 
beta

>  <ANALOG>  (3838) 
Ala

>  <MOL_WT>  (3838) 
103.12099999999998

>  <LOGP>  (3838) 
-0.3342000000000001

>  <TPSA>  (3838) 
63.32000000000001

>  <POPULARITY>  (3838) 
18.1

>  <PROTECTED>  (3838) 
TRUE

>  <SMILES>  (3838) 
NCC(C)C(=O)O

>  <INCHIKEY>  (3838) 
QCHPKSFMDHPSNR-UHFFFAOYSA-N

$$$$
bAib_R
     RDKit          2D

  7  6  0  0  0  0  0  0  0  0999 V2000
   -2.2500   -0.5567    0.0000 N   0  0  0  0  0  0  0  0  0  0  0  0
   -1.5000    0.7423    0.0000 C   0  0  0  0  0  0  0  0  0  0  0  0
   -0.0000    0.7423    0.0000 C   0  0  0  0  0  0  0  0  0  0  0  0
    0.7500    2.0413    0.0000 C   0  0  0  0  0  0  0  0  0  0  0  0
    0.7500   -0.5567    0.0000 C   0  0  0  0  0  0  0  0  0  0  0  0
    2.2500   -0.5567    0.0000 O   0  0  0  0  0  0  0  0  0  0  0  0
    0.0000   -1.8558    0.0000 O   0  0  0  0  0  0  0  0  0  0  0  0
  1  2  1  0
  2  3  1  0
  3  4  1  1
  3  5  1  0
  5  6  2  0
  5  7  1  0
M  END
>  <rName>  (3839) 
bAib_R

>  <PQ_SYMBOL>  (3839) 
bAib_R

>  <FULL_NAME>  (3839) 
(2R)-3-amino-2-methylpropanoic acid

>  <IUPAC_CONDENSED>  (3839) 
bAib(R)

>  <IUPAC>  (3839) 
(2R)-3-amino-2-methylpropanoic acid

>  <TYPE>  (3839) 
Backbone

>  <CLASS>  (3839) 
beta

>  <ANALOG>  (3839) 
Ala

>  <MOL_WT>  (3839) 
103.12099999999998

>  <LOGP>  (3839) 
-0.3342000000000001

>  <TPSA>  (3839) 
63.32000000000001

>  <POPULARITY>  (3839) 
18.1

>  <PROTECTED>  (3839) 
TRUE

>  <SMILES>  (3839) 
NC[C@@H](C)C(=O)O

>  <INCHIKEY>  (3839) 
QCHPKSFMDHPSNR-GSVOUGTGSA-N

$$$$
bAib_S
     RDKit          2D

  7  6  0  0  0  0  0  0  0  0999 V2000
   -2.2500   -0.5567    0.0000 N   0  0  0  0  0  0  0  0  0  0  0  0
   -1.5000    0.7423    0.0000 C   0  0  0  0  0  0  0  0  0  0  0  0
   -0.0000    0.7423    0.0000 C   0  0  0  0  0  0  0  0  0  0  0  0
    0.7500    2.0413    0.0000 C   0  0  0  0  0  0  0  0  0  0  0  0
    0.7500   -0.5567    0.0000 C   0  0  0  0  0  0  0  0  0  0  0  0
    2.2500   -0.5567    0.0000 O   0  0  0  0  0  0  0  0  0  0  0  0
    0.0000   -1.8558    0.0000 O   0  0  0  0  0  0  0  0  0  0  0  0
  1  2  1  0
  2  3  1  0
  3  4  1  6
  3  5  1  0
  5  6  2  0
  5  7  1  0
M  END
>  <rName>  (3840) 
bAib_S

>  <PQ_SYMBOL>  (3840) 
bAib_S

>  <FULL_NAME>  (3840) 
L-Beta2-Homo-Alanine

>  <IUPAC_CONDENSED>  (3840) 
bAib(S)

>  <IUPAC>  (3840) 
(2S)-3-amino-2-methylpropanoic acid

>  <TYPE>  (3840) 
Backbone

>  <CLASS>  (3840) 
beta

>  <ANALOG>  (3840) 
Ala

>  <MOL_WT>  (3840) 
103.12099999999998

>  <LOGP>  (3840) 
-0.3342000000000001

>  <TPSA>  (3840) 
63.32000000000001

>  <POPULARITY>  (3840) 
20.7

>  <PROTECTED>  (3840) 
TRUE

>  <SMILES>  (3840) 
NC[C@H](C)C(=O)O

>  <INCHIKEY>  (3840) 
QCHPKSFMDHPSNR-VKHMYHEASA-N

$$$$
bAla
     RDKit          2D

  6  5  0  0  0  0  0  0  0  0999 V2000
    2.8748   -0.2197    0.0000 N   0  0  0  0  0  0  0  0  0  0  0  0
    1.4825    0.3386    0.0000 C   0  0  0  0  0  0  0  0  0  0  0  0
    0.3029   -0.5880    0.0000 C   0  0  0  0  0  0  0  0  0  0  0  0
   -1.0893   -0.0297    0.0000 C   0  0  0  0  0  0  0  0  0  0  0  0
   -1.3020    1.4551    0.0000 O   0  0  0  0  0  0  0  0  0  0  0  0
   -2.2689   -0.9563    0.0000 O   0  0  0  0  0  0  0  0  0  0  0  0
  1  2  1  0
  2  3  1  0
  3  4  1  0
  4  5  2  0
  4  6  1  0
M  END
>  <rName>  (3841) 
bAla

>  <PQ_SYMBOL>  (3841) 
bAla

>  <FULL_NAME>  (3841) 
beta-Alanine

>  <IUPAC_CONDENSED>  (3841) 
bAla

>  <IUPAC>  (3841) 
3-aminopropanoic acid

>  <TYPE>  (3841) 
Backbone

>  <CLASS>  (3841) 
beta

>  <ANALOG>  (3841) 
Gly

>  <MOL_WT>  (3841) 
89.09399999999998

>  <LOGP>  (3841) 
-0.5802

>  <TPSA>  (3841) 
63.32000000000001

>  <POPULARITY>  (3841) 
19.4

>  <PROTECTED>  (3841) 
TRUE

>  <SMILES>  (3841) 
NCCC(=O)O

>  <INCHIKEY>  (3841) 
UCMIRNVEIXFBKS-UHFFFAOYSA-N

$$$$
bAla-Gly
     RDKit          2D

 10  9  0  0  0  0  0  0  0  0999 V2000
   -0.4160   -0.3456    0.0000 N   0  0  0  0  0  0  0  0  0  0  0  0
    0.9342    0.3078    0.0000 C   0  0  0  0  0  0  0  0  0  0  0  0
    1.0434    1.8038    0.0000 O   0  0  0  0  0  0  0  0  0  0  0  0
    2.1752   -0.5348    0.0000 C   0  0  0  0  0  0  0  0  0  0  0  0
    3.5254    0.1186    0.0000 C   0  0  0  0  0  0  0  0  0  0  0  0
    4.7664   -0.7239    0.0000 N   0  0  0  0  0  0  0  0  0  0  0  0
   -1.6570    0.4970    0.0000 C   0  0  0  0  0  0  0  0  0  0  0  0
   -3.0072   -0.1565    0.0000 C   0  0  0  0  0  0  0  0  0  0  0  0
   -3.1164   -1.6525    0.0000 O   0  0  0  0  0  0  0  0  0  0  0  0
   -4.2481    0.6861    0.0000 O   0  0  0  0  0  0  0  0  0  0  0  0
  1  2  1  0
  2  3  2  0
  2  4  1  0
  4  5  1  0
  5  6  1  0
  1  7  1  0
  7  8  1  0
  8  9  2  0
  8 10  1  0
M  END
>  <rName>  (3842) 
bAla-Gly

>  <PQ_SYMBOL>  (3842) 
bAla-Gly

>  <FULL_NAME>  (3842) 
(3-aminopropanoyl)glycine

>  <IUPAC_CONDENSED>  (3842) 
bAla-Gly

>  <IUPAC>  (3842) 
2-(2-aminoethylcarbonylamino)acetic acid

>  <TYPE>  (3842) 
Backbone

>  <CLASS>  (3842) 
alpha

>  <ANALOG>  (3842) 
Gly

>  <MOL_WT>  (3842) 
146.14600000000002

>  <LOGP>  (3842) 
-1.463999999999999

>  <TPSA>  (3842) 
92.42

>  <POPULARITY>  (3842) 
13.8

>  <PROTECTED>  (3842) 
TRUE

>  <SMILES>  (3842) 
N(C(=O)CCN)CC(=O)O

>  <INCHIKEY>  (3842) 
QDHYJVJAGQLHBA-UHFFFAOYSA-N

$$$$
bAla-Ile
     RDKit          2D

 14 13  0  0  0  0  0  0  0  0999 V2000
    0.3830    0.9833    0.0000 N   0  0  0  0  0  0  0  0  0  0  0  0
    1.5967    0.1019    0.0000 C   0  0  0  0  0  0  0  0  0  0  0  0
    1.4403   -1.3899    0.0000 O   0  0  0  0  0  0  0  0  0  0  0  0
    2.9669    0.7123    0.0000 C   0  0  0  0  0  0  0  0  0  0  0  0
    4.1806   -0.1691    0.0000 C   0  0  0  0  0  0  0  0  0  0  0  0
    5.5508    0.4414    0.0000 N   0  0  0  0  0  0  0  0  0  0  0  0
   -0.9872    0.3728    0.0000 C   0  0  0  0  0  0  0  0  0  0  0  0
   -2.2009    1.2542    0.0000 C   0  0  0  0  0  0  0  0  0  0  0  0
   -2.0445    2.7460    0.0000 C   0  0  0  0  0  0  0  0  0  0  0  0
   -3.5711    0.6438    0.0000 C   0  0  0  0  0  0  0  0  0  0  0  0
   -3.7275   -0.8480    0.0000 C   0  0  0  0  0  0  0  0  0  0  0  0
   -1.1436   -1.1190    0.0000 C   0  0  0  0  0  0  0  0  0  0  0  0
   -2.5138   -1.7294    0.0000 O   0  0  0  0  0  0  0  0  0  0  0  0
    0.0701   -2.0004    0.0000 O   0  0  0  0  0  0  0  0  0  0  0  0
  1  2  1  0
  2  3  2  0
  2  4  1  0
  4  5  1  0
  5  6  1  0
  7  1  1  6
  7  8  1  0
  8  9  1  6
  8 10  1  0
 10 11  1  0
  7 12  1  0
 12 13  2  0
 12 14  1  0
M  END
>  <rName>  (3843) 
bAla-Ile

>  <PQ_SYMBOL>  (3843) 
bAla-Ile

>  <FULL_NAME>  (3843) 
beta-Alanyl-l-isoleucine

>  <IUPAC_CONDENSED>  (3843) 
bAla-Ile

>  <IUPAC>  (3843) 
(2S,3S)-2-(2-aminoethylcarbonylamino)-3-methylpentanoic acid

>  <TYPE>  (3843) 
Backbone

>  <CLASS>  (3843) 
alpha

>  <ANALOG>  (3843) 
Ile

>  <MOL_WT>  (3843) 
202.25399999999996

>  <LOGP>  (3843) 
-0.04929999999999929

>  <TPSA>  (3843) 
92.42

>  <POPULARITY>  (3843) 
7.4

>  <PROTECTED>  (3843) 
TRUE

>  <SMILES>  (3843) 
N(C(=O)CCN)[C@@H]([C@@H](C)CC)C(=O)O

>  <INCHIKEY>  (3843) 
GGUBVMQYYFJPFQ-XPUUQOCRSA-N

$$$$
bAla-Leu
     RDKit          2D

 14 13  0  0  0  0  0  0  0  0999 V2000
   -0.0047   -0.4910    0.0000 N   0  0  0  0  0  0  0  0  0  0  0  0
    1.4173   -0.0135    0.0000 C   0  0  0  0  0  0  0  0  0  0  0  0
    1.7148    1.4567    0.0000 O   0  0  0  0  0  0  0  0  0  0  0  0
    2.5418   -1.0063    0.0000 C   0  0  0  0  0  0  0  0  0  0  0  0
    3.9638   -0.5288    0.0000 C   0  0  0  0  0  0  0  0  0  0  0  0
    5.0882   -1.5216    0.0000 N   0  0  0  0  0  0  0  0  0  0  0  0
   -1.1292    0.5018    0.0000 C   0  0  0  0  0  0  0  0  0  0  0  0
   -2.5511    0.0243    0.0000 C   0  0  0  0  0  0  0  0  0  0  0  0
   -2.8487   -1.4459    0.0000 C   0  0  0  0  0  0  0  0  0  0  0  0
   -4.2706   -1.9233    0.0000 C   0  0  0  0  0  0  0  0  0  0  0  0
   -1.7242   -2.4386    0.0000 C   0  0  0  0  0  0  0  0  0  0  0  0
   -0.8316    1.9720    0.0000 C   0  0  0  0  0  0  0  0  0  0  0  0
   -1.9561    2.9647    0.0000 O   0  0  0  0  0  0  0  0  0  0  0  0
    0.5903    2.4494    0.0000 O   0  0  0  0  0  0  0  0  0  0  0  0
  1  2  1  0
  2  3  2  0
  2  4  1  0
  4  5  1  0
  5  6  1  0
  1  7  1  0
  7  8  1  1
  8  9  1  0
  9 10  1  0
  9 11  1  0
  7 12  1  0
 12 13  2  0
 12 14  1  0
M  END
>  <rName>  (3844) 
bAla-Leu

>  <PQ_SYMBOL>  (3844) 
bAla-Leu

>  <FULL_NAME>  (3844) 
(3-aminopropanoyl)-L-leucine

>  <IUPAC_CONDENSED>  (3844) 
bAla-Leu

>  <IUPAC>  (3844) 
(2S)-2-(2-aminoethylcarbonylamino)-4-methylpentanoic acid

>  <TYPE>  (3844) 
Backbone

>  <CLASS>  (3844) 
alpha

>  <ANALOG>  (3844) 
Leu

>  <MOL_WT>  (3844) 
202.254

>  <LOGP>  (3844) 
-0.04929999999999929

>  <TPSA>  (3844) 
92.42

>  <POPULARITY>  (3844) 
8.8

>  <PROTECTED>  (3844) 
TRUE

>  <SMILES>  (3844) 
N(C(=O)CCN)[C@@H](CC(C)C)C(=O)O

>  <INCHIKEY>  (3844) 
YVFFCSSMTOXAQS-ZETCQYMHSA-N

$$$$
bAla-Lys
     RDKit          2D

 15 14  0  0  0  0  0  0  0  0999 V2000
    1.1076   -0.9712    0.0000 N   0  0  0  0  0  0  0  0  0  0  0  0
    2.4206   -0.2460    0.0000 C   0  0  0  0  0  0  0  0  0  0  0  0
    2.4491    1.2538    0.0000 O   0  0  0  0  0  0  0  0  0  0  0  0
    3.7052   -1.0205    0.0000 C   0  0  0  0  0  0  0  0  0  0  0  0
    5.0182   -0.2953    0.0000 C   0  0  0  0  0  0  0  0  0  0  0  0
    6.3028   -1.0698    0.0000 N   0  0  0  0  0  0  0  0  0  0  0  0
   -0.1770   -0.1967    0.0000 C   0  0  0  0  0  0  0  0  0  0  0  0
   -1.4900   -0.9219    0.0000 C   0  0  0  0  0  0  0  0  0  0  0  0
   -2.7746   -0.1474    0.0000 C   0  0  0  0  0  0  0  0  0  0  0  0
   -4.0876   -0.8726    0.0000 C   0  0  0  0  0  0  0  0  0  0  0  0
   -5.3722   -0.0981    0.0000 C   0  0  0  0  0  0  0  0  0  0  0  0
   -6.6852   -0.8233    0.0000 N   0  0  0  0  0  0  0  0  0  0  0  0
   -0.1485    1.3031    0.0000 C   0  0  0  0  0  0  0  0  0  0  0  0
    1.1645    2.0283    0.0000 O   0  0  0  0  0  0  0  0  0  0  0  0
   -1.4331    2.0776    0.0000 O   0  0  0  0  0  0  0  0  0  0  0  0
  1  2  1  0
  2  3  2  0
  2  4  1  0
  4  5  1  0
  5  6  1  0
  1  7  1  0
  7  8  1  1
  8  9  1  0
  9 10  1  0
 10 11  1  0
 11 12  1  0
  7 13  1  0
 13 14  2  0
 13 15  1  0
M  END
>  <rName>  (3845) 
bAla-Lys

>  <PQ_SYMBOL>  (3845) 
bAla-Lys

>  <FULL_NAME>  (3845) 
(3-aminopropanoyl)-L-lysine

>  <IUPAC_CONDENSED>  (3845) 
bAla-Lys

>  <IUPAC>  (3845) 
(2S)-6-amino-2-(2-aminoethylcarbonylamino)hexanoic acid

>  <TYPE>  (3845) 
Backbone

>  <CLASS>  (3845) 
alpha

>  <ANALOG>  (3845) 
Lys

>  <MOL_WT>  (3845) 
217.26899999999998

>  <LOGP>  (3845) 
-0.9663999999999981

>  <TPSA>  (3845) 
118.44000000000001

>  <POPULARITY>  (3845) 
6.6

>  <PROTECTED>  (3845) 
TRUE

>  <SMILES>  (3845) 
N(C(=O)CCN)[C@@H](CCCCN)C(=O)O

>  <INCHIKEY>  (3845) 
PLDCWKCPEXNWJH-ZETCQYMHSA-N

$$$$
bAla-NHMe
     RDKit          2D

 13 13  0  0  0  0  0  0  0  0999 V2000
   -5.9021    1.0545    0.0000 N   0  0  0  0  0  0  0  0  0  0  0  0
   -4.7552    0.0877    0.0000 C   0  0  0  0  0  0  0  0  0  0  0  0
   -3.3445    0.5976    0.0000 C   0  0  0  0  0  0  0  0  0  0  0  0
   -2.1976   -0.3692    0.0000 C   0  0  0  0  0  0  0  0  0  0  0  0
   -2.4615   -1.8458    0.0000 O   0  0  0  0  0  0  0  0  0  0  0  0
   -0.7869    0.1406    0.0000 N   0  0  0  0  0  0  0  0  0  0  0  0
    0.3599   -0.8262    0.0000 C   0  0  0  0  0  0  0  0  0  0  0  0
    1.7706   -0.3164    0.0000 C   0  0  0  0  0  0  0  0  0  0  0  0
    2.0345    1.1603    0.0000 C   0  0  0  0  0  0  0  0  0  0  0  0
    3.4452    1.6701    0.0000 C   0  0  0  0  0  0  0  0  0  0  0  0
    4.5920    0.7033    0.0000 C   0  0  0  0  0  0  0  0  0  0  0  0
    4.3282   -0.7733    0.0000 N   0  0  0  0  0  0  0  0  0  0  0  0
    2.9175   -1.2831    0.0000 C   0  0  0  0  0  0  0  0  0  0  0  0
  1  2  1  0
  2  3  1  0
  3  4  1  0
  4  5  2  0
  4  6  1  0
  6  7  1  0
  7  8  1  0
  8  9  2  0
  9 10  1  0
 10 11  2  0
 11 12  1  0
 12 13  2  0
 13  8  1  0
M  END
>  <rName>  (3846) 
bAla-NHMe

>  <PQ_SYMBOL>  (3846) 
bAla-NHMe

>  <FULL_NAME>  (3846) 
3-amino-N-(pyridin-3-ylmethyl)propanamide

>  <IUPAC_CONDENSED>  (3846) 
bAla-NHMe

>  <IUPAC>  (3846) 
3-amino-N-((pyridin-3-yl)methyl)propanamide

>  <TYPE>  (3846) 
C-term cap

>  <CLASS>  (3846) 
c_cap

>  <ANALOG>  (3846) 
X

>  <MOL_WT>  (3846) 
179.223

>  <LOGP>  (3846) 
0.04659999999999975

>  <TPSA>  (3846) 
68.01

>  <POPULARITY>  (3846) 
8.5

>  <PROTECTED>  (3846) 
TRUE

>  <SMILES>  (3846) 
NCCC(=O)NCc1cccnc1

>  <INCHIKEY>  (3846) 
IFUCMVSFAKXATJ-UHFFFAOYSA-N

$$$$
bAla-Phe
     RDKit          2D

 17 17  0  0  0  0  0  0  0  0999 V2000
   -0.6131    0.0745    0.0000 N   0  0  0  0  0  0  0  0  0  0  0  0
   -2.1022    0.2554    0.0000 C   0  0  0  0  0  0  0  0  0  0  0  0
   -3.0034   -0.9437    0.0000 O   0  0  0  0  0  0  0  0  0  0  0  0
   -2.6901    1.6354    0.0000 C   0  0  0  0  0  0  0  0  0  0  0  0
   -4.1791    1.8163    0.0000 C   0  0  0  0  0  0  0  0  0  0  0  0
   -4.7670    3.1963    0.0000 N   0  0  0  0  0  0  0  0  0  0  0  0
   -0.0253   -1.3055    0.0000 C   0  0  0  0  0  0  0  0  0  0  0  0
    1.4638   -1.4864    0.0000 C   0  0  0  0  0  0  0  0  0  0  0  0
    2.3650   -0.2873    0.0000 C   0  0  0  0  0  0  0  0  0  0  0  0
    1.7771    1.0927    0.0000 C   0  0  0  0  0  0  0  0  0  0  0  0
    2.6783    2.2918    0.0000 C   0  0  0  0  0  0  0  0  0  0  0  0
    4.1673    2.1109    0.0000 C   0  0  0  0  0  0  0  0  0  0  0  0
    4.7552    0.7309    0.0000 C   0  0  0  0  0  0  0  0  0  0  0  0
    3.8540   -0.4682    0.0000 C   0  0  0  0  0  0  0  0  0  0  0  0
   -0.9265   -2.5046    0.0000 C   0  0  0  0  0  0  0  0  0  0  0  0
   -0.3386   -3.8846    0.0000 O   0  0  0  0  0  0  0  0  0  0  0  0
   -2.4155   -2.3237    0.0000 O   0  0  0  0  0  0  0  0  0  0  0  0
  1  2  1  0
  2  3  2  0
  2  4  1  0
  4  5  1  0
  5  6  1  0
  1  7  1  0
  7  8  1  1
  8  9  1  0
  9 10  2  0
 10 11  1  0
 11 12  2  0
 12 13  1  0
 13 14  2  0
  7 15  1  0
 15 16  2  0
 15 17  1  0
 14  9  1  0
M  END
>  <rName>  (3847) 
bAla-Phe

>  <PQ_SYMBOL>  (3847) 
bAla-Phe

>  <FULL_NAME>  (3847) 
(3-aminopropanoyl)-L-phenylalanine

>  <IUPAC_CONDENSED>  (3847) 
bAla-Phe

>  <IUPAC>  (3847) 
(2S)-2-(2-aminoethylcarbonylamino)-3-phenylpropanoic acid

>  <TYPE>  (3847) 
Backbone

>  <CLASS>  (3847) 
alpha

>  <ANALOG>  (3847) 
Phe

>  <MOL_WT>  (3847) 
236.27100000000004

>  <LOGP>  (3847) 
0.14730000000000038

>  <TPSA>  (3847) 
92.42

>  <POPULARITY>  (3847) 
8.3

>  <PROTECTED>  (3847) 
TRUE

>  <SMILES>  (3847) 
N(C(=O)CCN)[C@@H](Cc1(ccccc1))C(=O)O

>  <INCHIKEY>  (3847) 
FLJLAJANCPPHDW-JTQLQIEISA-N

$$$$
bAla-Val
     RDKit          2D

 13 12  0  0  0  0  0  0  0  0999 V2000
    0.0515    0.9216    0.0000 N   0  0  0  0  0  0  0  0  0  0  0  0
    1.3067    0.1004    0.0000 C   0  0  0  0  0  0  0  0  0  0  0  0
    1.2230   -1.3973    0.0000 O   0  0  0  0  0  0  0  0  0  0  0  0
    2.6455    0.7768    0.0000 C   0  0  0  0  0  0  0  0  0  0  0  0
    3.9007   -0.0445    0.0000 C   0  0  0  0  0  0  0  0  0  0  0  0
    5.2395    0.6320    0.0000 N   0  0  0  0  0  0  0  0  0  0  0  0
   -1.2874    0.2452    0.0000 C   0  0  0  0  0  0  0  0  0  0  0  0
   -2.5426    1.0665    0.0000 C   0  0  0  0  0  0  0  0  0  0  0  0
   -2.4589    2.5642    0.0000 C   0  0  0  0  0  0  0  0  0  0  0  0
   -3.8814    0.3901    0.0000 C   0  0  0  0  0  0  0  0  0  0  0  0
   -1.3710   -1.2524    0.0000 C   0  0  0  0  0  0  0  0  0  0  0  0
   -2.7098   -1.9288    0.0000 O   0  0  0  0  0  0  0  0  0  0  0  0
   -0.1158   -2.0737    0.0000 O   0  0  0  0  0  0  0  0  0  0  0  0
  1  2  1  0
  2  3  2  0
  2  4  1  0
  4  5  1  0
  5  6  1  0
  7  1  1  6
  7  8  1  0
  8  9  1  0
  8 10  1  0
  7 11  1  0
 11 12  2  0
 11 13  1  0
M  END
>  <rName>  (3848) 
bAla-Val

>  <PQ_SYMBOL>  (3848) 
bAla-Val

>  <FULL_NAME>  (3848) 
beta-Alanyl-L-valine

>  <IUPAC_CONDENSED>  (3848) 
bAla-Val

>  <IUPAC>  (3848) 
(2S)-2-(2-aminoethylcarbonylamino)-3-methylbutanoic acid

>  <TYPE>  (3848) 
Backbone

>  <CLASS>  (3848) 
alpha

>  <ANALOG>  (3848) 
Val

>  <MOL_WT>  (3848) 
188.22699999999998

>  <LOGP>  (3848) 
-0.4393999999999992

>  <TPSA>  (3848) 
92.42

>  <POPULARITY>  (3848) 
10.6

>  <PROTECTED>  (3848) 
TRUE

>  <SMILES>  (3848) 
N(C(=O)CCN)[C@@H](C(C)C)C(=O)O

>  <INCHIKEY>  (3848) 
DVIZUEAPVZZYCO-ZETCQYMHSA-N

$$$$
bAla-bAla
     RDKit          2D

 11 10  0  0  0  0  0  0  0  0999 V2000
   -0.2612    0.6726    0.0000 N   0  0  0  0  0  0  0  0  0  0  0  0
   -1.5317   -0.1248    0.0000 C   0  0  0  0  0  0  0  0  0  0  0  0
   -1.4763   -1.6237    0.0000 O   0  0  0  0  0  0  0  0  0  0  0  0
   -2.8575    0.5768    0.0000 C   0  0  0  0  0  0  0  0  0  0  0  0
   -4.1280   -0.2206    0.0000 C   0  0  0  0  0  0  0  0  0  0  0  0
   -5.4538    0.4810    0.0000 N   0  0  0  0  0  0  0  0  0  0  0  0
    1.0646   -0.0289    0.0000 C   0  0  0  0  0  0  0  0  0  0  0  0
    2.3351    0.7685    0.0000 C   0  0  0  0  0  0  0  0  0  0  0  0
    3.6609    0.0669    0.0000 C   0  0  0  0  0  0  0  0  0  0  0  0
    3.7163   -1.4321    0.0000 O   0  0  0  0  0  0  0  0  0  0  0  0
    4.9314    0.8643    0.0000 O   0  0  0  0  0  0  0  0  0  0  0  0
  1  2  1  0
  2  3  2  0
  2  4  1  0
  4  5  1  0
  5  6  1  0
  1  7  1  0
  7  8  1  0
  8  9  1  0
  9 10  2  0
  9 11  1  0
M  END
>  <rName>  (3849) 
bAla-bAla

>  <PQ_SYMBOL>  (3849) 
bAla-bAla

>  <FULL_NAME>  (3849) 
3-(3-Aminopropanoylamino)propanoic acid

>  <IUPAC_CONDENSED>  (3849) 
bAla-bAla

>  <IUPAC>  (3849) 
3-(2-aminoethylcarbonylamino)propanoic acid

>  <TYPE>  (3849) 
Backbone

>  <CLASS>  (3849) 
beta

>  <ANALOG>  (3849) 
Gly

>  <MOL_WT>  (3849) 
160.17300000000003

>  <LOGP>  (3849) 
-1.0738999999999992

>  <TPSA>  (3849) 
92.42

>  <POPULARITY>  (3849) 
10.8

>  <PROTECTED>  (3849) 
TRUE

>  <SMILES>  (3849) 
N(C(=O)CCN)CCC(=O)O

>  <INCHIKEY>  (3849) 
DWCSTCCKNZMDHA-UHFFFAOYSA-N

$$$$
bAla3S-CH2OHbb-diOH-NH2
     RDKit          2D

 10  9  0  0  0  0  0  0  0  0999 V2000
   -0.0629   -1.7674    0.0000 N   0  0  0  0  0  0  0  0  0  0  0  0
   -0.3412   -0.2934    0.0000 C   0  0  0  0  0  0  0  0  0  0  0  0
   -1.7568    0.2026    0.0000 C   0  0  0  0  0  0  0  0  0  0  0  0
   -3.1725    0.6986    0.0000 O   0  0  0  0  0  0  0  0  0  0  0  0
   -2.2528   -1.2130    0.0000 O   0  0  0  0  0  0  0  0  0  0  0  0
   -1.2608    1.6182    0.0000 O   0  0  0  0  0  0  0  0  0  0  0  0
    0.7961    0.6846    0.0000 C   0  0  0  0  0  0  0  0  0  0  0  0
    2.2118    0.1886    0.0000 C   0  0  0  0  0  0  0  0  0  0  0  0
    3.3491    1.1666    0.0000 N   0  0  0  0  0  0  0  0  0  0  0  0
    2.4900   -1.2854    0.0000 O   0  0  0  0  0  0  0  0  0  0  0  0
  2  1  1  6
  2  3  1  0
  3  4  1  0
  3  5  1  0
  3  6  1  0
  2  7  1  0
  7  8  1  0
  8  9  1  0
  8 10  2  0
M  END
>  <rName>  (3850) 
bAla3S-CH2OHbb-diOH-NH2

>  <PQ_SYMBOL>  (3850) 
bAla3S-CH2OHbb-diOH-NH2

>  <FULL_NAME>  (3850) 
(3S)-3-amino-4,4,4-trihydroxybutanamide

>  <IUPAC_CONDENSED>  (3850) 
bAla(3S-CH2OH,b,b-diOH)-NH2

>  <IUPAC>  (3850) 
(3S)-3-amino-4,4,4-trihydroxybutanamide

>  <TYPE>  (3850) 
C-term cap

>  <CLASS>  (3850) 
c_cap

>  <ANALOG>  (3850) 
X

>  <MOL_WT>  (3850) 
150.13399999999996

>  <LOGP>  (3850) 
-3.180200000000001

>  <TPSA>  (3850) 
129.8

>  <POPULARITY>  (3850) 
3.3

>  <PROTECTED>  (3850) 
FALSE

>  <SMILES>  (3850) 
N[C@H](C(O)(O)O)CC(N)=O

>  <INCHIKEY>  (3850) 
USGVMGIFCLHDGU-REOHCLBHSA-N

$$$$
bAla_23diMe
     RDKit          2D

  8  7  0  0  0  0  0  0  0  0999 V2000
    2.5981   -0.5625    0.0000 N   0  0  0  0  0  0  0  0  0  0  0  0
    1.2990    0.1875    0.0000 C   0  0  0  0  0  0  0  0  0  0  0  0
    1.2990    1.6875    0.0000 C   0  0  0  0  0  0  0  0  0  0  0  0
    0.0000   -0.5625    0.0000 C   0  0  0  0  0  0  0  0  0  0  0  0
    0.0000   -2.0625    0.0000 C   0  0  0  0  0  0  0  0  0  0  0  0
   -1.2990    0.1875    0.0000 C   0  0  0  0  0  0  0  0  0  0  0  0
   -1.2990    1.6875    0.0000 O   0  0  0  0  0  0  0  0  0  0  0  0
   -2.5981   -0.5625    0.0000 O   0  0  0  0  0  0  0  0  0  0  0  0
  1  2  1  0
  2  3  1  0
  2  4  1  0
  4  5  1  0
  4  6  1  0
  6  7  2  0
  6  8  1  0
M  END
>  <rName>  (3851) 
bAla_23diMe

>  <PQ_SYMBOL>  (3851) 
bAla_23diMe

>  <FULL_NAME>  (3851) 
3-Amino-2-methylbutanoic acid

>  <IUPAC_CONDENSED>  (3851) 
bAla(2,3-diMe)

>  <IUPAC>  (3851) 
3-amino-2-methylbutanoic acid

>  <TYPE>  (3851) 
Backbone

>  <CLASS>  (3851) 
beta

>  <ANALOG>  (3851) 
Ala

>  <MOL_WT>  (3851) 
117.14799999999998

>  <LOGP>  (3851) 
0.05429999999999996

>  <TPSA>  (3851) 
63.32000000000001

>  <POPULARITY>  (3851) 
15.4

>  <PROTECTED>  (3851) 
TRUE

>  <SMILES>  (3851) 
NC(C)C(C)C(=O)O

>  <INCHIKEY>  (3851) 
RRWPLOJQTOADRZ-UHFFFAOYSA-N

$$$$
bAla_2Bn
     RDKit          2D

 13 13  0  0  0  0  0  0  0  0999 V2000
   -4.2270   -0.4748    0.0000 N   0  0  0  0  0  0  0  0  0  0  0  0
   -2.9684   -1.2908    0.0000 C   0  0  0  0  0  0  0  0  0  0  0  0
   -1.6324   -0.6089    0.0000 C   0  0  0  0  0  0  0  0  0  0  0  0
   -0.3738   -1.4249    0.0000 C   0  0  0  0  0  0  0  0  0  0  0  0
    0.9622   -0.7430    0.0000 C   0  0  0  0  0  0  0  0  0  0  0  0
    1.0396    0.7550    0.0000 C   0  0  0  0  0  0  0  0  0  0  0  0
    2.3756    1.4370    0.0000 C   0  0  0  0  0  0  0  0  0  0  0  0
    3.6342    0.6210    0.0000 C   0  0  0  0  0  0  0  0  0  0  0  0
    3.5568   -0.8770    0.0000 C   0  0  0  0  0  0  0  0  0  0  0  0
    2.2208   -1.5590    0.0000 C   0  0  0  0  0  0  0  0  0  0  0  0
   -1.5550    0.8891    0.0000 C   0  0  0  0  0  0  0  0  0  0  0  0
   -0.2190    1.5711    0.0000 O   0  0  0  0  0  0  0  0  0  0  0  0
   -2.8136    1.7052    0.0000 O   0  0  0  0  0  0  0  0  0  0  0  0
  1  2  1  0
  2  3  1  0
  3  4  1  0
  4  5  1  0
  5  6  2  0
  6  7  1  0
  7  8  2  0
  8  9  1  0
  9 10  2  0
  3 11  1  0
 11 12  2  0
 11 13  1  0
 10  5  1  0
M  END
>  <rName>  (3852) 
bAla_2Bn

>  <PQ_SYMBOL>  (3852) 
bAla_2Bn

>  <FULL_NAME>  (3852) 
3-Amino-2-benzylpropanoic acid

>  <IUPAC_CONDENSED>  (3852) 
bAla(2-Bn)

>  <IUPAC>  (3852) 
3-amino-2-benzylpropanoic acid

>  <TYPE>  (3852) 
Backbone

>  <CLASS>  (3852) 
beta

>  <ANALOG>  (3852) 
Phe

>  <MOL_WT>  (3852) 
179.21899999999997

>  <LOGP>  (3852) 
0.8885999999999998

>  <TPSA>  (3852) 
63.32000000000001

>  <POPULARITY>  (3852) 
14.6

>  <PROTECTED>  (3852) 
TRUE

>  <SMILES>  (3852) 
NCC(Cc1(ccccc1))C(=O)O

>  <INCHIKEY>  (3852) 
DJYVEBBGKNAHKE-UHFFFAOYSA-N

$$$$
bAla_2Bn_2Me
     RDKit          2D

 14 14  0  0  0  0  0  0  0  0999 V2000
   -4.3286   -0.7174    0.0000 N   0  0  0  0  0  0  0  0  0  0  0  0
   -2.9909   -1.3960    0.0000 C   0  0  0  0  0  0  0  0  0  0  0  0
   -1.7343   -0.5768    0.0000 C   0  0  0  0  0  0  0  0  0  0  0  0
   -0.3966   -1.2554    0.0000 C   0  0  0  0  0  0  0  0  0  0  0  0
    0.8600   -0.4362    0.0000 C   0  0  0  0  0  0  0  0  0  0  0  0
    0.7788    1.0616    0.0000 C   0  0  0  0  0  0  0  0  0  0  0  0
    2.0353    1.8808    0.0000 C   0  0  0  0  0  0  0  0  0  0  0  0
    3.3731    1.2021    0.0000 C   0  0  0  0  0  0  0  0  0  0  0  0
    3.4542   -0.2957    0.0000 C   0  0  0  0  0  0  0  0  0  0  0  0
    2.1977   -1.1149    0.0000 C   0  0  0  0  0  0  0  0  0  0  0  0
    2.2789   -2.6127    0.0000 C   0  0  0  0  0  0  0  0  0  0  0  0
   -1.8155    0.9210    0.0000 C   0  0  0  0  0  0  0  0  0  0  0  0
   -0.5589    1.7402    0.0000 O   0  0  0  0  0  0  0  0  0  0  0  0
   -3.1532    1.5996    0.0000 O   0  0  0  0  0  0  0  0  0  0  0  0
  1  2  1  0
  2  3  1  0
  3  4  1  0
  4  5  1  0
  5  6  2  0
  6  7  1  0
  7  8  2  0
  8  9  1  0
  9 10  2  0
 10 11  1  0
  3 12  1  0
 12 13  2  0
 12 14  1  0
 10  5  1  0
M  END
>  <rName>  (3853) 
bAla_2Bn_2Me

>  <PQ_SYMBOL>  (3853) 
bAla_2Bn_2Me

>  <FULL_NAME>  (3853) 
3-Amino-2-(2-methylbenzyl)propanoic acid

>  <IUPAC_CONDENSED>  (3853) 
bAla(2-Bn(2-Me))

>  <IUPAC>  (3853) 
3-amino-2-((2-methylphenyl)methyl)propanoic acid

>  <TYPE>  (3853) 
Backbone

>  <CLASS>  (3853) 
beta

>  <ANALOG>  (3853) 
Phe

>  <MOL_WT>  (3853) 
193.24599999999995

>  <LOGP>  (3853) 
1.1970199999999998

>  <TPSA>  (3853) 
63.32000000000001

>  <POPULARITY>  (3853) 
8.2

>  <PROTECTED>  (3853) 
TRUE

>  <SMILES>  (3853) 
NCC(Cc1(ccccc1C))C(=O)O

>  <INCHIKEY>  (3853) 
KZZXSXBPTLTOFP-UHFFFAOYSA-N

$$$$
bAla_2Bn_3F
     RDKit          2D

 14 14  0  0  0  0  0  0  0  0999 V2000
   -4.5179   -0.7795    0.0000 N   0  0  0  0  0  0  0  0  0  0  0  0
   -3.1886   -1.4743    0.0000 C   0  0  0  0  0  0  0  0  0  0  0  0
   -1.9221   -0.6705    0.0000 C   0  0  0  0  0  0  0  0  0  0  0  0
   -0.5928   -1.3654    0.0000 C   0  0  0  0  0  0  0  0  0  0  0  0
    0.6737   -0.5615    0.0000 C   0  0  0  0  0  0  0  0  0  0  0  0
    0.6107    0.9372    0.0000 C   0  0  0  0  0  0  0  0  0  0  0  0
    1.8772    1.7410    0.0000 C   0  0  0  0  0  0  0  0  0  0  0  0
    3.2065    1.0461    0.0000 C   0  0  0  0  0  0  0  0  0  0  0  0
    3.2695   -0.4525    0.0000 C   0  0  0  0  0  0  0  0  0  0  0  0
    4.5988   -1.1474    0.0000 F   0  0  0  0  0  0  0  0  0  0  0  0
    2.0030   -1.2564    0.0000 C   0  0  0  0  0  0  0  0  0  0  0  0
   -1.9850    0.8282    0.0000 C   0  0  0  0  0  0  0  0  0  0  0  0
   -0.7186    1.6320    0.0000 O   0  0  0  0  0  0  0  0  0  0  0  0
   -3.3144    1.5230    0.0000 O   0  0  0  0  0  0  0  0  0  0  0  0
  1  2  1  0
  2  3  1  0
  3  4  1  0
  4  5  1  0
  5  6  2  0
  6  7  1  0
  7  8  2  0
  8  9  1  0
  9 10  1  0
  9 11  2  0
  3 12  1  0
 12 13  2  0
 12 14  1  0
 11  5  1  0
M  END
>  <rName>  (3854) 
bAla_2Bn_3F

>  <PQ_SYMBOL>  (3854) 
bAla_2Bn_3F

>  <FULL_NAME>  (3854) 
2-(Aminomethyl)-3-(3-fluorophenyl)propanoic acid

>  <IUPAC_CONDENSED>  (3854) 
bAla(2-Bn(3-F))

>  <IUPAC>  (3854) 
3-amino-2-((3-fluorophenyl)methyl)propanoic acid

>  <TYPE>  (3854) 
Backbone

>  <CLASS>  (3854) 
beta

>  <ANALOG>  (3854) 
Phe

>  <MOL_WT>  (3854) 
197.20899999999997

>  <LOGP>  (3854) 
1.0277

>  <TPSA>  (3854) 
63.32000000000001

>  <POPULARITY>  (3854) 
8.3

>  <PROTECTED>  (3854) 
TRUE

>  <SMILES>  (3854) 
NCC(Cc1(cccc(F)c1))C(=O)O

>  <INCHIKEY>  (3854) 
USFZHZWKZDLANT-UHFFFAOYSA-N

$$$$
bAla_2Bn_4Cl
     RDKit          2D

 14 14  0  0  0  0  0  0  0  0999 V2000
   -4.6111   -0.2348    0.0000 N   0  0  0  0  0  0  0  0  0  0  0  0
   -3.4149   -1.1398    0.0000 C   0  0  0  0  0  0  0  0  0  0  0  0
   -2.0330   -0.5563    0.0000 C   0  0  0  0  0  0  0  0  0  0  0  0
   -0.8368   -1.4613    0.0000 C   0  0  0  0  0  0  0  0  0  0  0  0
    0.5451   -0.8778    0.0000 C   0  0  0  0  0  0  0  0  0  0  0  0
    0.7307    0.6107    0.0000 C   0  0  0  0  0  0  0  0  0  0  0  0
    2.1126    1.1942    0.0000 C   0  0  0  0  0  0  0  0  0  0  0  0
    3.3088    0.2892    0.0000 C   0  0  0  0  0  0  0  0  0  0  0  0
    4.6907    0.8727    0.0000 Cl  0  0  0  0  0  0  0  0  0  0  0  0
    3.1232   -1.1993    0.0000 C   0  0  0  0  0  0  0  0  0  0  0  0
    1.7413   -1.7828    0.0000 C   0  0  0  0  0  0  0  0  0  0  0  0
   -1.8474    0.9322    0.0000 C   0  0  0  0  0  0  0  0  0  0  0  0
   -0.4655    1.5157    0.0000 O   0  0  0  0  0  0  0  0  0  0  0  0
   -3.0436    1.8372    0.0000 O   0  0  0  0  0  0  0  0  0  0  0  0
  1  2  1  0
  2  3  1  0
  3  4  1  0
  4  5  1  0
  5  6  1  0
  6  7  2  0
  7  8  1  0
  8  9  1  0
  8 10  2  0
 10 11  1  0
  3 12  1  0
 12 13  2  0
 12 14  1  0
 11  5  2  0
M  END
>  <rName>  (3855) 
bAla_2Bn_4Cl

>  <PQ_SYMBOL>  (3855) 
bAla_2Bn_4Cl

>  <FULL_NAME>  (3855) 
3-Amino-2-(4-chlorobenzyl)propanoic Acid

>  <IUPAC_CONDENSED>  (3855) 
bAla(2-Bn(4-Cl))

>  <IUPAC>  (3855) 
3-amino-2-((4-chlorophenyl)methyl)propanoic acid

>  <TYPE>  (3855) 
Backbone

>  <CLASS>  (3855) 
beta

>  <ANALOG>  (3855) 
Phe

>  <MOL_WT>  (3855) 
213.664

>  <LOGP>  (3855) 
1.542

>  <TPSA>  (3855) 
63.32000000000001

>  <POPULARITY>  (3855) 
8.4

>  <PROTECTED>  (3855) 
TRUE

>  <SMILES>  (3855) 
NCC(Cc1(ccc(Cl)cc1))C(=O)O

>  <INCHIKEY>  (3855) 
DHPVJZGGWAJJBV-UHFFFAOYSA-N

$$$$
bAla_2Bn_4F
     RDKit          2D

 14 14  0  0  0  0  0  0  0  0999 V2000
   -4.6111   -0.2348    0.0000 N   0  0  0  0  0  0  0  0  0  0  0  0
   -3.4149   -1.1398    0.0000 C   0  0  0  0  0  0  0  0  0  0  0  0
   -2.0330   -0.5563    0.0000 C   0  0  0  0  0  0  0  0  0  0  0  0
   -0.8368   -1.4613    0.0000 C   0  0  0  0  0  0  0  0  0  0  0  0
    0.5451   -0.8778    0.0000 C   0  0  0  0  0  0  0  0  0  0  0  0
    0.7307    0.6107    0.0000 C   0  0  0  0  0  0  0  0  0  0  0  0
    2.1126    1.1942    0.0000 C   0  0  0  0  0  0  0  0  0  0  0  0
    3.3088    0.2892    0.0000 C   0  0  0  0  0  0  0  0  0  0  0  0
    4.6907    0.8727    0.0000 F   0  0  0  0  0  0  0  0  0  0  0  0
    3.1232   -1.1993    0.0000 C   0  0  0  0  0  0  0  0  0  0  0  0
    1.7413   -1.7828    0.0000 C   0  0  0  0  0  0  0  0  0  0  0  0
   -1.8474    0.9322    0.0000 C   0  0  0  0  0  0  0  0  0  0  0  0
   -0.4655    1.5157    0.0000 O   0  0  0  0  0  0  0  0  0  0  0  0
   -3.0436    1.8372    0.0000 O   0  0  0  0  0  0  0  0  0  0  0  0
  1  2  1  0
  2  3  1  0
  3  4  1  0
  4  5  1  0
  5  6  1  0
  6  7  2  0
  7  8  1  0
  8  9  1  0
  8 10  2  0
 10 11  1  0
  3 12  1  0
 12 13  2  0
 12 14  1  0
 11  5  2  0
M  END
>  <rName>  (3856) 
bAla_2Bn_4F

>  <PQ_SYMBOL>  (3856) 
bAla_2Bn_4F

>  <FULL_NAME>  (3856) 
2-(Aminomethyl)-3-(4-fluorophenyl)propanoic acid

>  <IUPAC_CONDENSED>  (3856) 
bAla(2-Bn(4-F))

>  <IUPAC>  (3856) 
3-amino-2-((4-fluorophenyl)methyl)propanoic acid

>  <TYPE>  (3856) 
Backbone

>  <CLASS>  (3856) 
beta

>  <ANALOG>  (3856) 
Phe

>  <MOL_WT>  (3856) 
197.209

>  <LOGP>  (3856) 
1.0276999999999998

>  <TPSA>  (3856) 
63.32000000000001

>  <POPULARITY>  (3856) 
9.6

>  <PROTECTED>  (3856) 
TRUE

>  <SMILES>  (3856) 
NCC(Cc1(ccc(F)cc1))C(=O)O

>  <INCHIKEY>  (3856) 
UVEFYKAGEYVTJB-UHFFFAOYSA-N

$$$$
bAla_2CF3
     RDKit          2D

 10  9  0  0  0  0  0  0  0  0999 V2000
    2.0049    1.8876    0.0000 N   0  0  0  0  0  0  0  0  0  0  0  0
    0.5117    1.7452    0.0000 C   0  0  0  0  0  0  0  0  0  0  0  0
   -0.1117    0.3808    0.0000 C   0  0  0  0  0  0  0  0  0  0  0  0
    0.7583   -0.8412    0.0000 C   0  0  0  0  0  0  0  0  0  0  0  0
    1.6282   -2.0631    0.0000 F   0  0  0  0  0  0  0  0  0  0  0  0
   -0.4637   -1.7111    0.0000 F   0  0  0  0  0  0  0  0  0  0  0  0
    1.9802    0.0288    0.0000 F   0  0  0  0  0  0  0  0  0  0  0  0
   -1.6049    0.2385    0.0000 C   0  0  0  0  0  0  0  0  0  0  0  0
   -2.4748    1.4604    0.0000 O   0  0  0  0  0  0  0  0  0  0  0  0
   -2.2282   -1.1259    0.0000 O   0  0  0  0  0  0  0  0  0  0  0  0
  1  2  1  0
  2  3  1  0
  3  4  1  0
  4  5  1  0
  4  6  1  0
  4  7  1  0
  3  8  1  0
  8  9  2  0
  8 10  1  0
M  END
>  <rName>  (3857) 
bAla_2CF3

>  <PQ_SYMBOL>  (3857) 
bAla_2CF3

>  <FULL_NAME>  (3857) 
2-(Aminomethyl)-3,3,3-trifluoropropanoic acid

>  <IUPAC_CONDENSED>  (3857) 
bAla(2-CF3)

>  <IUPAC>  (3857) 
3-amino-2-(trifluoromethyl)propanoic acid

>  <TYPE>  (3857) 
Backbone

>  <CLASS>  (3857) 
beta

>  <ANALOG>  (3857) 
X

>  <MOL_WT>  (3857) 
157.091

>  <LOGP>  (3857) 
0.20819999999999994

>  <TPSA>  (3857) 
63.32000000000001

>  <POPULARITY>  (3857) 
6.2

>  <PROTECTED>  (3857) 
TRUE

>  <SMILES>  (3857) 
NCC(C(F)(F)F)C(=O)O

>  <INCHIKEY>  (3857) 
JTVNVXKFDGVLJA-UHFFFAOYSA-N

$$$$
bAla_2CH2cPent
     RDKit          2D

 12 12  0  0  0  0  0  0  0  0999 V2000
   -3.9430   -0.5150    0.0000 N   0  0  0  0  0  0  0  0  0  0  0  0
   -2.6686   -1.3062    0.0000 C   0  0  0  0  0  0  0  0  0  0  0  0
   -1.3463   -0.5981    0.0000 C   0  0  0  0  0  0  0  0  0  0  0  0
   -0.0719   -1.3892    0.0000 C   0  0  0  0  0  0  0  0  0  0  0  0
    1.2505   -0.6812    0.0000 C   0  0  0  0  0  0  0  0  0  0  0  0
    2.6006   -1.3348    0.0000 C   0  0  0  0  0  0  0  0  0  0  0  0
    3.6394   -0.2527    0.0000 C   0  0  0  0  0  0  0  0  0  0  0  0
    2.9313    1.0696    0.0000 C   0  0  0  0  0  0  0  0  0  0  0  0
    1.4549    0.8048    0.0000 C   0  0  0  0  0  0  0  0  0  0  0  0
   -1.2983    0.9011    0.0000 C   0  0  0  0  0  0  0  0  0  0  0  0
    0.0241    1.6092    0.0000 O   0  0  0  0  0  0  0  0  0  0  0  0
   -2.5727    1.6923    0.0000 O   0  0  0  0  0  0  0  0  0  0  0  0
  1  2  1  0
  2  3  1  0
  3  4  1  0
  4  5  1  0
  5  6  1  0
  6  7  1  0
  7  8  1  0
  8  9  1  0
  3 10  1  0
 10 11  2  0
 10 12  1  0
  9  5  1  0
M  END
>  <rName>  (3858) 
bAla_2CH2cPent

>  <PQ_SYMBOL>  (3858) 
bAla_2CH2cPent

>  <FULL_NAME>  (3858) 
3-Amino-2-(cyclopentylmethyl)propanoic acid

>  <IUPAC_CONDENSED>  (3858) 
bAla(2-CH2cPent)

>  <IUPAC>  (3858) 
3-amino-2-(cyclopentylmethyl)propanoic acid

>  <TYPE>  (3858) 
Backbone

>  <CLASS>  (3858) 
beta

>  <ANALOG>  (3858) 
Ala

>  <MOL_WT>  (3858) 
171.24

>  <LOGP>  (3858) 
1.2262

>  <TPSA>  (3858) 
63.32000000000001

>  <POPULARITY>  (3858) 
8.1

>  <PROTECTED>  (3858) 
TRUE

>  <SMILES>  (3858) 
NCC(CC1(CCCC1))C(=O)O

>  <INCHIKEY>  (3858) 
YLRYOSMRXZIAHT-UHFFFAOYSA-N

$$$$
bAla_2CH2cPr
     RDKit          2D

 10 10  0  0  0  0  0  0  0  0999 V2000
   -3.3433   -0.5765    0.0000 N   0  0  0  0  0  0  0  0  0  0  0  0
   -2.0450   -1.3278    0.0000 C   0  0  0  0  0  0  0  0  0  0  0  0
   -0.7452   -0.5792    0.0000 C   0  0  0  0  0  0  0  0  0  0  0  0
    0.5531   -1.3305    0.0000 C   0  0  0  0  0  0  0  0  0  0  0  0
    1.8529   -0.5818    0.0000 C   0  0  0  0  0  0  0  0  0  0  0  0
    3.3529   -0.5833    0.0000 C   0  0  0  0  0  0  0  0  0  0  0  0
    2.6042    0.7165    0.0000 C   0  0  0  0  0  0  0  0  0  0  0  0
   -0.7437    0.9208    0.0000 C   0  0  0  0  0  0  0  0  0  0  0  0
    0.5561    1.6695    0.0000 O   0  0  0  0  0  0  0  0  0  0  0  0
   -2.0420    1.6722    0.0000 O   0  0  0  0  0  0  0  0  0  0  0  0
  1  2  1  0
  2  3  1  0
  3  4  1  0
  4  5  1  0
  5  6  1  0
  6  7  1  0
  3  8  1  0
  8  9  2  0
  8 10  1  0
  7  5  1  0
M  END
>  <rName>  (3859) 
bAla_2CH2cPr

>  <PQ_SYMBOL>  (3859) 
bAla_2CH2cPr

>  <FULL_NAME>  (3859) 
3-Amino-2-(cyclopropylmethyl)propanoic acid

>  <IUPAC_CONDENSED>  (3859) 
bAla(2-CH2cPr)

>  <IUPAC>  (3859) 
3-amino-2-(cyclopropylmethyl)propanoic acid

>  <TYPE>  (3859) 
Backbone

>  <CLASS>  (3859) 
beta

>  <ANALOG>  (3859) 
Ala

>  <MOL_WT>  (3859) 
143.186

>  <LOGP>  (3859) 
0.4460000000000001

>  <TPSA>  (3859) 
63.32000000000001

>  <POPULARITY>  (3859) 
7.4

>  <PROTECTED>  (3859) 
TRUE

>  <SMILES>  (3859) 
NCC(CC1(CC1))C(=O)O

>  <INCHIKEY>  (3859) 
HIWSIHHFNBIFNB-UHFFFAOYSA-N

$$$$
bAla_2CH2tBu
     RDKit          2D

 11 10  0  0  0  0  0  0  0  0999 V2000
    3.3434    0.8823    0.0000 N   0  0  0  0  0  0  0  0  0  0  0  0
    1.9642    1.4720    0.0000 C   0  0  0  0  0  0  0  0  0  0  0  0
    0.7638    0.5725    0.0000 C   0  0  0  0  0  0  0  0  0  0  0  0
   -0.6154    1.1622    0.0000 C   0  0  0  0  0  0  0  0  0  0  0  0
   -1.8157    0.2626    0.0000 C   0  0  0  0  0  0  0  0  0  0  0  0
   -2.7153    1.4629    0.0000 C   0  0  0  0  0  0  0  0  0  0  0  0
   -0.9161   -0.9377    0.0000 C   0  0  0  0  0  0  0  0  0  0  0  0
   -3.0160   -0.6370    0.0000 C   0  0  0  0  0  0  0  0  0  0  0  0
    0.9427   -0.9168    0.0000 C   0  0  0  0  0  0  0  0  0  0  0  0
   -0.2576   -1.8164    0.0000 O   0  0  0  0  0  0  0  0  0  0  0  0
    2.3220   -1.5065    0.0000 O   0  0  0  0  0  0  0  0  0  0  0  0
  1  2  1  0
  2  3  1  0
  3  4  1  0
  4  5  1  0
  5  6  1  0
  5  7  1  0
  5  8  1  0
  3  9  1  0
  9 10  2  0
  9 11  1  0
M  END
>  <rName>  (3860) 
bAla_2CH2tBu

>  <PQ_SYMBOL>  (3860) 
bAla_2CH2tBu

>  <FULL_NAME>  (3860) 
2-(Aminomethyl)-4,4-dimethylpentanoic acid

>  <IUPAC_CONDENSED>  (3860) 
bAla(2-CH2tBu)

>  <IUPAC>  (3860) 
2-(aminomethyl)-4,4-dimethylpentanoic acid

>  <TYPE>  (3860) 
Backbone

>  <CLASS>  (3860) 
beta

>  <ANALOG>  (3860) 
Leu

>  <MOL_WT>  (3860) 
159.22899999999998

>  <LOGP>  (3860) 
1.0821

>  <TPSA>  (3860) 
63.32000000000001

>  <POPULARITY>  (3860) 
11.7

>  <PROTECTED>  (3860) 
TRUE

>  <SMILES>  (3860) 
NCC(CC(C)(C)C)C(=O)O

>  <INCHIKEY>  (3860) 
APEZEKLNGXZEET-UHFFFAOYSA-N

$$$$
bAla_2Et
     RDKit          2D

  8  7  0  0  0  0  0  0  0  0999 V2000
    2.5981    0.5625    0.0000 N   0  0  0  0  0  0  0  0  0  0  0  0
    1.2990    1.3125    0.0000 C   0  0  0  0  0  0  0  0  0  0  0  0
    0.0000    0.5625    0.0000 C   0  0  0  0  0  0  0  0  0  0  0  0
   -1.2990    1.3125    0.0000 C   0  0  0  0  0  0  0  0  0  0  0  0
   -2.5981    0.5625    0.0000 C   0  0  0  0  0  0  0  0  0  0  0  0
    0.0000   -0.9375    0.0000 C   0  0  0  0  0  0  0  0  0  0  0  0
   -1.2990   -1.6875    0.0000 O   0  0  0  0  0  0  0  0  0  0  0  0
    1.2990   -1.6875    0.0000 O   0  0  0  0  0  0  0  0  0  0  0  0
  1  2  1  0
  2  3  1  0
  3  4  1  0
  4  5  1  0
  3  6  1  0
  6  7  2  0
  6  8  1  0
M  END
>  <rName>  (3861) 
bAla_2Et

>  <PQ_SYMBOL>  (3861) 
bAla_2Et

>  <FULL_NAME>  (3861) 
2-(Aminomethyl)butanoic acid

>  <IUPAC_CONDENSED>  (3861) 
bAla(2-Et)

>  <IUPAC>  (3861) 
2-(aminomethyl)butanoic acid

>  <TYPE>  (3861) 
Backbone

>  <CLASS>  (3861) 
beta

>  <ANALOG>  (3861) 
Ala

>  <MOL_WT>  (3861) 
117.14799999999998

>  <LOGP>  (3861) 
0.05590000000000023

>  <TPSA>  (3861) 
63.32000000000001

>  <POPULARITY>  (3861) 
16.5

>  <PROTECTED>  (3861) 
TRUE

>  <SMILES>  (3861) 
NCC(CC)C(=O)O

>  <INCHIKEY>  (3861) 
HBICVCPHTYGKKD-UHFFFAOYSA-N

$$$$
bAla_2F
     RDKit          2D

  7  6  0  0  0  0  0  0  0  0999 V2000
    2.7865    0.2956    0.0000 N   0  0  0  0  0  0  0  0  0  0  0  0
    1.3548    0.7431    0.0000 C   0  0  0  0  0  0  0  0  0  0  0  0
    0.2514   -0.2730    0.0000 C   0  0  0  0  0  0  0  0  0  0  0  0
    0.5797   -1.7367    0.0000 F   0  0  0  0  0  0  0  0  0  0  0  0
   -1.1803    0.1745    0.0000 C   0  0  0  0  0  0  0  0  0  0  0  0
   -1.5086    1.6381    0.0000 O   0  0  0  0  0  0  0  0  0  0  0  0
   -2.2837   -0.8417    0.0000 O   0  0  0  0  0  0  0  0  0  0  0  0
  1  2  1  0
  2  3  1  0
  3  4  1  0
  3  5  1  0
  5  6  2  0
  5  7  1  0
M  END
>  <rName>  (3862) 
bAla_2F

>  <PQ_SYMBOL>  (3862) 
bAla_2F

>  <FULL_NAME>  (3862) 
3-amino-2-fluoropropanoic acid

>  <IUPAC_CONDENSED>  (3862) 
bAla(2-F)

>  <IUPAC>  (3862) 
3-amino-2-fluoropropanoic acid

>  <TYPE>  (3862) 
Backbone

>  <CLASS>  (3862) 
beta

>  <ANALOG>  (3862) 
X

>  <MOL_WT>  (3862) 
107.08399999999997

>  <LOGP>  (3862) 
-0.6322000000000003

>  <TPSA>  (3862) 
63.32000000000001

>  <POPULARITY>  (3862) 
8.5

>  <PROTECTED>  (3862) 
TRUE

>  <SMILES>  (3862) 
NCC(F)C(=O)O

>  <INCHIKEY>  (3862) 
OJQNRNQELNLWHH-UHFFFAOYSA-N

$$$$
bAla_2MeOMe
     RDKit          2D

  9  8  0  0  0  0  0  0  0  0999 V2000
    2.8857   -1.0168    0.0000 N   0  0  0  0  0  0  0  0  0  0  0  0
    1.4625   -1.4907    0.0000 C   0  0  0  0  0  0  0  0  0  0  0  0
    0.3405   -0.4951    0.0000 C   0  0  0  0  0  0  0  0  0  0  0  0
   -1.0826   -0.9690    0.0000 C   0  0  0  0  0  0  0  0  0  0  0  0
   -2.2046    0.0266    0.0000 O   0  0  0  0  0  0  0  0  0  0  0  0
   -3.6278   -0.4473    0.0000 C   0  0  0  0  0  0  0  0  0  0  0  0
    0.6417    0.9743    0.0000 C   0  0  0  0  0  0  0  0  0  0  0  0
   -0.4803    1.9699    0.0000 O   0  0  0  0  0  0  0  0  0  0  0  0
    2.0649    1.4482    0.0000 O   0  0  0  0  0  0  0  0  0  0  0  0
  1  2  1  0
  2  3  1  0
  3  4  1  0
  4  5  1  0
  5  6  1  0
  3  7  1  0
  7  8  2  0
  7  9  1  0
M  END
>  <rName>  (3863) 
bAla_2MeOMe

>  <PQ_SYMBOL>  (3863) 
bAla_2MeOMe

>  <FULL_NAME>  (3863) 
3-Amino-2-(methoxymethyl)propanoic acid

>  <IUPAC_CONDENSED>  (3863) 
bAla(2-MeOMe)

>  <IUPAC>  (3863) 
3-amino-2-(methoxymethyl)propanoic acid

>  <TYPE>  (3863) 
Backbone

>  <CLASS>  (3863) 
beta

>  <ANALOG>  (3863) 
Ser

>  <MOL_WT>  (3863) 
133.147

>  <LOGP>  (3863) 
-0.7077

>  <TPSA>  (3863) 
72.55

>  <POPULARITY>  (3863) 
12.2

>  <PROTECTED>  (3863) 
TRUE

>  <SMILES>  (3863) 
NCC(COC)C(=O)O

>  <INCHIKEY>  (3863) 
XXVFGXWYWQRWAF-UHFFFAOYSA-N

$$$$
bAla_2Me_2Ph
     RDKit          2D

 13 13  0  0  0  0  0  0  0  0999 V2000
    2.4973    2.3932    0.0000 N   0  0  0  0  0  0  0  0  0  0  0  0
    1.1894    1.6589    0.0000 C   0  0  0  0  0  0  0  0  0  0  0  0
    1.1713    0.1590    0.0000 C   0  0  0  0  0  0  0  0  0  0  0  0
    2.6712    0.1409    0.0000 C   0  0  0  0  0  0  0  0  0  0  0  0
   -0.3286    0.1770    0.0000 C   0  0  0  0  0  0  0  0  0  0  0  0
   -1.0942   -1.1129    0.0000 C   0  0  0  0  0  0  0  0  0  0  0  0
   -2.5941   -1.0948    0.0000 C   0  0  0  0  0  0  0  0  0  0  0  0
   -3.3284    0.2132    0.0000 C   0  0  0  0  0  0  0  0  0  0  0  0
   -2.5628    1.5031    0.0000 C   0  0  0  0  0  0  0  0  0  0  0  0
   -1.0629    1.4850    0.0000 C   0  0  0  0  0  0  0  0  0  0  0  0
    1.1532   -1.3409    0.0000 C   0  0  0  0  0  0  0  0  0  0  0  0
   -0.1547   -2.0752    0.0000 O   0  0  0  0  0  0  0  0  0  0  0  0
    2.4432   -2.1065    0.0000 O   0  0  0  0  0  0  0  0  0  0  0  0
  1  2  1  0
  2  3  1  0
  3  4  1  0
  3  5  1  0
  5  6  2  0
  6  7  1  0
  7  8  2  0
  8  9  1  0
  9 10  2  0
  3 11  1  0
 11 12  2  0
 11 13  1  0
 10  5  1  0
M  END
>  <rName>  (3864) 
bAla_2Me_2Ph

>  <PQ_SYMBOL>  (3864) 
bAla_2Me_2Ph

>  <FULL_NAME>  (3864) 
alpha-(Aminomethyl)-alpha-methylbenzeneacetic acid

>  <IUPAC_CONDENSED>  (3864) 
bAla(2-Me,2-Ph)

>  <IUPAC>  (3864) 
3-amino-2-methyl-2-phenylpropanoic acid

>  <TYPE>  (3864) 
Backbone

>  <CLASS>  (3864) 
beta

>  <ANALOG>  (3864) 
X

>  <MOL_WT>  (3864) 
179.21899999999997

>  <LOGP>  (3864) 
0.9876000000000003

>  <TPSA>  (3864) 
63.32000000000001

>  <POPULARITY>  (3864) 
12.1

>  <PROTECTED>  (3864) 
TRUE

>  <SMILES>  (3864) 
NCC(C)(c1(ccccc1))C(=O)O

>  <INCHIKEY>  (3864) 
OKXZCUBYPSXSOW-UHFFFAOYSA-N

$$$$
bAla_2Me_3Et
     RDKit          2D

  9  8  0  0  0  0  0  0  0  0999 V2000
   -2.7701   -0.3709    0.0000 N   0  0  0  0  0  0  0  0  0  0  0  0
   -1.7809    0.7567    0.0000 C   0  0  0  0  0  0  0  0  0  0  0  0
   -0.3097    0.4638    0.0000 C   0  0  0  0  0  0  0  0  0  0  0  0
   -0.0168    1.9349    0.0000 C   0  0  0  0  0  0  0  0  0  0  0  0
   -0.6027   -1.0074    0.0000 C   0  0  0  0  0  0  0  0  0  0  0  0
    0.5249   -1.9966    0.0000 C   0  0  0  0  0  0  0  0  0  0  0  0
    1.1614    0.1708    0.0000 C   0  0  0  0  0  0  0  0  0  0  0  0
    2.1506    1.2984    0.0000 O   0  0  0  0  0  0  0  0  0  0  0  0
    1.6433   -1.2497    0.0000 O   0  0  0  0  0  0  0  0  0  0  0  0
  1  2  1  0
  2  3  1  0
  3  4  1  0
  3  5  1  0
  5  6  1  0
  3  7  1  0
  7  8  2  0
  7  9  1  0
M  END
>  <rName>  (3865) 
bAla_2Me_3Et

>  <PQ_SYMBOL>  (3865) 
bAla_2Me_3Et

>  <FULL_NAME>  (3865) 
2-(Aminomethyl)-2-methylbutanoic acid

>  <IUPAC_CONDENSED>  (3865) 
bAla(2-Me,3-Et)

>  <IUPAC>  (3865) 
2-(aminomethyl)-2-methylbutanoic acid

>  <TYPE>  (3865) 
Backbone

>  <CLASS>  (3865) 
beta

>  <ANALOG>  (3865) 
Val

>  <MOL_WT>  (3865) 
131.17499999999998

>  <LOGP>  (3865) 
0.4460000000000001

>  <TPSA>  (3865) 
63.32000000000001

>  <POPULARITY>  (3865) 
15.0

>  <PROTECTED>  (3865) 
TRUE

>  <SMILES>  (3865) 
NCC(C)(CC)C(=O)O

>  <INCHIKEY>  (3865) 
OREBQAKMYKXFHS-UHFFFAOYSA-N

$$$$
bAla_2Me_3Ph
     RDKit          2D

 13 13  0  0  0  0  0  0  0  0999 V2000
   -0.7435   -2.7341    0.0000 N   0  0  0  0  0  0  0  0  0  0  0  0
   -0.6651   -1.2362    0.0000 C   0  0  0  0  0  0  0  0  0  0  0  0
    0.6714   -0.5551    0.0000 C   0  0  0  0  0  0  0  0  0  0  0  0
    0.7498    0.9429    0.0000 C   0  0  0  0  0  0  0  0  0  0  0  0
    2.0863    1.6239    0.0000 C   0  0  0  0  0  0  0  0  0  0  0  0
    3.3443    0.8071    0.0000 C   0  0  0  0  0  0  0  0  0  0  0  0
    3.2659   -0.6909    0.0000 C   0  0  0  0  0  0  0  0  0  0  0  0
    1.9294   -1.3720    0.0000 C   0  0  0  0  0  0  0  0  0  0  0  0
   -1.9231   -0.4193    0.0000 C   0  0  0  0  0  0  0  0  0  0  0  0
   -3.2596   -1.1004    0.0000 C   0  0  0  0  0  0  0  0  0  0  0  0
   -1.8447    1.0787    0.0000 C   0  0  0  0  0  0  0  0  0  0  0  0
   -0.5083    1.7597    0.0000 O   0  0  0  0  0  0  0  0  0  0  0  0
   -3.1028    1.8955    0.0000 O   0  0  0  0  0  0  0  0  0  0  0  0
  1  2  1  0
  2  3  1  0
  3  4  2  0
  4  5  1  0
  5  6  2  0
  6  7  1  0
  7  8  2  0
  2  9  1  0
  9 10  1  0
  9 11  1  0
 11 12  2  0
 11 13  1  0
  8  3  1  0
M  END
>  <rName>  (3866) 
bAla_2Me_3Ph

>  <PQ_SYMBOL>  (3866) 
bAla_2Me_3Ph

>  <FULL_NAME>  (3866) 
3-Amino-2-methyl-3-phenylpropanoic acid

>  <IUPAC_CONDENSED>  (3866) 
bAla(2-Me,3-Ph)

>  <IUPAC>  (3866) 
3-amino-2-methyl-3-phenylpropanoic acid

>  <TYPE>  (3866) 
Backbone

>  <CLASS>  (3866) 
beta

>  <ANALOG>  (3866) 
X

>  <MOL_WT>  (3866) 
179.21899999999997

>  <LOGP>  (3866) 
1.4071000000000002

>  <TPSA>  (3866) 
63.32000000000001

>  <POPULARITY>  (3866) 
11.8

>  <PROTECTED>  (3866) 
TRUE

>  <SMILES>  (3866) 
NC(c1(ccccc1))C(C)C(=O)O

>  <INCHIKEY>  (3866) 
OWJWPDFSPYKDDA-UHFFFAOYSA-N

$$$$
bAla_2Me_3SO2Me
     RDKit          2D

 11 10  0  0  0  0  0  0  0  0999 V2000
   -1.7257   -1.7149    0.0000 N   0  0  0  0  0  0  0  0  0  0  0  0
   -0.2960   -1.2613    0.0000 C   0  0  0  0  0  0  0  0  0  0  0  0
    0.0261    0.2037    0.0000 C   0  0  0  0  0  0  0  0  0  0  0  0
    0.3481    1.6687    0.0000 C   0  0  0  0  0  0  0  0  0  0  0  0
    1.4911   -0.1184    0.0000 S   0  0  0  0  0  0  0  0  0  0  0  0
    1.8131    1.3467    0.0000 O   0  0  0  0  0  0  0  0  0  0  0  0
    1.1690   -1.5834    0.0000 O   0  0  0  0  0  0  0  0  0  0  0  0
    2.9561   -0.4404    0.0000 C   0  0  0  0  0  0  0  0  0  0  0  0
   -1.4389    0.5257    0.0000 C   0  0  0  0  0  0  0  0  0  0  0  0
   -1.8926    1.9555    0.0000 O   0  0  0  0  0  0  0  0  0  0  0  0
   -2.4504   -0.5820    0.0000 O   0  0  0  0  0  0  0  0  0  0  0  0
  1  2  1  0
  2  3  1  0
  3  4  1  0
  3  5  1  0
  5  6  2  0
  5  7  2  0
  5  8  1  0
  3  9  1  0
  9 10  2  0
  9 11  1  0
M  END
>  <rName>  (3867) 
bAla_2Me_3SO2Me

>  <PQ_SYMBOL>  (3867) 
bAla_2Me_3SO2Me

>  <FULL_NAME>  (3867) 
3-Amino-2-methanesulfonyl-2-methylpropanoic acid

>  <IUPAC_CONDENSED>  (3867) 
bAla(2-Me,3-SO2Me)

>  <IUPAC>  (3867) 
3-amino-2-methyl-2-(methylsulfonyl)propanoic acid

>  <TYPE>  (3867) 
Backbone

>  <CLASS>  (3867) 
beta

>  <ANALOG>  (3867) 
X

>  <MOL_WT>  (3867) 
181.21299999999997

>  <LOGP>  (3867) 
-1.167

>  <TPSA>  (3867) 
97.46000000000001

>  <POPULARITY>  (3867) 
5.0

>  <PROTECTED>  (3867) 
TRUE

>  <SMILES>  (3867) 
NCC(C)(S(=O)(=O)C)C(=O)O

>  <INCHIKEY>  (3867) 
DSVNKBWERVYRSK-UHFFFAOYSA-N

$$$$
bAla_2Me_3cPr
     RDKit          2D

 10 10  0  0  0  0  0  0  0  0999 V2000
   -0.8362   -1.4951    0.0000 N   0  0  0  0  0  0  0  0  0  0  0  0
    0.3952   -0.6387    0.0000 C   0  0  0  0  0  0  0  0  0  0  0  0
    1.2517   -1.8701    0.0000 C   0  0  0  0  0  0  0  0  0  0  0  0
    1.6267    0.2178    0.0000 C   0  0  0  0  0  0  0  0  0  0  0  0
    3.1214    0.3438    0.0000 C   0  0  0  0  0  0  0  0  0  0  0  0
    2.2649    1.5752    0.0000 C   0  0  0  0  0  0  0  0  0  0  0  0
   -0.4612    0.5928    0.0000 C   0  0  0  0  0  0  0  0  0  0  0  0
   -1.9559    0.4668    0.0000 C   0  0  0  0  0  0  0  0  0  0  0  0
   -2.5942   -0.8906    0.0000 O   0  0  0  0  0  0  0  0  0  0  0  0
   -2.8124    1.6983    0.0000 O   0  0  0  0  0  0  0  0  0  0  0  0
  1  2  1  0
  2  3  1  0
  2  4  1  0
  4  5  1  0
  5  6  1  0
  2  7  1  0
  7  8  1  0
  8  9  2  0
  8 10  1  0
  6  4  1  0
M  END
>  <rName>  (3868) 
bAla_2Me_3cPr

>  <PQ_SYMBOL>  (3868) 
bAla_2Me_3cPr

>  <FULL_NAME>  (3868) 
3-Amino-3-cyclopropylbutanoic acid

>  <IUPAC_CONDENSED>  (3868) 
bAla(2-Me,3-cPr)

>  <IUPAC>  (3868) 
3-amino-3-cyclopropylbutanoic acid

>  <TYPE>  (3868) 
Backbone

>  <CLASS>  (3868) 
beta

>  <ANALOG>  (3868) 
X

>  <MOL_WT>  (3868) 
143.186

>  <LOGP>  (3868) 
0.5884999999999998

>  <TPSA>  (3868) 
63.32000000000001

>  <POPULARITY>  (3868) 
5.6

>  <PROTECTED>  (3868) 
TRUE

>  <SMILES>  (3868) 
NC(C)(C1(CC1))CC(=O)O

>  <INCHIKEY>  (3868) 
OELQFMFNZSFSOD-UHFFFAOYSA-N

$$$$
bAla_2OH
     RDKit          2D

  7  6  0  0  0  0  0  0  0  0999 V2000
    2.7865    0.2956    0.0000 N   0  0  0  0  0  0  0  0  0  0  0  0
    1.3548    0.7431    0.0000 C   0  0  0  0  0  0  0  0  0  0  0  0
    0.2514   -0.2730    0.0000 C   0  0  0  0  0  0  0  0  0  0  0  0
    0.5797   -1.7367    0.0000 O   0  0  0  0  0  0  0  0  0  0  0  0
   -1.1803    0.1745    0.0000 C   0  0  0  0  0  0  0  0  0  0  0  0
   -1.5086    1.6381    0.0000 O   0  0  0  0  0  0  0  0  0  0  0  0
   -2.2837   -0.8417    0.0000 O   0  0  0  0  0  0  0  0  0  0  0  0
  1  2  1  0
  2  3  1  0
  3  4  1  0
  3  5  1  0
  5  6  2  0
  5  7  1  0
M  END
>  <rName>  (3869) 
bAla_2OH

>  <PQ_SYMBOL>  (3869) 
bAla_2OH

>  <FULL_NAME>  (3869) 
3-amino-2-hydroxypropanoic acid

>  <IUPAC_CONDENSED>  (3869) 
bAla(2-OH)

>  <IUPAC>  (3869) 
3-amino-2-hydroxypropanoic acid

>  <TYPE>  (3869) 
Backbone

>  <CLASS>  (3869) 
beta

>  <ANALOG>  (3869) 
X

>  <MOL_WT>  (3869) 
105.09299999999999

>  <LOGP>  (3869) 
-1.6093999999999997

>  <TPSA>  (3869) 
83.55

>  <POPULARITY>  (3869) 
15.6

>  <PROTECTED>  (3869) 
TRUE

>  <SMILES>  (3869) 
NCC(O)C(=O)O

>  <INCHIKEY>  (3869) 
BMYNFMYTOJXKLE-UHFFFAOYSA-N

$$$$
bAla_2OH_3Me
     RDKit          2D

  8  7  0  0  0  0  0  0  0  0999 V2000
    2.5232   -0.6299    0.0000 N   0  0  0  0  0  0  0  0  0  0  0  0
    1.0293   -0.7655    0.0000 C   0  0  0  0  0  0  0  0  0  0  0  0
    0.1650    0.4604    0.0000 C   0  0  0  0  0  0  0  0  0  0  0  0
    1.3909    1.3248    0.0000 O   0  0  0  0  0  0  0  0  0  0  0  0
   -0.6994    1.6864    0.0000 C   0  0  0  0  0  0  0  0  0  0  0  0
   -1.0610   -0.4039    0.0000 C   0  0  0  0  0  0  0  0  0  0  0  0
   -2.4225    0.2256    0.0000 O   0  0  0  0  0  0  0  0  0  0  0  0
   -0.9254   -1.8978    0.0000 O   0  0  0  0  0  0  0  0  0  0  0  0
  1  2  1  0
  2  3  1  0
  3  4  1  0
  3  5  1  0
  3  6  1  0
  6  7  2  0
  6  8  1  0
M  END
>  <rName>  (3870) 
bAla_2OH_3Me

>  <PQ_SYMBOL>  (3870) 
bAla_2OH_3Me

>  <FULL_NAME>  (3870) 
3-Amino-2-hydroxy-2-methylpropanoic acid

>  <IUPAC_CONDENSED>  (3870) 
bAla(2-OH,3-Me)

>  <IUPAC>  (3870) 
3-amino-2-hydroxy-2-methylpropanoic acid

>  <TYPE>  (3870) 
Backbone

>  <CLASS>  (3870) 
beta

>  <ANALOG>  (3870) 
X

>  <MOL_WT>  (3870) 
119.11999999999998

>  <LOGP>  (3870) 
-1.2192999999999998

>  <TPSA>  (3870) 
83.55

>  <POPULARITY>  (3870) 
12.4

>  <PROTECTED>  (3870) 
TRUE

>  <SMILES>  (3870) 
NCC(O)(C)C(=O)O

>  <INCHIKEY>  (3870) 
ZOUFWABTGGIWTK-UHFFFAOYSA-N

$$$$
bAla_2Ph
     RDKit          2D

 12 12  0  0  0  0  0  0  0  0999 V2000
    3.1463   -1.7206    0.0000 N   0  0  0  0  0  0  0  0  0  0  0  0
    1.6493   -1.6245    0.0000 C   0  0  0  0  0  0  0  0  0  0  0  0
    0.9841   -0.2801    0.0000 C   0  0  0  0  0  0  0  0  0  0  0  0
   -0.5128   -0.1840    0.0000 C   0  0  0  0  0  0  0  0  0  0  0  0
   -1.3445   -1.4324    0.0000 C   0  0  0  0  0  0  0  0  0  0  0  0
   -2.8414   -1.3363    0.0000 C   0  0  0  0  0  0  0  0  0  0  0  0
   -3.5067    0.0081    0.0000 C   0  0  0  0  0  0  0  0  0  0  0  0
   -2.6750    1.2564    0.0000 C   0  0  0  0  0  0  0  0  0  0  0  0
   -1.1781    1.1604    0.0000 C   0  0  0  0  0  0  0  0  0  0  0  0
    1.8157    0.9682    0.0000 C   0  0  0  0  0  0  0  0  0  0  0  0
    1.1505    2.3126    0.0000 O   0  0  0  0  0  0  0  0  0  0  0  0
    3.3127    0.8721    0.0000 O   0  0  0  0  0  0  0  0  0  0  0  0
  1  2  1  0
  2  3  1  0
  3  4  1  0
  4  5  2  0
  5  6  1  0
  6  7  2  0
  7  8  1  0
  8  9  2  0
  3 10  1  0
 10 11  2  0
 10 12  1  0
  9  4  1  0
M  END
>  <rName>  (3871) 
bAla_2Ph

>  <PQ_SYMBOL>  (3871) 
bAla_2Ph

>  <FULL_NAME>  (3871) 
3-amino-2-phenylpropanoic acid

>  <IUPAC_CONDENSED>  (3871) 
bAla(2-Ph)

>  <IUPAC>  (3871) 
3-amino-2-phenylpropanoic acid

>  <TYPE>  (3871) 
Backbone

>  <CLASS>  (3871) 
beta

>  <ANALOG>  (3871) 
X

>  <MOL_WT>  (3871) 
165.19199999999995

>  <LOGP>  (3871) 
0.8135000000000001

>  <TPSA>  (3871) 
63.32000000000001

>  <POPULARITY>  (3871) 
15.9

>  <PROTECTED>  (3871) 
TRUE

>  <SMILES>  (3871) 
NCC(c1(ccccc1))C(=O)O

>  <INCHIKEY>  (3871) 
LRCYAJZPDFSJPQ-UHFFFAOYSA-N

$$$$
bAla_2Ph_25diF
     RDKit          2D

 14 14  0  0  0  0  0  0  0  0999 V2000
    3.0246   -2.3574    0.0000 N   0  0  0  0  0  0  0  0  0  0  0  0
    1.5767   -1.9652    0.0000 C   0  0  0  0  0  0  0  0  0  0  0  0
    1.1925   -0.5153    0.0000 C   0  0  0  0  0  0  0  0  0  0  0  0
   -0.2554   -0.1231    0.0000 C   0  0  0  0  0  0  0  0  0  0  0  0
   -1.3189   -1.1809    0.0000 C   0  0  0  0  0  0  0  0  0  0  0  0
   -2.7667   -0.7887    0.0000 C   0  0  0  0  0  0  0  0  0  0  0  0
   -3.8303   -1.8464    0.0000 F   0  0  0  0  0  0  0  0  0  0  0  0
   -3.1510    0.6613    0.0000 C   0  0  0  0  0  0  0  0  0  0  0  0
   -2.0874    1.7190    0.0000 C   0  0  0  0  0  0  0  0  0  0  0  0
   -0.6396    1.3268    0.0000 C   0  0  0  0  0  0  0  0  0  0  0  0
    0.4239    2.3846    0.0000 F   0  0  0  0  0  0  0  0  0  0  0  0
    2.2560    0.5425    0.0000 C   0  0  0  0  0  0  0  0  0  0  0  0
    1.8718    1.9924    0.0000 O   0  0  0  0  0  0  0  0  0  0  0  0
    3.7038    0.1503    0.0000 O   0  0  0  0  0  0  0  0  0  0  0  0
  1  2  1  0
  2  3  1  0
  3  4  1  0
  4  5  1  0
  5  6  2  0
  6  7  1  0
  6  8  1  0
  8  9  2  0
  9 10  1  0
 10 11  1  0
  3 12  1  0
 12 13  2  0
 12 14  1  0
 10  4  2  0
M  END
>  <rName>  (3872) 
bAla_2Ph_25diF

>  <PQ_SYMBOL>  (3872) 
bAla_2Ph_25diF

>  <FULL_NAME>  (3872) 
3-Amino-2-(2,5-difluorophenyl)propanoic acid

>  <IUPAC_CONDENSED>  (3872) 
bAla(2-Ph(2,5-diF))

>  <IUPAC>  (3872) 
3-amino-2-(2,5-difluorophenyl)propanoic acid

>  <TYPE>  (3872) 
Backbone

>  <CLASS>  (3872) 
beta

>  <ANALOG>  (3872) 
X

>  <MOL_WT>  (3872) 
201.17199999999997

>  <LOGP>  (3872) 
1.0917000000000001

>  <TPSA>  (3872) 
63.32000000000001

>  <POPULARITY>  (3872) 
3.6

>  <PROTECTED>  (3872) 
TRUE

>  <SMILES>  (3872) 
NCC(c1(cc(F)ccc1F))C(=O)O

>  <INCHIKEY>  (3872) 
LAOPVEYOWPEAPU-UHFFFAOYSA-N

$$$$
bAla_2Ph_3OH
     RDKit          2D

 13 13  0  0  0  0  0  0  0  0999 V2000
   -3.6820    1.3090    0.0000 N   0  0  0  0  0  0  0  0  0  0  0  0
   -2.1908    1.4709    0.0000 C   0  0  0  0  0  0  0  0  0  0  0  0
   -1.3050    0.2604    0.0000 C   0  0  0  0  0  0  0  0  0  0  0  0
    0.1863    0.4223    0.0000 C   0  0  0  0  0  0  0  0  0  0  0  0
    0.7917    1.7947    0.0000 C   0  0  0  0  0  0  0  0  0  0  0  0
    2.2829    1.9566    0.0000 C   0  0  0  0  0  0  0  0  0  0  0  0
    3.1687    0.7461    0.0000 C   0  0  0  0  0  0  0  0  0  0  0  0
    2.5633   -0.6263    0.0000 C   0  0  0  0  0  0  0  0  0  0  0  0
    3.4492   -1.8368    0.0000 O   0  0  0  0  0  0  0  0  0  0  0  0
    1.0721   -0.7882    0.0000 C   0  0  0  0  0  0  0  0  0  0  0  0
   -1.9104   -1.1120    0.0000 C   0  0  0  0  0  0  0  0  0  0  0  0
   -1.0245   -2.3225    0.0000 O   0  0  0  0  0  0  0  0  0  0  0  0
   -3.4016   -1.2739    0.0000 O   0  0  0  0  0  0  0  0  0  0  0  0
  1  2  1  0
  2  3  1  0
  3  4  1  0
  4  5  2  0
  5  6  1  0
  6  7  2  0
  7  8  1  0
  8  9  1  0
  8 10  2  0
  3 11  1  0
 11 12  2  0
 11 13  1  0
 10  4  1  0
M  END
>  <rName>  (3873) 
bAla_2Ph_3OH

>  <PQ_SYMBOL>  (3873) 
bAla_2Ph_3OH

>  <FULL_NAME>  (3873) 
3-Amino-2-(3-hydroxyphenyl)propanoic acid

>  <IUPAC_CONDENSED>  (3873) 
bAla(2-Ph(3-OH))

>  <IUPAC>  (3873) 
3-amino-2-(3-hydroxyphenyl)propanoic acid

>  <TYPE>  (3873) 
Backbone

>  <CLASS>  (3873) 
beta

>  <ANALOG>  (3873) 
X

>  <MOL_WT>  (3873) 
181.19099999999997

>  <LOGP>  (3873) 
0.5191000000000001

>  <TPSA>  (3873) 
83.55

>  <POPULARITY>  (3873) 
7.1

>  <PROTECTED>  (3873) 
TRUE

>  <SMILES>  (3873) 
NCC(c1(cccc(O)c1))C(=O)O

>  <INCHIKEY>  (3873) 
WNPACMATYWMETB-UHFFFAOYSA-N

$$$$
bAla_2Ph_4CF3
     RDKit          2D

 16 16  0  0  0  0  0  0  0  0999 V2000
    4.5168   -1.6844    0.0000 N   0  0  0  0  0  0  0  0  0  0  0  0
    3.0186   -1.6110    0.0000 C   0  0  0  0  0  0  0  0  0  0  0  0
    2.3330   -0.2768    0.0000 C   0  0  0  0  0  0  0  0  0  0  0  0
    0.8348   -0.2035    0.0000 C   0  0  0  0  0  0  0  0  0  0  0  0
    0.0221   -1.4643    0.0000 C   0  0  0  0  0  0  0  0  0  0  0  0
   -1.4761   -1.3909    0.0000 C   0  0  0  0  0  0  0  0  0  0  0  0
   -2.1616   -0.0567    0.0000 C   0  0  0  0  0  0  0  0  0  0  0  0
   -1.3490    1.2041    0.0000 C   0  0  0  0  0  0  0  0  0  0  0  0
    0.1492    1.1307    0.0000 C   0  0  0  0  0  0  0  0  0  0  0  0
   -3.6598    0.0167    0.0000 C   0  0  0  0  0  0  0  0  0  0  0  0
   -5.1580    0.0900    0.0000 F   0  0  0  0  0  0  0  0  0  0  0  0
   -3.5864    1.5149    0.0000 F   0  0  0  0  0  0  0  0  0  0  0  0
   -3.7332   -1.4815    0.0000 F   0  0  0  0  0  0  0  0  0  0  0  0
    3.1456    0.9840    0.0000 C   0  0  0  0  0  0  0  0  0  0  0  0
    2.4601    2.3181    0.0000 O   0  0  0  0  0  0  0  0  0  0  0  0
    4.6439    0.9106    0.0000 O   0  0  0  0  0  0  0  0  0  0  0  0
  1  2  1  0
  2  3  1  0
  3  4  1  0
  4  5  1  0
  5  6  2  0
  6  7  1  0
  7  8  2  0
  8  9  1  0
  7 10  1  0
 10 11  1  0
 10 12  1  0
 10 13  1  0
  3 14  1  0
 14 15  2  0
 14 16  1  0
  9  4  2  0
M  END
>  <rName>  (3874) 
bAla_2Ph_4CF3

>  <PQ_SYMBOL>  (3874) 
bAla_2Ph_4CF3

>  <FULL_NAME>  (3874) 
3-Amino-2-(4-(trifluoromethyl)phenyl)propanoic acid

>  <IUPAC_CONDENSED>  (3874) 
bAla(2-Ph(4-CF3))

>  <IUPAC>  (3874) 
3-amino-2-(4-(trifluoromethyl)phenyl)propanoic acid

>  <TYPE>  (3874) 
Backbone

>  <CLASS>  (3874) 
beta

>  <ANALOG>  (3874) 
X

>  <MOL_WT>  (3874) 
233.18899999999994

>  <LOGP>  (3874) 
1.8323000000000003

>  <TPSA>  (3874) 
63.32000000000001

>  <POPULARITY>  (3874) 
4.7

>  <PROTECTED>  (3874) 
TRUE

>  <SMILES>  (3874) 
NCC(c1(ccc(cc1)C(F)(F)F))C(=O)O

>  <INCHIKEY>  (3874) 
XYYPXHLJMILYKK-UHFFFAOYSA-N

$$$$
bAla_2Ph_4Cl
     RDKit          2D

 13 13  0  0  0  0  0  0  0  0999 V2000
    3.5441   -1.7019    0.0000 N   0  0  0  0  0  0  0  0  0  0  0  0
    2.0465   -1.6171    0.0000 C   0  0  0  0  0  0  0  0  0  0  0  0
    1.3711   -0.2778    0.0000 C   0  0  0  0  0  0  0  0  0  0  0  0
   -0.1265   -0.1930    0.0000 C   0  0  0  0  0  0  0  0  0  0  0  0
   -0.9487   -1.4476    0.0000 C   0  0  0  0  0  0  0  0  0  0  0  0
   -2.4463   -1.3628    0.0000 C   0  0  0  0  0  0  0  0  0  0  0  0
   -3.1217   -0.0235    0.0000 C   0  0  0  0  0  0  0  0  0  0  0  0
   -4.6193    0.0613    0.0000 Cl  0  0  0  0  0  0  0  0  0  0  0  0
   -2.2995    1.2311    0.0000 C   0  0  0  0  0  0  0  0  0  0  0  0
   -0.8019    1.1463    0.0000 C   0  0  0  0  0  0  0  0  0  0  0  0
    2.1933    0.9768    0.0000 C   0  0  0  0  0  0  0  0  0  0  0  0
    1.5179    2.3161    0.0000 O   0  0  0  0  0  0  0  0  0  0  0  0
    3.6909    0.8920    0.0000 O   0  0  0  0  0  0  0  0  0  0  0  0
  1  2  1  0
  2  3  1  0
  3  4  1  0
  4  5  1  0
  5  6  2  0
  6  7  1  0
  7  8  1  0
  7  9  2  0
  9 10  1  0
  3 11  1  0
 11 12  2  0
 11 13  1  0
 10  4  2  0
M  END
>  <rName>  (3875) 
bAla_2Ph_4Cl

>  <PQ_SYMBOL>  (3875) 
bAla_2Ph_4Cl

>  <FULL_NAME>  (3875) 
3-amino-2-(4-chlorophenyl)propanoic Acid

>  <IUPAC_CONDENSED>  (3875) 
bAla(2-Ph(4-Cl))

>  <IUPAC>  (3875) 
3-amino-2-(4-chlorophenyl)propanoic acid

>  <TYPE>  (3875) 
Backbone

>  <CLASS>  (3875) 
beta

>  <ANALOG>  (3875) 
X

>  <MOL_WT>  (3875) 
199.637

>  <LOGP>  (3875) 
1.4669

>  <TPSA>  (3875) 
63.32000000000001

>  <POPULARITY>  (3875) 
9.2

>  <PROTECTED>  (3875) 
TRUE

>  <SMILES>  (3875) 
NCC(c1(ccc(Cl)cc1))C(=O)O

>  <INCHIKEY>  (3875) 
NCFOMSKIIHPPCQ-UHFFFAOYSA-N

$$$$
bAla_2Ph_4F
     RDKit          2D

 13 13  0  0  0  0  0  0  0  0999 V2000
    3.5441   -1.7019    0.0000 N   0  0  0  0  0  0  0  0  0  0  0  0
    2.0465   -1.6171    0.0000 C   0  0  0  0  0  0  0  0  0  0  0  0
    1.3711   -0.2778    0.0000 C   0  0  0  0  0  0  0  0  0  0  0  0
   -0.1265   -0.1930    0.0000 C   0  0  0  0  0  0  0  0  0  0  0  0
   -0.9487   -1.4476    0.0000 C   0  0  0  0  0  0  0  0  0  0  0  0
   -2.4463   -1.3628    0.0000 C   0  0  0  0  0  0  0  0  0  0  0  0
   -3.1217   -0.0235    0.0000 C   0  0  0  0  0  0  0  0  0  0  0  0
   -4.6193    0.0613    0.0000 F   0  0  0  0  0  0  0  0  0  0  0  0
   -2.2995    1.2311    0.0000 C   0  0  0  0  0  0  0  0  0  0  0  0
   -0.8019    1.1463    0.0000 C   0  0  0  0  0  0  0  0  0  0  0  0
    2.1933    0.9768    0.0000 C   0  0  0  0  0  0  0  0  0  0  0  0
    1.5179    2.3161    0.0000 O   0  0  0  0  0  0  0  0  0  0  0  0
    3.6909    0.8920    0.0000 O   0  0  0  0  0  0  0  0  0  0  0  0
  1  2  1  0
  2  3  1  0
  3  4  1  0
  4  5  1  0
  5  6  2  0
  6  7  1  0
  7  8  1  0
  7  9  2  0
  9 10  1  0
  3 11  1  0
 11 12  2  0
 11 13  1  0
 10  4  2  0
M  END
>  <rName>  (3876) 
bAla_2Ph_4F

>  <PQ_SYMBOL>  (3876) 
bAla_2Ph_4F

>  <FULL_NAME>  (3876) 
3-Amino-2-(4-fluorophenyl)propanoic acid

>  <IUPAC_CONDENSED>  (3876) 
bAla(2-Ph(4-F))

>  <IUPAC>  (3876) 
3-amino-2-(4-fluorophenyl)propanoic acid

>  <TYPE>  (3876) 
Backbone

>  <CLASS>  (3876) 
beta

>  <ANALOG>  (3876) 
X

>  <MOL_WT>  (3876) 
183.182

>  <LOGP>  (3876) 
0.9526000000000001

>  <TPSA>  (3876) 
63.32000000000001

>  <POPULARITY>  (3876) 
6.6

>  <PROTECTED>  (3876) 
TRUE

>  <SMILES>  (3876) 
NCC(c1(ccc(F)cc1))C(=O)O

>  <INCHIKEY>  (3876) 
INCYJBABWRDJSO-UHFFFAOYSA-N

$$$$
bAla_2Pr
     RDKit          2D

  9  8  0  0  0  0  0  0  0  0999 V2000
    2.8857   -1.0168    0.0000 N   0  0  0  0  0  0  0  0  0  0  0  0
    1.4625   -1.4907    0.0000 C   0  0  0  0  0  0  0  0  0  0  0  0
    0.3405   -0.4951    0.0000 C   0  0  0  0  0  0  0  0  0  0  0  0
   -1.0826   -0.9690    0.0000 C   0  0  0  0  0  0  0  0  0  0  0  0
   -2.2046    0.0266    0.0000 C   0  0  0  0  0  0  0  0  0  0  0  0
   -3.6278   -0.4473    0.0000 C   0  0  0  0  0  0  0  0  0  0  0  0
    0.6417    0.9743    0.0000 C   0  0  0  0  0  0  0  0  0  0  0  0
   -0.4803    1.9699    0.0000 O   0  0  0  0  0  0  0  0  0  0  0  0
    2.0649    1.4482    0.0000 O   0  0  0  0  0  0  0  0  0  0  0  0
  1  2  1  0
  2  3  1  0
  3  4  1  0
  4  5  1  0
  5  6  1  0
  3  7  1  0
  7  8  2  0
  7  9  1  0
M  END
>  <rName>  (3877) 
bAla_2Pr

>  <PQ_SYMBOL>  (3877) 
bAla_2Pr

>  <FULL_NAME>  (3877) 
2-(Aminomethyl)pentanoic acid

>  <IUPAC_CONDENSED>  (3877) 
bAla(2-Pr)

>  <IUPAC>  (3877) 
2-(aminomethyl)pentanoic acid

>  <TYPE>  (3877) 
Backbone

>  <CLASS>  (3877) 
beta

>  <ANALOG>  (3877) 
Val

>  <MOL_WT>  (3877) 
131.175

>  <LOGP>  (3877) 
0.4460000000000001

>  <TPSA>  (3877) 
63.32000000000001

>  <POPULARITY>  (3877) 
16.3

>  <PROTECTED>  (3877) 
TRUE

>  <SMILES>  (3877) 
NCC(CCC)C(=O)O

>  <INCHIKEY>  (3877) 
SPVZHUGRMDRKAC-UHFFFAOYSA-N

$$$$
bAla_2RBn
     RDKit          2D

 13 13  0  0  0  0  0  0  0  0999 V2000
   -4.2270   -0.4748    0.0000 N   0  0  0  0  0  0  0  0  0  0  0  0
   -2.9684   -1.2908    0.0000 C   0  0  0  0  0  0  0  0  0  0  0  0
   -1.6324   -0.6089    0.0000 C   0  0  0  0  0  0  0  0  0  0  0  0
   -0.3738   -1.4249    0.0000 C   0  0  0  0  0  0  0  0  0  0  0  0
    0.9622   -0.7430    0.0000 C   0  0  0  0  0  0  0  0  0  0  0  0
    1.0396    0.7550    0.0000 C   0  0  0  0  0  0  0  0  0  0  0  0
    2.3756    1.4370    0.0000 C   0  0  0  0  0  0  0  0  0  0  0  0
    3.6342    0.6210    0.0000 C   0  0  0  0  0  0  0  0  0  0  0  0
    3.5568   -0.8770    0.0000 C   0  0  0  0  0  0  0  0  0  0  0  0
    2.2208   -1.5590    0.0000 C   0  0  0  0  0  0  0  0  0  0  0  0
   -1.5550    0.8891    0.0000 C   0  0  0  0  0  0  0  0  0  0  0  0
   -0.2190    1.5711    0.0000 O   0  0  0  0  0  0  0  0  0  0  0  0
   -2.8136    1.7052    0.0000 O   0  0  0  0  0  0  0  0  0  0  0  0
  1  2  1  0
  3  2  1  6
  3  4  1  0
  4  5  1  0
  5  6  2  0
  6  7  1  0
  7  8  2  0
  8  9  1  0
  9 10  2  0
  3 11  1  0
 11 12  2  0
 11 13  1  0
 10  5  1  0
M  END
>  <rName>  (3878) 
bAla_2RBn

>  <PQ_SYMBOL>  (3878) 
bAla_2RBn

>  <FULL_NAME>  (3878) 
(R)-3-amino-2-benzylpropanoic acid

>  <IUPAC_CONDENSED>  (3878) 
bAla(2R-Bn)

>  <IUPAC>  (3878) 
(2R)-3-amino-2-benzylpropanoic acid

>  <TYPE>  (3878) 
Backbone

>  <CLASS>  (3878) 
beta

>  <ANALOG>  (3878) 
Phe

>  <MOL_WT>  (3878) 
179.21899999999997

>  <LOGP>  (3878) 
0.8885999999999998

>  <TPSA>  (3878) 
63.32000000000001

>  <POPULARITY>  (3878) 
13.4

>  <PROTECTED>  (3878) 
TRUE

>  <SMILES>  (3878) 
NC[C@@H](Cc1(ccccc1))C(=O)O

>  <INCHIKEY>  (3878) 
DJYVEBBGKNAHKE-SECBINFHSA-N

$$$$
bAla_2RCH2OH
     RDKit          2D

  8  7  0  0  0  0  0  0  0  0999 V2000
   -2.5981   -0.5625    0.0000 N   0  0  0  0  0  0  0  0  0  0  0  0
   -1.2990   -1.3125    0.0000 C   0  0  0  0  0  0  0  0  0  0  0  0
    0.0000   -0.5625    0.0000 C   0  0  0  0  0  0  0  0  0  0  0  0
    1.2990   -1.3125    0.0000 C   0  0  0  0  0  0  0  0  0  0  0  0
    2.5981   -0.5625    0.0000 O   0  0  0  0  0  0  0  0  0  0  0  0
    0.0000    0.9375    0.0000 C   0  0  0  0  0  0  0  0  0  0  0  0
   -1.2990    1.6875    0.0000 O   0  0  0  0  0  0  0  0  0  0  0  0
    1.2990    1.6875    0.0000 O   0  0  0  0  0  0  0  0  0  0  0  0
  1  2  1  0
  3  2  1  1
  3  4  1  0
  4  5  1  0
  3  6  1  0
  6  7  2  0
  6  8  1  0
M  END
>  <rName>  (3879) 
bAla_2RCH2OH

>  <PQ_SYMBOL>  (3879) 
bAla_2RCH2OH

>  <FULL_NAME>  (3879) 
D-Beta2-Homo-serine

>  <IUPAC_CONDENSED>  (3879) 
bAla(2R-CH2OH)

>  <IUPAC>  (3879) 
(2R)-3-amino-2-(hydroxymethyl)propanoic acid

>  <TYPE>  (3879) 
Backbone

>  <CLASS>  (3879) 
beta

>  <ANALOG>  (3879) 
Ser

>  <MOL_WT>  (3879) 
119.11999999999998

>  <LOGP>  (3879) 
-1.3618

>  <TPSA>  (3879) 
83.55

>  <POPULARITY>  (3879) 
14.3

>  <PROTECTED>  (3879) 
TRUE

>  <SMILES>  (3879) 
NC[C@H](CO)C(=O)O

>  <INCHIKEY>  (3879) 
UHLNJPIGFDWGTP-GSVOUGTGSA-N

$$$$
bAla_2REt
     RDKit          2D

  8  7  0  0  0  0  0  0  0  0999 V2000
    2.5981    0.5625    0.0000 N   0  0  0  0  0  0  0  0  0  0  0  0
    1.2990    1.3125    0.0000 C   0  0  0  0  0  0  0  0  0  0  0  0
    0.0000    0.5625    0.0000 C   0  0  0  0  0  0  0  0  0  0  0  0
   -1.2990    1.3125    0.0000 C   0  0  0  0  0  0  0  0  0  0  0  0
   -2.5981    0.5625    0.0000 C   0  0  0  0  0  0  0  0  0  0  0  0
    0.0000   -0.9375    0.0000 C   0  0  0  0  0  0  0  0  0  0  0  0
   -1.2990   -1.6875    0.0000 O   0  0  0  0  0  0  0  0  0  0  0  0
    1.2990   -1.6875    0.0000 O   0  0  0  0  0  0  0  0  0  0  0  0
  1  2  1  0
  3  2  1  6
  3  4  1  0
  4  5  1  0
  3  6  1  0
  6  7  2  0
  6  8  1  0
M  END
>  <rName>  (3880) 
bAla_2REt

>  <PQ_SYMBOL>  (3880) 
bAla_2REt

>  <FULL_NAME>  (3880) 
(R)-2-(aminomethyl)butanoic acid

>  <IUPAC_CONDENSED>  (3880) 
bAla(2R-Et)

>  <IUPAC>  (3880) 
(2R)-2-(aminomethyl)butanoic acid

>  <TYPE>  (3880) 
Backbone

>  <CLASS>  (3880) 
beta

>  <ANALOG>  (3880) 
Ala

>  <MOL_WT>  (3880) 
117.14799999999998

>  <LOGP>  (3880) 
0.05590000000000023

>  <TPSA>  (3880) 
63.32000000000001

>  <POPULARITY>  (3880) 
17.4

>  <PROTECTED>  (3880) 
TRUE

>  <SMILES>  (3880) 
NC[C@@H](CC)C(=O)O

>  <INCHIKEY>  (3880) 
HBICVCPHTYGKKD-SCSAIBSYSA-N

$$$$
bAla_2RF
     RDKit          2D

  7  6  0  0  0  0  0  0  0  0999 V2000
    2.7865    0.2956    0.0000 N   0  0  0  0  0  0  0  0  0  0  0  0
    1.3548    0.7431    0.0000 C   0  0  0  0  0  0  0  0  0  0  0  0
    0.2514   -0.2730    0.0000 C   0  0  0  0  0  0  0  0  0  0  0  0
    0.5797   -1.7367    0.0000 F   0  0  0  0  0  0  0  0  0  0  0  0
   -1.1803    0.1745    0.0000 C   0  0  0  0  0  0  0  0  0  0  0  0
   -1.5086    1.6381    0.0000 O   0  0  0  0  0  0  0  0  0  0  0  0
   -2.2837   -0.8417    0.0000 O   0  0  0  0  0  0  0  0  0  0  0  0
  1  2  1  0
  2  3  1  0
  3  4  1  1
  3  5  1  0
  5  6  2  0
  5  7  1  0
M  END
>  <rName>  (3881) 
bAla_2RF

>  <PQ_SYMBOL>  (3881) 
bAla_2RF

>  <FULL_NAME>  (3881) 
3-Amino-2-fluoropropanoic acid, (2R)-

>  <IUPAC_CONDENSED>  (3881) 
bAla(2R-F)

>  <IUPAC>  (3881) 
(2R)-3-amino-2-fluoropropanoic acid

>  <TYPE>  (3881) 
Backbone

>  <CLASS>  (3881) 
beta

>  <ANALOG>  (3881) 
X

>  <MOL_WT>  (3881) 
107.08399999999997

>  <LOGP>  (3881) 
-0.6322000000000003

>  <TPSA>  (3881) 
63.32000000000001

>  <POPULARITY>  (3881) 
8.2

>  <PROTECTED>  (3881) 
TRUE

>  <SMILES>  (3881) 
NC[C@@H](F)C(=O)O

>  <INCHIKEY>  (3881) 
OJQNRNQELNLWHH-UWTATZPHSA-N

$$$$
bAla_2RMe_b_bdiMe
     RDKit          2D

  9  8  0  0  0  0  0  0  0  0999 V2000
    2.4717    0.8671    0.0000 N   0  0  0  0  0  0  0  0  0  0  0  0
    1.1578    0.1434    0.0000 C   0  0  0  0  0  0  0  0  0  0  0  0
    0.4341    1.4573    0.0000 C   0  0  0  0  0  0  0  0  0  0  0  0
    1.8815   -1.1705    0.0000 C   0  0  0  0  0  0  0  0  0  0  0  0
   -0.1560   -0.5803    0.0000 C   0  0  0  0  0  0  0  0  0  0  0  0
   -0.1862   -2.0800    0.0000 C   0  0  0  0  0  0  0  0  0  0  0  0
   -1.4397    0.1957    0.0000 C   0  0  0  0  0  0  0  0  0  0  0  0
   -1.4095    1.6954    0.0000 O   0  0  0  0  0  0  0  0  0  0  0  0
   -2.7536   -0.5280    0.0000 O   0  0  0  0  0  0  0  0  0  0  0  0
  1  2  1  0
  2  3  1  0
  2  4  1  0
  2  5  1  0
  5  6  1  1
  5  7  1  0
  7  8  2  0
  7  9  1  0
M  END
>  <rName>  (3882) 
bAla_2RMe_b_bdiMe

>  <PQ_SYMBOL>  (3882) 
bAla_2RMe_b_bdiMe

>  <FULL_NAME>  (3882) 
(2R)-3-amino-2,3-dimethylbutanoic acid

>  <IUPAC_CONDENSED>  (3882) 
bAla(2R-Me,b,b-diMe)

>  <IUPAC>  (3882) 
(2R)-3-amino-2,3-dimethylbutanoic acid

>  <TYPE>  (3882) 
Backbone

>  <CLASS>  (3882) 
beta

>  <ANALOG>  (3882) 
Ala

>  <MOL_WT>  (3882) 
131.17499999999998

>  <LOGP>  (3882) 
0.44439999999999985

>  <TPSA>  (3882) 
63.32000000000001

>  <POPULARITY>  (3882) 
2.2

>  <PROTECTED>  (3882) 
TRUE

>  <SMILES>  (3882) 
NC(C)(C)[C@@H](C)C(=O)O

>  <INCHIKEY>  (3882) 
BUZPGYIRUFXLFV-BYPYZUCNSA-N

$$$$
bAla_2ROH
     RDKit          2D

  7  6  0  0  0  0  0  0  0  0999 V2000
    2.7865    0.2956    0.0000 N   0  0  0  0  0  0  0  0  0  0  0  0
    1.3548    0.7431    0.0000 C   0  0  0  0  0  0  0  0  0  0  0  0
    0.2514   -0.2730    0.0000 C   0  0  0  0  0  0  0  0  0  0  0  0
    0.5797   -1.7367    0.0000 O   0  0  0  0  0  0  0  0  0  0  0  0
   -1.1803    0.1745    0.0000 C   0  0  0  0  0  0  0  0  0  0  0  0
   -1.5086    1.6381    0.0000 O   0  0  0  0  0  0  0  0  0  0  0  0
   -2.2837   -0.8417    0.0000 O   0  0  0  0  0  0  0  0  0  0  0  0
  1  2  1  0
  2  3  1  0
  3  4  1  1
  3  5  1  0
  5  6  2  0
  5  7  1  0
M  END
>  <rName>  (3883) 
bAla_2ROH

>  <PQ_SYMBOL>  (3883) 
bAla_2ROH

>  <FULL_NAME>  (3883) 
D-Isoserine

>  <IUPAC_CONDENSED>  (3883) 
bAla(2R-OH)

>  <IUPAC>  (3883) 
(2R)-3-amino-2-hydroxypropanoic acid

>  <TYPE>  (3883) 
Backbone

>  <CLASS>  (3883) 
beta

>  <ANALOG>  (3883) 
X

>  <MOL_WT>  (3883) 
105.09299999999999

>  <LOGP>  (3883) 
-1.6093999999999997

>  <TPSA>  (3883) 
83.55

>  <POPULARITY>  (3883) 
21.8

>  <PROTECTED>  (3883) 
TRUE

>  <SMILES>  (3883) 
NC[C@@H](O)C(=O)O

>  <INCHIKEY>  (3883) 
BMYNFMYTOJXKLE-UWTATZPHSA-N

$$$$
bAla_2ROH_3RBn
     RDKit          2D

 14 14  0  0  0  0  0  0  0  0999 V2000
   -0.7070    1.4192    0.0000 N   0  0  0  0  0  0  0  0  0  0  0  0
   -0.9504   -0.0609    0.0000 C   0  0  0  0  0  0  0  0  0  0  0  0
    0.2098   -1.0117    0.0000 C   0  0  0  0  0  0  0  0  0  0  0  0
    1.6133   -0.4824    0.0000 C   0  0  0  0  0  0  0  0  0  0  0  0
    1.8567    0.9977    0.0000 C   0  0  0  0  0  0  0  0  0  0  0  0
    3.2602    1.5270    0.0000 C   0  0  0  0  0  0  0  0  0  0  0  0
    4.4203    0.5762    0.0000 C   0  0  0  0  0  0  0  0  0  0  0  0
    4.1770   -0.9039    0.0000 C   0  0  0  0  0  0  0  0  0  0  0  0
    2.7735   -1.4332    0.0000 C   0  0  0  0  0  0  0  0  0  0  0  0
   -2.3539   -0.5902    0.0000 C   0  0  0  0  0  0  0  0  0  0  0  0
   -2.5972   -2.0704    0.0000 O   0  0  0  0  0  0  0  0  0  0  0  0
   -3.5140    0.3606    0.0000 C   0  0  0  0  0  0  0  0  0  0  0  0
   -3.2707    1.8407    0.0000 O   0  0  0  0  0  0  0  0  0  0  0  0
   -4.9175   -0.1687    0.0000 O   0  0  0  0  0  0  0  0  0  0  0  0
  2  1  1  6
  2  3  1  0
  3  4  1  0
  4  5  2  0
  5  6  1  0
  6  7  2  0
  7  8  1  0
  8  9  2  0
  2 10  1  0
 10 11  1  1
 10 12  1  0
 12 13  2  0
 12 14  1  0
  9  4  1  0
M  END
>  <rName>  (3884) 
bAla_2ROH_3RBn

>  <PQ_SYMBOL>  (3884) 
bAla_2ROH_3RBn

>  <FULL_NAME>  (3884) 
(2R,3R)-3-amino-2-hydroxy-4-phenylbutanoic acid

>  <IUPAC_CONDENSED>  (3884) 
bAla(2R-OH,3R-Bn)

>  <IUPAC>  (3884) 
(2R,3R)-3-amino-2-hydroxy-4-phenylbutanoic acid

>  <TYPE>  (3884) 
Backbone

>  <CLASS>  (3884) 
beta

>  <ANALOG>  (3884) 
Phe

>  <MOL_WT>  (3884) 
195.21799999999996

>  <LOGP>  (3884) 
0.0019000000000002348

>  <TPSA>  (3884) 
83.55

>  <POPULARITY>  (3884) 
12.3

>  <PROTECTED>  (3884) 
TRUE

>  <SMILES>  (3884) 
N[C@H](Cc1(ccccc1))[C@@H](O)C(=O)O

>  <INCHIKEY>  (3884) 
LDSJMFGYNFIFRK-RKDXNWHRSA-N

$$$$
bAla_2ROH_3RPh
     RDKit          2D

 13 13  0  0  0  0  0  0  0  0999 V2000
   -0.9220   -2.0742    0.0000 N   0  0  0  0  0  0  0  0  0  0  0  0
   -0.4991   -0.6350    0.0000 C   0  0  0  0  0  0  0  0  0  0  0  0
    0.9587   -0.2818    0.0000 C   0  0  0  0  0  0  0  0  0  0  0  0
    1.3817    1.1574    0.0000 C   0  0  0  0  0  0  0  0  0  0  0  0
    2.8395    1.5107    0.0000 C   0  0  0  0  0  0  0  0  0  0  0  0
    3.8743    0.4248    0.0000 C   0  0  0  0  0  0  0  0  0  0  0  0
    3.4514   -1.0143    0.0000 C   0  0  0  0  0  0  0  0  0  0  0  0
    1.9936   -1.3676    0.0000 C   0  0  0  0  0  0  0  0  0  0  0  0
   -1.5339    0.4508    0.0000 C   0  0  0  0  0  0  0  0  0  0  0  0
   -1.1110    1.8899    0.0000 O   0  0  0  0  0  0  0  0  0  0  0  0
   -2.9917    0.0975    0.0000 C   0  0  0  0  0  0  0  0  0  0  0  0
   -3.4147   -1.3416    0.0000 O   0  0  0  0  0  0  0  0  0  0  0  0
   -4.0266    1.1834    0.0000 O   0  0  0  0  0  0  0  0  0  0  0  0
  2  1  1  1
  2  3  1  0
  3  4  2  0
  4  5  1  0
  5  6  2  0
  6  7  1  0
  7  8  2  0
  2  9  1  0
  9 10  1  6
  9 11  1  0
 11 12  2  0
 11 13  1  0
  8  3  1  0
M  END
>  <rName>  (3885) 
bAla_2ROH_3RPh

>  <PQ_SYMBOL>  (3885) 
bAla_2ROH_3RPh

>  <FULL_NAME>  (3885) 
(2R,3R)-3-amino-2-hydroxy-3-phenylpropanoic acid

>  <IUPAC_CONDENSED>  (3885) 
bAla(2R-OH,3R-Ph)

>  <IUPAC>  (3885) 
(2R,3R)-3-amino-2-hydroxy-3-phenylpropanoic acid

>  <TYPE>  (3885) 
Backbone

>  <CLASS>  (3885) 
beta

>  <ANALOG>  (3885) 
X

>  <MOL_WT>  (3885) 
181.19099999999997

>  <LOGP>  (3885) 
0.13190000000000013

>  <TPSA>  (3885) 
83.55

>  <POPULARITY>  (3885) 
7.7

>  <PROTECTED>  (3885) 
TRUE

>  <SMILES>  (3885) 
N[C@H](c1(ccccc1))[C@@H](O)C(=O)O

>  <INCHIKEY>  (3885) 
RZARFIRJROUVLM-HTQZYQBOSA-N

$$$$
bAla_2ROH_3RPh_2CF3
     RDKit          2D

 17 17  0  0  0  0  0  0  0  0999 V2000
   -0.8119   -1.6468    0.0000 N   0  0  0  0  0  0  0  0  0  0  0  0
   -0.8381   -0.1470    0.0000 C   0  0  0  0  0  0  0  0  0  0  0  0
    0.4476    0.6256    0.0000 C   0  0  0  0  0  0  0  0  0  0  0  0
    0.4214    2.1253    0.0000 C   0  0  0  0  0  0  0  0  0  0  0  0
    1.7071    2.8979    0.0000 C   0  0  0  0  0  0  0  0  0  0  0  0
    3.0191    2.1708    0.0000 C   0  0  0  0  0  0  0  0  0  0  0  0
    3.0453    0.6710    0.0000 C   0  0  0  0  0  0  0  0  0  0  0  0
    1.7596   -0.1016    0.0000 C   0  0  0  0  0  0  0  0  0  0  0  0
    1.7858   -1.6014    0.0000 C   0  0  0  0  0  0  0  0  0  0  0  0
    1.8120   -3.1011    0.0000 F   0  0  0  0  0  0  0  0  0  0  0  0
    3.2856   -1.5751    0.0000 F   0  0  0  0  0  0  0  0  0  0  0  0
    0.2860   -1.6276    0.0000 F   0  0  0  0  0  0  0  0  0  0  0  0
   -2.1501    0.5801    0.0000 C   0  0  0  0  0  0  0  0  0  0  0  0
   -2.1763    2.0799    0.0000 O   0  0  0  0  0  0  0  0  0  0  0  0
   -3.4358   -0.1925    0.0000 C   0  0  0  0  0  0  0  0  0  0  0  0
   -3.4096   -1.6922    0.0000 O   0  0  0  0  0  0  0  0  0  0  0  0
   -4.7477    0.5347    0.0000 O   0  0  0  0  0  0  0  0  0  0  0  0
  2  1  1  1
  2  3  1  0
  3  4  2  0
  4  5  1  0
  5  6  2  0
  6  7  1  0
  7  8  2  0
  8  9  1  0
  9 10  1  0
  9 11  1  0
  9 12  1  0
  2 13  1  0
 13 14  1  6
 13 15  1  0
 15 16  2  0
 15 17  1  0
  8  3  1  0
M  END
>  <rName>  (3886) 
bAla_2ROH_3RPh_2CF3

>  <PQ_SYMBOL>  (3886) 
bAla_2ROH_3RPh_2CF3

>  <FULL_NAME>  (3886) 
(2R,3R)-3-amino-2-hydroxy-3-(2-(trifluoromethyl)phenyl)propanoic acid

>  <IUPAC_CONDENSED>  (3886) 
bAla(2R-OH,3R-Ph(2-CF3))

>  <IUPAC>  (3886) 
(2R,3R)-3-amino-2-hydroxy-3-(2-(trifluoromethyl)phenyl)propanoic acid

>  <TYPE>  (3886) 
Backbone

>  <CLASS>  (3886) 
beta

>  <ANALOG>  (3886) 
X

>  <MOL_WT>  (3886) 
249.18799999999996

>  <LOGP>  (3886) 
1.1507

>  <TPSA>  (3886) 
83.55

>  <POPULARITY>  (3886) 
2.6

>  <PROTECTED>  (3886) 
TRUE

>  <SMILES>  (3886) 
N[C@H](c1(ccccc1C(F)(F)F))[C@@H](O)C(=O)O

>  <INCHIKEY>  (3886) 
YIGYZBFRVLGTOV-HTQZYQBOSA-N

$$$$
bAla_2ROH_3RPh_2OMe
     RDKit          2D

 15 15  0  0  0  0  0  0  0  0999 V2000
   -0.8095   -1.8533    0.0000 N   0  0  0  0  0  0  0  0  0  0  0  0
   -0.7163   -0.3562    0.0000 C   0  0  0  0  0  0  0  0  0  0  0  0
    0.6268    0.3117    0.0000 C   0  0  0  0  0  0  0  0  0  0  0  0
    0.7200    1.8088    0.0000 C   0  0  0  0  0  0  0  0  0  0  0  0
    2.0631    2.4766    0.0000 C   0  0  0  0  0  0  0  0  0  0  0  0
    3.3131    1.6473    0.0000 C   0  0  0  0  0  0  0  0  0  0  0  0
    3.2198    0.1502    0.0000 C   0  0  0  0  0  0  0  0  0  0  0  0
    1.8767   -0.5176    0.0000 C   0  0  0  0  0  0  0  0  0  0  0  0
    1.7835   -2.0147    0.0000 O   0  0  0  0  0  0  0  0  0  0  0  0
    3.0334   -2.8440    0.0000 C   0  0  0  0  0  0  0  0  0  0  0  0
   -1.9663    0.4731    0.0000 C   0  0  0  0  0  0  0  0  0  0  0  0
   -1.8731    1.9702    0.0000 O   0  0  0  0  0  0  0  0  0  0  0  0
   -3.3094   -0.1947    0.0000 C   0  0  0  0  0  0  0  0  0  0  0  0
   -3.4026   -1.6919    0.0000 O   0  0  0  0  0  0  0  0  0  0  0  0
   -4.5593    0.6345    0.0000 O   0  0  0  0  0  0  0  0  0  0  0  0
  2  1  1  1
  2  3  1  0
  3  4  2  0
  4  5  1  0
  5  6  2  0
  6  7  1  0
  7  8  2  0
  8  9  1  0
  9 10  1  0
  2 11  1  0
 11 12  1  6
 11 13  1  0
 13 14  2  0
 13 15  1  0
  8  3  1  0
M  END
>  <rName>  (3887) 
bAla_2ROH_3RPh_2OMe

>  <PQ_SYMBOL>  (3887) 
bAla_2ROH_3RPh_2OMe

>  <FULL_NAME>  (3887) 
(2R,3R)-3-amino-2-hydroxy-3-(2-methoxyphenyl)propanoic acid

>  <IUPAC_CONDENSED>  (3887) 
bAla(2R-OH,3R-Ph(2-OMe))

>  <IUPAC>  (3887) 
(2R,3R)-3-amino-2-hydroxy-3-(2-methoxyphenyl)propanoic acid

>  <TYPE>  (3887) 
Backbone

>  <CLASS>  (3887) 
beta

>  <ANALOG>  (3887) 
X

>  <MOL_WT>  (3887) 
211.21699999999998

>  <LOGP>  (3887) 
0.14050000000000007

>  <TPSA>  (3887) 
92.78000000000002

>  <POPULARITY>  (3887) 
3.2

>  <PROTECTED>  (3887) 
TRUE

>  <SMILES>  (3887) 
N[C@H](c1(ccccc1OC))[C@@H](O)C(=O)O

>  <INCHIKEY>  (3887) 
GVANXUOIKFVRKN-RKDXNWHRSA-N

$$$$
bAla_2ROH_3RPh_3F
     RDKit          2D

 14 14  0  0  0  0  0  0  0  0999 V2000
   -1.0270   -2.0473    0.0000 N   0  0  0  0  0  0  0  0  0  0  0  0
   -0.7622   -0.5709    0.0000 C   0  0  0  0  0  0  0  0  0  0  0  0
    0.6488   -0.0619    0.0000 C   0  0  0  0  0  0  0  0  0  0  0  0
    0.9135    1.4146    0.0000 C   0  0  0  0  0  0  0  0  0  0  0  0
    2.3245    1.9235    0.0000 C   0  0  0  0  0  0  0  0  0  0  0  0
    3.4708    0.9560    0.0000 C   0  0  0  0  0  0  0  0  0  0  0  0
    3.2061   -0.5204    0.0000 C   0  0  0  0  0  0  0  0  0  0  0  0
    4.3524   -1.4879    0.0000 F   0  0  0  0  0  0  0  0  0  0  0  0
    1.7951   -1.0294    0.0000 C   0  0  0  0  0  0  0  0  0  0  0  0
   -1.9085    0.3966    0.0000 C   0  0  0  0  0  0  0  0  0  0  0  0
   -1.6438    1.8731    0.0000 O   0  0  0  0  0  0  0  0  0  0  0  0
   -3.3195   -0.1124    0.0000 C   0  0  0  0  0  0  0  0  0  0  0  0
   -3.5842   -1.5888    0.0000 O   0  0  0  0  0  0  0  0  0  0  0  0
   -4.4658    0.8551    0.0000 O   0  0  0  0  0  0  0  0  0  0  0  0
  2  1  1  1
  2  3  1  0
  3  4  2  0
  4  5  1  0
  5  6  2  0
  6  7  1  0
  7  8  1  0
  7  9  2  0
  2 10  1  0
 10 11  1  6
 10 12  1  0
 12 13  2  0
 12 14  1  0
  9  3  1  0
M  END
>  <rName>  (3888) 
bAla_2ROH_3RPh_3F

>  <PQ_SYMBOL>  (3888) 
bAla_2ROH_3RPh_3F

>  <FULL_NAME>  (3888) 
(2R,3R)-3-amino-3-(3-fluorophenyl)-2-hydroxypropanoic acid

>  <IUPAC_CONDENSED>  (3888) 
bAla(2R-OH,3R-Ph(3-F))

>  <IUPAC>  (3888) 
(2R,3R)-3-amino-3-(3-fluorophenyl)-2-hydroxypropanoic acid

>  <TYPE>  (3888) 
Backbone

>  <CLASS>  (3888) 
beta

>  <ANALOG>  (3888) 
X

>  <MOL_WT>  (3888) 
199.18099999999998

>  <LOGP>  (3888) 
0.2710000000000002

>  <TPSA>  (3888) 
83.55

>  <POPULARITY>  (3888) 
4.9

>  <PROTECTED>  (3888) 
TRUE

>  <SMILES>  (3888) 
N[C@H](c1(cccc(F)c1))[C@@H](O)C(=O)O

>  <INCHIKEY>  (3888) 
XVPSWGNJNOSORO-HTQZYQBOSA-N

$$$$
bAla_2ROH_3RPh_3Me
     RDKit          2D

 14 14  0  0  0  0  0  0  0  0999 V2000
   -1.0270   -2.0473    0.0000 N   0  0  0  0  0  0  0  0  0  0  0  0
   -0.7622   -0.5709    0.0000 C   0  0  0  0  0  0  0  0  0  0  0  0
    0.6488   -0.0619    0.0000 C   0  0  0  0  0  0  0  0  0  0  0  0
    0.9135    1.4146    0.0000 C   0  0  0  0  0  0  0  0  0  0  0  0
    2.3245    1.9235    0.0000 C   0  0  0  0  0  0  0  0  0  0  0  0
    3.4708    0.9560    0.0000 C   0  0  0  0  0  0  0  0  0  0  0  0
    3.2061   -0.5204    0.0000 C   0  0  0  0  0  0  0  0  0  0  0  0
    4.3524   -1.4879    0.0000 C   0  0  0  0  0  0  0  0  0  0  0  0
    1.7951   -1.0294    0.0000 C   0  0  0  0  0  0  0  0  0  0  0  0
   -1.9085    0.3966    0.0000 C   0  0  0  0  0  0  0  0  0  0  0  0
   -1.6438    1.8731    0.0000 O   0  0  0  0  0  0  0  0  0  0  0  0
   -3.3195   -0.1124    0.0000 C   0  0  0  0  0  0  0  0  0  0  0  0
   -3.5842   -1.5888    0.0000 O   0  0  0  0  0  0  0  0  0  0  0  0
   -4.4658    0.8551    0.0000 O   0  0  0  0  0  0  0  0  0  0  0  0
  2  1  1  1
  2  3  1  0
  3  4  2  0
  4  5  1  0
  5  6  2  0
  6  7  1  0
  7  8  1  0
  7  9  2  0
  2 10  1  0
 10 11  1  6
 10 12  1  0
 12 13  2  0
 12 14  1  0
  9  3  1  0
M  END
>  <rName>  (3889) 
bAla_2ROH_3RPh_3Me

>  <PQ_SYMBOL>  (3889) 
bAla_2ROH_3RPh_3Me

>  <FULL_NAME>  (3889) 
(2R,3R)-3-amino-2-hydroxy-3-(m-tolyl)propanoic acid

>  <IUPAC_CONDENSED>  (3889) 
bAla(2R-OH,3R-Ph(3-Me))

>  <IUPAC>  (3889) 
(2R,3R)-3-amino-2-hydroxy-3-(3-methylphenyl)propanoic acid

>  <TYPE>  (3889) 
Backbone

>  <CLASS>  (3889) 
beta

>  <ANALOG>  (3889) 
X

>  <MOL_WT>  (3889) 
195.218

>  <LOGP>  (3889) 
0.44032000000000004

>  <TPSA>  (3889) 
83.55

>  <POPULARITY>  (3889) 
3.8

>  <PROTECTED>  (3889) 
TRUE

>  <SMILES>  (3889) 
N[C@H](c1(cccc(C)c1))[C@@H](O)C(=O)O

>  <INCHIKEY>  (3889) 
ALZYDSFTANAOHF-RKDXNWHRSA-N

$$$$
bAla_2ROH_3RPh_3OMe
     RDKit          2D

 15 15  0  0  0  0  0  0  0  0999 V2000
   -1.0591   -1.9971    0.0000 N   0  0  0  0  0  0  0  0  0  0  0  0
   -0.9802   -0.4992    0.0000 C   0  0  0  0  0  0  0  0  0  0  0  0
    0.3564    0.1815    0.0000 C   0  0  0  0  0  0  0  0  0  0  0  0
    0.4353    1.6794    0.0000 C   0  0  0  0  0  0  0  0  0  0  0  0
    1.7720    2.3601    0.0000 C   0  0  0  0  0  0  0  0  0  0  0  0
    3.0298    1.5429    0.0000 C   0  0  0  0  0  0  0  0  0  0  0  0
    2.9509    0.0449    0.0000 C   0  0  0  0  0  0  0  0  0  0  0  0
    4.2087   -0.7723    0.0000 O   0  0  0  0  0  0  0  0  0  0  0  0
    4.1299   -2.2702    0.0000 C   0  0  0  0  0  0  0  0  0  0  0  0
    1.6143   -0.6357    0.0000 C   0  0  0  0  0  0  0  0  0  0  0  0
   -2.2380    0.3181    0.0000 C   0  0  0  0  0  0  0  0  0  0  0  0
   -2.1592    1.8160    0.0000 O   0  0  0  0  0  0  0  0  0  0  0  0
   -3.5747   -0.3626    0.0000 C   0  0  0  0  0  0  0  0  0  0  0  0
   -3.6536   -1.8605    0.0000 O   0  0  0  0  0  0  0  0  0  0  0  0
   -4.8325    0.4547    0.0000 O   0  0  0  0  0  0  0  0  0  0  0  0
  2  1  1  1
  2  3  1  0
  3  4  2  0
  4  5  1  0
  5  6  2  0
  6  7  1  0
  7  8  1  0
  8  9  1  0
  7 10  2  0
  2 11  1  0
 11 12  1  6
 11 13  1  0
 13 14  2  0
 13 15  1  0
 10  3  1  0
M  END
>  <rName>  (3890) 
bAla_2ROH_3RPh_3OMe

>  <PQ_SYMBOL>  (3890) 
bAla_2ROH_3RPh_3OMe

>  <FULL_NAME>  (3890) 
(2R,3R)-3-amino-2-hydroxy-3-(3-methoxyphenyl)propanoic acid

>  <IUPAC_CONDENSED>  (3890) 
bAla(2R-OH,3R-Ph(3-OMe))

>  <IUPAC>  (3890) 
(2R,3R)-3-amino-2-hydroxy-3-(3-methoxyphenyl)propanoic acid

>  <TYPE>  (3890) 
Backbone

>  <CLASS>  (3890) 
beta

>  <ANALOG>  (3890) 
X

>  <MOL_WT>  (3890) 
211.21699999999998

>  <LOGP>  (3890) 
0.14050000000000007

>  <TPSA>  (3890) 
92.78000000000002

>  <POPULARITY>  (3890) 
4.9

>  <PROTECTED>  (3890) 
TRUE

>  <SMILES>  (3890) 
N[C@H](c1(cccc(OC)c1))[C@@H](O)C(=O)O

>  <INCHIKEY>  (3890) 
ICTHUARFCCZYSQ-RKDXNWHRSA-N

$$$$
bAla_2ROH_3RPh_4CF3
     RDKit          2D

 17 17  0  0  0  0  0  0  0  0999 V2000
   -2.4575   -2.0661    0.0000 N   0  0  0  0  0  0  0  0  0  0  0  0
   -1.9073   -0.6706    0.0000 C   0  0  0  0  0  0  0  0  0  0  0  0
   -0.4236   -0.4495    0.0000 C   0  0  0  0  0  0  0  0  0  0  0  0
    0.1266    0.9460    0.0000 C   0  0  0  0  0  0  0  0  0  0  0  0
    1.6102    1.1672    0.0000 C   0  0  0  0  0  0  0  0  0  0  0  0
    2.5436   -0.0071    0.0000 C   0  0  0  0  0  0  0  0  0  0  0  0
    1.9933   -1.4025    0.0000 C   0  0  0  0  0  0  0  0  0  0  0  0
    0.5097   -1.6237    0.0000 C   0  0  0  0  0  0  0  0  0  0  0  0
    4.0272    0.2141    0.0000 C   0  0  0  0  0  0  0  0  0  0  0  0
    5.5108    0.4353    0.0000 F   0  0  0  0  0  0  0  0  0  0  0  0
    4.2483   -1.2695    0.0000 F   0  0  0  0  0  0  0  0  0  0  0  0
    3.8060    1.6977    0.0000 F   0  0  0  0  0  0  0  0  0  0  0  0
   -2.8406    0.5036    0.0000 C   0  0  0  0  0  0  0  0  0  0  0  0
   -2.2904    1.8990    0.0000 O   0  0  0  0  0  0  0  0  0  0  0  0
   -4.3242    0.2824    0.0000 C   0  0  0  0  0  0  0  0  0  0  0  0
   -4.8745   -1.1130    0.0000 O   0  0  0  0  0  0  0  0  0  0  0  0
   -5.2576    1.4566    0.0000 O   0  0  0  0  0  0  0  0  0  0  0  0
  2  1  1  1
  2  3  1  0
  3  4  1  0
  4  5  2  0
  5  6  1  0
  6  7  2  0
  7  8  1  0
  6  9  1  0
  9 10  1  0
  9 11  1  0
  9 12  1  0
  2 13  1  0
 13 14  1  6
 13 15  1  0
 15 16  2  0
 15 17  1  0
  8  3  2  0
M  END
>  <rName>  (3891) 
bAla_2ROH_3RPh_4CF3

>  <PQ_SYMBOL>  (3891) 
bAla_2ROH_3RPh_4CF3

>  <FULL_NAME>  (3891) 
(2R,3R)-3-amino-2-hydroxy-3-(4-(trifluoromethyl)phenyl)propanoic acid

>  <IUPAC_CONDENSED>  (3891) 
bAla(2R-OH,3R-Ph(4-CF3))

>  <IUPAC>  (3891) 
(2R,3R)-3-amino-2-hydroxy-3-(4-(trifluoromethyl)phenyl)propanoic acid

>  <TYPE>  (3891) 
Backbone

>  <CLASS>  (3891) 
beta

>  <ANALOG>  (3891) 
X

>  <MOL_WT>  (3891) 
249.18799999999996

>  <LOGP>  (3891) 
1.1507

>  <TPSA>  (3891) 
83.55

>  <POPULARITY>  (3891) 
2.8

>  <PROTECTED>  (3891) 
TRUE

>  <SMILES>  (3891) 
N[C@H](c1(ccc(cc1)C(F)(F)F))[C@@H](O)C(=O)O

>  <INCHIKEY>  (3891) 
OEGSRMZWWHEQGV-HTQZYQBOSA-N

$$$$
bAla_2ROH_3RPh_4F
     RDKit          2D

 14 14  0  0  0  0  0  0  0  0999 V2000
   -1.3920   -2.0726    0.0000 N   0  0  0  0  0  0  0  0  0  0  0  0
   -0.9084   -0.6527    0.0000 C   0  0  0  0  0  0  0  0  0  0  0  0
    0.5630   -0.3615    0.0000 C   0  0  0  0  0  0  0  0  0  0  0  0
    1.0466    1.0584    0.0000 C   0  0  0  0  0  0  0  0  0  0  0  0
    2.5180    1.3496    0.0000 C   0  0  0  0  0  0  0  0  0  0  0  0
    3.5060    0.2209    0.0000 C   0  0  0  0  0  0  0  0  0  0  0  0
    4.9774    0.5121    0.0000 F   0  0  0  0  0  0  0  0  0  0  0  0
    3.0224   -1.1991    0.0000 C   0  0  0  0  0  0  0  0  0  0  0  0
    1.5509   -1.4902    0.0000 C   0  0  0  0  0  0  0  0  0  0  0  0
   -1.8963    0.4760    0.0000 C   0  0  0  0  0  0  0  0  0  0  0  0
   -1.4128    1.8959    0.0000 O   0  0  0  0  0  0  0  0  0  0  0  0
   -3.3678    0.1848    0.0000 C   0  0  0  0  0  0  0  0  0  0  0  0
   -3.8514   -1.2351    0.0000 O   0  0  0  0  0  0  0  0  0  0  0  0
   -4.3557    1.3135    0.0000 O   0  0  0  0  0  0  0  0  0  0  0  0
  2  1  1  1
  2  3  1  0
  3  4  1  0
  4  5  2  0
  5  6  1  0
  6  7  1  0
  6  8  2  0
  8  9  1  0
  2 10  1  0
 10 11  1  6
 10 12  1  0
 12 13  2  0
 12 14  1  0
  9  3  2  0
M  END
>  <rName>  (3892) 
bAla_2ROH_3RPh_4F

>  <PQ_SYMBOL>  (3892) 
bAla_2ROH_3RPh_4F

>  <FULL_NAME>  (3892) 
(2R,3R)-3-amino-3-(4-fluorophenyl)-2-hydroxypropanoic acid

>  <IUPAC_CONDENSED>  (3892) 
bAla(2R-OH,3R-Ph(4-F))

>  <IUPAC>  (3892) 
(2R,3R)-3-amino-3-(4-fluorophenyl)-2-hydroxypropanoic acid

>  <TYPE>  (3892) 
Backbone

>  <CLASS>  (3892) 
beta

>  <ANALOG>  (3892) 
X

>  <MOL_WT>  (3892) 
199.18099999999998

>  <LOGP>  (3892) 
0.2710000000000002

>  <TPSA>  (3892) 
83.55

>  <POPULARITY>  (3892) 
5.2

>  <PROTECTED>  (3892) 
TRUE

>  <SMILES>  (3892) 
N[C@H](c1(ccc(F)cc1))[C@@H](O)C(=O)O

>  <INCHIKEY>  (3892) 
MGNTZYNDHDKPQD-HTQZYQBOSA-N

$$$$
bAla_2ROH_3RPh_4Me
     RDKit          2D

 14 14  0  0  0  0  0  0  0  0999 V2000
   -1.3920   -2.0726    0.0000 N   0  0  0  0  0  0  0  0  0  0  0  0
   -0.9084   -0.6527    0.0000 C   0  0  0  0  0  0  0  0  0  0  0  0
    0.5630   -0.3615    0.0000 C   0  0  0  0  0  0  0  0  0  0  0  0
    1.0466    1.0584    0.0000 C   0  0  0  0  0  0  0  0  0  0  0  0
    2.5180    1.3496    0.0000 C   0  0  0  0  0  0  0  0  0  0  0  0
    3.5060    0.2209    0.0000 C   0  0  0  0  0  0  0  0  0  0  0  0
    4.9774    0.5121    0.0000 C   0  0  0  0  0  0  0  0  0  0  0  0
    3.0224   -1.1991    0.0000 C   0  0  0  0  0  0  0  0  0  0  0  0
    1.5509   -1.4902    0.0000 C   0  0  0  0  0  0  0  0  0  0  0  0
   -1.8963    0.4760    0.0000 C   0  0  0  0  0  0  0  0  0  0  0  0
   -1.4128    1.8959    0.0000 O   0  0  0  0  0  0  0  0  0  0  0  0
   -3.3678    0.1848    0.0000 C   0  0  0  0  0  0  0  0  0  0  0  0
   -3.8514   -1.2351    0.0000 O   0  0  0  0  0  0  0  0  0  0  0  0
   -4.3557    1.3135    0.0000 O   0  0  0  0  0  0  0  0  0  0  0  0
  2  1  1  1
  2  3  1  0
  3  4  1  0
  4  5  2  0
  5  6  1  0
  6  7  1  0
  6  8  2  0
  8  9  1  0
  2 10  1  0
 10 11  1  6
 10 12  1  0
 12 13  2  0
 12 14  1  0
  9  3  2  0
M  END
>  <rName>  (3893) 
bAla_2ROH_3RPh_4Me

>  <PQ_SYMBOL>  (3893) 
bAla_2ROH_3RPh_4Me

>  <FULL_NAME>  (3893) 
(2R,3R)-3-amino-2-hydroxy-3-(p-tolyl)propanoic acid

>  <IUPAC_CONDENSED>  (3893) 
bAla(2R-OH,3R-Ph(4-Me))

>  <IUPAC>  (3893) 
(2R,3R)-3-amino-2-hydroxy-3-(4-methylphenyl)propanoic acid

>  <TYPE>  (3893) 
Backbone

>  <CLASS>  (3893) 
beta

>  <ANALOG>  (3893) 
X

>  <MOL_WT>  (3893) 
195.218

>  <LOGP>  (3893) 
0.44032000000000004

>  <TPSA>  (3893) 
83.55

>  <POPULARITY>  (3893) 
4.2

>  <PROTECTED>  (3893) 
TRUE

>  <SMILES>  (3893) 
N[C@H](c1(ccc(C)cc1))[C@@H](O)C(=O)O

>  <INCHIKEY>  (3893) 
MXALXDNRLYPVEU-RKDXNWHRSA-N

$$$$
bAla_2ROH_3RPh_4OMe
     RDKit          2D

 15 15  0  0  0  0  0  0  0  0999 V2000
   -1.7327   -2.0803    0.0000 N   0  0  0  0  0  0  0  0  0  0  0  0
   -1.2887   -0.6475    0.0000 C   0  0  0  0  0  0  0  0  0  0  0  0
    0.1742   -0.3157    0.0000 C   0  0  0  0  0  0  0  0  0  0  0  0
    0.6182    1.1171    0.0000 C   0  0  0  0  0  0  0  0  0  0  0  0
    2.0810    1.4489    0.0000 C   0  0  0  0  0  0  0  0  0  0  0  0
    3.0998    0.3479    0.0000 C   0  0  0  0  0  0  0  0  0  0  0  0
    4.5627    0.6798    0.0000 O   0  0  0  0  0  0  0  0  0  0  0  0
    5.5815   -0.4212    0.0000 C   0  0  0  0  0  0  0  0  0  0  0  0
    2.6558   -1.0848    0.0000 C   0  0  0  0  0  0  0  0  0  0  0  0
    1.1929   -1.4166    0.0000 C   0  0  0  0  0  0  0  0  0  0  0  0
   -2.3075    0.4534    0.0000 C   0  0  0  0  0  0  0  0  0  0  0  0
   -1.8634    1.8862    0.0000 O   0  0  0  0  0  0  0  0  0  0  0  0
   -3.7703    0.1216    0.0000 C   0  0  0  0  0  0  0  0  0  0  0  0
   -4.2144   -1.3112    0.0000 O   0  0  0  0  0  0  0  0  0  0  0  0
   -4.7891    1.2225    0.0000 O   0  0  0  0  0  0  0  0  0  0  0  0
  2  1  1  1
  2  3  1  0
  3  4  1  0
  4  5  2  0
  5  6  1  0
  6  7  1  0
  7  8  1  0
  6  9  2  0
  9 10  1  0
  2 11  1  0
 11 12  1  6
 11 13  1  0
 13 14  2  0
 13 15  1  0
 10  3  2  0
M  END
>  <rName>  (3894) 
bAla_2ROH_3RPh_4OMe

>  <PQ_SYMBOL>  (3894) 
bAla_2ROH_3RPh_4OMe

>  <FULL_NAME>  (3894) 
(2R,3R)-3-amino-2-hydroxy-3-(4-methoxyphenyl)propanoic acid

>  <IUPAC_CONDENSED>  (3894) 
bAla(2R-OH,3R-Ph(4-OMe))

>  <IUPAC>  (3894) 
(2R,3R)-3-amino-2-hydroxy-3-(4-methoxyphenyl)propanoic acid

>  <TYPE>  (3894) 
Backbone

>  <CLASS>  (3894) 
beta

>  <ANALOG>  (3894) 
X

>  <MOL_WT>  (3894) 
211.21699999999998

>  <LOGP>  (3894) 
0.14050000000000007

>  <TPSA>  (3894) 
92.78000000000002

>  <POPULARITY>  (3894) 
5.2

>  <PROTECTED>  (3894) 
TRUE

>  <SMILES>  (3894) 
N[C@H](c1(ccc(OC)cc1))[C@@H](O)C(=O)O

>  <INCHIKEY>  (3894) 
CMDQTUROESJWHM-RKDXNWHRSA-N

$$$$
bAla_2ROH_3Rnaphth1yl
     RDKit          2D

 17 18  0  0  0  0  0  0  0  0999 V2000
   -1.1137    1.8354    0.0000 N   0  0  0  0  0  0  0  0  0  0  0  0
   -1.2044    0.3381    0.0000 C   0  0  0  0  0  0  0  0  0  0  0  0
    0.0469   -0.4890    0.0000 C   0  0  0  0  0  0  0  0  0  0  0  0
   -0.0437   -1.9863    0.0000 C   0  0  0  0  0  0  0  0  0  0  0  0
    1.2076   -2.8134    0.0000 C   0  0  0  0  0  0  0  0  0  0  0  0
    2.5496   -2.1433    0.0000 C   0  0  0  0  0  0  0  0  0  0  0  0
    2.6403   -0.6461    0.0000 C   0  0  0  0  0  0  0  0  0  0  0  0
    3.9823    0.0241    0.0000 C   0  0  0  0  0  0  0  0  0  0  0  0
    4.0729    1.5213    0.0000 C   0  0  0  0  0  0  0  0  0  0  0  0
    2.8216    2.3485    0.0000 C   0  0  0  0  0  0  0  0  0  0  0  0
    1.4796    1.6783    0.0000 C   0  0  0  0  0  0  0  0  0  0  0  0
    1.3889    0.1811    0.0000 C   0  0  0  0  0  0  0  0  0  0  0  0
   -2.5464   -0.3320    0.0000 C   0  0  0  0  0  0  0  0  0  0  0  0
   -2.6370   -1.8293    0.0000 O   0  0  0  0  0  0  0  0  0  0  0  0
   -3.7977    0.4951    0.0000 C   0  0  0  0  0  0  0  0  0  0  0  0
   -3.7071    1.9924    0.0000 O   0  0  0  0  0  0  0  0  0  0  0  0
   -5.1397   -0.1750    0.0000 O   0  0  0  0  0  0  0  0  0  0  0  0
  2  1  1  6
  2  3  1  0
  3  4  2  0
  4  5  1  0
  5  6  2  0
  6  7  1  0
  7  8  2  0
  8  9  1  0
  9 10  2  0
 10 11  1  0
 11 12  2  0
  2 13  1  0
 13 14  1  1
 13 15  1  0
 15 16  2  0
 15 17  1  0
 12  7  1  0
 12  3  1  0
M  END
>  <rName>  (3895) 
bAla_2ROH_3Rnaphth1yl

>  <PQ_SYMBOL>  (3895) 
bAla_2ROH_3Rnaphth1yl

>  <FULL_NAME>  (3895) 
(2R,3R)-3-amino-2-hydroxy-3-(naphthalen-1-yl)propanoic acid

>  <IUPAC_CONDENSED>  (3895) 
bAla(2R-OH,3R-naphth-1-yl)

>  <IUPAC>  (3895) 
(2R,3R)-3-amino-2-hydroxy-3-(naphthalen-1-yl)propanoic acid

>  <TYPE>  (3895) 
Backbone

>  <CLASS>  (3895) 
beta

>  <ANALOG>  (3895) 
X

>  <MOL_WT>  (3895) 
231.25099999999998

>  <LOGP>  (3895) 
1.2851000000000001

>  <TPSA>  (3895) 
83.55

>  <POPULARITY>  (3895) 
3.3

>  <PROTECTED>  (3895) 
TRUE

>  <SMILES>  (3895) 
N[C@H](c2(cccc1(ccccc12)))[C@@H](O)C(=O)O

>  <INCHIKEY>  (3895) 
JWGUPWBKDSQFQO-VXGBXAGGSA-N

$$$$
bAla_2ROH_3Rnaphth2yl
     RDKit          2D

 17 18  0  0  0  0  0  0  0  0999 V2000
   -2.6223   -2.0386    0.0000 N   0  0  0  0  0  0  0  0  0  0  0  0
   -1.8601   -0.7466    0.0000 C   0  0  0  0  0  0  0  0  0  0  0  0
   -0.3601   -0.7608    0.0000 C   0  0  0  0  0  0  0  0  0  0  0  0
    0.3776   -2.0668    0.0000 C   0  0  0  0  0  0  0  0  0  0  0  0
    1.8775   -2.0810    0.0000 C   0  0  0  0  0  0  0  0  0  0  0  0
    2.6397   -0.7890    0.0000 C   0  0  0  0  0  0  0  0  0  0  0  0
    4.1397   -0.8032    0.0000 C   0  0  0  0  0  0  0  0  0  0  0  0
    4.9019    0.4887    0.0000 C   0  0  0  0  0  0  0  0  0  0  0  0
    4.1642    1.7948    0.0000 C   0  0  0  0  0  0  0  0  0  0  0  0
    2.6642    1.8089    0.0000 C   0  0  0  0  0  0  0  0  0  0  0  0
    1.9020    0.5170    0.0000 C   0  0  0  0  0  0  0  0  0  0  0  0
    0.4021    0.5311    0.0000 C   0  0  0  0  0  0  0  0  0  0  0  0
   -2.5978    0.5594    0.0000 C   0  0  0  0  0  0  0  0  0  0  0  0
   -1.8356    1.8513    0.0000 O   0  0  0  0  0  0  0  0  0  0  0  0
   -4.0977    0.5735    0.0000 C   0  0  0  0  0  0  0  0  0  0  0  0
   -4.8599   -0.7184    0.0000 O   0  0  0  0  0  0  0  0  0  0  0  0
   -4.8354    1.8796    0.0000 O   0  0  0  0  0  0  0  0  0  0  0  0
  2  1  1  1
  2  3  1  0
  3  4  1  0
  4  5  2  0
  5  6  1  0
  6  7  2  0
  7  8  1  0
  8  9  2  0
  9 10  1  0
 10 11  2  0
 11 12  1  0
  2 13  1  0
 13 14  1  6
 13 15  1  0
 15 16  2  0
 15 17  1  0
 11  6  1  0
 12  3  2  0
M  END
>  <rName>  (3896) 
bAla_2ROH_3Rnaphth2yl

>  <PQ_SYMBOL>  (3896) 
bAla_2ROH_3Rnaphth2yl

>  <FULL_NAME>  (3896) 
(2R,3R)-3-amino-2-hydroxy-3-(naphthalen-2-yl)propanoic acid

>  <IUPAC_CONDENSED>  (3896) 
bAla(2R-OH,3R-naphth-2-yl)

>  <IUPAC>  (3896) 
(2R,3R)-3-amino-2-hydroxy-3-(naphthalen-2-yl)propanoic acid

>  <TYPE>  (3896) 
Backbone

>  <CLASS>  (3896) 
beta

>  <ANALOG>  (3896) 
X

>  <MOL_WT>  (3896) 
231.25099999999998

>  <LOGP>  (3896) 
1.2851000000000001

>  <TPSA>  (3896) 
83.55

>  <POPULARITY>  (3896) 
2.9

>  <PROTECTED>  (3896) 
TRUE

>  <SMILES>  (3896) 
N[C@H](c2(ccc1(ccccc1c2)))[C@@H](O)C(=O)O

>  <INCHIKEY>  (3896) 
XWVSXSUSCGCSFK-VXGBXAGGSA-N

$$$$
bAla_2ROH_3SPh
     RDKit          2D

 13 13  0  0  0  0  0  0  0  0999 V2000
   -0.9220   -2.0742    0.0000 N   0  0  0  0  0  0  0  0  0  0  0  0
   -0.4991   -0.6350    0.0000 C   0  0  0  0  0  0  0  0  0  0  0  0
    0.9587   -0.2818    0.0000 C   0  0  0  0  0  0  0  0  0  0  0  0
    1.3817    1.1574    0.0000 C   0  0  0  0  0  0  0  0  0  0  0  0
    2.8395    1.5107    0.0000 C   0  0  0  0  0  0  0  0  0  0  0  0
    3.8743    0.4248    0.0000 C   0  0  0  0  0  0  0  0  0  0  0  0
    3.4514   -1.0143    0.0000 C   0  0  0  0  0  0  0  0  0  0  0  0
    1.9936   -1.3676    0.0000 C   0  0  0  0  0  0  0  0  0  0  0  0
   -1.5339    0.4508    0.0000 C   0  0  0  0  0  0  0  0  0  0  0  0
   -1.1110    1.8899    0.0000 O   0  0  0  0  0  0  0  0  0  0  0  0
   -2.9917    0.0975    0.0000 C   0  0  0  0  0  0  0  0  0  0  0  0
   -3.4147   -1.3416    0.0000 O   0  0  0  0  0  0  0  0  0  0  0  0
   -4.0266    1.1834    0.0000 O   0  0  0  0  0  0  0  0  0  0  0  0
  2  1  1  6
  2  3  1  0
  3  4  2  0
  4  5  1  0
  5  6  2  0
  6  7  1  0
  7  8  2  0
  2  9  1  0
  9 10  1  6
  9 11  1  0
 11 12  2  0
 11 13  1  0
  8  3  1  0
M  END
>  <rName>  (3897) 
bAla_2ROH_3SPh

>  <PQ_SYMBOL>  (3897) 
bAla_2ROH_3SPh

>  <FULL_NAME>  (3897) 
3-Phenylisoserine, (2R,3S)-

>  <IUPAC_CONDENSED>  (3897) 
bAla(2R-OH,3S-Ph)

>  <IUPAC>  (3897) 
(2R,3S)-3-amino-2-hydroxy-3-phenylpropanoic acid

>  <TYPE>  (3897) 
Backbone

>  <CLASS>  (3897) 
beta

>  <ANALOG>  (3897) 
X

>  <MOL_WT>  (3897) 
181.19099999999997

>  <LOGP>  (3897) 
0.13190000000000013

>  <TPSA>  (3897) 
83.55

>  <POPULARITY>  (3897) 
11.5

>  <PROTECTED>  (3897) 
TRUE

>  <SMILES>  (3897) 
N[C@@H](c1(ccccc1))[C@@H](O)C(=O)O

>  <INCHIKEY>  (3897) 
RZARFIRJROUVLM-JGVFFNPUSA-N

$$$$
bAla_2RPh
     RDKit          2D

 12 12  0  0  0  0  0  0  0  0999 V2000
    3.1463   -1.7206    0.0000 N   0  0  0  0  0  0  0  0  0  0  0  0
    1.6493   -1.6245    0.0000 C   0  0  0  0  0  0  0  0  0  0  0  0
    0.9841   -0.2801    0.0000 C   0  0  0  0  0  0  0  0  0  0  0  0
   -0.5128   -0.1840    0.0000 C   0  0  0  0  0  0  0  0  0  0  0  0
   -1.3445   -1.4324    0.0000 C   0  0  0  0  0  0  0  0  0  0  0  0
   -2.8414   -1.3363    0.0000 C   0  0  0  0  0  0  0  0  0  0  0  0
   -3.5067    0.0081    0.0000 C   0  0  0  0  0  0  0  0  0  0  0  0
   -2.6750    1.2564    0.0000 C   0  0  0  0  0  0  0  0  0  0  0  0
   -1.1781    1.1604    0.0000 C   0  0  0  0  0  0  0  0  0  0  0  0
    1.8157    0.9682    0.0000 C   0  0  0  0  0  0  0  0  0  0  0  0
    1.1505    2.3126    0.0000 O   0  0  0  0  0  0  0  0  0  0  0  0
    3.3127    0.8721    0.0000 O   0  0  0  0  0  0  0  0  0  0  0  0
  1  2  1  0
  3  2  1  1
  3  4  1  0
  4  5  2  0
  5  6  1  0
  6  7  2  0
  7  8  1  0
  8  9  2  0
  3 10  1  0
 10 11  2  0
 10 12  1  0
  9  4  1  0
M  END
>  <rName>  (3898) 
bAla_2RPh

>  <PQ_SYMBOL>  (3898) 
bAla_2RPh

>  <FULL_NAME>  (3898) 
(R)-3-amino-2-phenylpropanoic acid

>  <IUPAC_CONDENSED>  (3898) 
bAla(2R-Ph)

>  <IUPAC>  (3898) 
(2R)-3-amino-2-phenylpropanoic acid

>  <TYPE>  (3898) 
Backbone

>  <CLASS>  (3898) 
beta

>  <ANALOG>  (3898) 
X

>  <MOL_WT>  (3898) 
165.19199999999995

>  <LOGP>  (3898) 
0.8135000000000001

>  <TPSA>  (3898) 
63.32000000000001

>  <POPULARITY>  (3898) 
12.0

>  <PROTECTED>  (3898) 
TRUE

>  <SMILES>  (3898) 
NC[C@@H](c1(ccccc1))C(=O)O

>  <INCHIKEY>  (3898) 
LRCYAJZPDFSJPQ-QMMMGPOBSA-N

$$$$
bAla_2Rcyclobutane
     RDKit          2D

  8  8  0  0  0  0  0  0  0  0999 V2000
    1.7473   -1.8123    0.0000 N   0  0  0  0  0  0  0  0  0  0  0  0
    1.3130   -0.3765    0.0000 C   0  0  0  0  0  0  0  0  0  0  0  0
   -0.0093    0.3316    0.0000 C   0  0  0  0  0  0  0  0  0  0  0  0
    0.6988    1.6539    0.0000 C   0  0  0  0  0  0  0  0  0  0  0  0
    2.0211    0.9458    0.0000 C   0  0  0  0  0  0  0  0  0  0  0  0
   -1.4451   -0.1027    0.0000 C   0  0  0  0  0  0  0  0  0  0  0  0
   -1.7868   -1.5633    0.0000 O   0  0  0  0  0  0  0  0  0  0  0  0
   -2.5391    0.9235    0.0000 O   0  0  0  0  0  0  0  0  0  0  0  0
  2  1  1  6
  2  3  1  0
  3  4  1  0
  4  5  1  0
  3  6  1  6
  6  7  2  0
  6  8  1  0
  5  2  1  0
M  END
>  <rName>  (3899) 
bAla_2Rcyclobutane

>  <PQ_SYMBOL>  (3899) 
bAla_2Rcyclobutane

>  <FULL_NAME>  (3899) 
(1R,2S)-2-Aminocyclobutanecarboxylic acid

>  <IUPAC_CONDENSED>  (3899) 
bAla(2R-cyclobutane)

>  <IUPAC>  (3899) 
(1R,2S)-2-aminocyclobutanecarboxylic acid

>  <TYPE>  (3899) 
Backbone

>  <CLASS>  (3899) 
beta

>  <ANALOG>  (3899) 
Ala

>  <MOL_WT>  (3899) 
115.13199999999999

>  <LOGP>  (3899) 
-0.19170000000000004

>  <TPSA>  (3899) 
63.32000000000001

>  <POPULARITY>  (3899) 
6.5

>  <PROTECTED>  (3899) 
TRUE

>  <SMILES>  (3899) 
N[C@@H]1[C@@H](CC1)C(=O)O

>  <INCHIKEY>  (3899) 
NSQMWZLLTGEDQU-DMTCNVIQSA-N

$$$$
bAla_2RiBu
     RDKit          2D

 10  9  0  0  0  0  0  0  0  0999 V2000
    3.1802    0.8418    0.0000 N   0  0  0  0  0  0  0  0  0  0  0  0
    1.8138    1.4604    0.0000 C   0  0  0  0  0  0  0  0  0  0  0  0
    0.5948    0.5863    0.0000 C   0  0  0  0  0  0  0  0  0  0  0  0
   -0.7717    1.2050    0.0000 C   0  0  0  0  0  0  0  0  0  0  0  0
   -1.9907    0.3309    0.0000 C   0  0  0  0  0  0  0  0  0  0  0  0
   -3.3572    0.9495    0.0000 C   0  0  0  0  0  0  0  0  0  0  0  0
   -1.8433   -1.1619    0.0000 C   0  0  0  0  0  0  0  0  0  0  0  0
    0.7422   -0.9064    0.0000 C   0  0  0  0  0  0  0  0  0  0  0  0
   -0.4768   -1.7805    0.0000 O   0  0  0  0  0  0  0  0  0  0  0  0
    2.1087   -1.5251    0.0000 O   0  0  0  0  0  0  0  0  0  0  0  0
  1  2  1  0
  3  2  1  6
  3  4  1  0
  4  5  1  0
  5  6  1  0
  5  7  1  0
  3  8  1  0
  8  9  2  0
  8 10  1  0
M  END
>  <rName>  (3900) 
bAla_2RiBu

>  <PQ_SYMBOL>  (3900) 
bAla_2RiBu

>  <FULL_NAME>  (3900) 
(2R)-2-(aminomethyl)-4-methylpentanoic acid

>  <IUPAC_CONDENSED>  (3900) 
bAla(2R-iBu)

>  <IUPAC>  (3900) 
(2R)-2-(aminomethyl)-4-methylpentanoic acid

>  <TYPE>  (3900) 
Backbone

>  <CLASS>  (3900) 
beta

>  <ANALOG>  (3900) 
Leu

>  <MOL_WT>  (3900) 
145.202

>  <LOGP>  (3900) 
0.6920000000000002

>  <TPSA>  (3900) 
63.32000000000001

>  <POPULARITY>  (3900) 
17.5

>  <PROTECTED>  (3900) 
TRUE

>  <SMILES>  (3900) 
NC[C@@H](CC(C)C)C(=O)O

>  <INCHIKEY>  (3900) 
IAXQYBCPMFDMOJ-ZCFIWIBFSA-N

$$$$
bAla_2RiPr
     RDKit          2D

  9  8  0  0  0  0  0  0  0  0999 V2000
    2.2500   -1.5877    0.0000 N   0  0  0  0  0  0  0  0  0  0  0  0
    0.7500   -1.5877    0.0000 C   0  0  0  0  0  0  0  0  0  0  0  0
   -0.0000   -0.2887    0.0000 C   0  0  0  0  0  0  0  0  0  0  0  0
   -1.5000   -0.2887    0.0000 C   0  0  0  0  0  0  0  0  0  0  0  0
   -2.2500    1.0104    0.0000 C   0  0  0  0  0  0  0  0  0  0  0  0
   -2.2500   -1.5877    0.0000 C   0  0  0  0  0  0  0  0  0  0  0  0
    0.7500    1.0104    0.0000 C   0  0  0  0  0  0  0  0  0  0  0  0
    0.0000    2.3094    0.0000 O   0  0  0  0  0  0  0  0  0  0  0  0
    2.2500    1.0104    0.0000 O   0  0  0  0  0  0  0  0  0  0  0  0
  1  2  1  0
  3  2  1  1
  3  4  1  0
  4  5  1  0
  4  6  1  0
  3  7  1  0
  7  8  2  0
  7  9  1  0
M  END
>  <rName>  (3901) 
bAla_2RiPr

>  <PQ_SYMBOL>  (3901) 
bAla_2RiPr

>  <FULL_NAME>  (3901) 
L-Beta2-Leucine, L-Beta2-Homo-Valine

>  <IUPAC_CONDENSED>  (3901) 
bAla(2R-iPr)

>  <IUPAC>  (3901) 
(2R)-2-(aminomethyl)-3-methylbutanoic acid

>  <TYPE>  (3901) 
Backbone

>  <CLASS>  (3901) 
beta

>  <ANALOG>  (3901) 
Val

>  <MOL_WT>  (3901) 
131.175

>  <LOGP>  (3901) 
0.3019000000000002

>  <TPSA>  (3901) 
63.32000000000001

>  <POPULARITY>  (3901) 
14.1

>  <PROTECTED>  (3901) 
TRUE

>  <SMILES>  (3901) 
NC[C@@H](C(C)C)C(=O)O

>  <INCHIKEY>  (3901) 
UUQYMNPVPQLPID-YFKPBYRVSA-N

$$$$
bAla_2Rnaphth1ylmethyl
     RDKit          2D

 17 18  0  0  0  0  0  0  0  0999 V2000
   -4.8953    1.5000    0.0000 N   0  0  0  0  0  0  0  0  0  0  0  0
   -3.4365    1.8491    0.0000 C   0  0  0  0  0  0  0  0  0  0  0  0
   -2.4047    0.7603    0.0000 C   0  0  0  0  0  0  0  0  0  0  0  0
   -0.9459    1.1094    0.0000 C   0  0  0  0  0  0  0  0  0  0  0  0
    0.0858    0.0205    0.0000 C   0  0  0  0  0  0  0  0  0  0  0  0
   -0.3413   -1.4174    0.0000 C   0  0  0  0  0  0  0  0  0  0  0  0
    0.6905   -2.5062    0.0000 C   0  0  0  0  0  0  0  0  0  0  0  0
    2.1493   -2.1571    0.0000 C   0  0  0  0  0  0  0  0  0  0  0  0
    2.5764   -0.7192    0.0000 C   0  0  0  0  0  0  0  0  0  0  0  0
    4.0352   -0.3701    0.0000 C   0  0  0  0  0  0  0  0  0  0  0  0
    4.4623    1.0678    0.0000 C   0  0  0  0  0  0  0  0  0  0  0  0
    3.4305    2.1566    0.0000 C   0  0  0  0  0  0  0  0  0  0  0  0
    1.9717    1.8075    0.0000 C   0  0  0  0  0  0  0  0  0  0  0  0
    1.5446    0.3696    0.0000 C   0  0  0  0  0  0  0  0  0  0  0  0
   -2.8318   -0.6777    0.0000 C   0  0  0  0  0  0  0  0  0  0  0  0
   -1.8001   -1.7665    0.0000 O   0  0  0  0  0  0  0  0  0  0  0  0
   -4.2906   -1.0267    0.0000 O   0  0  0  0  0  0  0  0  0  0  0  0
  1  2  1  0
  3  2  1  1
  3  4  1  0
  4  5  1  0
  5  6  2  0
  6  7  1  0
  7  8  2  0
  8  9  1  0
  9 10  2  0
 10 11  1  0
 11 12  2  0
 12 13  1  0
 13 14  2  0
  3 15  1  0
 15 16  2  0
 15 17  1  0
 14  5  1  0
 14  9  1  0
M  END
>  <rName>  (3902) 
bAla_2Rnaphth1ylmethyl

>  <PQ_SYMBOL>  (3902) 
bAla_2Rnaphth1ylmethyl

>  <FULL_NAME>  (3902) 
(R)-3-Amino-2-(naphthalen-1-ylmethyl)propanoic acid

>  <IUPAC_CONDENSED>  (3902) 
bAla(2R-naphth-1-ylmethyl)

>  <IUPAC>  (3902) 
(2R)-2-(aminomethyl)-3-naphthalen-1-ylpropanoic acid

>  <TYPE>  (3902) 
Backbone

>  <CLASS>  (3902) 
beta

>  <ANALOG>  (3902) 
Phe

>  <MOL_WT>  (3902) 
229.279

>  <LOGP>  (3902) 
2.0418

>  <TPSA>  (3902) 
63.32000000000001

>  <POPULARITY>  (3902) 
2.2

>  <PROTECTED>  (3902) 
TRUE

>  <SMILES>  (3902) 
NC[C@@H](Cc1(cccc2(ccccc12)))C(=O)O

>  <INCHIKEY>  (3902) 
KJCNFUSUQWTOIN-GFCCVEGCSA-N

$$$$
bAla_2SBn
     RDKit          2D

 13 13  0  0  0  0  0  0  0  0999 V2000
   -4.2270   -0.4748    0.0000 N   0  0  0  0  0  0  0  0  0  0  0  0
   -2.9684   -1.2908    0.0000 C   0  0  0  0  0  0  0  0  0  0  0  0
   -1.6324   -0.6089    0.0000 C   0  0  0  0  0  0  0  0  0  0  0  0
   -0.3738   -1.4249    0.0000 C   0  0  0  0  0  0  0  0  0  0  0  0
    0.9622   -0.7430    0.0000 C   0  0  0  0  0  0  0  0  0  0  0  0
    1.0396    0.7550    0.0000 C   0  0  0  0  0  0  0  0  0  0  0  0
    2.3756    1.4370    0.0000 C   0  0  0  0  0  0  0  0  0  0  0  0
    3.6342    0.6210    0.0000 C   0  0  0  0  0  0  0  0  0  0  0  0
    3.5568   -0.8770    0.0000 C   0  0  0  0  0  0  0  0  0  0  0  0
    2.2208   -1.5590    0.0000 C   0  0  0  0  0  0  0  0  0  0  0  0
   -1.5550    0.8891    0.0000 C   0  0  0  0  0  0  0  0  0  0  0  0
   -0.2190    1.5711    0.0000 O   0  0  0  0  0  0  0  0  0  0  0  0
   -2.8136    1.7052    0.0000 O   0  0  0  0  0  0  0  0  0  0  0  0
  1  2  1  0
  3  2  1  1
  3  4  1  0
  4  5  1  0
  5  6  2  0
  6  7  1  0
  7  8  2  0
  8  9  1  0
  9 10  2  0
  3 11  1  0
 11 12  2  0
 11 13  1  0
 10  5  1  0
M  END
>  <rName>  (3903) 
bAla_2SBn

>  <PQ_SYMBOL>  (3903) 
bAla_2SBn

>  <FULL_NAME>  (3903) 
(S)-3-amino-2-benzylpropanoic acid

>  <IUPAC_CONDENSED>  (3903) 
bAla(2S-Bn)

>  <IUPAC>  (3903) 
(2S)-3-amino-2-benzylpropanoic acid

>  <TYPE>  (3903) 
Backbone

>  <CLASS>  (3903) 
beta

>  <ANALOG>  (3903) 
Phe

>  <MOL_WT>  (3903) 
179.21899999999997

>  <LOGP>  (3903) 
0.8885999999999998

>  <TPSA>  (3903) 
63.32000000000001

>  <POPULARITY>  (3903) 
13.9

>  <PROTECTED>  (3903) 
TRUE

>  <SMILES>  (3903) 
NC[C@H](Cc1(ccccc1))C(=O)O

>  <INCHIKEY>  (3903) 
DJYVEBBGKNAHKE-VIFPVBQESA-N

$$$$
bAla_2SBr
     RDKit          2D

  7  6  0  0  0  0  0  0  0  0999 V2000
    2.7865    0.2956    0.0000 N   0  0  0  0  0  0  0  0  0  0  0  0
    1.3548    0.7431    0.0000 C   0  0  0  0  0  0  0  0  0  0  0  0
    0.2514   -0.2730    0.0000 C   0  0  0  0  0  0  0  0  0  0  0  0
    0.5797   -1.7367    0.0000 Br  0  0  0  0  0  0  0  0  0  0  0  0
   -1.1803    0.1745    0.0000 C   0  0  0  0  0  0  0  0  0  0  0  0
   -1.5086    1.6381    0.0000 O   0  0  0  0  0  0  0  0  0  0  0  0
   -2.2837   -0.8417    0.0000 O   0  0  0  0  0  0  0  0  0  0  0  0
  1  2  1  0
  2  3  1  0
  3  4  1  6
  3  5  1  0
  5  6  2  0
  5  7  1  0
M  END
>  <rName>  (3904) 
bAla_2SBr

>  <PQ_SYMBOL>  (3904) 
bAla_2SBr

>  <FULL_NAME>  (3904) 
bAla(2S-Br)

>  <IUPAC_CONDENSED>  (3904) 
bAla(2S-Br)

>  <IUPAC>  (3904) 
(2S)-3-amino-2-bromopropanoic acid

>  <TYPE>  (3904) 
Backbone

>  <CLASS>  (3904) 
beta

>  <ANALOG>  (3904) 
X

>  <MOL_WT>  (3904) 
167.98999999999998

>  <LOGP>  (3904) 
-0.20680000000000015

>  <TPSA>  (3904) 
63.32000000000001

>  <POPULARITY>  (3904) 
2.2

>  <PROTECTED>  (3904) 
TRUE

>  <SMILES>  (3904) 
NC[C@H](Br)C(=O)O

>  <INCHIKEY>  (3904) 
YTXXOZBXVGZYOR-REOHCLBHSA-N

$$$$
bAla_2SCH2OH
     RDKit          2D

  8  7  0  0  0  0  0  0  0  0999 V2000
   -2.5981   -0.5625    0.0000 N   0  0  0  0  0  0  0  0  0  0  0  0
   -1.2990   -1.3125    0.0000 C   0  0  0  0  0  0  0  0  0  0  0  0
    0.0000   -0.5625    0.0000 C   0  0  0  0  0  0  0  0  0  0  0  0
    1.2990   -1.3125    0.0000 C   0  0  0  0  0  0  0  0  0  0  0  0
    2.5981   -0.5625    0.0000 O   0  0  0  0  0  0  0  0  0  0  0  0
    0.0000    0.9375    0.0000 C   0  0  0  0  0  0  0  0  0  0  0  0
   -1.2990    1.6875    0.0000 O   0  0  0  0  0  0  0  0  0  0  0  0
    1.2990    1.6875    0.0000 O   0  0  0  0  0  0  0  0  0  0  0  0
  1  2  1  0
  3  2  1  6
  3  4  1  0
  4  5  1  0
  3  6  1  0
  6  7  2  0
  6  8  1  0
M  END
>  <rName>  (3905) 
bAla_2SCH2OH

>  <PQ_SYMBOL>  (3905) 
bAla_2SCH2OH

>  <FULL_NAME>  (3905) 
L-Beta2-Homo-serine

>  <IUPAC_CONDENSED>  (3905) 
bAla(2S-CH2OH)

>  <IUPAC>  (3905) 
(2S)-3-amino-2-(hydroxymethyl)propanoic acid

>  <TYPE>  (3905) 
Backbone

>  <CLASS>  (3905) 
beta

>  <ANALOG>  (3905) 
Ser

>  <MOL_WT>  (3905) 
119.11999999999998

>  <LOGP>  (3905) 
-1.3618

>  <TPSA>  (3905) 
83.55

>  <POPULARITY>  (3905) 
17.6

>  <PROTECTED>  (3905) 
TRUE

>  <SMILES>  (3905) 
NC[C@@H](CO)C(=O)O

>  <INCHIKEY>  (3905) 
UHLNJPIGFDWGTP-VKHMYHEASA-N

$$$$
bAla_2SEt
     RDKit          2D

  8  7  0  0  0  0  0  0  0  0999 V2000
    2.5981    0.5625    0.0000 N   0  0  0  0  0  0  0  0  0  0  0  0
    1.2990    1.3125    0.0000 C   0  0  0  0  0  0  0  0  0  0  0  0
    0.0000    0.5625    0.0000 C   0  0  0  0  0  0  0  0  0  0  0  0
   -1.2990    1.3125    0.0000 C   0  0  0  0  0  0  0  0  0  0  0  0
   -2.5981    0.5625    0.0000 C   0  0  0  0  0  0  0  0  0  0  0  0
    0.0000   -0.9375    0.0000 C   0  0  0  0  0  0  0  0  0  0  0  0
   -1.2990   -1.6875    0.0000 O   0  0  0  0  0  0  0  0  0  0  0  0
    1.2990   -1.6875    0.0000 O   0  0  0  0  0  0  0  0  0  0  0  0
  1  2  1  0
  3  2  1  1
  3  4  1  0
  4  5  1  0
  3  6  1  0
  6  7  2  0
  6  8  1  0
M  END
>  <rName>  (3906) 
bAla_2SEt

>  <PQ_SYMBOL>  (3906) 
bAla_2SEt

>  <FULL_NAME>  (3906) 
Butanoic acid, 2-(aminomethyl)-, (2S)-

>  <IUPAC_CONDENSED>  (3906) 
bAla(2S-Et)

>  <IUPAC>  (3906) 
(2S)-2-(aminomethyl)butanoic acid

>  <TYPE>  (3906) 
Backbone

>  <CLASS>  (3906) 
beta

>  <ANALOG>  (3906) 
Ala

>  <MOL_WT>  (3906) 
117.14799999999998

>  <LOGP>  (3906) 
0.05590000000000023

>  <TPSA>  (3906) 
63.32000000000001

>  <POPULARITY>  (3906) 
16.2

>  <PROTECTED>  (3906) 
TRUE

>  <SMILES>  (3906) 
NC[C@H](CC)C(=O)O

>  <INCHIKEY>  (3906) 
HBICVCPHTYGKKD-BYPYZUCNSA-N

$$$$
bAla_2SF
     RDKit          2D

  7  6  0  0  0  0  0  0  0  0999 V2000
    2.7865    0.2956    0.0000 N   0  0  0  0  0  0  0  0  0  0  0  0
    1.3548    0.7431    0.0000 C   0  0  0  0  0  0  0  0  0  0  0  0
    0.2514   -0.2730    0.0000 C   0  0  0  0  0  0  0  0  0  0  0  0
    0.5797   -1.7367    0.0000 F   0  0  0  0  0  0  0  0  0  0  0  0
   -1.1803    0.1745    0.0000 C   0  0  0  0  0  0  0  0  0  0  0  0
   -1.5086    1.6381    0.0000 O   0  0  0  0  0  0  0  0  0  0  0  0
   -2.2837   -0.8417    0.0000 O   0  0  0  0  0  0  0  0  0  0  0  0
  1  2  1  0
  2  3  1  0
  3  4  1  6
  3  5  1  0
  5  6  2  0
  5  7  1  0
M  END
>  <rName>  (3907) 
bAla_2SF

>  <PQ_SYMBOL>  (3907) 
bAla_2SF

>  <FULL_NAME>  (3907) 
(2S)-3-azaniumyl-2-fluoropropanoate

>  <IUPAC_CONDENSED>  (3907) 
bAla(2S-F)

>  <IUPAC>  (3907) 
(2S)-3-azaniumyl-2-fluoropropanoate

>  <TYPE>  (3907) 
Backbone

>  <CLASS>  (3907) 
beta

>  <ANALOG>  (3907) 
X

>  <MOL_WT>  (3907) 
107.08399999999997

>  <LOGP>  (3907) 
-0.6322000000000003

>  <TPSA>  (3907) 
63.32000000000001

>  <POPULARITY>  (3907) 
2.2

>  <PROTECTED>  (3907) 
TRUE

>  <SMILES>  (3907) 
NC[C@H](F)C(=O)O

>  <INCHIKEY>  (3907) 
OJQNRNQELNLWHH-REOHCLBHSA-N

$$$$
bAla_2SMe_3SMe
     RDKit          2D

  8  7  0  0  0  0  0  0  0  0999 V2000
    2.5981   -0.5625    0.0000 N   0  0  0  0  0  0  0  0  0  0  0  0
    1.2990    0.1875    0.0000 C   0  0  0  0  0  0  0  0  0  0  0  0
    1.2990    1.6875    0.0000 C   0  0  0  0  0  0  0  0  0  0  0  0
    0.0000   -0.5625    0.0000 C   0  0  0  0  0  0  0  0  0  0  0  0
    0.0000   -2.0625    0.0000 C   0  0  0  0  0  0  0  0  0  0  0  0
   -1.2990    0.1875    0.0000 C   0  0  0  0  0  0  0  0  0  0  0  0
   -1.2990    1.6875    0.0000 O   0  0  0  0  0  0  0  0  0  0  0  0
   -2.5981   -0.5625    0.0000 O   0  0  0  0  0  0  0  0  0  0  0  0
  1  2  1  0
  2  3  1  6
  2  4  1  0
  4  5  1  6
  4  6  1  0
  6  7  2  0
  6  8  1  0
M  END
>  <rName>  (3908) 
bAla_2SMe_3SMe

>  <PQ_SYMBOL>  (3908) 
bAla_2SMe_3SMe

>  <FULL_NAME>  (3908) 
(2S,3S)-3-amino-2-methylbutanoic acid

>  <IUPAC_CONDENSED>  (3908) 
bAla(2S-Me,3S-Me)

>  <IUPAC>  (3908) 
(2S,3S)-3-amino-2-methylbutanoic acid

>  <TYPE>  (3908) 
Backbone

>  <CLASS>  (3908) 
beta

>  <ANALOG>  (3908) 
Ala

>  <MOL_WT>  (3908) 
117.14799999999998

>  <LOGP>  (3908) 
0.05429999999999996

>  <TPSA>  (3908) 
63.32000000000001

>  <POPULARITY>  (3908) 
2.2

>  <PROTECTED>  (3908) 
TRUE

>  <SMILES>  (3908) 
N[C@@H](C)[C@H](C)C(=O)O

>  <INCHIKEY>  (3908) 
RRWPLOJQTOADRZ-IMJSIDKUSA-N

$$$$
bAla_2SMe_b_bdiMe
     RDKit          2D

  9  8  0  0  0  0  0  0  0  0999 V2000
    2.4717    0.8671    0.0000 N   0  0  0  0  0  0  0  0  0  0  0  0
    1.1578    0.1434    0.0000 C   0  0  0  0  0  0  0  0  0  0  0  0
    0.4341    1.4573    0.0000 C   0  0  0  0  0  0  0  0  0  0  0  0
    1.8815   -1.1705    0.0000 C   0  0  0  0  0  0  0  0  0  0  0  0
   -0.1560   -0.5803    0.0000 C   0  0  0  0  0  0  0  0  0  0  0  0
   -0.1862   -2.0800    0.0000 C   0  0  0  0  0  0  0  0  0  0  0  0
   -1.4397    0.1957    0.0000 C   0  0  0  0  0  0  0  0  0  0  0  0
   -1.4095    1.6954    0.0000 O   0  0  0  0  0  0  0  0  0  0  0  0
   -2.7536   -0.5280    0.0000 O   0  0  0  0  0  0  0  0  0  0  0  0
  1  2  1  0
  2  3  1  0
  2  4  1  0
  2  5  1  0
  5  6  1  6
  5  7  1  0
  7  8  2  0
  7  9  1  0
M  END
>  <rName>  (3909) 
bAla_2SMe_b_bdiMe

>  <PQ_SYMBOL>  (3909) 
bAla_2SMe_b_bdiMe

>  <FULL_NAME>  (3909) 
(2S)-3-amino-2,3-dimethylbutanoic acid

>  <IUPAC_CONDENSED>  (3909) 
bAla(2S-Me,b,b-diMe)

>  <IUPAC>  (3909) 
(2S)-3-amino-2,3-dimethylbutanoic acid

>  <TYPE>  (3909) 
Backbone

>  <CLASS>  (3909) 
beta

>  <ANALOG>  (3909) 
Ala

>  <MOL_WT>  (3909) 
131.17499999999998

>  <LOGP>  (3909) 
0.44439999999999985

>  <TPSA>  (3909) 
63.32000000000001

>  <POPULARITY>  (3909) 
2.2

>  <PROTECTED>  (3909) 
TRUE

>  <SMILES>  (3909) 
NC(C)(C)[C@H](C)C(=O)O

>  <INCHIKEY>  (3909) 
BUZPGYIRUFXLFV-SCSAIBSYSA-N

$$$$
bAla_2SOH
     RDKit          2D

  7  6  0  0  0  0  0  0  0  0999 V2000
    2.7865    0.2956    0.0000 N   0  0  0  0  0  0  0  0  0  0  0  0
    1.3548    0.7431    0.0000 C   0  0  0  0  0  0  0  0  0  0  0  0
    0.2514   -0.2730    0.0000 C   0  0  0  0  0  0  0  0  0  0  0  0
    0.5797   -1.7367    0.0000 O   0  0  0  0  0  0  0  0  0  0  0  0
   -1.1803    0.1745    0.0000 C   0  0  0  0  0  0  0  0  0  0  0  0
   -1.5086    1.6381    0.0000 O   0  0  0  0  0  0  0  0  0  0  0  0
   -2.2837   -0.8417    0.0000 O   0  0  0  0  0  0  0  0  0  0  0  0
  1  2  1  0
  2  3  1  0
  3  4  1  6
  3  5  1  0
  5  6  2  0
  5  7  1  0
M  END
>  <rName>  (3910) 
bAla_2SOH

>  <PQ_SYMBOL>  (3910) 
bAla_2SOH

>  <FULL_NAME>  (3910) 
(S)-3-amino-2-hydroxypropanoic acid

>  <IUPAC_CONDENSED>  (3910) 
bAla(2S-OH)

>  <IUPAC>  (3910) 
(2S)-3-amino-2-hydroxypropanoic acid

>  <TYPE>  (3910) 
Backbone

>  <CLASS>  (3910) 
beta

>  <ANALOG>  (3910) 
X

>  <MOL_WT>  (3910) 
105.09299999999999

>  <LOGP>  (3910) 
-1.6093999999999997

>  <TPSA>  (3910) 
83.55

>  <POPULARITY>  (3910) 
12.9

>  <PROTECTED>  (3910) 
TRUE

>  <SMILES>  (3910) 
NC[C@H](O)C(=O)O

>  <INCHIKEY>  (3910) 
BMYNFMYTOJXKLE-REOHCLBHSA-N

$$$$
bAla_2SOH_3SBn
     RDKit          2D

 14 14  0  0  0  0  0  0  0  0999 V2000
   -0.7070    1.4192    0.0000 N   0  0  0  0  0  0  0  0  0  0  0  0
   -0.9504   -0.0609    0.0000 C   0  0  0  0  0  0  0  0  0  0  0  0
    0.2098   -1.0117    0.0000 C   0  0  0  0  0  0  0  0  0  0  0  0
    1.6133   -0.4824    0.0000 C   0  0  0  0  0  0  0  0  0  0  0  0
    1.8567    0.9977    0.0000 C   0  0  0  0  0  0  0  0  0  0  0  0
    3.2602    1.5270    0.0000 C   0  0  0  0  0  0  0  0  0  0  0  0
    4.4203    0.5762    0.0000 C   0  0  0  0  0  0  0  0  0  0  0  0
    4.1770   -0.9039    0.0000 C   0  0  0  0  0  0  0  0  0  0  0  0
    2.7735   -1.4332    0.0000 C   0  0  0  0  0  0  0  0  0  0  0  0
   -2.3539   -0.5902    0.0000 C   0  0  0  0  0  0  0  0  0  0  0  0
   -2.5972   -2.0704    0.0000 O   0  0  0  0  0  0  0  0  0  0  0  0
   -3.5140    0.3606    0.0000 C   0  0  0  0  0  0  0  0  0  0  0  0
   -3.2707    1.8407    0.0000 O   0  0  0  0  0  0  0  0  0  0  0  0
   -4.9175   -0.1687    0.0000 O   0  0  0  0  0  0  0  0  0  0  0  0
  2  1  1  1
  2  3  1  0
  3  4  1  0
  4  5  2  0
  5  6  1  0
  6  7  2  0
  7  8  1  0
  8  9  2  0
  2 10  1  0
 10 11  1  6
 10 12  1  0
 12 13  2  0
 12 14  1  0
  9  4  1  0
M  END
>  <rName>  (3911) 
bAla_2SOH_3SBn

>  <PQ_SYMBOL>  (3911) 
bAla_2SOH_3SBn

>  <FULL_NAME>  (3911) 
(2S,3S)-3-amino-2-hydroxy-4-phenylbutanoic acid

>  <IUPAC_CONDENSED>  (3911) 
bAla(2S-OH,3S-Bn)

>  <IUPAC>  (3911) 
(2S,3S)-3-amino-2-hydroxy-4-phenylbutanoic acid

>  <TYPE>  (3911) 
Backbone

>  <CLASS>  (3911) 
beta

>  <ANALOG>  (3911) 
Phe

>  <MOL_WT>  (3911) 
195.21799999999996

>  <LOGP>  (3911) 
0.0019000000000002348

>  <TPSA>  (3911) 
83.55

>  <POPULARITY>  (3911) 
9.6

>  <PROTECTED>  (3911) 
TRUE

>  <SMILES>  (3911) 
N[C@@H](Cc1(ccccc1))[C@H](O)C(=O)O

>  <INCHIKEY>  (3911) 
LDSJMFGYNFIFRK-IUCAKERBSA-N

$$$$
bAla_2SOH_3SPh
     RDKit          2D

 13 13  0  0  0  0  0  0  0  0999 V2000
   -0.9220   -2.0742    0.0000 N   0  0  0  0  0  0  0  0  0  0  0  0
   -0.4991   -0.6350    0.0000 C   0  0  0  0  0  0  0  0  0  0  0  0
    0.9587   -0.2818    0.0000 C   0  0  0  0  0  0  0  0  0  0  0  0
    1.3817    1.1574    0.0000 C   0  0  0  0  0  0  0  0  0  0  0  0
    2.8395    1.5107    0.0000 C   0  0  0  0  0  0  0  0  0  0  0  0
    3.8743    0.4248    0.0000 C   0  0  0  0  0  0  0  0  0  0  0  0
    3.4514   -1.0143    0.0000 C   0  0  0  0  0  0  0  0  0  0  0  0
    1.9936   -1.3676    0.0000 C   0  0  0  0  0  0  0  0  0  0  0  0
   -1.5339    0.4508    0.0000 C   0  0  0  0  0  0  0  0  0  0  0  0
   -1.1110    1.8899    0.0000 O   0  0  0  0  0  0  0  0  0  0  0  0
   -2.9917    0.0975    0.0000 C   0  0  0  0  0  0  0  0  0  0  0  0
   -3.4147   -1.3416    0.0000 O   0  0  0  0  0  0  0  0  0  0  0  0
   -4.0266    1.1834    0.0000 O   0  0  0  0  0  0  0  0  0  0  0  0
  2  1  1  6
  2  3  1  0
  3  4  2  0
  4  5  1  0
  5  6  2  0
  6  7  1  0
  7  8  2  0
  2  9  1  0
  9 10  1  1
  9 11  1  0
 11 12  2  0
 11 13  1  0
  8  3  1  0
M  END
>  <rName>  (3912) 
bAla_2SOH_3SPh

>  <PQ_SYMBOL>  (3912) 
bAla_2SOH_3SPh

>  <FULL_NAME>  (3912) 
(2S,3S)-3-amino-2-hydroxy-3-phenylpropanoic acid

>  <IUPAC_CONDENSED>  (3912) 
bAla(2S-OH,3S-Ph)

>  <IUPAC>  (3912) 
(2S,3S)-3-amino-2-hydroxy-3-phenylpropanoic acid

>  <TYPE>  (3912) 
Backbone

>  <CLASS>  (3912) 
beta

>  <ANALOG>  (3912) 
X

>  <MOL_WT>  (3912) 
181.19099999999997

>  <LOGP>  (3912) 
0.13190000000000013

>  <TPSA>  (3912) 
83.55

>  <POPULARITY>  (3912) 
8.9

>  <PROTECTED>  (3912) 
TRUE

>  <SMILES>  (3912) 
N[C@@H](c1(ccccc1))[C@H](O)C(=O)O

>  <INCHIKEY>  (3912) 
RZARFIRJROUVLM-YUMQZZPRSA-N

$$$$
bAla_2SOH_3SPh_23diOMe
     RDKit          2D

 17 17  0  0  0  0  0  0  0  0999 V2000
   -1.0916   -1.7513    0.0000 N   0  0  0  0  0  0  0  0  0  0  0  0
   -1.0730   -0.2514    0.0000 C   0  0  0  0  0  0  0  0  0  0  0  0
    0.2353    0.4824    0.0000 C   0  0  0  0  0  0  0  0  0  0  0  0
    0.2539    1.9823    0.0000 C   0  0  0  0  0  0  0  0  0  0  0  0
    1.5622    2.7161    0.0000 C   0  0  0  0  0  0  0  0  0  0  0  0
    2.8518    1.9500    0.0000 C   0  0  0  0  0  0  0  0  0  0  0  0
    2.8331    0.4501    0.0000 C   0  0  0  0  0  0  0  0  0  0  0  0
    4.1227   -0.3160    0.0000 O   0  0  0  0  0  0  0  0  0  0  0  0
    4.1041   -1.8159    0.0000 C   0  0  0  0  0  0  0  0  0  0  0  0
    1.5249   -0.2837    0.0000 C   0  0  0  0  0  0  0  0  0  0  0  0
    1.5062   -1.7836    0.0000 O   0  0  0  0  0  0  0  0  0  0  0  0
    0.1980   -2.5174    0.0000 C   0  0  0  0  0  0  0  0  0  0  0  0
   -2.3626    0.5147    0.0000 C   0  0  0  0  0  0  0  0  0  0  0  0
   -2.3440    2.0146    0.0000 O   0  0  0  0  0  0  0  0  0  0  0  0
   -3.6709   -0.2191    0.0000 C   0  0  0  0  0  0  0  0  0  0  0  0
   -3.6895   -1.7190    0.0000 O   0  0  0  0  0  0  0  0  0  0  0  0
   -4.9605    0.5470    0.0000 O   0  0  0  0  0  0  0  0  0  0  0  0
  2  1  1  6
  2  3  1  0
  3  4  2  0
  4  5  1  0
  5  6  2  0
  6  7  1  0
  7  8  1  0
  8  9  1  0
  7 10  2  0
 10 11  1  0
 11 12  1  0
  2 13  1  0
 13 14  1  1
 13 15  1  0
 15 16  2  0
 15 17  1  0
 10  3  1  0
M  END
>  <rName>  (3913) 
bAla_2SOH_3SPh_23diOMe

>  <PQ_SYMBOL>  (3913) 
bAla_2SOH_3SPh_23diOMe

>  <FULL_NAME>  (3913) 
(2S,3S)-3-amino-3-(2,3-dimethoxyphenyl)-2-hydroxypropanoic acid

>  <IUPAC_CONDENSED>  (3913) 
bAla(2S-OH,3S-Ph(2,3-diOMe))

>  <IUPAC>  (3913) 
(2S,3S)-3-amino-3-(2,3-dimethoxyphenyl)-2-hydroxypropanoic acid

>  <TYPE>  (3913) 
Backbone

>  <CLASS>  (3913) 
beta

>  <ANALOG>  (3913) 
X

>  <MOL_WT>  (3913) 
241.24299999999997

>  <LOGP>  (3913) 
0.1491

>  <TPSA>  (3913) 
102.01

>  <POPULARITY>  (3913) 
2.8

>  <PROTECTED>  (3913) 
TRUE

>  <SMILES>  (3913) 
N[C@@H](c1(cccc(OC)c1OC))[C@H](O)C(=O)O

>  <INCHIKEY>  (3913) 
WIZUAKGGDWVKLC-IUCAKERBSA-N

$$$$
bAla_2SOH_3SPh_2Me
     RDKit          2D

 14 14  0  0  0  0  0  0  0  0999 V2000
   -0.9045   -1.9397    0.0000 N   0  0  0  0  0  0  0  0  0  0  0  0
   -0.5803   -0.4751    0.0000 C   0  0  0  0  0  0  0  0  0  0  0  0
    0.8501   -0.0235    0.0000 C   0  0  0  0  0  0  0  0  0  0  0  0
    1.1742    1.4410    0.0000 C   0  0  0  0  0  0  0  0  0  0  0  0
    2.6046    1.8926    0.0000 C   0  0  0  0  0  0  0  0  0  0  0  0
    3.7109    0.8796    0.0000 C   0  0  0  0  0  0  0  0  0  0  0  0
    3.3868   -0.5850    0.0000 C   0  0  0  0  0  0  0  0  0  0  0  0
    1.9564   -1.0365    0.0000 C   0  0  0  0  0  0  0  0  0  0  0  0
    1.6322   -2.5011    0.0000 C   0  0  0  0  0  0  0  0  0  0  0  0
   -1.6866    0.5379    0.0000 C   0  0  0  0  0  0  0  0  0  0  0  0
   -1.3625    2.0024    0.0000 O   0  0  0  0  0  0  0  0  0  0  0  0
   -3.1170    0.0863    0.0000 C   0  0  0  0  0  0  0  0  0  0  0  0
   -3.4411   -1.3782    0.0000 O   0  0  0  0  0  0  0  0  0  0  0  0
   -4.2233    1.0993    0.0000 O   0  0  0  0  0  0  0  0  0  0  0  0
  2  1  1  6
  2  3  1  0
  3  4  2  0
  4  5  1  0
  5  6  2  0
  6  7  1  0
  7  8  2  0
  8  9  1  0
  2 10  1  0
 10 11  1  1
 10 12  1  0
 12 13  2  0
 12 14  1  0
  8  3  1  0
M  END
>  <rName>  (3914) 
bAla_2SOH_3SPh_2Me

>  <PQ_SYMBOL>  (3914) 
bAla_2SOH_3SPh_2Me

>  <FULL_NAME>  (3914) 
(2S,3S)-3-amino-2-hydroxy-3-(o-tolyl)propanoic acid

>  <IUPAC_CONDENSED>  (3914) 
bAla(2S-OH,3S-Ph(2-Me))

>  <IUPAC>  (3914) 
(2S,3S)-3-amino-2-hydroxy-3-(2-methylphenyl)propanoic acid

>  <TYPE>  (3914) 
Backbone

>  <CLASS>  (3914) 
beta

>  <ANALOG>  (3914) 
X

>  <MOL_WT>  (3914) 
195.218

>  <LOGP>  (3914) 
0.44032000000000004

>  <TPSA>  (3914) 
83.55

>  <POPULARITY>  (3914) 
4.2

>  <PROTECTED>  (3914) 
TRUE

>  <SMILES>  (3914) 
N[C@@H](c1(ccccc1C))[C@H](O)C(=O)O

>  <INCHIKEY>  (3914) 
VFZRMUSJGAGTPL-IUCAKERBSA-N

$$$$
bAla_2SOH_3SPh_2OMe
     RDKit          2D

 15 15  0  0  0  0  0  0  0  0999 V2000
   -0.8095   -1.8533    0.0000 N   0  0  0  0  0  0  0  0  0  0  0  0
   -0.7163   -0.3562    0.0000 C   0  0  0  0  0  0  0  0  0  0  0  0
    0.6268    0.3117    0.0000 C   0  0  0  0  0  0  0  0  0  0  0  0
    0.7200    1.8088    0.0000 C   0  0  0  0  0  0  0  0  0  0  0  0
    2.0631    2.4766    0.0000 C   0  0  0  0  0  0  0  0  0  0  0  0
    3.3131    1.6473    0.0000 C   0  0  0  0  0  0  0  0  0  0  0  0
    3.2198    0.1502    0.0000 C   0  0  0  0  0  0  0  0  0  0  0  0
    1.8767   -0.5176    0.0000 C   0  0  0  0  0  0  0  0  0  0  0  0
    1.7835   -2.0147    0.0000 O   0  0  0  0  0  0  0  0  0  0  0  0
    3.0334   -2.8440    0.0000 C   0  0  0  0  0  0  0  0  0  0  0  0
   -1.9663    0.4731    0.0000 C   0  0  0  0  0  0  0  0  0  0  0  0
   -1.8731    1.9702    0.0000 O   0  0  0  0  0  0  0  0  0  0  0  0
   -3.3094   -0.1947    0.0000 C   0  0  0  0  0  0  0  0  0  0  0  0
   -3.4026   -1.6919    0.0000 O   0  0  0  0  0  0  0  0  0  0  0  0
   -4.5593    0.6345    0.0000 O   0  0  0  0  0  0  0  0  0  0  0  0
  2  1  1  6
  2  3  1  0
  3  4  2  0
  4  5  1  0
  5  6  2  0
  6  7  1  0
  7  8  2  0
  8  9  1  0
  9 10  1  0
  2 11  1  0
 11 12  1  1
 11 13  1  0
 13 14  2  0
 13 15  1  0
  8  3  1  0
M  END
>  <rName>  (3915) 
bAla_2SOH_3SPh_2OMe

>  <PQ_SYMBOL>  (3915) 
bAla_2SOH_3SPh_2OMe

>  <FULL_NAME>  (3915) 
(2S,3S)-3-amino-2-hydroxy-3-(2-methoxyphenyl)propanoic acid

>  <IUPAC_CONDENSED>  (3915) 
bAla(2S-OH,3S-Ph(2-OMe))

>  <IUPAC>  (3915) 
(2S,3S)-3-amino-2-hydroxy-3-(2-methoxyphenyl)propanoic acid

>  <TYPE>  (3915) 
Backbone

>  <CLASS>  (3915) 
beta

>  <ANALOG>  (3915) 
X

>  <MOL_WT>  (3915) 
211.21699999999998

>  <LOGP>  (3915) 
0.14050000000000007

>  <TPSA>  (3915) 
92.78000000000002

>  <POPULARITY>  (3915) 
3.8

>  <PROTECTED>  (3915) 
TRUE

>  <SMILES>  (3915) 
N[C@@H](c1(ccccc1OC))[C@H](O)C(=O)O

>  <INCHIKEY>  (3915) 
GVANXUOIKFVRKN-IUCAKERBSA-N

$$$$
bAla_2SOH_3SPh_3F
     RDKit          2D

 14 14  0  0  0  0  0  0  0  0999 V2000
   -1.0270   -2.0473    0.0000 N   0  0  0  0  0  0  0  0  0  0  0  0
   -0.7622   -0.5709    0.0000 C   0  0  0  0  0  0  0  0  0  0  0  0
    0.6488   -0.0619    0.0000 C   0  0  0  0  0  0  0  0  0  0  0  0
    0.9135    1.4146    0.0000 C   0  0  0  0  0  0  0  0  0  0  0  0
    2.3245    1.9235    0.0000 C   0  0  0  0  0  0  0  0  0  0  0  0
    3.4708    0.9560    0.0000 C   0  0  0  0  0  0  0  0  0  0  0  0
    3.2061   -0.5204    0.0000 C   0  0  0  0  0  0  0  0  0  0  0  0
    4.3524   -1.4879    0.0000 F   0  0  0  0  0  0  0  0  0  0  0  0
    1.7951   -1.0294    0.0000 C   0  0  0  0  0  0  0  0  0  0  0  0
   -1.9085    0.3966    0.0000 C   0  0  0  0  0  0  0  0  0  0  0  0
   -1.6438    1.8731    0.0000 O   0  0  0  0  0  0  0  0  0  0  0  0
   -3.3195   -0.1124    0.0000 C   0  0  0  0  0  0  0  0  0  0  0  0
   -3.5842   -1.5888    0.0000 O   0  0  0  0  0  0  0  0  0  0  0  0
   -4.4658    0.8551    0.0000 O   0  0  0  0  0  0  0  0  0  0  0  0
  2  1  1  6
  2  3  1  0
  3  4  2  0
  4  5  1  0
  5  6  2  0
  6  7  1  0
  7  8  1  0
  7  9  2  0
  2 10  1  0
 10 11  1  1
 10 12  1  0
 12 13  2  0
 12 14  1  0
  9  3  1  0
M  END
>  <rName>  (3916) 
bAla_2SOH_3SPh_3F

>  <PQ_SYMBOL>  (3916) 
bAla_2SOH_3SPh_3F

>  <FULL_NAME>  (3916) 
(2S,3S)-3-amino-3-(3-fluorophenyl)-2-hydroxypropanoic acid

>  <IUPAC_CONDENSED>  (3916) 
bAla(2S-OH,3S-Ph(3-F))

>  <IUPAC>  (3916) 
(2S,3S)-3-amino-3-(3-fluorophenyl)-2-hydroxypropanoic acid

>  <TYPE>  (3916) 
Backbone

>  <CLASS>  (3916) 
beta

>  <ANALOG>  (3916) 
X

>  <MOL_WT>  (3916) 
199.18099999999998

>  <LOGP>  (3916) 
0.2710000000000002

>  <TPSA>  (3916) 
83.55

>  <POPULARITY>  (3916) 
3.8

>  <PROTECTED>  (3916) 
TRUE

>  <SMILES>  (3916) 
N[C@@H](c1(cccc(F)c1))[C@H](O)C(=O)O

>  <INCHIKEY>  (3916) 
XVPSWGNJNOSORO-YUMQZZPRSA-N

$$$$
bAla_2SOH_3SPh_3Me
     RDKit          2D

 14 14  0  0  0  0  0  0  0  0999 V2000
   -1.0270   -2.0473    0.0000 N   0  0  0  0  0  0  0  0  0  0  0  0
   -0.7622   -0.5709    0.0000 C   0  0  0  0  0  0  0  0  0  0  0  0
    0.6488   -0.0619    0.0000 C   0  0  0  0  0  0  0  0  0  0  0  0
    0.9135    1.4146    0.0000 C   0  0  0  0  0  0  0  0  0  0  0  0
    2.3245    1.9235    0.0000 C   0  0  0  0  0  0  0  0  0  0  0  0
    3.4708    0.9560    0.0000 C   0  0  0  0  0  0  0  0  0  0  0  0
    3.2061   -0.5204    0.0000 C   0  0  0  0  0  0  0  0  0  0  0  0
    4.3524   -1.4879    0.0000 C   0  0  0  0  0  0  0  0  0  0  0  0
    1.7951   -1.0294    0.0000 C   0  0  0  0  0  0  0  0  0  0  0  0
   -1.9085    0.3966    0.0000 C   0  0  0  0  0  0  0  0  0  0  0  0
   -1.6438    1.8731    0.0000 O   0  0  0  0  0  0  0  0  0  0  0  0
   -3.3195   -0.1124    0.0000 C   0  0  0  0  0  0  0  0  0  0  0  0
   -3.5842   -1.5888    0.0000 O   0  0  0  0  0  0  0  0  0  0  0  0
   -4.4658    0.8551    0.0000 O   0  0  0  0  0  0  0  0  0  0  0  0
  2  1  1  6
  2  3  1  0
  3  4  2  0
  4  5  1  0
  5  6  2  0
  6  7  1  0
  7  8  1  0
  7  9  2  0
  2 10  1  0
 10 11  1  1
 10 12  1  0
 12 13  2  0
 12 14  1  0
  9  3  1  0
M  END
>  <rName>  (3917) 
bAla_2SOH_3SPh_3Me

>  <PQ_SYMBOL>  (3917) 
bAla_2SOH_3SPh_3Me

>  <FULL_NAME>  (3917) 
(2S,3S)-3-amino-2-hydroxy-3-(m-tolyl)propanoic acid

>  <IUPAC_CONDENSED>  (3917) 
bAla(2S-OH,3S-Ph(3-Me))

>  <IUPAC>  (3917) 
(2S,3S)-3-amino-2-hydroxy-3-(3-methylphenyl)propanoic acid

>  <TYPE>  (3917) 
Backbone

>  <CLASS>  (3917) 
beta

>  <ANALOG>  (3917) 
X

>  <MOL_WT>  (3917) 
195.218

>  <LOGP>  (3917) 
0.44032000000000004

>  <TPSA>  (3917) 
83.55

>  <POPULARITY>  (3917) 
3.8

>  <PROTECTED>  (3917) 
TRUE

>  <SMILES>  (3917) 
N[C@@H](c1(cccc(C)c1))[C@H](O)C(=O)O

>  <INCHIKEY>  (3917) 
ALZYDSFTANAOHF-IUCAKERBSA-N

$$$$
bAla_2SOH_3SPh_3OMe
     RDKit          2D

 15 15  0  0  0  0  0  0  0  0999 V2000
   -1.0591   -1.9971    0.0000 N   0  0  0  0  0  0  0  0  0  0  0  0
   -0.9802   -0.4992    0.0000 C   0  0  0  0  0  0  0  0  0  0  0  0
    0.3564    0.1815    0.0000 C   0  0  0  0  0  0  0  0  0  0  0  0
    0.4353    1.6794    0.0000 C   0  0  0  0  0  0  0  0  0  0  0  0
    1.7720    2.3601    0.0000 C   0  0  0  0  0  0  0  0  0  0  0  0
    3.0298    1.5429    0.0000 C   0  0  0  0  0  0  0  0  0  0  0  0
    2.9509    0.0449    0.0000 C   0  0  0  0  0  0  0  0  0  0  0  0
    4.2087   -0.7723    0.0000 O   0  0  0  0  0  0  0  0  0  0  0  0
    4.1299   -2.2702    0.0000 C   0  0  0  0  0  0  0  0  0  0  0  0
    1.6143   -0.6357    0.0000 C   0  0  0  0  0  0  0  0  0  0  0  0
   -2.2380    0.3181    0.0000 C   0  0  0  0  0  0  0  0  0  0  0  0
   -2.1592    1.8160    0.0000 O   0  0  0  0  0  0  0  0  0  0  0  0
   -3.5747   -0.3626    0.0000 C   0  0  0  0  0  0  0  0  0  0  0  0
   -3.6536   -1.8605    0.0000 O   0  0  0  0  0  0  0  0  0  0  0  0
   -4.8325    0.4547    0.0000 O   0  0  0  0  0  0  0  0  0  0  0  0
  2  1  1  6
  2  3  1  0
  3  4  2  0
  4  5  1  0
  5  6  2  0
  6  7  1  0
  7  8  1  0
  8  9  1  0
  7 10  2  0
  2 11  1  0
 11 12  1  1
 11 13  1  0
 13 14  2  0
 13 15  1  0
 10  3  1  0
M  END
>  <rName>  (3918) 
bAla_2SOH_3SPh_3OMe

>  <PQ_SYMBOL>  (3918) 
bAla_2SOH_3SPh_3OMe

>  <FULL_NAME>  (3918) 
(2S,3S)-3-amino-2-hydroxy-3-(3-methoxyphenyl)propanoic acid

>  <IUPAC_CONDENSED>  (3918) 
bAla(2S-OH,3S-Ph(3-OMe))

>  <IUPAC>  (3918) 
(2S,3S)-3-amino-2-hydroxy-3-(3-methoxyphenyl)propanoic acid

>  <TYPE>  (3918) 
Backbone

>  <CLASS>  (3918) 
beta

>  <ANALOG>  (3918) 
X

>  <MOL_WT>  (3918) 
211.21699999999998

>  <LOGP>  (3918) 
0.14050000000000007

>  <TPSA>  (3918) 
92.78000000000002

>  <POPULARITY>  (3918) 
4.3

>  <PROTECTED>  (3918) 
TRUE

>  <SMILES>  (3918) 
N[C@@H](c1(cccc(OC)c1))[C@H](O)C(=O)O

>  <INCHIKEY>  (3918) 
ICTHUARFCCZYSQ-IUCAKERBSA-N

$$$$
bAla_2SOH_3SPh_4F
     RDKit          2D

 14 14  0  0  0  0  0  0  0  0999 V2000
   -1.3920   -2.0726    0.0000 N   0  0  0  0  0  0  0  0  0  0  0  0
   -0.9084   -0.6527    0.0000 C   0  0  0  0  0  0  0  0  0  0  0  0
    0.5630   -0.3615    0.0000 C   0  0  0  0  0  0  0  0  0  0  0  0
    1.0466    1.0584    0.0000 C   0  0  0  0  0  0  0  0  0  0  0  0
    2.5180    1.3496    0.0000 C   0  0  0  0  0  0  0  0  0  0  0  0
    3.5060    0.2209    0.0000 C   0  0  0  0  0  0  0  0  0  0  0  0
    4.9774    0.5121    0.0000 F   0  0  0  0  0  0  0  0  0  0  0  0
    3.0224   -1.1991    0.0000 C   0  0  0  0  0  0  0  0  0  0  0  0
    1.5509   -1.4902    0.0000 C   0  0  0  0  0  0  0  0  0  0  0  0
   -1.8963    0.4760    0.0000 C   0  0  0  0  0  0  0  0  0  0  0  0
   -1.4128    1.8959    0.0000 O   0  0  0  0  0  0  0  0  0  0  0  0
   -3.3678    0.1848    0.0000 C   0  0  0  0  0  0  0  0  0  0  0  0
   -3.8514   -1.2351    0.0000 O   0  0  0  0  0  0  0  0  0  0  0  0
   -4.3557    1.3135    0.0000 O   0  0  0  0  0  0  0  0  0  0  0  0
  2  1  1  6
  2  3  1  0
  3  4  1  0
  4  5  2  0
  5  6  1  0
  6  7  1  0
  6  8  2  0
  8  9  1  0
  2 10  1  0
 10 11  1  1
 10 12  1  0
 12 13  2  0
 12 14  1  0
  9  3  2  0
M  END
>  <rName>  (3919) 
bAla_2SOH_3SPh_4F

>  <PQ_SYMBOL>  (3919) 
bAla_2SOH_3SPh_4F

>  <FULL_NAME>  (3919) 
(2S,3S)-3-amino-3-(4-fluorophenyl)-2-hydroxypropanoic acid

>  <IUPAC_CONDENSED>  (3919) 
bAla(2S-OH,3S-Ph(4-F))

>  <IUPAC>  (3919) 
(2S,3S)-3-amino-3-(4-fluorophenyl)-2-hydroxypropanoic acid

>  <TYPE>  (3919) 
Backbone

>  <CLASS>  (3919) 
beta

>  <ANALOG>  (3919) 
X

>  <MOL_WT>  (3919) 
199.18099999999998

>  <LOGP>  (3919) 
0.2710000000000002

>  <TPSA>  (3919) 
83.55

>  <POPULARITY>  (3919) 
4.9

>  <PROTECTED>  (3919) 
TRUE

>  <SMILES>  (3919) 
N[C@@H](c1(ccc(F)cc1))[C@H](O)C(=O)O

>  <INCHIKEY>  (3919) 
MGNTZYNDHDKPQD-YUMQZZPRSA-N

$$$$
bAla_2SOH_3SPh_4Me
     RDKit          2D

 14 14  0  0  0  0  0  0  0  0999 V2000
   -1.3920   -2.0726    0.0000 N   0  0  0  0  0  0  0  0  0  0  0  0
   -0.9084   -0.6527    0.0000 C   0  0  0  0  0  0  0  0  0  0  0  0
    0.5630   -0.3615    0.0000 C   0  0  0  0  0  0  0  0  0  0  0  0
    1.0466    1.0584    0.0000 C   0  0  0  0  0  0  0  0  0  0  0  0
    2.5180    1.3496    0.0000 C   0  0  0  0  0  0  0  0  0  0  0  0
    3.5060    0.2209    0.0000 C   0  0  0  0  0  0  0  0  0  0  0  0
    4.9774    0.5121    0.0000 C   0  0  0  0  0  0  0  0  0  0  0  0
    3.0224   -1.1991    0.0000 C   0  0  0  0  0  0  0  0  0  0  0  0
    1.5509   -1.4902    0.0000 C   0  0  0  0  0  0  0  0  0  0  0  0
   -1.8963    0.4760    0.0000 C   0  0  0  0  0  0  0  0  0  0  0  0
   -1.4128    1.8959    0.0000 O   0  0  0  0  0  0  0  0  0  0  0  0
   -3.3678    0.1848    0.0000 C   0  0  0  0  0  0  0  0  0  0  0  0
   -3.8514   -1.2351    0.0000 O   0  0  0  0  0  0  0  0  0  0  0  0
   -4.3557    1.3135    0.0000 O   0  0  0  0  0  0  0  0  0  0  0  0
  2  1  1  6
  2  3  1  0
  3  4  1  0
  4  5  2  0
  5  6  1  0
  6  7  1  0
  6  8  2  0
  8  9  1  0
  2 10  1  0
 10 11  1  1
 10 12  1  0
 12 13  2  0
 12 14  1  0
  9  3  2  0
M  END
>  <rName>  (3920) 
bAla_2SOH_3SPh_4Me

>  <PQ_SYMBOL>  (3920) 
bAla_2SOH_3SPh_4Me

>  <FULL_NAME>  (3920) 
(2S,3S)-3-amino-2-hydroxy-3-(4-methylphenyl)propanoic acid

>  <IUPAC_CONDENSED>  (3920) 
bAla(2S-OH,3S-Ph(4-Me))

>  <IUPAC>  (3920) 
(2S,3S)-3-amino-2-hydroxy-3-(4-methylphenyl)propanoic acid

>  <TYPE>  (3920) 
Backbone

>  <CLASS>  (3920) 
beta

>  <ANALOG>  (3920) 
X

>  <MOL_WT>  (3920) 
195.218

>  <LOGP>  (3920) 
0.44032000000000004

>  <TPSA>  (3920) 
83.55

>  <POPULARITY>  (3920) 
4.4

>  <PROTECTED>  (3920) 
TRUE

>  <SMILES>  (3920) 
N[C@@H](c1(ccc(C)cc1))[C@H](O)C(=O)O

>  <INCHIKEY>  (3920) 
MXALXDNRLYPVEU-IUCAKERBSA-N

$$$$
bAla_2SOH_3SPh_4OMe
     RDKit          2D

 15 15  0  0  0  0  0  0  0  0999 V2000
   -1.7327   -2.0803    0.0000 N   0  0  0  0  0  0  0  0  0  0  0  0
   -1.2887   -0.6475    0.0000 C   0  0  0  0  0  0  0  0  0  0  0  0
    0.1742   -0.3157    0.0000 C   0  0  0  0  0  0  0  0  0  0  0  0
    0.6182    1.1171    0.0000 C   0  0  0  0  0  0  0  0  0  0  0  0
    2.0810    1.4489    0.0000 C   0  0  0  0  0  0  0  0  0  0  0  0
    3.0998    0.3479    0.0000 C   0  0  0  0  0  0  0  0  0  0  0  0
    4.5627    0.6798    0.0000 O   0  0  0  0  0  0  0  0  0  0  0  0
    5.5815   -0.4212    0.0000 C   0  0  0  0  0  0  0  0  0  0  0  0
    2.6558   -1.0848    0.0000 C   0  0  0  0  0  0  0  0  0  0  0  0
    1.1929   -1.4166    0.0000 C   0  0  0  0  0  0  0  0  0  0  0  0
   -2.3075    0.4534    0.0000 C   0  0  0  0  0  0  0  0  0  0  0  0
   -1.8634    1.8862    0.0000 O   0  0  0  0  0  0  0  0  0  0  0  0
   -3.7703    0.1216    0.0000 C   0  0  0  0  0  0  0  0  0  0  0  0
   -4.2144   -1.3112    0.0000 O   0  0  0  0  0  0  0  0  0  0  0  0
   -4.7891    1.2225    0.0000 O   0  0  0  0  0  0  0  0  0  0  0  0
  2  1  1  6
  2  3  1  0
  3  4  1  0
  4  5  2  0
  5  6  1  0
  6  7  1  0
  7  8  1  0
  6  9  2  0
  9 10  1  0
  2 11  1  0
 11 12  1  1
 11 13  1  0
 13 14  2  0
 13 15  1  0
 10  3  2  0
M  END
>  <rName>  (3921) 
bAla_2SOH_3SPh_4OMe

>  <PQ_SYMBOL>  (3921) 
bAla_2SOH_3SPh_4OMe

>  <FULL_NAME>  (3921) 
(2S,3S)-3-amino-2-hydroxy-3-(4-methoxyphenyl)propanoic acid

>  <IUPAC_CONDENSED>  (3921) 
bAla(2S-OH,3S-Ph(4-OMe))

>  <IUPAC>  (3921) 
(2S,3S)-3-amino-2-hydroxy-3-(4-methoxyphenyl)propanoic acid

>  <TYPE>  (3921) 
Backbone

>  <CLASS>  (3921) 
beta

>  <ANALOG>  (3921) 
X

>  <MOL_WT>  (3921) 
211.21699999999998

>  <LOGP>  (3921) 
0.14050000000000007

>  <TPSA>  (3921) 
92.78000000000002

>  <POPULARITY>  (3921) 
7.4

>  <PROTECTED>  (3921) 
TRUE

>  <SMILES>  (3921) 
N[C@@H](c1(ccc(OC)cc1))[C@H](O)C(=O)O

>  <INCHIKEY>  (3921) 
CMDQTUROESJWHM-IUCAKERBSA-N

$$$$
bAla_2SOH_3Snaphth2yl
     RDKit          2D

 17 18  0  0  0  0  0  0  0  0999 V2000
   -2.6223   -2.0386    0.0000 N   0  0  0  0  0  0  0  0  0  0  0  0
   -1.8601   -0.7466    0.0000 C   0  0  0  0  0  0  0  0  0  0  0  0
   -0.3601   -0.7608    0.0000 C   0  0  0  0  0  0  0  0  0  0  0  0
    0.3776   -2.0668    0.0000 C   0  0  0  0  0  0  0  0  0  0  0  0
    1.8775   -2.0810    0.0000 C   0  0  0  0  0  0  0  0  0  0  0  0
    2.6397   -0.7890    0.0000 C   0  0  0  0  0  0  0  0  0  0  0  0
    4.1397   -0.8032    0.0000 C   0  0  0  0  0  0  0  0  0  0  0  0
    4.9019    0.4887    0.0000 C   0  0  0  0  0  0  0  0  0  0  0  0
    4.1642    1.7948    0.0000 C   0  0  0  0  0  0  0  0  0  0  0  0
    2.6642    1.8089    0.0000 C   0  0  0  0  0  0  0  0  0  0  0  0
    1.9020    0.5170    0.0000 C   0  0  0  0  0  0  0  0  0  0  0  0
    0.4021    0.5311    0.0000 C   0  0  0  0  0  0  0  0  0  0  0  0
   -2.5978    0.5594    0.0000 C   0  0  0  0  0  0  0  0  0  0  0  0
   -1.8356    1.8513    0.0000 O   0  0  0  0  0  0  0  0  0  0  0  0
   -4.0977    0.5735    0.0000 C   0  0  0  0  0  0  0  0  0  0  0  0
   -4.8599   -0.7184    0.0000 O   0  0  0  0  0  0  0  0  0  0  0  0
   -4.8354    1.8796    0.0000 O   0  0  0  0  0  0  0  0  0  0  0  0
  2  1  1  6
  2  3  1  0
  3  4  1  0
  4  5  2  0
  5  6  1  0
  6  7  2  0
  7  8  1  0
  8  9  2  0
  9 10  1  0
 10 11  2  0
 11 12  1  0
  2 13  1  0
 13 14  1  1
 13 15  1  0
 15 16  2  0
 15 17  1  0
 11  6  1  0
 12  3  2  0
M  END
>  <rName>  (3922) 
bAla_2SOH_3Snaphth2yl

>  <PQ_SYMBOL>  (3922) 
bAla_2SOH_3Snaphth2yl

>  <FULL_NAME>  (3922) 
(2S,3S)-3-amino-2-hydroxy-3-(naphthalen-2-yl)propanoic acid

>  <IUPAC_CONDENSED>  (3922) 
bAla(2S-OH,3S-naphth-2-yl)

>  <IUPAC>  (3922) 
(2S,3S)-3-amino-2-hydroxy-3-(naphthalen-2-yl)propanoic acid

>  <TYPE>  (3922) 
Backbone

>  <CLASS>  (3922) 
beta

>  <ANALOG>  (3922) 
X

>  <MOL_WT>  (3922) 
231.25099999999998

>  <LOGP>  (3922) 
1.2851000000000001

>  <TPSA>  (3922) 
83.55

>  <POPULARITY>  (3922) 
2.9

>  <PROTECTED>  (3922) 
TRUE

>  <SMILES>  (3922) 
N[C@@H](c2(ccc1(ccccc1c2)))[C@H](O)C(=O)O

>  <INCHIKEY>  (3922) 
XWVSXSUSCGCSFK-RYUDHWBXSA-N

$$$$
bAla_2SOMe
     RDKit          2D

  8  7  0  0  0  0  0  0  0  0999 V2000
    2.5981    0.5625    0.0000 N   0  0  0  0  0  0  0  0  0  0  0  0
    1.2990    1.3125    0.0000 C   0  0  0  0  0  0  0  0  0  0  0  0
    0.0000    0.5625    0.0000 C   0  0  0  0  0  0  0  0  0  0  0  0
   -1.2990    1.3125    0.0000 O   0  0  0  0  0  0  0  0  0  0  0  0
   -2.5981    0.5625    0.0000 C   0  0  0  0  0  0  0  0  0  0  0  0
    0.0000   -0.9375    0.0000 C   0  0  0  0  0  0  0  0  0  0  0  0
   -1.2990   -1.6875    0.0000 O   0  0  0  0  0  0  0  0  0  0  0  0
    1.2990   -1.6875    0.0000 O   0  0  0  0  0  0  0  0  0  0  0  0
  1  2  1  0
  3  2  1  1
  3  4  1  0
  4  5  1  0
  3  6  1  0
  6  7  2  0
  6  8  1  0
M  END
>  <rName>  (3923) 
bAla_2SOMe

>  <PQ_SYMBOL>  (3923) 
bAla_2SOMe

>  <FULL_NAME>  (3923) 
(2S)-3-amino-2-methoxypropanoic acid

>  <IUPAC_CONDENSED>  (3923) 
bAla(2S-OMe)

>  <IUPAC>  (3923) 
(2S)-3-amino-2-methoxypropanoic acid

>  <TYPE>  (3923) 
Backbone

>  <CLASS>  (3923) 
beta

>  <ANALOG>  (3923) 
Ser

>  <MOL_WT>  (3923) 
119.11999999999998

>  <LOGP>  (3923) 
-0.9552999999999998

>  <TPSA>  (3923) 
72.55

>  <POPULARITY>  (3923) 
9.0

>  <PROTECTED>  (3923) 
TRUE

>  <SMILES>  (3923) 
NC[C@H](OC)C(=O)O

>  <INCHIKEY>  (3923) 
NVUIQQXPQNPDCU-VKHMYHEASA-N

$$$$
bAla_2SPh
     RDKit          2D

 12 12  0  0  0  0  0  0  0  0999 V2000
    3.1463   -1.7206    0.0000 N   0  0  0  0  0  0  0  0  0  0  0  0
    1.6493   -1.6245    0.0000 C   0  0  0  0  0  0  0  0  0  0  0  0
    0.9841   -0.2801    0.0000 C   0  0  0  0  0  0  0  0  0  0  0  0
   -0.5128   -0.1840    0.0000 C   0  0  0  0  0  0  0  0  0  0  0  0
   -1.3445   -1.4324    0.0000 C   0  0  0  0  0  0  0  0  0  0  0  0
   -2.8414   -1.3363    0.0000 C   0  0  0  0  0  0  0  0  0  0  0  0
   -3.5067    0.0081    0.0000 C   0  0  0  0  0  0  0  0  0  0  0  0
   -2.6750    1.2564    0.0000 C   0  0  0  0  0  0  0  0  0  0  0  0
   -1.1781    1.1604    0.0000 C   0  0  0  0  0  0  0  0  0  0  0  0
    1.8157    0.9682    0.0000 C   0  0  0  0  0  0  0  0  0  0  0  0
    1.1505    2.3126    0.0000 O   0  0  0  0  0  0  0  0  0  0  0  0
    3.3127    0.8721    0.0000 O   0  0  0  0  0  0  0  0  0  0  0  0
  1  2  1  0
  3  2  1  6
  3  4  1  0
  4  5  2  0
  5  6  1  0
  6  7  2  0
  7  8  1  0
  8  9  2  0
  3 10  1  0
 10 11  2  0
 10 12  1  0
  9  4  1  0
M  END
>  <rName>  (3924) 
bAla_2SPh

>  <PQ_SYMBOL>  (3924) 
bAla_2SPh

>  <FULL_NAME>  (3924) 
(S)-3-amino-2-phenylpropanoic acid

>  <IUPAC_CONDENSED>  (3924) 
bAla(2S-Ph)

>  <IUPAC>  (3924) 
(2S)-3-amino-2-phenylpropanoic acid

>  <TYPE>  (3924) 
Backbone

>  <CLASS>  (3924) 
beta

>  <ANALOG>  (3924) 
X

>  <MOL_WT>  (3924) 
165.19199999999995

>  <LOGP>  (3924) 
0.8135000000000001

>  <TPSA>  (3924) 
63.32000000000001

>  <POPULARITY>  (3924) 
11.5

>  <PROTECTED>  (3924) 
TRUE

>  <SMILES>  (3924) 
NC[C@H](c1(ccccc1))C(=O)O

>  <INCHIKEY>  (3924) 
LRCYAJZPDFSJPQ-MRVPVSSYSA-N

$$$$
bAla_2SPh_4Me
     RDKit          2D

 13 13  0  0  0  0  0  0  0  0999 V2000
    3.5441   -1.7019    0.0000 N   0  0  0  0  0  0  0  0  0  0  0  0
    2.0465   -1.6171    0.0000 C   0  0  0  0  0  0  0  0  0  0  0  0
    1.3711   -0.2778    0.0000 C   0  0  0  0  0  0  0  0  0  0  0  0
   -0.1265   -0.1930    0.0000 C   0  0  0  0  0  0  0  0  0  0  0  0
   -0.9487   -1.4476    0.0000 C   0  0  0  0  0  0  0  0  0  0  0  0
   -2.4463   -1.3628    0.0000 C   0  0  0  0  0  0  0  0  0  0  0  0
   -3.1217   -0.0235    0.0000 C   0  0  0  0  0  0  0  0  0  0  0  0
   -4.6193    0.0613    0.0000 C   0  0  0  0  0  0  0  0  0  0  0  0
   -2.2995    1.2311    0.0000 C   0  0  0  0  0  0  0  0  0  0  0  0
   -0.8019    1.1463    0.0000 C   0  0  0  0  0  0  0  0  0  0  0  0
    2.1933    0.9768    0.0000 C   0  0  0  0  0  0  0  0  0  0  0  0
    1.5179    2.3161    0.0000 O   0  0  0  0  0  0  0  0  0  0  0  0
    3.6909    0.8920    0.0000 O   0  0  0  0  0  0  0  0  0  0  0  0
  1  2  1  0
  3  2  1  6
  3  4  1  0
  4  5  1  0
  5  6  2  0
  6  7  1  0
  7  8  1  0
  7  9  2  0
  9 10  1  0
  3 11  1  0
 11 12  2  0
 11 13  1  0
 10  4  2  0
M  END
>  <rName>  (3925) 
bAla_2SPh_4Me

>  <PQ_SYMBOL>  (3925) 
bAla_2SPh_4Me

>  <FULL_NAME>  (3925) 
(2S)-3-amino-2-(4-methylphenyl)propanoic acid

>  <IUPAC_CONDENSED>  (3925) 
bAla(2S-Ph(4-Me))

>  <IUPAC>  (3925) 
(2S)-3-amino-2-(4-methylphenyl)propanoic acid

>  <TYPE>  (3925) 
Backbone

>  <CLASS>  (3925) 
beta

>  <ANALOG>  (3925) 
X

>  <MOL_WT>  (3925) 
179.21899999999997

>  <LOGP>  (3925) 
1.12192

>  <TPSA>  (3925) 
63.32000000000001

>  <POPULARITY>  (3925) 
2.2

>  <PROTECTED>  (3925) 
TRUE

>  <SMILES>  (3925) 
NC[C@H](c1(ccc(C)cc1))C(=O)O

>  <INCHIKEY>  (3925) 
LLTZDCWOOVWORM-SECBINFHSA-N

$$$$
bAla_2SPh_4OMe
     RDKit          2D

 14 14  0  0  0  0  0  0  0  0999 V2000
   -4.0503    1.4922    0.0000 N   0  0  0  0  0  0  0  0  0  0  0  0
   -2.5506    1.5239    0.0000 C   0  0  0  0  0  0  0  0  0  0  0  0
   -1.7733    0.2410    0.0000 C   0  0  0  0  0  0  0  0  0  0  0  0
   -0.2737    0.2726    0.0000 C   0  0  0  0  0  0  0  0  0  0  0  0
    0.4487    1.5872    0.0000 C   0  0  0  0  0  0  0  0  0  0  0  0
    1.9484    1.6189    0.0000 C   0  0  0  0  0  0  0  0  0  0  0  0
    2.7257    0.3360    0.0000 C   0  0  0  0  0  0  0  0  0  0  0  0
    4.2253    0.3676    0.0000 O   0  0  0  0  0  0  0  0  0  0  0  0
    5.0026   -0.9153    0.0000 C   0  0  0  0  0  0  0  0  0  0  0  0
    2.0032   -0.9786    0.0000 C   0  0  0  0  0  0  0  0  0  0  0  0
    0.5036   -1.0103    0.0000 C   0  0  0  0  0  0  0  0  0  0  0  0
   -2.4958   -1.0736    0.0000 C   0  0  0  0  0  0  0  0  0  0  0  0
   -1.7185   -2.3565    0.0000 O   0  0  0  0  0  0  0  0  0  0  0  0
   -3.9954   -1.1053    0.0000 O   0  0  0  0  0  0  0  0  0  0  0  0
  1  2  1  0
  3  2  1  6
  3  4  1  0
  4  5  1  0
  5  6  2  0
  6  7  1  0
  7  8  1  0
  8  9  1  0
  7 10  2  0
 10 11  1  0
  3 12  1  0
 12 13  2  0
 12 14  1  0
 11  4  2  0
M  END
>  <rName>  (3926) 
bAla_2SPh_4OMe

>  <PQ_SYMBOL>  (3926) 
bAla_2SPh_4OMe

>  <FULL_NAME>  (3926) 
(R)-3-Amino-2-(4-methoxy-phenyl)-propionic acid

>  <IUPAC_CONDENSED>  (3926) 
bAla(2S-Ph(4-OMe))

>  <IUPAC>  (3926) 
(2S)-3-amino-2-(4-methoxyphenyl)propanoic acid

>  <TYPE>  (3926) 
Backbone

>  <CLASS>  (3926) 
beta

>  <ANALOG>  (3926) 
X

>  <MOL_WT>  (3926) 
195.218

>  <LOGP>  (3926) 
0.8220999999999998

>  <TPSA>  (3926) 
72.55

>  <POPULARITY>  (3926) 
2.2

>  <PROTECTED>  (3926) 
TRUE

>  <SMILES>  (3926) 
NC[C@H](c1(ccc(OC)cc1))C(=O)O

>  <INCHIKEY>  (3926) 
CARIUONFSONQNP-SECBINFHSA-N

$$$$
bAla_2SPr
     RDKit          2D

  9  8  0  0  0  0  0  0  0  0999 V2000
    2.8857   -1.0168    0.0000 N   0  0  0  0  0  0  0  0  0  0  0  0
    1.4625   -1.4907    0.0000 C   0  0  0  0  0  0  0  0  0  0  0  0
    0.3405   -0.4951    0.0000 C   0  0  0  0  0  0  0  0  0  0  0  0
   -1.0826   -0.9690    0.0000 C   0  0  0  0  0  0  0  0  0  0  0  0
   -2.2046    0.0266    0.0000 C   0  0  0  0  0  0  0  0  0  0  0  0
   -3.6278   -0.4473    0.0000 C   0  0  0  0  0  0  0  0  0  0  0  0
    0.6417    0.9743    0.0000 C   0  0  0  0  0  0  0  0  0  0  0  0
   -0.4803    1.9699    0.0000 O   0  0  0  0  0  0  0  0  0  0  0  0
    2.0649    1.4482    0.0000 O   0  0  0  0  0  0  0  0  0  0  0  0
  1  2  1  0
  3  2  1  6
  3  4  1  0
  4  5  1  0
  5  6  1  0
  3  7  1  0
  7  8  2  0
  7  9  1  0
M  END
>  <rName>  (3927) 
bAla_2SPr

>  <PQ_SYMBOL>  (3927) 
bAla_2SPr

>  <FULL_NAME>  (3927) 
(S)-2-(Aminomethyl)pentanoic acid

>  <IUPAC_CONDENSED>  (3927) 
bAla(2S-Pr)

>  <IUPAC>  (3927) 
(2S)-2-(aminomethyl)pentanoic acid

>  <TYPE>  (3927) 
Backbone

>  <CLASS>  (3927) 
beta

>  <ANALOG>  (3927) 
Val

>  <MOL_WT>  (3927) 
131.175

>  <LOGP>  (3927) 
0.4460000000000001

>  <TPSA>  (3927) 
63.32000000000001

>  <POPULARITY>  (3927) 
2.2

>  <PROTECTED>  (3927) 
TRUE

>  <SMILES>  (3927) 
NC[C@H](CCC)C(=O)O

>  <INCHIKEY>  (3927) 
SPVZHUGRMDRKAC-YFKPBYRVSA-N

$$$$
bAla_2Scyclobutane
     RDKit          2D

  8  8  0  0  0  0  0  0  0  0999 V2000
    1.7473   -1.8123    0.0000 N   0  0  0  0  0  0  0  0  0  0  0  0
    1.3130   -0.3765    0.0000 C   0  0  0  0  0  0  0  0  0  0  0  0
   -0.0093    0.3316    0.0000 C   0  0  0  0  0  0  0  0  0  0  0  0
    0.6988    1.6539    0.0000 C   0  0  0  0  0  0  0  0  0  0  0  0
    2.0211    0.9458    0.0000 C   0  0  0  0  0  0  0  0  0  0  0  0
   -1.4451   -0.1027    0.0000 C   0  0  0  0  0  0  0  0  0  0  0  0
   -1.7868   -1.5633    0.0000 O   0  0  0  0  0  0  0  0  0  0  0  0
   -2.5391    0.9235    0.0000 O   0  0  0  0  0  0  0  0  0  0  0  0
  2  1  1  1
  2  3  1  0
  3  4  1  0
  4  5  1  0
  3  6  1  1
  6  7  2  0
  6  8  1  0
  5  2  1  0
M  END
>  <rName>  (3928) 
bAla_2Scyclobutane

>  <PQ_SYMBOL>  (3928) 
bAla_2Scyclobutane

>  <FULL_NAME>  (3928) 
Cyclobutanecarboxylic acid, 2-amino-, (1S,2R)-

>  <IUPAC_CONDENSED>  (3928) 
bAla(2S-cyclobutane)

>  <IUPAC>  (3928) 
(1S,2R)-2-aminocyclobutanecarboxylic acid

>  <TYPE>  (3928) 
Backbone

>  <CLASS>  (3928) 
beta

>  <ANALOG>  (3928) 
Ala

>  <MOL_WT>  (3928) 
115.13199999999999

>  <LOGP>  (3928) 
-0.19170000000000004

>  <TPSA>  (3928) 
63.32000000000001

>  <POPULARITY>  (3928) 
5.0

>  <PROTECTED>  (3928) 
TRUE

>  <SMILES>  (3928) 
N[C@H]1[C@H](CC1)C(=O)O

>  <INCHIKEY>  (3928) 
NSQMWZLLTGEDQU-IUYQGCFVSA-N

$$$$
bAla_2SiBu
     RDKit          2D

 10  9  0  0  0  0  0  0  0  0999 V2000
    3.1802    0.8418    0.0000 N   0  0  0  0  0  0  0  0  0  0  0  0
    1.8138    1.4604    0.0000 C   0  0  0  0  0  0  0  0  0  0  0  0
    0.5948    0.5863    0.0000 C   0  0  0  0  0  0  0  0  0  0  0  0
   -0.7717    1.2050    0.0000 C   0  0  0  0  0  0  0  0  0  0  0  0
   -1.9907    0.3309    0.0000 C   0  0  0  0  0  0  0  0  0  0  0  0
   -3.3572    0.9495    0.0000 C   0  0  0  0  0  0  0  0  0  0  0  0
   -1.8433   -1.1619    0.0000 C   0  0  0  0  0  0  0  0  0  0  0  0
    0.7422   -0.9064    0.0000 C   0  0  0  0  0  0  0  0  0  0  0  0
   -0.4768   -1.7805    0.0000 O   0  0  0  0  0  0  0  0  0  0  0  0
    2.1087   -1.5251    0.0000 O   0  0  0  0  0  0  0  0  0  0  0  0
  1  2  1  0
  3  2  1  1
  3  4  1  0
  4  5  1  0
  5  6  1  0
  5  7  1  0
  3  8  1  0
  8  9  2  0
  8 10  1  0
M  END
>  <rName>  (3929) 
bAla_2SiBu

>  <PQ_SYMBOL>  (3929) 
bAla_2SiBu

>  <FULL_NAME>  (3929) 
(S)-2-(aminomethyl)-4-methylpentanoic acid, L-Beta2-Homoleucine

>  <IUPAC_CONDENSED>  (3929) 
bAla(2S-iBu)

>  <IUPAC>  (3929) 
(2S)-2-(aminomethyl)-4-methylpentanoic acid

>  <TYPE>  (3929) 
Backbone

>  <CLASS>  (3929) 
beta

>  <ANALOG>  (3929) 
Leu

>  <MOL_WT>  (3929) 
145.202

>  <LOGP>  (3929) 
0.6920000000000002

>  <TPSA>  (3929) 
63.32000000000001

>  <POPULARITY>  (3929) 
14.9

>  <PROTECTED>  (3929) 
TRUE

>  <SMILES>  (3929) 
NC[C@H](CC(C)C)C(=O)O

>  <INCHIKEY>  (3929) 
IAXQYBCPMFDMOJ-LURJTMIESA-N

$$$$
bAla_2SiPr
     RDKit          2D

  9  8  0  0  0  0  0  0  0  0999 V2000
    2.2500   -1.5877    0.0000 N   0  0  0  0  0  0  0  0  0  0  0  0
    0.7500   -1.5877    0.0000 C   0  0  0  0  0  0  0  0  0  0  0  0
   -0.0000   -0.2887    0.0000 C   0  0  0  0  0  0  0  0  0  0  0  0
   -1.5000   -0.2887    0.0000 C   0  0  0  0  0  0  0  0  0  0  0  0
   -2.2500    1.0104    0.0000 C   0  0  0  0  0  0  0  0  0  0  0  0
   -2.2500   -1.5877    0.0000 C   0  0  0  0  0  0  0  0  0  0  0  0
    0.7500    1.0104    0.0000 C   0  0  0  0  0  0  0  0  0  0  0  0
    0.0000    2.3094    0.0000 O   0  0  0  0  0  0  0  0  0  0  0  0
    2.2500    1.0104    0.0000 O   0  0  0  0  0  0  0  0  0  0  0  0
  1  2  1  0
  3  2  1  6
  3  4  1  0
  4  5  1  0
  4  6  1  0
  3  7  1  0
  7  8  2  0
  7  9  1  0
M  END
>  <rName>  (3930) 
bAla_2SiPr

>  <PQ_SYMBOL>  (3930) 
bAla_2SiPr

>  <FULL_NAME>  (3930) 
D-Beta2-Leucine, D-Beta2-Homo-Valine

>  <IUPAC_CONDENSED>  (3930) 
bAla(2S-iPr)

>  <IUPAC>  (3930) 
(2S)-2-(aminomethyl)-3-methylbutanoic acid

>  <TYPE>  (3930) 
Backbone

>  <CLASS>  (3930) 
beta

>  <ANALOG>  (3930) 
Val

>  <MOL_WT>  (3930) 
131.175

>  <LOGP>  (3930) 
0.3019000000000002

>  <TPSA>  (3930) 
63.32000000000001

>  <POPULARITY>  (3930) 
18.0

>  <PROTECTED>  (3930) 
TRUE

>  <SMILES>  (3930) 
NC[C@H](C(C)C)C(=O)O

>  <INCHIKEY>  (3930) 
UUQYMNPVPQLPID-RXMQYKEDSA-N

$$$$
bAla_2Snaphth1ylmethyl
     RDKit          2D

 17 18  0  0  0  0  0  0  0  0999 V2000
   -4.8953    1.5000    0.0000 N   0  0  0  0  0  0  0  0  0  0  0  0
   -3.4365    1.8491    0.0000 C   0  0  0  0  0  0  0  0  0  0  0  0
   -2.4047    0.7603    0.0000 C   0  0  0  0  0  0  0  0  0  0  0  0
   -0.9459    1.1094    0.0000 C   0  0  0  0  0  0  0  0  0  0  0  0
    0.0858    0.0205    0.0000 C   0  0  0  0  0  0  0  0  0  0  0  0
   -0.3413   -1.4174    0.0000 C   0  0  0  0  0  0  0  0  0  0  0  0
    0.6905   -2.5062    0.0000 C   0  0  0  0  0  0  0  0  0  0  0  0
    2.1493   -2.1571    0.0000 C   0  0  0  0  0  0  0  0  0  0  0  0
    2.5764   -0.7192    0.0000 C   0  0  0  0  0  0  0  0  0  0  0  0
    4.0352   -0.3701    0.0000 C   0  0  0  0  0  0  0  0  0  0  0  0
    4.4623    1.0678    0.0000 C   0  0  0  0  0  0  0  0  0  0  0  0
    3.4305    2.1566    0.0000 C   0  0  0  0  0  0  0  0  0  0  0  0
    1.9717    1.8075    0.0000 C   0  0  0  0  0  0  0  0  0  0  0  0
    1.5446    0.3696    0.0000 C   0  0  0  0  0  0  0  0  0  0  0  0
   -2.8318   -0.6777    0.0000 C   0  0  0  0  0  0  0  0  0  0  0  0
   -1.8001   -1.7665    0.0000 O   0  0  0  0  0  0  0  0  0  0  0  0
   -4.2906   -1.0267    0.0000 O   0  0  0  0  0  0  0  0  0  0  0  0
  1  2  1  0
  3  2  1  6
  3  4  1  0
  4  5  1  0
  5  6  2  0
  6  7  1  0
  7  8  2  0
  8  9  1  0
  9 10  2  0
 10 11  1  0
 11 12  2  0
 12 13  1  0
 13 14  2  0
  3 15  1  0
 15 16  2  0
 15 17  1  0
 14  5  1  0
 14  9  1  0
M  END
>  <rName>  (3931) 
bAla_2Snaphth1ylmethyl

>  <PQ_SYMBOL>  (3931) 
bAla_2Snaphth1ylmethyl

>  <FULL_NAME>  (3931) 
(S)-3-Amino-2-(naphthalen-1-ylmethyl)propanoic acid

>  <IUPAC_CONDENSED>  (3931) 
bAla(2S-naphth-1-ylmethyl)

>  <IUPAC>  (3931) 
(2S)-2-(aminomethyl)-3-naphthalen-1-ylpropanoic acid

>  <TYPE>  (3931) 
Backbone

>  <CLASS>  (3931) 
beta

>  <ANALOG>  (3931) 
Phe

>  <MOL_WT>  (3931) 
229.279

>  <LOGP>  (3931) 
2.0418

>  <TPSA>  (3931) 
63.32000000000001

>  <POPULARITY>  (3931) 
2.2

>  <PROTECTED>  (3931) 
TRUE

>  <SMILES>  (3931) 
NC[C@H](Cc1(cccc2(ccccc12)))C(=O)O

>  <INCHIKEY>  (3931) 
KJCNFUSUQWTOIN-LBPRGKRZSA-N

$$$$
bAla_2cBu
     RDKit          2D

 10 10  0  0  0  0  0  0  0  0999 V2000
    2.5962   -1.6856    0.0000 N   0  0  0  0  0  0  0  0  0  0  0  0
    1.0980   -1.6135    0.0000 C   0  0  0  0  0  0  0  0  0  0  0  0
    0.4113   -0.2799    0.0000 C   0  0  0  0  0  0  0  0  0  0  0  0
   -1.0870   -0.2078    0.0000 C   0  0  0  0  0  0  0  0  0  0  0  0
   -2.1974   -1.2163    0.0000 C   0  0  0  0  0  0  0  0  0  0  0  0
   -3.2058   -0.1058    0.0000 C   0  0  0  0  0  0  0  0  0  0  0  0
   -2.0954    0.9026    0.0000 C   0  0  0  0  0  0  0  0  0  0  0  0
    1.2229    0.9816    0.0000 C   0  0  0  0  0  0  0  0  0  0  0  0
    0.5362    2.3152    0.0000 O   0  0  0  0  0  0  0  0  0  0  0  0
    2.7211    0.9095    0.0000 O   0  0  0  0  0  0  0  0  0  0  0  0
  1  2  1  0
  2  3  1  0
  3  4  1  0
  4  5  1  0
  5  6  1  0
  6  7  1  0
  3  8  1  0
  8  9  2  0
  8 10  1  0
  7  4  1  0
M  END
>  <rName>  (3932) 
bAla_2cBu

>  <PQ_SYMBOL>  (3932) 
bAla_2cBu

>  <FULL_NAME>  (3932) 
3-Amino-2-cyclobutylpropanoic acid

>  <IUPAC_CONDENSED>  (3932) 
bAla(2-cBu)

>  <IUPAC>  (3932) 
3-amino-2-cyclobutylpropanoic acid

>  <TYPE>  (3932) 
Backbone

>  <CLASS>  (3932) 
beta

>  <ANALOG>  (3932) 
X

>  <MOL_WT>  (3932) 
143.186

>  <LOGP>  (3932) 
0.4460000000000001

>  <TPSA>  (3932) 
63.32000000000001

>  <POPULARITY>  (3932) 
5.3

>  <PROTECTED>  (3932) 
TRUE

>  <SMILES>  (3932) 
NCC(C1(CCC1))C(=O)O

>  <INCHIKEY>  (3932) 
OBOXWJPGIYSPDW-UHFFFAOYSA-N

$$$$
bAla_2cPr
     RDKit          2D

  9  9  0  0  0  0  0  0  0  0999 V2000
    2.3383   -1.6369    0.0000 N   0  0  0  0  0  0  0  0  0  0  0  0
    0.8386   -1.6056    0.0000 C   0  0  0  0  0  0  0  0  0  0  0  0
    0.1159   -0.2912    0.0000 C   0  0  0  0  0  0  0  0  0  0  0  0
   -1.3837   -0.2598    0.0000 C   0  0  0  0  0  0  0  0  0  0  0  0
   -2.6668    0.5172    0.0000 C   0  0  0  0  0  0  0  0  0  0  0  0
   -2.6981   -0.9825    0.0000 C   0  0  0  0  0  0  0  0  0  0  0  0
    0.8929    0.9919    0.0000 C   0  0  0  0  0  0  0  0  0  0  0  0
    0.1702    2.3063    0.0000 O   0  0  0  0  0  0  0  0  0  0  0  0
    2.3926    0.9606    0.0000 O   0  0  0  0  0  0  0  0  0  0  0  0
  1  2  1  0
  2  3  1  0
  3  4  1  0
  4  5  1  0
  5  6  1  0
  3  7  1  0
  7  8  2  0
  7  9  1  0
  6  4  1  0
M  END
>  <rName>  (3933) 
bAla_2cPr

>  <PQ_SYMBOL>  (3933) 
bAla_2cPr

>  <FULL_NAME>  (3933) 
3-Amino-2-cyclopropylpropanoic acid

>  <IUPAC_CONDENSED>  (3933) 
bAla(2-cPr)

>  <IUPAC>  (3933) 
3-amino-2-cyclopropylpropanoic acid

>  <TYPE>  (3933) 
Backbone

>  <CLASS>  (3933) 
beta

>  <ANALOG>  (3933) 
X

>  <MOL_WT>  (3933) 
129.15900000000002

>  <LOGP>  (3933) 
0.05590000000000023

>  <TPSA>  (3933) 
63.32000000000001

>  <POPULARITY>  (3933) 
6.2

>  <PROTECTED>  (3933) 
TRUE

>  <SMILES>  (3933) 
NCC(C1(CC1))C(=O)O

>  <INCHIKEY>  (3933) 
GWSRYTJGJLAQJM-UHFFFAOYSA-N

$$$$
bAla_2iBu
     RDKit          2D

 10  9  0  0  0  0  0  0  0  0999 V2000
    3.1802    0.8418    0.0000 N   0  0  0  0  0  0  0  0  0  0  0  0
    1.8138    1.4604    0.0000 C   0  0  0  0  0  0  0  0  0  0  0  0
    0.5948    0.5863    0.0000 C   0  0  0  0  0  0  0  0  0  0  0  0
   -0.7717    1.2050    0.0000 C   0  0  0  0  0  0  0  0  0  0  0  0
   -1.9907    0.3309    0.0000 C   0  0  0  0  0  0  0  0  0  0  0  0
   -3.3572    0.9495    0.0000 C   0  0  0  0  0  0  0  0  0  0  0  0
   -1.8433   -1.1619    0.0000 C   0  0  0  0  0  0  0  0  0  0  0  0
    0.7422   -0.9064    0.0000 C   0  0  0  0  0  0  0  0  0  0  0  0
   -0.4768   -1.7805    0.0000 O   0  0  0  0  0  0  0  0  0  0  0  0
    2.1087   -1.5251    0.0000 O   0  0  0  0  0  0  0  0  0  0  0  0
  1  2  1  0
  2  3  1  0
  3  4  1  0
  4  5  1  0
  5  6  1  0
  5  7  1  0
  3  8  1  0
  8  9  2  0
  8 10  1  0
M  END
>  <rName>  (3934) 
bAla_2iBu

>  <PQ_SYMBOL>  (3934) 
bAla_2iBu

>  <FULL_NAME>  (3934) 
2-(Aminomethyl)-4-methylpentanoic acid

>  <IUPAC_CONDENSED>  (3934) 
bAla(2-iBu)

>  <IUPAC>  (3934) 
2-(aminomethyl)-4-methylpentanoic acid

>  <TYPE>  (3934) 
Backbone

>  <CLASS>  (3934) 
beta

>  <ANALOG>  (3934) 
Leu

>  <MOL_WT>  (3934) 
145.202

>  <LOGP>  (3934) 
0.6920000000000002

>  <TPSA>  (3934) 
63.32000000000001

>  <POPULARITY>  (3934) 
14.0

>  <PROTECTED>  (3934) 
TRUE

>  <SMILES>  (3934) 
NCC(CC(C)C)C(=O)O

>  <INCHIKEY>  (3934) 
IAXQYBCPMFDMOJ-UHFFFAOYSA-N

$$$$
bAla_2iPr
     RDKit          2D

  9  8  0  0  0  0  0  0  0  0999 V2000
    2.2500   -1.5877    0.0000 N   0  0  0  0  0  0  0  0  0  0  0  0
    0.7500   -1.5877    0.0000 C   0  0  0  0  0  0  0  0  0  0  0  0
   -0.0000   -0.2887    0.0000 C   0  0  0  0  0  0  0  0  0  0  0  0
   -1.5000   -0.2887    0.0000 C   0  0  0  0  0  0  0  0  0  0  0  0
   -2.2500    1.0104    0.0000 C   0  0  0  0  0  0  0  0  0  0  0  0
   -2.2500   -1.5877    0.0000 C   0  0  0  0  0  0  0  0  0  0  0  0
    0.7500    1.0104    0.0000 C   0  0  0  0  0  0  0  0  0  0  0  0
    0.0000    2.3094    0.0000 O   0  0  0  0  0  0  0  0  0  0  0  0
    2.2500    1.0104    0.0000 O   0  0  0  0  0  0  0  0  0  0  0  0
  1  2  1  0
  2  3  1  0
  3  4  1  0
  4  5  1  0
  4  6  1  0
  3  7  1  0
  7  8  2  0
  7  9  1  0
M  END
>  <rName>  (3935) 
bAla_2iPr

>  <PQ_SYMBOL>  (3935) 
bAla_2iPr

>  <FULL_NAME>  (3935) 
2-(Aminomethyl)-3-methylbutanoic acid

>  <IUPAC_CONDENSED>  (3935) 
bAla(2-iPr)

>  <IUPAC>  (3935) 
2-(aminomethyl)-3-methylbutanoic acid

>  <TYPE>  (3935) 
Backbone

>  <CLASS>  (3935) 
beta

>  <ANALOG>  (3935) 
Val

>  <MOL_WT>  (3935) 
131.175

>  <LOGP>  (3935) 
0.3019000000000002

>  <TPSA>  (3935) 
63.32000000000001

>  <POPULARITY>  (3935) 
14.4

>  <PROTECTED>  (3935) 
TRUE

>  <SMILES>  (3935) 
NCC(C(C)C)C(=O)O

>  <INCHIKEY>  (3935) 
UUQYMNPVPQLPID-UHFFFAOYSA-N

$$$$
bAla_2iPr_3Me
     RDKit          2D

 10  9  0  0  0  0  0  0  0  0999 V2000
   -1.2990    2.2500    0.0000 N   0  0  0  0  0  0  0  0  0  0  0  0
   -1.2990    0.7500    0.0000 C   0  0  0  0  0  0  0  0  0  0  0  0
   -2.5981    0.0000    0.0000 C   0  0  0  0  0  0  0  0  0  0  0  0
    0.0000   -0.0000    0.0000 C   0  0  0  0  0  0  0  0  0  0  0  0
    1.2990    0.7500    0.0000 C   0  0  0  0  0  0  0  0  0  0  0  0
    2.5981   -0.0000    0.0000 C   0  0  0  0  0  0  0  0  0  0  0  0
    1.2990    2.2500    0.0000 C   0  0  0  0  0  0  0  0  0  0  0  0
    0.0000   -1.5000    0.0000 C   0  0  0  0  0  0  0  0  0  0  0  0
   -1.2990   -2.2500    0.0000 O   0  0  0  0  0  0  0  0  0  0  0  0
    1.2990   -2.2500    0.0000 O   0  0  0  0  0  0  0  0  0  0  0  0
  1  2  1  0
  2  3  1  0
  2  4  1  0
  4  5  1  0
  5  6  1  0
  5  7  1  0
  4  8  1  0
  8  9  2  0
  8 10  1  0
M  END
>  <rName>  (3936) 
bAla_2iPr_3Me

>  <PQ_SYMBOL>  (3936) 
bAla_2iPr_3Me

>  <FULL_NAME>  (3936) 
3-Amino-2-(propan-2-yl)butanoic acid

>  <IUPAC_CONDENSED>  (3936) 
bAla(2-iPr,3-Me)

>  <IUPAC>  (3936) 
3-amino-2-(propan-2-yl)butanoic acid

>  <TYPE>  (3936) 
Backbone

>  <CLASS>  (3936) 
beta

>  <ANALOG>  (3936) 
Val

>  <MOL_WT>  (3936) 
145.202

>  <LOGP>  (3936) 
0.6903999999999999

>  <TPSA>  (3936) 
63.32000000000001

>  <POPULARITY>  (3936) 
12.6

>  <PROTECTED>  (3936) 
TRUE

>  <SMILES>  (3936) 
NC(C)C(C(C)C)C(=O)O

>  <INCHIKEY>  (3936) 
PHTPILSMVCRNAS-UHFFFAOYSA-N

$$$$
bAla_2indol3yl
     RDKit          2D

 15 16  0  0  0  0  0  0  0  0999 V2000
   -4.3225   -0.6538    0.0000 N   0  0  0  0  0  0  0  0  0  0  0  0
   -2.9322   -1.2167    0.0000 C   0  0  0  0  0  0  0  0  0  0  0  0
   -1.7495   -0.2941    0.0000 C   0  0  0  0  0  0  0  0  0  0  0  0
   -0.3591   -0.8571    0.0000 C   0  0  0  0  0  0  0  0  0  0  0  0
    0.0027   -2.3128    0.0000 C   0  0  0  0  0  0  0  0  0  0  0  0
    1.4989   -2.4185    0.0000 N   0  0  0  0  0  0  0  0  0  0  0  0
    2.0619   -1.0282    0.0000 C   0  0  0  0  0  0  0  0  0  0  0  0
    3.4718   -0.5162    0.0000 C   0  0  0  0  0  0  0  0  0  0  0  0
    3.7334    0.9608    0.0000 C   0  0  0  0  0  0  0  0  0  0  0  0
    2.5850    1.9259    0.0000 C   0  0  0  0  0  0  0  0  0  0  0  0
    1.1751    1.4139    0.0000 C   0  0  0  0  0  0  0  0  0  0  0  0
    0.9135   -0.0631    0.0000 C   0  0  0  0  0  0  0  0  0  0  0  0
   -1.9571    1.1914    0.0000 C   0  0  0  0  0  0  0  0  0  0  0  0
   -0.7744    2.1141    0.0000 O   0  0  0  0  0  0  0  0  0  0  0  0
   -3.3475    1.7544    0.0000 O   0  0  0  0  0  0  0  0  0  0  0  0
  1  2  1  0
  2  3  1  0
  3  4  1  0
  4  5  2  0
  5  6  1  0
  6  7  1  0
  7  8  2  0
  8  9  1  0
  9 10  2  0
 10 11  1  0
 11 12  2  0
  3 13  1  0
 13 14  2  0
 13 15  1  0
 12  4  1  0
 12  7  1  0
M  END
>  <rName>  (3937) 
bAla_2indol3yl

>  <PQ_SYMBOL>  (3937) 
bAla_2indol3yl

>  <FULL_NAME>  (3937) 
3-amino-2-(1H-indol-3-yl)propanoic acid

>  <IUPAC_CONDENSED>  (3937) 
bAla(2-indol-3-yl)

>  <IUPAC>  (3937) 
3-amino-2-(1H-indol-3-yl)propanoic acid

>  <TYPE>  (3937) 
Backbone

>  <CLASS>  (3937) 
beta

>  <ANALOG>  (3937) 
X

>  <MOL_WT>  (3937) 
204.22899999999998

>  <LOGP>  (3937) 
1.2948

>  <TPSA>  (3937) 
79.11

>  <POPULARITY>  (3937) 
7.0

>  <PROTECTED>  (3937) 
TRUE

>  <SMILES>  (3937) 
NCC(c1(c[nH]c2(ccccc12)))C(=O)O

>  <INCHIKEY>  (3937) 
PVUWKCFXEZIILU-UHFFFAOYSA-N

$$$$
bAla_2naphth1yl
     RDKit          2D

 16 17  0  0  0  0  0  0  0  0999 V2000
   -4.3474   -0.5750    0.0000 N   0  0  0  0  0  0  0  0  0  0  0  0
   -2.9738   -1.1777    0.0000 C   0  0  0  0  0  0  0  0  0  0  0  0
   -1.7651   -0.2895    0.0000 C   0  0  0  0  0  0  0  0  0  0  0  0
   -0.3915   -0.8922    0.0000 C   0  0  0  0  0  0  0  0  0  0  0  0
   -0.2266   -2.3831    0.0000 C   0  0  0  0  0  0  0  0  0  0  0  0
    1.1470   -2.9858    0.0000 C   0  0  0  0  0  0  0  0  0  0  0  0
    2.3557   -2.0976    0.0000 C   0  0  0  0  0  0  0  0  0  0  0  0
    2.1909   -0.6067    0.0000 C   0  0  0  0  0  0  0  0  0  0  0  0
    3.3996    0.2816    0.0000 C   0  0  0  0  0  0  0  0  0  0  0  0
    3.2348    1.7725    0.0000 C   0  0  0  0  0  0  0  0  0  0  0  0
    1.8612    2.3752    0.0000 C   0  0  0  0  0  0  0  0  0  0  0  0
    0.6524    1.4870    0.0000 C   0  0  0  0  0  0  0  0  0  0  0  0
    0.8173   -0.0040    0.0000 C   0  0  0  0  0  0  0  0  0  0  0  0
   -1.9299    1.2014    0.0000 C   0  0  0  0  0  0  0  0  0  0  0  0
   -0.7212    2.0897    0.0000 O   0  0  0  0  0  0  0  0  0  0  0  0
   -3.3035    1.8041    0.0000 O   0  0  0  0  0  0  0  0  0  0  0  0
  1  2  1  0
  2  3  1  0
  3  4  1  0
  4  5  2  0
  5  6  1  0
  6  7  2  0
  7  8  1  0
  8  9  2  0
  9 10  1  0
 10 11  2  0
 11 12  1  0
 12 13  2  0
  3 14  1  0
 14 15  2  0
 14 16  1  0
 13  8  1  0
 13  4  1  0
M  END
>  <rName>  (3938) 
bAla_2naphth1yl

>  <PQ_SYMBOL>  (3938) 
bAla_2naphth1yl

>  <FULL_NAME>  (3938) 
3-amino-2-(naphthalen-1-yl)propanoic acid

>  <IUPAC_CONDENSED>  (3938) 
bAla(2-naphth-1-yl)

>  <IUPAC>  (3938) 
3-amino-2-(naphthalen-1-yl)propanoic acid

>  <TYPE>  (3938) 
Backbone

>  <CLASS>  (3938) 
beta

>  <ANALOG>  (3938) 
X

>  <MOL_WT>  (3938) 
215.25199999999998

>  <LOGP>  (3938) 
1.9667000000000001

>  <TPSA>  (3938) 
63.32000000000001

>  <POPULARITY>  (3938) 
6.7

>  <PROTECTED>  (3938) 
TRUE

>  <SMILES>  (3938) 
NCC(c2(cccc1(ccccc12)))C(=O)O

>  <INCHIKEY>  (3938) 
ZWJNCOMXRFGWCT-UHFFFAOYSA-N

$$$$
bAla_2naphth2yl
     RDKit          2D

 16 17  0  0  0  0  0  0  0  0999 V2000
   -4.0404    2.1493    0.0000 N   0  0  0  0  0  0  0  0  0  0  0  0
   -2.5894    1.7692    0.0000 C   0  0  0  0  0  0  0  0  0  0  0  0
   -2.1930    0.3226    0.0000 C   0  0  0  0  0  0  0  0  0  0  0  0
   -0.7419   -0.0575    0.0000 C   0  0  0  0  0  0  0  0  0  0  0  0
   -0.3455   -1.5042    0.0000 C   0  0  0  0  0  0  0  0  0  0  0  0
    1.1056   -1.8842    0.0000 C   0  0  0  0  0  0  0  0  0  0  0  0
    2.1602   -0.8176    0.0000 C   0  0  0  0  0  0  0  0  0  0  0  0
    3.6113   -1.1976    0.0000 C   0  0  0  0  0  0  0  0  0  0  0  0
    4.6659   -0.1310    0.0000 C   0  0  0  0  0  0  0  0  0  0  0  0
    4.2695    1.3157    0.0000 C   0  0  0  0  0  0  0  0  0  0  0  0
    2.8185    1.6957    0.0000 C   0  0  0  0  0  0  0  0  0  0  0  0
    1.7638    0.6291    0.0000 C   0  0  0  0  0  0  0  0  0  0  0  0
    0.3128    1.0092    0.0000 C   0  0  0  0  0  0  0  0  0  0  0  0
   -3.2476   -0.7441    0.0000 C   0  0  0  0  0  0  0  0  0  0  0  0
   -2.8512   -2.1907    0.0000 O   0  0  0  0  0  0  0  0  0  0  0  0
   -4.6987   -0.3640    0.0000 O   0  0  0  0  0  0  0  0  0  0  0  0
  1  2  1  0
  2  3  1  0
  3  4  1  0
  4  5  1  0
  5  6  2  0
  6  7  1  0
  7  8  2  0
  8  9  1  0
  9 10  2  0
 10 11  1  0
 11 12  2  0
 12 13  1  0
  3 14  1  0
 14 15  2  0
 14 16  1  0
 12  7  1  0
 13  4  2  0
M  END
>  <rName>  (3939) 
bAla_2naphth2yl

>  <PQ_SYMBOL>  (3939) 
bAla_2naphth2yl

>  <FULL_NAME>  (3939) 
3-amino-2-(naphthalen-2-yl)propanoic acid

>  <IUPAC_CONDENSED>  (3939) 
bAla(2-naphth-2-yl)

>  <IUPAC>  (3939) 
3-amino-2-(naphthalen-2-yl)propanoic acid

>  <TYPE>  (3939) 
Backbone

>  <CLASS>  (3939) 
beta

>  <ANALOG>  (3939) 
X

>  <MOL_WT>  (3939) 
215.25199999999998

>  <LOGP>  (3939) 
1.9667000000000001

>  <TPSA>  (3939) 
63.32000000000001

>  <POPULARITY>  (3939) 
5.4

>  <PROTECTED>  (3939) 
TRUE

>  <SMILES>  (3939) 
NCC(c2(ccc1(ccccc1c2)))C(=O)O

>  <INCHIKEY>  (3939) 
XEFMMAOXYIOPSX-UHFFFAOYSA-N

$$$$
bAla_2naphth2ylmethyl
     RDKit          2D

 17 18  0  0  0  0  0  0  0  0999 V2000
   -5.2775    0.4802    0.0000 N   0  0  0  0  0  0  0  0  0  0  0  0
   -4.3164   -0.6714    0.0000 C   0  0  0  0  0  0  0  0  0  0  0  0
   -2.8385   -0.4150    0.0000 C   0  0  0  0  0  0  0  0  0  0  0  0
   -1.8774   -1.5667    0.0000 C   0  0  0  0  0  0  0  0  0  0  0  0
   -0.3995   -1.3102    0.0000 C   0  0  0  0  0  0  0  0  0  0  0  0
    0.5615   -2.4619    0.0000 C   0  0  0  0  0  0  0  0  0  0  0  0
    2.0394   -2.2054    0.0000 C   0  0  0  0  0  0  0  0  0  0  0  0
    2.5563   -0.7973    0.0000 C   0  0  0  0  0  0  0  0  0  0  0  0
    4.0342   -0.5409    0.0000 C   0  0  0  0  0  0  0  0  0  0  0  0
    4.5511    0.8673    0.0000 C   0  0  0  0  0  0  0  0  0  0  0  0
    3.5900    2.0190    0.0000 C   0  0  0  0  0  0  0  0  0  0  0  0
    2.1121    1.7625    0.0000 C   0  0  0  0  0  0  0  0  0  0  0  0
    1.5953    0.3544    0.0000 C   0  0  0  0  0  0  0  0  0  0  0  0
    0.1173    0.0979    0.0000 C   0  0  0  0  0  0  0  0  0  0  0  0
   -2.3216    0.9931    0.0000 C   0  0  0  0  0  0  0  0  0  0  0  0
   -0.8437    1.2496    0.0000 O   0  0  0  0  0  0  0  0  0  0  0  0
   -3.2827    2.1448    0.0000 O   0  0  0  0  0  0  0  0  0  0  0  0
  1  2  1  0
  2  3  1  0
  3  4  1  0
  4  5  1  0
  5  6  1  0
  6  7  2  0
  7  8  1  0
  8  9  2  0
  9 10  1  0
 10 11  2  0
 11 12  1  0
 12 13  2  0
 13 14  1  0
  3 15  1  0
 15 16  2  0
 15 17  1  0
 13  8  1  0
 14  5  2  0
M  END
>  <rName>  (3940) 
bAla_2naphth2ylmethyl

>  <PQ_SYMBOL>  (3940) 
bAla_2naphth2ylmethyl

>  <FULL_NAME>  (3940) 
2-Aminomethyl-3-naphthalen-2-YL-propionic acid

>  <IUPAC_CONDENSED>  (3940) 
bAla(2-naphth-2-ylmethyl)

>  <IUPAC>  (3940) 
3-amino-2-((naphthalen-2-yl)methyl)propanoic acid

>  <TYPE>  (3940) 
Backbone

>  <CLASS>  (3940) 
beta

>  <ANALOG>  (3940) 
Phe

>  <MOL_WT>  (3940) 
229.279

>  <LOGP>  (3940) 
2.0418

>  <TPSA>  (3940) 
63.32000000000001

>  <POPULARITY>  (3940) 
5.9

>  <PROTECTED>  (3940) 
TRUE

>  <SMILES>  (3940) 
NCC(Cc2(ccc1(ccccc1c2)))C(=O)O

>  <INCHIKEY>  (3940) 
VGGPAIUIZHYAIQ-UHFFFAOYSA-N

$$$$
bAla_2pyrid2ylmethyl
     RDKit          2D

 13 13  0  0  0  0  0  0  0  0999 V2000
   -4.2270   -0.4748    0.0000 N   0  0  0  0  0  0  0  0  0  0  0  0
   -2.9684   -1.2908    0.0000 C   0  0  0  0  0  0  0  0  0  0  0  0
   -1.6324   -0.6089    0.0000 C   0  0  0  0  0  0  0  0  0  0  0  0
   -0.3738   -1.4249    0.0000 C   0  0  0  0  0  0  0  0  0  0  0  0
    0.9622   -0.7430    0.0000 C   0  0  0  0  0  0  0  0  0  0  0  0
    1.0396    0.7550    0.0000 C   0  0  0  0  0  0  0  0  0  0  0  0
    2.3756    1.4370    0.0000 C   0  0  0  0  0  0  0  0  0  0  0  0
    3.6342    0.6210    0.0000 C   0  0  0  0  0  0  0  0  0  0  0  0
    3.5568   -0.8770    0.0000 C   0  0  0  0  0  0  0  0  0  0  0  0
    2.2208   -1.5590    0.0000 N   0  0  0  0  0  0  0  0  0  0  0  0
   -1.5550    0.8891    0.0000 C   0  0  0  0  0  0  0  0  0  0  0  0
   -0.2190    1.5711    0.0000 O   0  0  0  0  0  0  0  0  0  0  0  0
   -2.8136    1.7052    0.0000 O   0  0  0  0  0  0  0  0  0  0  0  0
  1  2  1  0
  2  3  1  0
  3  4  1  0
  4  5  1  0
  5  6  2  0
  6  7  1  0
  7  8  2  0
  8  9  1  0
  9 10  2  0
  3 11  1  0
 11 12  2  0
 11 13  1  0
 10  5  1  0
M  END
>  <rName>  (3941) 
bAla_2pyrid2ylmethyl

>  <PQ_SYMBOL>  (3941) 
bAla_2pyrid2ylmethyl

>  <FULL_NAME>  (3941) 
3-Amino-2-(pyridin-2-ylmethyl)propanoic acid

>  <IUPAC_CONDENSED>  (3941) 
bAla(2-pyrid-2-ylmethyl)

>  <IUPAC>  (3941) 
3-amino-2-((pyridin-2-yl)methyl)propanoic acid

>  <TYPE>  (3941) 
Backbone

>  <CLASS>  (3941) 
beta

>  <ANALOG>  (3941) 
Phe

>  <MOL_WT>  (3941) 
180.20699999999997

>  <LOGP>  (3941) 
0.2835999999999996

>  <TPSA>  (3941) 
76.21

>  <POPULARITY>  (3941) 
7.0

>  <PROTECTED>  (3941) 
TRUE

>  <SMILES>  (3941) 
NCC(Cc1(ccccn1))C(=O)O

>  <INCHIKEY>  (3941) 
WEBYBDCSISVJNL-UHFFFAOYSA-N

$$$$
bAla_33piperidyl
     RDKit          2D

 12 12  0  0  0  0  0  0  0  0999 V2000
   -1.0786   -1.8814    0.0000 N   0  0  0  0  0  0  0  0  0  0  0  0
   -0.6074   -0.4573    0.0000 C   0  0  0  0  0  0  0  0  0  0  0  0
    0.8615   -0.1534    0.0000 C   0  0  0  0  0  0  0  0  0  0  0  0
    1.3327    1.2707    0.0000 C   0  0  0  0  0  0  0  0  0  0  0  0
    2.8016    1.5746    0.0000 C   0  0  0  0  0  0  0  0  0  0  0  0
    3.7992    0.4545    0.0000 C   0  0  0  0  0  0  0  0  0  0  0  0
    3.3280   -0.9696    0.0000 N   0  0  0  0  0  0  0  0  0  0  0  0
    1.8591   -1.2735    0.0000 C   0  0  0  0  0  0  0  0  0  0  0  0
   -1.6051    0.6628    0.0000 C   0  0  0  0  0  0  0  0  0  0  0  0
   -3.0740    0.3588    0.0000 C   0  0  0  0  0  0  0  0  0  0  0  0
   -3.5452   -1.0652    0.0000 O   0  0  0  0  0  0  0  0  0  0  0  0
   -4.0716    1.4790    0.0000 O   0  0  0  0  0  0  0  0  0  0  0  0
  1  2  1  0
  2  3  1  0
  3  4  1  0
  4  5  1  0
  5  6  1  0
  6  7  1  0
  7  8  1  0
  2  9  1  0
  9 10  1  0
 10 11  2  0
 10 12  1  0
  8  3  1  0
M  END
>  <rName>  (3942) 
bAla_33piperidyl

>  <PQ_SYMBOL>  (3942) 
bAla_33piperidyl

>  <FULL_NAME>  (3942) 
3-amino-3-(piperidin-3-yl)propanoic acid

>  <IUPAC_CONDENSED>  (3942) 
bAla(3-3-piperidyl)

>  <IUPAC>  (3942) 
3-amino-3-(piperidin-3-yl)propanoic acid

>  <TYPE>  (3942) 
Backbone

>  <CLASS>  (3942) 
beta

>  <ANALOG>  (3942) 
X

>  <MOL_WT>  (3942) 
172.228

>  <LOGP>  (3942) 
-0.21200000000000047

>  <TPSA>  (3942) 
75.35

>  <POPULARITY>  (3942) 
6.3

>  <PROTECTED>  (3942) 
TRUE

>  <SMILES>  (3942) 
NC(C1(CCCNC1))CC(=O)O

>  <INCHIKEY>  (3942) 
FCSMSPXYPGWLDU-UHFFFAOYSA-N

$$$$
bAla_3Bn
     RDKit          2D

 13 13  0  0  0  0  0  0  0  0999 V2000
   -0.9767    1.2065    0.0000 N   0  0  0  0  0  0  0  0  0  0  0  0
   -1.1358   -0.2850    0.0000 C   0  0  0  0  0  0  0  0  0  0  0  0
    0.0764   -1.1685    0.0000 C   0  0  0  0  0  0  0  0  0  0  0  0
    1.4476   -0.5605    0.0000 C   0  0  0  0  0  0  0  0  0  0  0  0
    1.6067    0.9310    0.0000 C   0  0  0  0  0  0  0  0  0  0  0  0
    2.9779    1.5390    0.0000 C   0  0  0  0  0  0  0  0  0  0  0  0
    4.1901    0.6555    0.0000 C   0  0  0  0  0  0  0  0  0  0  0  0
    4.0310   -0.8361    0.0000 C   0  0  0  0  0  0  0  0  0  0  0  0
    2.6598   -1.4441    0.0000 C   0  0  0  0  0  0  0  0  0  0  0  0
   -2.5071   -0.8930    0.0000 C   0  0  0  0  0  0  0  0  0  0  0  0
   -3.7192   -0.0095    0.0000 C   0  0  0  0  0  0  0  0  0  0  0  0
   -3.5602    1.4821    0.0000 O   0  0  0  0  0  0  0  0  0  0  0  0
   -5.0905   -0.6175    0.0000 O   0  0  0  0  0  0  0  0  0  0  0  0
  1  2  1  0
  2  3  1  0
  3  4  1  0
  4  5  2  0
  5  6  1  0
  6  7  2  0
  7  8  1  0
  8  9  2  0
  2 10  1  0
 10 11  1  0
 11 12  2  0
 11 13  1  0
  9  4  1  0
M  END
>  <rName>  (3943) 
bAla_3Bn

>  <PQ_SYMBOL>  (3943) 
bAla_3Bn

>  <FULL_NAME>  (3943) 
3-amino-4-phenylbutanoic acid

>  <IUPAC_CONDENSED>  (3943) 
bAla(3-Bn)

>  <IUPAC>  (3943) 
3-amino-4-phenylbutanoic acid

>  <TYPE>  (3943) 
Backbone

>  <CLASS>  (3943) 
beta

>  <ANALOG>  (3943) 
Phe

>  <MOL_WT>  (3943) 
179.21899999999994

>  <LOGP>  (3943) 
1.0311000000000001

>  <TPSA>  (3943) 
63.32000000000001

>  <POPULARITY>  (3943) 
14.6

>  <PROTECTED>  (3943) 
TRUE

>  <SMILES>  (3943) 
NC(Cc1(ccccc1))CC(=O)O

>  <INCHIKEY>  (3943) 
OFVBLKINTLPEGH-UHFFFAOYSA-N

$$$$
bAla_3Bn_2Me_4F
     RDKit          2D

 15 15  0  0  0  0  0  0  0  0999 V2000
   -4.7046   -0.3112    0.0000 N   0  0  0  0  0  0  0  0  0  0  0  0
   -3.4541   -1.1397    0.0000 C   0  0  0  0  0  0  0  0  0  0  0  0
   -2.1114   -0.4710    0.0000 C   0  0  0  0  0  0  0  0  0  0  0  0
   -0.8610   -1.2995    0.0000 C   0  0  0  0  0  0  0  0  0  0  0  0
    0.4817   -0.6308    0.0000 C   0  0  0  0  0  0  0  0  0  0  0  0
    0.5740    0.8663    0.0000 C   0  0  0  0  0  0  0  0  0  0  0  0
    1.9167    1.5350    0.0000 C   0  0  0  0  0  0  0  0  0  0  0  0
    3.1671    0.7065    0.0000 C   0  0  0  0  0  0  0  0  0  0  0  0
    4.5099    1.3752    0.0000 F   0  0  0  0  0  0  0  0  0  0  0  0
    3.0749   -0.7906    0.0000 C   0  0  0  0  0  0  0  0  0  0  0  0
    1.7322   -1.4593    0.0000 C   0  0  0  0  0  0  0  0  0  0  0  0
    1.6399   -2.9565    0.0000 C   0  0  0  0  0  0  0  0  0  0  0  0
   -2.0192    1.0261    0.0000 C   0  0  0  0  0  0  0  0  0  0  0  0
   -0.6765    1.6948    0.0000 O   0  0  0  0  0  0  0  0  0  0  0  0
   -3.2696    1.8546    0.0000 O   0  0  0  0  0  0  0  0  0  0  0  0
  1  2  1  0
  2  3  1  0
  3  4  1  0
  4  5  1  0
  5  6  1  0
  6  7  2  0
  7  8  1  0
  8  9  1  0
  8 10  2  0
 10 11  1  0
 11 12  1  0
  3 13  1  0
 13 14  2  0
 13 15  1  0
 11  5  2  0
M  END
>  <rName>  (3944) 
bAla_3Bn_2Me_4F

>  <PQ_SYMBOL>  (3944) 
bAla_3Bn_2Me_4F

>  <FULL_NAME>  (3944) 
3-Amino-2-[(4-fluoro-2-methylphenyl)methyl]propanoic acid

>  <IUPAC_CONDENSED>  (3944) 
bAla(3-Bn(2-Me,4-F))

>  <IUPAC>  (3944) 
3-amino-2-((4-fluoro-2-methylphenyl)methyl)propanoic acid

>  <TYPE>  (3944) 
Backbone

>  <CLASS>  (3944) 
beta

>  <ANALOG>  (3944) 
Phe

>  <MOL_WT>  (3944) 
211.236

>  <LOGP>  (3944) 
1.33612

>  <TPSA>  (3944) 
63.32000000000001

>  <POPULARITY>  (3944) 
5.2

>  <PROTECTED>  (3944) 
TRUE

>  <SMILES>  (3944) 
NCC(Cc1(ccc(F)cc1C))C(=O)O

>  <INCHIKEY>  (3944) 
WRVOIFBRJDTRCM-UHFFFAOYSA-N

$$$$
bAla_3Bn_34diOMe
     RDKit          2D

 17 17  0  0  0  0  0  0  0  0999 V2000
   -5.4098   -0.7053    0.0000 N   0  0  0  0  0  0  0  0  0  0  0  0
   -4.0929   -1.4235    0.0000 C   0  0  0  0  0  0  0  0  0  0  0  0
   -2.8125   -0.6421    0.0000 C   0  0  0  0  0  0  0  0  0  0  0  0
   -1.4956   -1.3603    0.0000 C   0  0  0  0  0  0  0  0  0  0  0  0
   -0.2152   -0.5789    0.0000 C   0  0  0  0  0  0  0  0  0  0  0  0
   -0.2517    0.9206    0.0000 C   0  0  0  0  0  0  0  0  0  0  0  0
    1.0287    1.7020    0.0000 C   0  0  0  0  0  0  0  0  0  0  0  0
    2.3456    0.9838    0.0000 C   0  0  0  0  0  0  0  0  0  0  0  0
    3.6260    1.7652    0.0000 O   0  0  0  0  0  0  0  0  0  0  0  0
    4.9429    1.0470    0.0000 C   0  0  0  0  0  0  0  0  0  0  0  0
    2.3821   -0.5157    0.0000 C   0  0  0  0  0  0  0  0  0  0  0  0
    3.6990   -1.2339    0.0000 O   0  0  0  0  0  0  0  0  0  0  0  0
    3.7355   -2.7335    0.0000 C   0  0  0  0  0  0  0  0  0  0  0  0
    1.1017   -1.2971    0.0000 C   0  0  0  0  0  0  0  0  0  0  0  0
   -2.8490    0.8574    0.0000 C   0  0  0  0  0  0  0  0  0  0  0  0
   -1.5686    1.6388    0.0000 O   0  0  0  0  0  0  0  0  0  0  0  0
   -4.1659    1.5756    0.0000 O   0  0  0  0  0  0  0  0  0  0  0  0
  1  2  1  0
  2  3  1  0
  3  4  1  0
  4  5  1  0
  5  6  1  0
  6  7  2  0
  7  8  1  0
  8  9  1  0
  9 10  1  0
  8 11  2  0
 11 12  1  0
 12 13  1  0
 11 14  1  0
  3 15  1  0
 15 16  2  0
 15 17  1  0
 14  5  2  0
M  END
>  <rName>  (3945) 
bAla_3Bn_34diOMe

>  <PQ_SYMBOL>  (3945) 
bAla_3Bn_34diOMe

>  <FULL_NAME>  (3945) 
2-Aminomethyl-3-(3,4-dimethoxy-phenyl)-propionic acid

>  <IUPAC_CONDENSED>  (3945) 
bAla(3-Bn(3,4-diOMe))

>  <IUPAC>  (3945) 
3-amino-2-((3,4-dimethoxyphenyl)methyl)propanoic acid

>  <TYPE>  (3945) 
Backbone

>  <CLASS>  (3945) 
beta

>  <ANALOG>  (3945) 
Tyr

>  <MOL_WT>  (3945) 
239.27099999999996

>  <LOGP>  (3945) 
0.9057999999999997

>  <TPSA>  (3945) 
81.78

>  <POPULARITY>  (3945) 
6.8

>  <PROTECTED>  (3945) 
TRUE

>  <SMILES>  (3945) 
NCC(Cc1(ccc(OC)c(OC)c1))C(=O)O

>  <INCHIKEY>  (3945) 
ILYZSLDASQJSIG-UHFFFAOYSA-N

$$$$
bAla_3Bn_b_bdiMe
     RDKit          2D

 15 15  0  0  0  0  0  0  0  0999 V2000
   -0.2428    1.8086    0.0000 N   0  0  0  0  0  0  0  0  0  0  0  0
   -0.6973    0.3791    0.0000 C   0  0  0  0  0  0  0  0  0  0  0  0
    0.3134   -0.7292    0.0000 C   0  0  0  0  0  0  0  0  0  0  0  0
    1.7786   -0.4081    0.0000 C   0  0  0  0  0  0  0  0  0  0  0  0
    2.2331    1.0213    0.0000 C   0  0  0  0  0  0  0  0  0  0  0  0
    3.6984    1.3425    0.0000 C   0  0  0  0  0  0  0  0  0  0  0  0
    4.7091    0.2341    0.0000 C   0  0  0  0  0  0  0  0  0  0  0  0
    4.2545   -1.1954    0.0000 C   0  0  0  0  0  0  0  0  0  0  0  0
    2.7893   -1.5165    0.0000 C   0  0  0  0  0  0  0  0  0  0  0  0
   -2.1626    0.0580    0.0000 C   0  0  0  0  0  0  0  0  0  0  0  0
   -1.8414   -1.4072    0.0000 C   0  0  0  0  0  0  0  0  0  0  0  0
   -2.4837    1.5232    0.0000 C   0  0  0  0  0  0  0  0  0  0  0  0
   -3.6278   -0.2631    0.0000 C   0  0  0  0  0  0  0  0  0  0  0  0
   -4.6385    0.8453    0.0000 O   0  0  0  0  0  0  0  0  0  0  0  0
   -4.0823   -1.6926    0.0000 O   0  0  0  0  0  0  0  0  0  0  0  0
  1  2  1  0
  2  3  1  0
  3  4  1  0
  4  5  2  0
  5  6  1  0
  6  7  2  0
  7  8  1  0
  8  9  2  0
  2 10  1  0
 10 11  1  0
 10 12  1  0
 10 13  1  0
 13 14  2  0
 13 15  1  0
  9  4  1  0
M  END
>  <rName>  (3946) 
bAla_3Bn_b_bdiMe

>  <PQ_SYMBOL>  (3946) 
bAla_3Bn_b_bdiMe

>  <FULL_NAME>  (3946) 
3-Amino-2,2-dimethyl-4-phenylbutanoic acid

>  <IUPAC_CONDENSED>  (3946) 
bAla(3-Bn,b,b-diMe)

>  <IUPAC>  (3946) 
3-amino-2,2-dimethyl-4-phenylbutanoic acid

>  <TYPE>  (3946) 
Backbone

>  <CLASS>  (3946) 
beta

>  <ANALOG>  (3946) 
Phe

>  <MOL_WT>  (3946) 
207.27299999999994

>  <LOGP>  (3946) 
1.6672

>  <TPSA>  (3946) 
63.32000000000001

>  <POPULARITY>  (3946) 
6.7

>  <PROTECTED>  (3946) 
TRUE

>  <SMILES>  (3946) 
NC(Cc1(ccccc1))C(C)(C)C(=O)O

>  <INCHIKEY>  (3946) 
NVSCZVOARLUPNZ-UHFFFAOYSA-N

$$$$
bAla_3Bu
     RDKit          2D

 10  9  0  0  0  0  0  0  0  0999 V2000
   -0.3386    1.4842    0.0000 N   0  0  0  0  0  0  0  0  0  0  0  0
   -0.2594   -0.0137    0.0000 C   0  0  0  0  0  0  0  0  0  0  0  0
    1.0773   -0.6941    0.0000 C   0  0  0  0  0  0  0  0  0  0  0  0
    2.3350    0.1233    0.0000 C   0  0  0  0  0  0  0  0  0  0  0  0
    3.6718   -0.5571    0.0000 C   0  0  0  0  0  0  0  0  0  0  0  0
    4.9295    0.2604    0.0000 C   0  0  0  0  0  0  0  0  0  0  0  0
   -1.5171   -0.8312    0.0000 C   0  0  0  0  0  0  0  0  0  0  0  0
   -2.8539   -0.1507    0.0000 C   0  0  0  0  0  0  0  0  0  0  0  0
   -2.9330    1.3472    0.0000 O   0  0  0  0  0  0  0  0  0  0  0  0
   -4.1116   -0.9682    0.0000 O   0  0  0  0  0  0  0  0  0  0  0  0
  1  2  1  0
  2  3  1  0
  3  4  1  0
  4  5  1  0
  5  6  1  0
  2  7  1  0
  7  8  1  0
  8  9  2  0
  8 10  1  0
M  END
>  <rName>  (3947) 
bAla_3Bu

>  <PQ_SYMBOL>  (3947) 
bAla_3Bu

>  <FULL_NAME>  (3947) 
3-aminoheptanoic acid

>  <IUPAC_CONDENSED>  (3947) 
bAla(3-Bu)

>  <IUPAC>  (3947) 
3-aminoheptanoic acid

>  <TYPE>  (3947) 
Backbone

>  <CLASS>  (3947) 
beta

>  <ANALOG>  (3947) 
Leu

>  <MOL_WT>  (3947) 
145.202

>  <LOGP>  (3947) 
0.9785999999999997

>  <TPSA>  (3947) 
63.32000000000001

>  <POPULARITY>  (3947) 
14.4

>  <PROTECTED>  (3947) 
TRUE

>  <SMILES>  (3947) 
NC(CCCC)CC(=O)O

>  <INCHIKEY>  (3947) 
FUENJGFCFZKXBX-UHFFFAOYSA-N

$$$$
bAla_3CF3
     RDKit          2D

 10  9  0  0  0  0  0  0  0  0999 V2000
   -0.0629   -1.7674    0.0000 N   0  0  0  0  0  0  0  0  0  0  0  0
   -0.3412   -0.2934    0.0000 C   0  0  0  0  0  0  0  0  0  0  0  0
   -1.7568    0.2026    0.0000 C   0  0  0  0  0  0  0  0  0  0  0  0
   -3.1725    0.6986    0.0000 F   0  0  0  0  0  0  0  0  0  0  0  0
   -2.2528   -1.2130    0.0000 F   0  0  0  0  0  0  0  0  0  0  0  0
   -1.2608    1.6182    0.0000 F   0  0  0  0  0  0  0  0  0  0  0  0
    0.7961    0.6846    0.0000 C   0  0  0  0  0  0  0  0  0  0  0  0
    2.2118    0.1886    0.0000 C   0  0  0  0  0  0  0  0  0  0  0  0
    2.4900   -1.2854    0.0000 O   0  0  0  0  0  0  0  0  0  0  0  0
    3.3491    1.1666    0.0000 O   0  0  0  0  0  0  0  0  0  0  0  0
  1  2  1  0
  2  3  1  0
  3  4  1  0
  3  5  1  0
  3  6  1  0
  2  7  1  0
  7  8  1  0
  8  9  2  0
  8 10  1  0
M  END
>  <rName>  (3948) 
bAla_3CF3

>  <PQ_SYMBOL>  (3948) 
bAla_3CF3

>  <FULL_NAME>  (3948) 
3-Amino-4,4,4-trifluorobutyric acid

>  <IUPAC_CONDENSED>  (3948) 
bAla(3-CF3)

>  <IUPAC>  (3948) 
3-amino-4,4,4-trifluorobutanoic acid

>  <TYPE>  (3948) 
Backbone

>  <CLASS>  (3948) 
beta

>  <ANALOG>  (3948) 
X

>  <MOL_WT>  (3948) 
157.091

>  <LOGP>  (3948) 
0.3507

>  <TPSA>  (3948) 
63.32000000000001

>  <POPULARITY>  (3948) 
8.5

>  <PROTECTED>  (3948) 
TRUE

>  <SMILES>  (3948) 
NC(C(F)(F)F)CC(=O)O

>  <INCHIKEY>  (3948) 
XRXQOEWWPPJVII-UHFFFAOYSA-N

$$$$
bAla_3Et
     RDKit          2D

  8  7  0  0  0  0  0  0  0  0999 V2000
    0.7931    1.4169    0.0000 N   0  0  0  0  0  0  0  0  0  0  0  0
    0.8131   -0.0829    0.0000 C   0  0  0  0  0  0  0  0  0  0  0  0
    2.1220   -0.8156    0.0000 C   0  0  0  0  0  0  0  0  0  0  0  0
    3.4109   -0.0483    0.0000 C   0  0  0  0  0  0  0  0  0  0  0  0
   -0.4759   -0.8502    0.0000 C   0  0  0  0  0  0  0  0  0  0  0  0
   -1.7848   -0.1175    0.0000 C   0  0  0  0  0  0  0  0  0  0  0  0
   -1.8048    1.3823    0.0000 O   0  0  0  0  0  0  0  0  0  0  0  0
   -3.0737   -0.8848    0.0000 O   0  0  0  0  0  0  0  0  0  0  0  0
  1  2  1  0
  2  3  1  0
  3  4  1  0
  2  5  1  0
  5  6  1  0
  6  7  2  0
  6  8  1  0
M  END
>  <rName>  (3949) 
bAla_3Et

>  <PQ_SYMBOL>  (3949) 
bAla_3Et

>  <FULL_NAME>  (3949) 
3-Aminopentanoic acid

>  <IUPAC_CONDENSED>  (3949) 
bAla(3-Et)

>  <IUPAC>  (3949) 
3-aminopentanoic acid

>  <TYPE>  (3949) 
Backbone

>  <CLASS>  (3949) 
beta

>  <ANALOG>  (3949) 
Ala

>  <MOL_WT>  (3949) 
117.14799999999998

>  <LOGP>  (3949) 
0.19839999999999985

>  <TPSA>  (3949) 
63.32000000000001

>  <POPULARITY>  (3949) 
15.8

>  <PROTECTED>  (3949) 
TRUE

>  <SMILES>  (3949) 
NC(CC)CC(=O)O

>  <INCHIKEY>  (3949) 
QFRURJKLPJVRQY-UHFFFAOYSA-N

$$$$
bAla_3EtPh
     RDKit          2D

 14 14  0  0  0  0  0  0  0  0999 V2000
   -2.1732   -1.6585    0.0000 N   0  0  0  0  0  0  0  0  0  0  0  0
   -1.8487   -0.1940    0.0000 C   0  0  0  0  0  0  0  0  0  0  0  0
   -0.4182    0.2573    0.0000 C   0  0  0  0  0  0  0  0  0  0  0  0
    0.6879   -0.7560    0.0000 C   0  0  0  0  0  0  0  0  0  0  0  0
    2.1184   -0.3047    0.0000 C   0  0  0  0  0  0  0  0  0  0  0  0
    2.4428    1.1598    0.0000 C   0  0  0  0  0  0  0  0  0  0  0  0
    3.8734    1.6110    0.0000 C   0  0  0  0  0  0  0  0  0  0  0  0
    4.9794    0.5978    0.0000 C   0  0  0  0  0  0  0  0  0  0  0  0
    4.6549   -0.8667    0.0000 C   0  0  0  0  0  0  0  0  0  0  0  0
    3.2244   -1.3180    0.0000 C   0  0  0  0  0  0  0  0  0  0  0  0
   -2.9548    0.8193    0.0000 C   0  0  0  0  0  0  0  0  0  0  0  0
   -4.3853    0.3680    0.0000 C   0  0  0  0  0  0  0  0  0  0  0  0
   -4.7097   -1.0965    0.0000 O   0  0  0  0  0  0  0  0  0  0  0  0
   -5.4913    1.3812    0.0000 O   0  0  0  0  0  0  0  0  0  0  0  0
  1  2  1  0
  2  3  1  0
  3  4  1  0
  4  5  1  0
  5  6  2  0
  6  7  1  0
  7  8  2  0
  8  9  1  0
  9 10  2  0
  2 11  1  0
 11 12  1  0
 12 13  2  0
 12 14  1  0
 10  5  1  0
M  END
>  <rName>  (3950) 
bAla_3EtPh

>  <PQ_SYMBOL>  (3950) 
bAla_3EtPh

>  <FULL_NAME>  (3950) 
3-Amino-5-phenylpentanoic acid

>  <IUPAC_CONDENSED>  (3950) 
bAla(3-EtPh)

>  <IUPAC>  (3950) 
3-amino-5-phenylpentanoic acid

>  <TYPE>  (3950) 
Backbone

>  <CLASS>  (3950) 
beta

>  <ANALOG>  (3950) 
Phe

>  <MOL_WT>  (3950) 
193.24599999999995

>  <LOGP>  (3950) 
1.4211999999999998

>  <TPSA>  (3950) 
63.32000000000001

>  <POPULARITY>  (3950) 
8.2

>  <PROTECTED>  (3950) 
TRUE

>  <SMILES>  (3950) 
NC(CCc1(ccccc1))CC(=O)O

>  <INCHIKEY>  (3950) 
CJJYCYZKUNRKFP-UHFFFAOYSA-N

$$$$
bAla_3Me
     RDKit          2D

  7  6  0  0  0  0  0  0  0  0999 V2000
   -1.2990    1.3929    0.0000 N   0  0  0  0  0  0  0  0  0  0  0  0
   -1.2990   -0.1071    0.0000 C   0  0  0  0  0  0  0  0  0  0  0  0
   -2.5981   -0.8571    0.0000 C   0  0  0  0  0  0  0  0  0  0  0  0
    0.0000   -0.8571    0.0000 C   0  0  0  0  0  0  0  0  0  0  0  0
    1.2990   -0.1071    0.0000 C   0  0  0  0  0  0  0  0  0  0  0  0
    1.2990    1.3929    0.0000 O   0  0  0  0  0  0  0  0  0  0  0  0
    2.5981   -0.8571    0.0000 O   0  0  0  0  0  0  0  0  0  0  0  0
  1  2  1  0
  2  3  1  0
  2  4  1  0
  4  5  1  0
  5  6  2  0
  5  7  1  0
M  END
>  <rName>  (3951) 
bAla_3Me

>  <PQ_SYMBOL>  (3951) 
bAla_3Me

>  <FULL_NAME>  (3951) 
Beta-Aminobutyric Acid

>  <IUPAC_CONDENSED>  (3951) 
bAla(3-Me)

>  <IUPAC>  (3951) 
3-aminobutanoic acid

>  <TYPE>  (3951) 
Backbone

>  <CLASS>  (3951) 
beta

>  <ANALOG>  (3951) 
Ala

>  <MOL_WT>  (3951) 
103.12099999999998

>  <LOGP>  (3951) 
-0.19170000000000004

>  <TPSA>  (3951) 
63.32000000000001

>  <POPULARITY>  (3951) 
15.9

>  <PROTECTED>  (3951) 
TRUE

>  <SMILES>  (3951) 
NC(C)CC(=O)O

>  <INCHIKEY>  (3951) 
OQEBBZSWEGYTPG-UHFFFAOYSA-N

$$$$
bAla_3Me_3Ph
     RDKit          2D

 13 13  0  0  0  0  0  0  0  0999 V2000
   -1.9539   -1.4594    0.0000 N   0  0  0  0  0  0  0  0  0  0  0  0
   -0.5739   -0.8715    0.0000 C   0  0  0  0  0  0  0  0  0  0  0  0
    0.0140   -2.2516    0.0000 C   0  0  0  0  0  0  0  0  0  0  0  0
    0.8061   -0.2837    0.0000 C   0  0  0  0  0  0  0  0  0  0  0  0
    0.9871    1.2054    0.0000 C   0  0  0  0  0  0  0  0  0  0  0  0
    2.3671    1.7932    0.0000 C   0  0  0  0  0  0  0  0  0  0  0  0
    3.5662    0.8920    0.0000 C   0  0  0  0  0  0  0  0  0  0  0  0
    3.3852   -0.5971    0.0000 C   0  0  0  0  0  0  0  0  0  0  0  0
    2.0052   -1.1849    0.0000 C   0  0  0  0  0  0  0  0  0  0  0  0
   -1.1617    0.5085    0.0000 C   0  0  0  0  0  0  0  0  0  0  0  0
   -2.6508    0.6894    0.0000 C   0  0  0  0  0  0  0  0  0  0  0  0
   -3.5520   -0.5097    0.0000 O   0  0  0  0  0  0  0  0  0  0  0  0
   -3.2386    2.0694    0.0000 O   0  0  0  0  0  0  0  0  0  0  0  0
  1  2  1  0
  2  3  1  0
  2  4  1  0
  4  5  2  0
  5  6  1  0
  6  7  2  0
  7  8  1  0
  8  9  2  0
  2 10  1  0
 10 11  1  0
 11 12  2  0
 11 13  1  0
  9  4  1  0
M  END
>  <rName>  (3952) 
bAla_3Me_3Ph

>  <PQ_SYMBOL>  (3952) 
bAla_3Me_3Ph

>  <FULL_NAME>  (3952) 
3-Amino-3-phenylbutanoic acid

>  <IUPAC_CONDENSED>  (3952) 
bAla(3-Me,3-Ph)

>  <IUPAC>  (3952) 
3-amino-3-phenylbutanoic acid

>  <TYPE>  (3952) 
Backbone

>  <CLASS>  (3952) 
beta

>  <ANALOG>  (3952) 
X

>  <MOL_WT>  (3952) 
179.21899999999994

>  <LOGP>  (3952) 
1.3352000000000002

>  <TPSA>  (3952) 
63.32000000000001

>  <POPULARITY>  (3952) 
8.3

>  <PROTECTED>  (3952) 
TRUE

>  <SMILES>  (3952) 
NC(C)(c1(ccccc1))CC(=O)O

>  <INCHIKEY>  (3952) 
JUBVPJBQVAGHHH-UHFFFAOYSA-N

$$$$
bAla_3Ph_24diF
     RDKit          2D

 14 14  0  0  0  0  0  0  0  0999 V2000
   -1.5776   -1.7216    0.0000 N   0  0  0  0  0  0  0  0  0  0  0  0
   -1.0871   -0.3041    0.0000 C   0  0  0  0  0  0  0  0  0  0  0  0
    0.3858   -0.0201    0.0000 C   0  0  0  0  0  0  0  0  0  0  0  0
    0.8763    1.3974    0.0000 C   0  0  0  0  0  0  0  0  0  0  0  0
    2.3492    1.6814    0.0000 C   0  0  0  0  0  0  0  0  0  0  0  0
    3.3315    0.5478    0.0000 C   0  0  0  0  0  0  0  0  0  0  0  0
    4.8044    0.8318    0.0000 F   0  0  0  0  0  0  0  0  0  0  0  0
    2.8410   -0.8697    0.0000 C   0  0  0  0  0  0  0  0  0  0  0  0
    1.3682   -1.1537    0.0000 C   0  0  0  0  0  0  0  0  0  0  0  0
    0.8777   -2.5712    0.0000 F   0  0  0  0  0  0  0  0  0  0  0  0
   -2.0695    0.8295    0.0000 C   0  0  0  0  0  0  0  0  0  0  0  0
   -3.5423    0.5455    0.0000 C   0  0  0  0  0  0  0  0  0  0  0  0
   -4.0328   -0.8721    0.0000 O   0  0  0  0  0  0  0  0  0  0  0  0
   -4.5247    1.6790    0.0000 O   0  0  0  0  0  0  0  0  0  0  0  0
  1  2  1  0
  2  3  1  0
  3  4  1  0
  4  5  2  0
  5  6  1  0
  6  7  1  0
  6  8  2  0
  8  9  1  0
  9 10  1  0
  2 11  1  0
 11 12  1  0
 12 13  2  0
 12 14  1  0
  9  3  2  0
M  END
>  <rName>  (3953) 
bAla_3Ph_24diF

>  <PQ_SYMBOL>  (3953) 
bAla_3Ph_24diF

>  <FULL_NAME>  (3953) 
3-Amino-3-(2,4-difluorophenyl)propanoic acid

>  <IUPAC_CONDENSED>  (3953) 
bAla(3-Ph(2,4-diF))

>  <IUPAC>  (3953) 
3-amino-3-(2,4-difluorophenyl)propanoic acid

>  <TYPE>  (3953) 
Backbone

>  <CLASS>  (3953) 
beta

>  <ANALOG>  (3953) 
X

>  <MOL_WT>  (3953) 
201.17199999999997

>  <LOGP>  (3953) 
1.4393000000000002

>  <TPSA>  (3953) 
63.32000000000001

>  <POPULARITY>  (3953) 
5.8

>  <PROTECTED>  (3953) 
TRUE

>  <SMILES>  (3953) 
NC(c1(ccc(F)cc1F))CC(=O)O

>  <INCHIKEY>  (3953) 
RXNSEGYWKJUNMR-UHFFFAOYSA-N

$$$$
bAla_3Ph_24diMe
     RDKit          2D

 14 14  0  0  0  0  0  0  0  0999 V2000
   -1.5776   -1.7216    0.0000 N   0  0  0  0  0  0  0  0  0  0  0  0
   -1.0871   -0.3041    0.0000 C   0  0  0  0  0  0  0  0  0  0  0  0
    0.3858   -0.0201    0.0000 C   0  0  0  0  0  0  0  0  0  0  0  0
    0.8763    1.3974    0.0000 C   0  0  0  0  0  0  0  0  0  0  0  0
    2.3492    1.6814    0.0000 C   0  0  0  0  0  0  0  0  0  0  0  0
    3.3315    0.5478    0.0000 C   0  0  0  0  0  0  0  0  0  0  0  0
    4.8044    0.8318    0.0000 C   0  0  0  0  0  0  0  0  0  0  0  0
    2.8410   -0.8697    0.0000 C   0  0  0  0  0  0  0  0  0  0  0  0
    1.3682   -1.1537    0.0000 C   0  0  0  0  0  0  0  0  0  0  0  0
    0.8777   -2.5712    0.0000 C   0  0  0  0  0  0  0  0  0  0  0  0
   -2.0695    0.8295    0.0000 C   0  0  0  0  0  0  0  0  0  0  0  0
   -3.5423    0.5455    0.0000 C   0  0  0  0  0  0  0  0  0  0  0  0
   -4.0328   -0.8721    0.0000 O   0  0  0  0  0  0  0  0  0  0  0  0
   -4.5247    1.6790    0.0000 O   0  0  0  0  0  0  0  0  0  0  0  0
  1  2  1  0
  2  3  1  0
  3  4  1  0
  4  5  2  0
  5  6  1  0
  6  7  1  0
  6  8  2  0
  8  9  1  0
  9 10  1  0
  2 11  1  0
 11 12  1  0
 12 13  2  0
 12 14  1  0
  9  3  2  0
M  END
>  <rName>  (3954) 
bAla_3Ph_24diMe

>  <PQ_SYMBOL>  (3954) 
bAla_3Ph_24diMe

>  <FULL_NAME>  (3954) 
3-Amino-3-(2,4-dimethylphenyl)propanoic acid

>  <IUPAC_CONDENSED>  (3954) 
bAla(3-Ph(2,4-diMe))

>  <IUPAC>  (3954) 
3-amino-3-(2,4-dimethylphenyl)propanoic acid

>  <TYPE>  (3954) 
Backbone

>  <CLASS>  (3954) 
beta

>  <ANALOG>  (3954) 
X

>  <MOL_WT>  (3954) 
193.24599999999995

>  <LOGP>  (3954) 
1.77794

>  <TPSA>  (3954) 
63.32000000000001

>  <POPULARITY>  (3954) 
7.2

>  <PROTECTED>  (3954) 
TRUE

>  <SMILES>  (3954) 
NC(c1(ccc(C)cc1C))CC(=O)O

>  <INCHIKEY>  (3954) 
LRMMWNSBHJFPEE-UHFFFAOYSA-N

$$$$
bAla_3Ph_2Br
     RDKit          2D

 13 13  0  0  0  0  0  0  0  0999 V2000
   -1.0916   -1.7365    0.0000 N   0  0  0  0  0  0  0  0  0  0  0  0
   -0.6994   -0.2887    0.0000 C   0  0  0  0  0  0  0  0  0  0  0  0
    0.7506    0.0955    0.0000 C   0  0  0  0  0  0  0  0  0  0  0  0
    1.1428    1.5433    0.0000 C   0  0  0  0  0  0  0  0  0  0  0  0
    2.5927    1.9276    0.0000 C   0  0  0  0  0  0  0  0  0  0  0  0
    3.6505    0.8640    0.0000 C   0  0  0  0  0  0  0  0  0  0  0  0
    3.2583   -0.5838    0.0000 C   0  0  0  0  0  0  0  0  0  0  0  0
    1.8083   -0.9680    0.0000 C   0  0  0  0  0  0  0  0  0  0  0  0
    1.4161   -2.4159    0.0000 Br  0  0  0  0  0  0  0  0  0  0  0  0
   -1.7571    0.7749    0.0000 C   0  0  0  0  0  0  0  0  0  0  0  0
   -3.2071    0.3906    0.0000 C   0  0  0  0  0  0  0  0  0  0  0  0
   -3.5993   -1.0572    0.0000 O   0  0  0  0  0  0  0  0  0  0  0  0
   -4.2648    1.4542    0.0000 O   0  0  0  0  0  0  0  0  0  0  0  0
  1  2  1  0
  2  3  1  0
  3  4  2  0
  4  5  1  0
  5  6  2  0
  6  7  1  0
  7  8  2  0
  8  9  1  0
  2 10  1  0
 10 11  1  0
 11 12  2  0
 11 13  1  0
  8  3  1  0
M  END
>  <rName>  (3955) 
bAla_3Ph_2Br

>  <PQ_SYMBOL>  (3955) 
bAla_3Ph_2Br

>  <FULL_NAME>  (3955) 
3-amino-3-(2-bromophenyl)propanoic acid

>  <IUPAC_CONDENSED>  (3955) 
bAla(3-Ph(2-Br))

>  <IUPAC>  (3955) 
3-amino-3-(2-bromophenyl)propanoic acid

>  <TYPE>  (3955) 
Backbone

>  <CLASS>  (3955) 
beta

>  <ANALOG>  (3955) 
X

>  <MOL_WT>  (3955) 
244.08799999999997

>  <LOGP>  (3955) 
1.9236

>  <TPSA>  (3955) 
63.32000000000001

>  <POPULARITY>  (3955) 
6.8

>  <PROTECTED>  (3955) 
TRUE

>  <SMILES>  (3955) 
NC(c1(ccccc1Br))CC(=O)O

>  <INCHIKEY>  (3955) 
OETRFEPZCAGEMK-UHFFFAOYSA-N

$$$$
bAla_3Ph_2Cl
     RDKit          2D

 13 13  0  0  0  0  0  0  0  0999 V2000
   -1.0916   -1.7365    0.0000 N   0  0  0  0  0  0  0  0  0  0  0  0
   -0.6994   -0.2887    0.0000 C   0  0  0  0  0  0  0  0  0  0  0  0
    0.7506    0.0955    0.0000 C   0  0  0  0  0  0  0  0  0  0  0  0
    1.1428    1.5433    0.0000 C   0  0  0  0  0  0  0  0  0  0  0  0
    2.5927    1.9276    0.0000 C   0  0  0  0  0  0  0  0  0  0  0  0
    3.6505    0.8640    0.0000 C   0  0  0  0  0  0  0  0  0  0  0  0
    3.2583   -0.5838    0.0000 C   0  0  0  0  0  0  0  0  0  0  0  0
    1.8083   -0.9680    0.0000 C   0  0  0  0  0  0  0  0  0  0  0  0
    1.4161   -2.4159    0.0000 Cl  0  0  0  0  0  0  0  0  0  0  0  0
   -1.7571    0.7749    0.0000 C   0  0  0  0  0  0  0  0  0  0  0  0
   -3.2071    0.3906    0.0000 C   0  0  0  0  0  0  0  0  0  0  0  0
   -3.5993   -1.0572    0.0000 O   0  0  0  0  0  0  0  0  0  0  0  0
   -4.2648    1.4542    0.0000 O   0  0  0  0  0  0  0  0  0  0  0  0
  1  2  1  0
  2  3  1  0
  3  4  2  0
  4  5  1  0
  5  6  2  0
  6  7  1  0
  7  8  2  0
  8  9  1  0
  2 10  1  0
 10 11  1  0
 11 12  2  0
 11 13  1  0
  8  3  1  0
M  END
>  <rName>  (3956) 
bAla_3Ph_2Cl

>  <PQ_SYMBOL>  (3956) 
bAla_3Ph_2Cl

>  <FULL_NAME>  (3956) 
3-amino-3-(2-chlorophenyl)propanoic acid

>  <IUPAC_CONDENSED>  (3956) 
bAla(3-Ph(2-Cl))

>  <IUPAC>  (3956) 
3-amino-3-(2-chlorophenyl)propanoic acid

>  <TYPE>  (3956) 
Backbone

>  <CLASS>  (3956) 
beta

>  <ANALOG>  (3956) 
X

>  <MOL_WT>  (3956) 
199.63699999999994

>  <LOGP>  (3956) 
1.8145000000000002

>  <TPSA>  (3956) 
63.32000000000001

>  <POPULARITY>  (3956) 
8.0

>  <PROTECTED>  (3956) 
TRUE

>  <SMILES>  (3956) 
NC(c1(ccccc1Cl))CC(=O)O

>  <INCHIKEY>  (3956) 
NXXFYRJVRISCCP-UHFFFAOYSA-N

$$$$
bAla_3Ph_2F
     RDKit          2D

 13 13  0  0  0  0  0  0  0  0999 V2000
   -1.0916   -1.7365    0.0000 N   0  0  0  0  0  0  0  0  0  0  0  0
   -0.6994   -0.2887    0.0000 C   0  0  0  0  0  0  0  0  0  0  0  0
    0.7506    0.0955    0.0000 C   0  0  0  0  0  0  0  0  0  0  0  0
    1.1428    1.5433    0.0000 C   0  0  0  0  0  0  0  0  0  0  0  0
    2.5927    1.9276    0.0000 C   0  0  0  0  0  0  0  0  0  0  0  0
    3.6505    0.8640    0.0000 C   0  0  0  0  0  0  0  0  0  0  0  0
    3.2583   -0.5838    0.0000 C   0  0  0  0  0  0  0  0  0  0  0  0
    1.8083   -0.9680    0.0000 C   0  0  0  0  0  0  0  0  0  0  0  0
    1.4161   -2.4159    0.0000 F   0  0  0  0  0  0  0  0  0  0  0  0
   -1.7571    0.7749    0.0000 C   0  0  0  0  0  0  0  0  0  0  0  0
   -3.2071    0.3906    0.0000 C   0  0  0  0  0  0  0  0  0  0  0  0
   -3.5993   -1.0572    0.0000 O   0  0  0  0  0  0  0  0  0  0  0  0
   -4.2648    1.4542    0.0000 O   0  0  0  0  0  0  0  0  0  0  0  0
  1  2  1  0
  2  3  1  0
  3  4  2  0
  4  5  1  0
  5  6  2  0
  6  7  1  0
  7  8  2  0
  8  9  1  0
  2 10  1  0
 10 11  1  0
 11 12  2  0
 11 13  1  0
  8  3  1  0
M  END
>  <rName>  (3957) 
bAla_3Ph_2F

>  <PQ_SYMBOL>  (3957) 
bAla_3Ph_2F

>  <FULL_NAME>  (3957) 
3-amino-3-(2-fluorophenyl)propanoic acid

>  <IUPAC_CONDENSED>  (3957) 
bAla(3-Ph(2-F))

>  <IUPAC>  (3957) 
3-amino-3-(2-fluorophenyl)propanoic acid

>  <TYPE>  (3957) 
Backbone

>  <CLASS>  (3957) 
beta

>  <ANALOG>  (3957) 
X

>  <MOL_WT>  (3957) 
183.18199999999996

>  <LOGP>  (3957) 
1.3002000000000002

>  <TPSA>  (3957) 
63.32000000000001

>  <POPULARITY>  (3957) 
8.8

>  <PROTECTED>  (3957) 
TRUE

>  <SMILES>  (3957) 
NC(c1(ccccc1F))CC(=O)O

>  <INCHIKEY>  (3957) 
RSCLTSJQAQBNCE-UHFFFAOYSA-N

$$$$
bAla_3Ph_2Me
     RDKit          2D

 13 13  0  0  0  0  0  0  0  0999 V2000
   -1.0916   -1.7365    0.0000 N   0  0  0  0  0  0  0  0  0  0  0  0
   -0.6994   -0.2887    0.0000 C   0  0  0  0  0  0  0  0  0  0  0  0
    0.7506    0.0955    0.0000 C   0  0  0  0  0  0  0  0  0  0  0  0
    1.1428    1.5433    0.0000 C   0  0  0  0  0  0  0  0  0  0  0  0
    2.5927    1.9276    0.0000 C   0  0  0  0  0  0  0  0  0  0  0  0
    3.6505    0.8640    0.0000 C   0  0  0  0  0  0  0  0  0  0  0  0
    3.2583   -0.5838    0.0000 C   0  0  0  0  0  0  0  0  0  0  0  0
    1.8083   -0.9680    0.0000 C   0  0  0  0  0  0  0  0  0  0  0  0
    1.4161   -2.4159    0.0000 C   0  0  0  0  0  0  0  0  0  0  0  0
   -1.7571    0.7749    0.0000 C   0  0  0  0  0  0  0  0  0  0  0  0
   -3.2071    0.3906    0.0000 C   0  0  0  0  0  0  0  0  0  0  0  0
   -3.5993   -1.0572    0.0000 O   0  0  0  0  0  0  0  0  0  0  0  0
   -4.2648    1.4542    0.0000 O   0  0  0  0  0  0  0  0  0  0  0  0
  1  2  1  0
  2  3  1  0
  3  4  2  0
  4  5  1  0
  5  6  2  0
  6  7  1  0
  7  8  2  0
  8  9  1  0
  2 10  1  0
 10 11  1  0
 11 12  2  0
 11 13  1  0
  8  3  1  0
M  END
>  <rName>  (3958) 
bAla_3Ph_2Me

>  <PQ_SYMBOL>  (3958) 
bAla_3Ph_2Me

>  <FULL_NAME>  (3958) 
3-amino-3-(o-tolyl)propanoic acid

>  <IUPAC_CONDENSED>  (3958) 
bAla(3-Ph(2-Me))

>  <IUPAC>  (3958) 
3-amino-3-(2-methylphenyl)propanoic acid

>  <TYPE>  (3958) 
Backbone

>  <CLASS>  (3958) 
beta

>  <ANALOG>  (3958) 
X

>  <MOL_WT>  (3958) 
179.21899999999997

>  <LOGP>  (3958) 
1.4695200000000002

>  <TPSA>  (3958) 
63.32000000000001

>  <POPULARITY>  (3958) 
10.5

>  <PROTECTED>  (3958) 
TRUE

>  <SMILES>  (3958) 
NC(c1(ccccc1C))CC(=O)O

>  <INCHIKEY>  (3958) 
GORGZFRGYDIRJA-UHFFFAOYSA-N

$$$$
bAla_3Ph_2NO2
     RDKit          2D

 15 15  0  0  0  0  0  0  0  0999 V2000
   -1.0552   -1.4821    0.0000 N   0  0  0  0  0  0  0  0  0  0  0  0
   -0.8718    0.0067    0.0000 C   0  0  0  0  0  0  0  0  0  0  0  0
    0.5093    0.5922    0.0000 C   0  0  0  0  0  0  0  0  0  0  0  0
    0.6928    2.0809    0.0000 C   0  0  0  0  0  0  0  0  0  0  0  0
    2.0738    2.6664    0.0000 C   0  0  0  0  0  0  0  0  0  0  0  0
    3.2713    1.7631    0.0000 C   0  0  0  0  0  0  0  0  0  0  0  0
    3.0878    0.2744    0.0000 C   0  0  0  0  0  0  0  0  0  0  0  0
    1.7068   -0.3111    0.0000 C   0  0  0  0  0  0  0  0  0  0  0  0
    1.5233   -1.7999    0.0000 N   0  0  0  0  0  0  0  0  0  0  0  0
    0.1423   -2.3853    0.0000 O   0  0  0  0  0  0  0  0  0  0  0  0
    2.7209   -2.7031    0.0000 O   0  0  0  0  0  0  0  0  0  0  0  0
   -2.0693    0.9100    0.0000 C   0  0  0  0  0  0  0  0  0  0  0  0
   -3.4503    0.3245    0.0000 C   0  0  0  0  0  0  0  0  0  0  0  0
   -3.6338   -1.1643    0.0000 O   0  0  0  0  0  0  0  0  0  0  0  0
   -4.6479    1.2278    0.0000 O   0  0  0  0  0  0  0  0  0  0  0  0
  1  2  1  0
  2  3  1  0
  3  4  2  0
  4  5  1  0
  5  6  2  0
  6  7  1  0
  7  8  2  0
  8  9  1  0
  9 10  2  0
  9 11  1  0
  2 12  1  0
 12 13  1  0
 13 14  2  0
 13 15  1  0
  8  3  1  0
M  CHG  2   9   1  11  -1
M  END
>  <rName>  (3959) 
bAla_3Ph_2NO2

>  <PQ_SYMBOL>  (3959) 
bAla_3Ph_2NO2

>  <FULL_NAME>  (3959) 
3-amino-3-(2-nitrophenyl)propanoic acid

>  <IUPAC_CONDENSED>  (3959) 
bAla(3-Ph(2-NO2))

>  <IUPAC>  (3959) 
3-amino-3-(2-nitrophenyl)propanoic acid

>  <TYPE>  (3959) 
Backbone

>  <CLASS>  (3959) 
beta

>  <ANALOG>  (3959) 
X

>  <MOL_WT>  (3959) 
210.18899999999996

>  <LOGP>  (3959) 
1.0693000000000001

>  <TPSA>  (3959) 
106.46

>  <POPULARITY>  (3959) 
7.7

>  <PROTECTED>  (3959) 
TRUE

>  <SMILES>  (3959) 
NC(c1(ccccc1[N+](=O)[O-]))CC(=O)O

>  <INCHIKEY>  (3959) 
XXBOYULKNZTOMN-UHFFFAOYSA-N

$$$$
bAla_3Ph_34diMe
     RDKit          2D

 14 14  0  0  0  0  0  0  0  0999 V2000
   -1.6907   -1.8557    0.0000 N   0  0  0  0  0  0  0  0  0  0  0  0
   -1.2771   -0.4139    0.0000 C   0  0  0  0  0  0  0  0  0  0  0  0
    0.1784   -0.0512    0.0000 C   0  0  0  0  0  0  0  0  0  0  0  0
    0.5920    1.3907    0.0000 C   0  0  0  0  0  0  0  0  0  0  0  0
    2.0475    1.7534    0.0000 C   0  0  0  0  0  0  0  0  0  0  0  0
    3.0894    0.6742    0.0000 C   0  0  0  0  0  0  0  0  0  0  0  0
    4.5448    1.0370    0.0000 C   0  0  0  0  0  0  0  0  0  0  0  0
    2.6757   -0.7676    0.0000 C   0  0  0  0  0  0  0  0  0  0  0  0
    3.7176   -1.8467    0.0000 C   0  0  0  0  0  0  0  0  0  0  0  0
    1.2202   -1.1303    0.0000 C   0  0  0  0  0  0  0  0  0  0  0  0
   -2.3190    0.6652    0.0000 C   0  0  0  0  0  0  0  0  0  0  0  0
   -3.7745    0.3025    0.0000 C   0  0  0  0  0  0  0  0  0  0  0  0
   -4.1881   -1.1393    0.0000 O   0  0  0  0  0  0  0  0  0  0  0  0
   -4.8163    1.3817    0.0000 O   0  0  0  0  0  0  0  0  0  0  0  0
  1  2  1  0
  2  3  1  0
  3  4  1  0
  4  5  2  0
  5  6  1  0
  6  7  1  0
  6  8  2  0
  8  9  1  0
  8 10  1  0
  2 11  1  0
 11 12  1  0
 12 13  2  0
 12 14  1  0
 10  3  2  0
M  END
>  <rName>  (3960) 
bAla_3Ph_34diMe

>  <PQ_SYMBOL>  (3960) 
bAla_3Ph_34diMe

>  <FULL_NAME>  (3960) 
3-amino-3-(3,4-dimethylphenyl)propanoic acid

>  <IUPAC_CONDENSED>  (3960) 
bAla(3-Ph(3,4-diMe))

>  <IUPAC>  (3960) 
3-amino-3-(3,4-dimethylphenyl)propanoic acid

>  <TYPE>  (3960) 
Backbone

>  <CLASS>  (3960) 
beta

>  <ANALOG>  (3960) 
X

>  <MOL_WT>  (3960) 
193.24599999999998

>  <LOGP>  (3960) 
1.77794

>  <TPSA>  (3960) 
63.32000000000001

>  <POPULARITY>  (3960) 
8.1

>  <PROTECTED>  (3960) 
TRUE

>  <SMILES>  (3960) 
NC(c1(ccc(C)c(C)c1))CC(=O)O

>  <INCHIKEY>  (3960) 
OMZFHHOURLYJMF-UHFFFAOYSA-N

$$$$
bAla_3Ph_35diCl
     RDKit          2D

 14 14  0  0  0  0  0  0  0  0999 V2000
   -1.6283   -1.9406    0.0000 N   0  0  0  0  0  0  0  0  0  0  0  0
   -1.1520   -0.5182    0.0000 C   0  0  0  0  0  0  0  0  0  0  0  0
    0.3179   -0.2194    0.0000 C   0  0  0  0  0  0  0  0  0  0  0  0
    0.7942    1.2029    0.0000 C   0  0  0  0  0  0  0  0  0  0  0  0
    2.2641    1.5017    0.0000 C   0  0  0  0  0  0  0  0  0  0  0  0
    2.7404    2.9241    0.0000 Cl  0  0  0  0  0  0  0  0  0  0  0  0
    3.2578    0.3780    0.0000 C   0  0  0  0  0  0  0  0  0  0  0  0
    2.7816   -1.0443    0.0000 C   0  0  0  0  0  0  0  0  0  0  0  0
    3.7753   -2.1680    0.0000 Cl  0  0  0  0  0  0  0  0  0  0  0  0
    1.3116   -1.3431    0.0000 C   0  0  0  0  0  0  0  0  0  0  0  0
   -2.1457    0.6055    0.0000 C   0  0  0  0  0  0  0  0  0  0  0  0
   -3.6157    0.3067    0.0000 C   0  0  0  0  0  0  0  0  0  0  0  0
   -4.0919   -1.1157    0.0000 O   0  0  0  0  0  0  0  0  0  0  0  0
   -4.6094    1.4304    0.0000 O   0  0  0  0  0  0  0  0  0  0  0  0
  1  2  1  0
  2  3  1  0
  3  4  2  0
  4  5  1  0
  5  6  1  0
  5  7  2  0
  7  8  1  0
  8  9  1  0
  8 10  2  0
  2 11  1  0
 11 12  1  0
 12 13  2  0
 12 14  1  0
 10  3  1  0
M  END
>  <rName>  (3961) 
bAla_3Ph_35diCl

>  <PQ_SYMBOL>  (3961) 
bAla_3Ph_35diCl

>  <FULL_NAME>  (3961) 
3-amino-3-(3,5-dichlorophenyl)propanoic Acid

>  <IUPAC_CONDENSED>  (3961) 
bAla(3-Ph(3,5-diCl))

>  <IUPAC>  (3961) 
3-amino-3-(3,5-dichlorophenyl)propanoic acid

>  <TYPE>  (3961) 
Backbone

>  <CLASS>  (3961) 
beta

>  <ANALOG>  (3961) 
X

>  <MOL_WT>  (3961) 
234.082

>  <LOGP>  (3961) 
2.4679

>  <TPSA>  (3961) 
63.32000000000001

>  <POPULARITY>  (3961) 
5.6

>  <PROTECTED>  (3961) 
TRUE

>  <SMILES>  (3961) 
NC(c1(cc(Cl)cc(Cl)c1))CC(=O)O

>  <INCHIKEY>  (3961) 
MQEZPQHIAIRXQC-UHFFFAOYSA-N

$$$$
bAla_3Ph_3Br
     RDKit          2D

 13 13  0  0  0  0  0  0  0  0999 V2000
   -1.2291   -1.8553    0.0000 N   0  0  0  0  0  0  0  0  0  0  0  0
   -0.9051   -0.3907    0.0000 C   0  0  0  0  0  0  0  0  0  0  0  0
    0.5252    0.0611    0.0000 C   0  0  0  0  0  0  0  0  0  0  0  0
    0.8491    1.5257    0.0000 C   0  0  0  0  0  0  0  0  0  0  0  0
    2.2795    1.9775    0.0000 C   0  0  0  0  0  0  0  0  0  0  0  0
    3.3859    0.9646    0.0000 C   0  0  0  0  0  0  0  0  0  0  0  0
    3.0620   -0.5000    0.0000 C   0  0  0  0  0  0  0  0  0  0  0  0
    4.1684   -1.5128    0.0000 Br  0  0  0  0  0  0  0  0  0  0  0  0
    1.6316   -0.9517    0.0000 C   0  0  0  0  0  0  0  0  0  0  0  0
   -2.0116    0.6222    0.0000 C   0  0  0  0  0  0  0  0  0  0  0  0
   -3.4419    0.1704    0.0000 C   0  0  0  0  0  0  0  0  0  0  0  0
   -3.7658   -1.2942    0.0000 O   0  0  0  0  0  0  0  0  0  0  0  0
   -4.5483    1.1832    0.0000 O   0  0  0  0  0  0  0  0  0  0  0  0
  1  2  1  0
  2  3  1  0
  3  4  2  0
  4  5  1  0
  5  6  2  0
  6  7  1  0
  7  8  1  0
  7  9  2  0
  2 10  1  0
 10 11  1  0
 11 12  2  0
 11 13  1  0
  9  3  1  0
M  END
>  <rName>  (3962) 
bAla_3Ph_3Br

>  <PQ_SYMBOL>  (3962) 
bAla_3Ph_3Br

>  <FULL_NAME>  (3962) 
3-amino-3-(3-bromophenyl)propanoic acid

>  <IUPAC_CONDENSED>  (3962) 
bAla(3-Ph(3-Br))

>  <IUPAC>  (3962) 
3-amino-3-(3-bromophenyl)propanoic acid

>  <TYPE>  (3962) 
Backbone

>  <CLASS>  (3962) 
beta

>  <ANALOG>  (3962) 
X

>  <MOL_WT>  (3962) 
244.08799999999997

>  <LOGP>  (3962) 
1.9236000000000002

>  <TPSA>  (3962) 
63.32000000000001

>  <POPULARITY>  (3962) 
7.3

>  <PROTECTED>  (3962) 
TRUE

>  <SMILES>  (3962) 
NC(c1(cccc(Br)c1))CC(=O)O

>  <INCHIKEY>  (3962) 
RLYAXKJHJUXZOT-UHFFFAOYSA-N

$$$$
bAla_3Ph_3CF3
     RDKit          2D

 16 16  0  0  0  0  0  0  0  0999 V2000
   -1.8339   -1.7993    0.0000 N   0  0  0  0  0  0  0  0  0  0  0  0
   -1.7301   -0.3029    0.0000 C   0  0  0  0  0  0  0  0  0  0  0  0
   -0.3823    0.3554    0.0000 C   0  0  0  0  0  0  0  0  0  0  0  0
   -0.2785    1.8518    0.0000 C   0  0  0  0  0  0  0  0  0  0  0  0
    1.0693    2.5102    0.0000 C   0  0  0  0  0  0  0  0  0  0  0  0
    2.3133    1.6721    0.0000 C   0  0  0  0  0  0  0  0  0  0  0  0
    2.2096    0.1757    0.0000 C   0  0  0  0  0  0  0  0  0  0  0  0
    0.8618   -0.4826    0.0000 C   0  0  0  0  0  0  0  0  0  0  0  0
    3.4536   -0.6624    0.0000 C   0  0  0  0  0  0  0  0  0  0  0  0
    4.6977   -1.5004    0.0000 F   0  0  0  0  0  0  0  0  0  0  0  0
    2.6155   -1.9064    0.0000 F   0  0  0  0  0  0  0  0  0  0  0  0
    4.2917    0.5817    0.0000 F   0  0  0  0  0  0  0  0  0  0  0  0
   -2.9741    0.5352    0.0000 C   0  0  0  0  0  0  0  0  0  0  0  0
   -4.3219   -0.1232    0.0000 C   0  0  0  0  0  0  0  0  0  0  0  0
   -4.4257   -1.6196    0.0000 O   0  0  0  0  0  0  0  0  0  0  0  0
   -5.5660    0.7149    0.0000 O   0  0  0  0  0  0  0  0  0  0  0  0
  1  2  1  0
  2  3  1  0
  3  4  1  0
  4  5  2  0
  5  6  1  0
  6  7  2  0
  7  8  1  0
  7  9  1  0
  9 10  1  0
  9 11  1  0
  9 12  1  0
  2 13  1  0
 13 14  1  0
 14 15  2  0
 14 16  1  0
  8  3  2  0
M  END
>  <rName>  (3963) 
bAla_3Ph_3CF3

>  <PQ_SYMBOL>  (3963) 
bAla_3Ph_3CF3

>  <FULL_NAME>  (3963) 
3-Amino-3-[3-(trifluoromethyl)phenyl]propanoic acid

>  <IUPAC_CONDENSED>  (3963) 
bAla(3-Ph(3-CF3))

>  <IUPAC>  (3963) 
3-amino-3-(3-(trifluoromethyl)phenyl)propanoic acid

>  <TYPE>  (3963) 
Backbone

>  <CLASS>  (3963) 
beta

>  <ANALOG>  (3963) 
X

>  <MOL_WT>  (3963) 
233.18899999999994

>  <LOGP>  (3963) 
2.1799

>  <TPSA>  (3963) 
63.32000000000001

>  <POPULARITY>  (3963) 
6.5

>  <PROTECTED>  (3963) 
TRUE

>  <SMILES>  (3963) 
NC(c1(cccc(c1)C(F)(F)F))CC(=O)O

>  <INCHIKEY>  (3963) 
WZXBASRNQXYUIP-UHFFFAOYSA-N

$$$$
bAla_3Ph_3Cl
     RDKit          2D

 13 13  0  0  0  0  0  0  0  0999 V2000
   -1.2291   -1.8553    0.0000 N   0  0  0  0  0  0  0  0  0  0  0  0
   -0.9051   -0.3907    0.0000 C   0  0  0  0  0  0  0  0  0  0  0  0
    0.5252    0.0611    0.0000 C   0  0  0  0  0  0  0  0  0  0  0  0
    0.8491    1.5257    0.0000 C   0  0  0  0  0  0  0  0  0  0  0  0
    2.2795    1.9775    0.0000 C   0  0  0  0  0  0  0  0  0  0  0  0
    3.3859    0.9646    0.0000 C   0  0  0  0  0  0  0  0  0  0  0  0
    3.0620   -0.5000    0.0000 C   0  0  0  0  0  0  0  0  0  0  0  0
    4.1684   -1.5128    0.0000 Cl  0  0  0  0  0  0  0  0  0  0  0  0
    1.6316   -0.9517    0.0000 C   0  0  0  0  0  0  0  0  0  0  0  0
   -2.0116    0.6222    0.0000 C   0  0  0  0  0  0  0  0  0  0  0  0
   -3.4419    0.1704    0.0000 C   0  0  0  0  0  0  0  0  0  0  0  0
   -3.7658   -1.2942    0.0000 O   0  0  0  0  0  0  0  0  0  0  0  0
   -4.5483    1.1832    0.0000 O   0  0  0  0  0  0  0  0  0  0  0  0
  1  2  1  0
  2  3  1  0
  3  4  2  0
  4  5  1  0
  5  6  2  0
  6  7  1  0
  7  8  1  0
  7  9  2  0
  2 10  1  0
 10 11  1  0
 11 12  2  0
 11 13  1  0
  9  3  1  0
M  END
>  <rName>  (3964) 
bAla_3Ph_3Cl

>  <PQ_SYMBOL>  (3964) 
bAla_3Ph_3Cl

>  <FULL_NAME>  (3964) 
3-amino-3-(3-chlorophenyl)propanoic acid

>  <IUPAC_CONDENSED>  (3964) 
bAla(3-Ph(3-Cl))

>  <IUPAC>  (3964) 
3-amino-3-(3-chlorophenyl)propanoic acid

>  <TYPE>  (3964) 
Backbone

>  <CLASS>  (3964) 
beta

>  <ANALOG>  (3964) 
X

>  <MOL_WT>  (3964) 
199.63699999999997

>  <LOGP>  (3964) 
1.8145000000000002

>  <TPSA>  (3964) 
63.32000000000001

>  <POPULARITY>  (3964) 
9.1

>  <PROTECTED>  (3964) 
TRUE

>  <SMILES>  (3964) 
NC(c1(cccc(Cl)c1))CC(=O)O

>  <INCHIKEY>  (3964) 
LIDRHPCWOYOBIZ-UHFFFAOYSA-N

$$$$
bAla_3Ph_3F
     RDKit          2D

 13 13  0  0  0  0  0  0  0  0999 V2000
   -1.2291   -1.8553    0.0000 N   0  0  0  0  0  0  0  0  0  0  0  0
   -0.9051   -0.3907    0.0000 C   0  0  0  0  0  0  0  0  0  0  0  0
    0.5252    0.0611    0.0000 C   0  0  0  0  0  0  0  0  0  0  0  0
    0.8491    1.5257    0.0000 C   0  0  0  0  0  0  0  0  0  0  0  0
    2.2795    1.9775    0.0000 C   0  0  0  0  0  0  0  0  0  0  0  0
    3.3859    0.9646    0.0000 C   0  0  0  0  0  0  0  0  0  0  0  0
    3.0620   -0.5000    0.0000 C   0  0  0  0  0  0  0  0  0  0  0  0
    4.1684   -1.5128    0.0000 F   0  0  0  0  0  0  0  0  0  0  0  0
    1.6316   -0.9517    0.0000 C   0  0  0  0  0  0  0  0  0  0  0  0
   -2.0116    0.6222    0.0000 C   0  0  0  0  0  0  0  0  0  0  0  0
   -3.4419    0.1704    0.0000 C   0  0  0  0  0  0  0  0  0  0  0  0
   -3.7658   -1.2942    0.0000 O   0  0  0  0  0  0  0  0  0  0  0  0
   -4.5483    1.1832    0.0000 O   0  0  0  0  0  0  0  0  0  0  0  0
  1  2  1  0
  2  3  1  0
  3  4  2  0
  4  5  1  0
  5  6  2  0
  6  7  1  0
  7  8  1  0
  7  9  2  0
  2 10  1  0
 10 11  1  0
 11 12  2  0
 11 13  1  0
  9  3  1  0
M  END
>  <rName>  (3965) 
bAla_3Ph_3F

>  <PQ_SYMBOL>  (3965) 
bAla_3Ph_3F

>  <FULL_NAME>  (3965) 
3-amino-3-(3-fluorophenyl)propanoic acid

>  <IUPAC_CONDENSED>  (3965) 
bAla(3-Ph(3-F))

>  <IUPAC>  (3965) 
3-amino-3-(3-fluorophenyl)propanoic acid

>  <TYPE>  (3965) 
Backbone

>  <CLASS>  (3965) 
beta

>  <ANALOG>  (3965) 
X

>  <MOL_WT>  (3965) 
183.18199999999996

>  <LOGP>  (3965) 
1.3002000000000002

>  <TPSA>  (3965) 
63.32000000000001

>  <POPULARITY>  (3965) 
9.0

>  <PROTECTED>  (3965) 
TRUE

>  <SMILES>  (3965) 
NC(c1(cccc(F)c1))CC(=O)O

>  <INCHIKEY>  (3965) 
GZNJUJNKZBHINS-UHFFFAOYSA-N

$$$$
bAla_3Ph_3Me
     RDKit          2D

 13 13  0  0  0  0  0  0  0  0999 V2000
   -1.2291   -1.8553    0.0000 N   0  0  0  0  0  0  0  0  0  0  0  0
   -0.9051   -0.3907    0.0000 C   0  0  0  0  0  0  0  0  0  0  0  0
    0.5252    0.0611    0.0000 C   0  0  0  0  0  0  0  0  0  0  0  0
    0.8491    1.5257    0.0000 C   0  0  0  0  0  0  0  0  0  0  0  0
    2.2795    1.9775    0.0000 C   0  0  0  0  0  0  0  0  0  0  0  0
    3.3859    0.9646    0.0000 C   0  0  0  0  0  0  0  0  0  0  0  0
    3.0620   -0.5000    0.0000 C   0  0  0  0  0  0  0  0  0  0  0  0
    4.1684   -1.5128    0.0000 C   0  0  0  0  0  0  0  0  0  0  0  0
    1.6316   -0.9517    0.0000 C   0  0  0  0  0  0  0  0  0  0  0  0
   -2.0116    0.6222    0.0000 C   0  0  0  0  0  0  0  0  0  0  0  0
   -3.4419    0.1704    0.0000 C   0  0  0  0  0  0  0  0  0  0  0  0
   -3.7658   -1.2942    0.0000 O   0  0  0  0  0  0  0  0  0  0  0  0
   -4.5483    1.1832    0.0000 O   0  0  0  0  0  0  0  0  0  0  0  0
  1  2  1  0
  2  3  1  0
  3  4  2  0
  4  5  1  0
  5  6  2  0
  6  7  1  0
  7  8  1  0
  7  9  2  0
  2 10  1  0
 10 11  1  0
 11 12  2  0
 11 13  1  0
  9  3  1  0
M  END
>  <rName>  (3966) 
bAla_3Ph_3Me

>  <PQ_SYMBOL>  (3966) 
bAla_3Ph_3Me

>  <FULL_NAME>  (3966) 
3-amino-3-(m-tolyl)propanoic acid

>  <IUPAC_CONDENSED>  (3966) 
bAla(3-Ph(3-Me))

>  <IUPAC>  (3966) 
3-amino-3-(3-methylphenyl)propanoic acid

>  <TYPE>  (3966) 
Backbone

>  <CLASS>  (3966) 
beta

>  <ANALOG>  (3966) 
X

>  <MOL_WT>  (3966) 
179.21899999999997

>  <LOGP>  (3966) 
1.4695200000000002

>  <TPSA>  (3966) 
63.32000000000001

>  <POPULARITY>  (3966) 
7.9

>  <PROTECTED>  (3966) 
TRUE

>  <SMILES>  (3966) 
NC(c1(cccc(C)c1))CC(=O)O

>  <INCHIKEY>  (3966) 
HMLYKNGYKKJNLC-UHFFFAOYSA-N

$$$$
bAla_3Ph_3OH_4OMe
     RDKit          2D

 15 15  0  0  0  0  0  0  0  0999 V2000
   -2.2027   -1.8216    0.0000 N   0  0  0  0  0  0  0  0  0  0  0  0
   -1.6551   -0.4251    0.0000 C   0  0  0  0  0  0  0  0  0  0  0  0
   -0.1719   -0.2011    0.0000 C   0  0  0  0  0  0  0  0  0  0  0  0
    0.3757    1.1953    0.0000 C   0  0  0  0  0  0  0  0  0  0  0  0
    1.8589    1.4193    0.0000 C   0  0  0  0  0  0  0  0  0  0  0  0
    2.7945    0.2468    0.0000 C   0  0  0  0  0  0  0  0  0  0  0  0
    4.2777    0.4708    0.0000 O   0  0  0  0  0  0  0  0  0  0  0  0
    4.8253    1.8672    0.0000 C   0  0  0  0  0  0  0  0  0  0  0  0
    2.2468   -1.1497    0.0000 C   0  0  0  0  0  0  0  0  0  0  0  0
    3.1824   -2.3221    0.0000 O   0  0  0  0  0  0  0  0  0  0  0  0
    0.7637   -1.3736    0.0000 C   0  0  0  0  0  0  0  0  0  0  0  0
   -2.5906    0.7474    0.0000 C   0  0  0  0  0  0  0  0  0  0  0  0
   -4.0738    0.5234    0.0000 C   0  0  0  0  0  0  0  0  0  0  0  0
   -4.6215   -0.8730    0.0000 O   0  0  0  0  0  0  0  0  0  0  0  0
   -5.0094    1.6959    0.0000 O   0  0  0  0  0  0  0  0  0  0  0  0
  1  2  1  0
  2  3  1  0
  3  4  1  0
  4  5  2  0
  5  6  1  0
  6  7  1  0
  7  8  1  0
  6  9  2  0
  9 10  1  0
  9 11  1  0
  2 12  1  0
 12 13  1  0
 13 14  2  0
 13 15  1  0
 11  3  2  0
M  END
>  <rName>  (3967) 
bAla_3Ph_3OH_4OMe

>  <PQ_SYMBOL>  (3967) 
bAla_3Ph_3OH_4OMe

>  <FULL_NAME>  (3967) 
3-Amino-3-(3-hydroxy-4-methoxyphenyl)propanoic acid

>  <IUPAC_CONDENSED>  (3967) 
bAla(3-Ph(3-OH,4-OMe))

>  <IUPAC>  (3967) 
3-amino-3-(3-hydroxy-4-methoxyphenyl)propanoic acid

>  <TYPE>  (3967) 
Backbone

>  <CLASS>  (3967) 
beta

>  <ANALOG>  (3967) 
X

>  <MOL_WT>  (3967) 
211.21699999999998

>  <LOGP>  (3967) 
0.8753

>  <TPSA>  (3967) 
92.78000000000002

>  <POPULARITY>  (3967) 
9.9

>  <PROTECTED>  (3967) 
TRUE

>  <SMILES>  (3967) 
NC(c1(ccc(OC)c(O)c1))CC(=O)O

>  <INCHIKEY>  (3967) 
MVPHRWQFARWHIX-UHFFFAOYSA-N

$$$$
bAla_3Ph_3OMe
     RDKit          2D

 14 14  0  0  0  0  0  0  0  0999 V2000
   -1.2988   -1.8090    0.0000 N   0  0  0  0  0  0  0  0  0  0  0  0
   -1.1504   -0.3163    0.0000 C   0  0  0  0  0  0  0  0  0  0  0  0
    0.2165    0.3015    0.0000 C   0  0  0  0  0  0  0  0  0  0  0  0
    0.3649    1.7941    0.0000 C   0  0  0  0  0  0  0  0  0  0  0  0
    1.7317    2.4119    0.0000 C   0  0  0  0  0  0  0  0  0  0  0  0
    2.9502    1.5371    0.0000 C   0  0  0  0  0  0  0  0  0  0  0  0
    2.8018    0.0445    0.0000 C   0  0  0  0  0  0  0  0  0  0  0  0
    4.0203   -0.8304    0.0000 O   0  0  0  0  0  0  0  0  0  0  0  0
    3.8719   -2.3230    0.0000 C   0  0  0  0  0  0  0  0  0  0  0  0
    1.4349   -0.5733    0.0000 C   0  0  0  0  0  0  0  0  0  0  0  0
   -2.3689    0.5585    0.0000 C   0  0  0  0  0  0  0  0  0  0  0  0
   -3.7357   -0.0593    0.0000 C   0  0  0  0  0  0  0  0  0  0  0  0
   -3.8841   -1.5519    0.0000 O   0  0  0  0  0  0  0  0  0  0  0  0
   -4.9542    0.8155    0.0000 O   0  0  0  0  0  0  0  0  0  0  0  0
  1  2  1  0
  2  3  1  0
  3  4  2  0
  4  5  1  0
  5  6  2  0
  6  7  1  0
  7  8  1  0
  8  9  1  0
  7 10  2  0
  2 11  1  0
 11 12  1  0
 12 13  2  0
 12 14  1  0
 10  3  1  0
M  END
>  <rName>  (3968) 
bAla_3Ph_3OMe

>  <PQ_SYMBOL>  (3968) 
bAla_3Ph_3OMe

>  <FULL_NAME>  (3968) 
3-amino-3-(3-methoxyphenyl)propanoic acid

>  <IUPAC_CONDENSED>  (3968) 
bAla(3-Ph(3-OMe))

>  <IUPAC>  (3968) 
3-amino-3-(3-methoxyphenyl)propanoic acid

>  <TYPE>  (3968) 
Backbone

>  <CLASS>  (3968) 
beta

>  <ANALOG>  (3968) 
X

>  <MOL_WT>  (3968) 
195.21799999999996

>  <LOGP>  (3968) 
1.1697

>  <TPSA>  (3968) 
72.55

>  <POPULARITY>  (3968) 
11.6

>  <PROTECTED>  (3968) 
TRUE

>  <SMILES>  (3968) 
NC(c1(cccc(OC)c1))CC(=O)O

>  <INCHIKEY>  (3968) 
FGMPGCPZEOXEES-UHFFFAOYSA-N

$$$$
bAla_3Ph_4Br
     RDKit          2D

 13 13  0  0  0  0  0  0  0  0999 V2000
   -1.5598   -1.8792    0.0000 N   0  0  0  0  0  0  0  0  0  0  0  0
   -1.0324   -0.4750    0.0000 C   0  0  0  0  0  0  0  0  0  0  0  0
    0.4474   -0.2297    0.0000 C   0  0  0  0  0  0  0  0  0  0  0  0
    0.9749    1.1745    0.0000 C   0  0  0  0  0  0  0  0  0  0  0  0
    2.4547    1.4199    0.0000 C   0  0  0  0  0  0  0  0  0  0  0  0
    3.4070    0.2610    0.0000 C   0  0  0  0  0  0  0  0  0  0  0  0
    4.8868    0.5063    0.0000 Br  0  0  0  0  0  0  0  0  0  0  0  0
    2.8796   -1.1432    0.0000 C   0  0  0  0  0  0  0  0  0  0  0  0
    1.3998   -1.3886    0.0000 C   0  0  0  0  0  0  0  0  0  0  0  0
   -1.9847    0.6838    0.0000 C   0  0  0  0  0  0  0  0  0  0  0  0
   -3.4645    0.4385    0.0000 C   0  0  0  0  0  0  0  0  0  0  0  0
   -3.9920   -0.9657    0.0000 O   0  0  0  0  0  0  0  0  0  0  0  0
   -4.4169    1.5974    0.0000 O   0  0  0  0  0  0  0  0  0  0  0  0
  1  2  1  0
  2  3  1  0
  3  4  1  0
  4  5  2  0
  5  6  1  0
  6  7  1  0
  6  8  2  0
  8  9  1  0
  2 10  1  0
 10 11  1  0
 11 12  2  0
 11 13  1  0
  9  3  2  0
M  END
>  <rName>  (3969) 
bAla_3Ph_4Br

>  <PQ_SYMBOL>  (3969) 
bAla_3Ph_4Br

>  <FULL_NAME>  (3969) 
3-amino-3-(4-bromophenyl)propanoic acid

>  <IUPAC_CONDENSED>  (3969) 
bAla(3-Ph(4-Br))

>  <IUPAC>  (3969) 
3-amino-3-(4-bromophenyl)propanoic acid

>  <TYPE>  (3969) 
Backbone

>  <CLASS>  (3969) 
beta

>  <ANALOG>  (3969) 
X

>  <MOL_WT>  (3969) 
244.08799999999997

>  <LOGP>  (3969) 
1.9236

>  <TPSA>  (3969) 
63.32000000000001

>  <POPULARITY>  (3969) 
8.5

>  <PROTECTED>  (3969) 
TRUE

>  <SMILES>  (3969) 
NC(c1(ccc(Br)cc1))CC(=O)O

>  <INCHIKEY>  (3969) 
RBOUYDUXPMAYMJ-UHFFFAOYSA-N

$$$$
bAla_3Ph_4CF3
     RDKit          2D

 16 16  0  0  0  0  0  0  0  0999 V2000
   -2.6557   -1.8716    0.0000 N   0  0  0  0  0  0  0  0  0  0  0  0
   -2.0655   -0.4926    0.0000 C   0  0  0  0  0  0  0  0  0  0  0  0
   -0.5761   -0.3143    0.0000 C   0  0  0  0  0  0  0  0  0  0  0  0
    0.0141    1.0647    0.0000 C   0  0  0  0  0  0  0  0  0  0  0  0
    1.5035    1.2430    0.0000 C   0  0  0  0  0  0  0  0  0  0  0  0
    2.4026    0.0424    0.0000 C   0  0  0  0  0  0  0  0  0  0  0  0
    1.8124   -1.3366    0.0000 C   0  0  0  0  0  0  0  0  0  0  0  0
    0.3230   -1.5149    0.0000 C   0  0  0  0  0  0  0  0  0  0  0  0
    3.8920    0.2207    0.0000 C   0  0  0  0  0  0  0  0  0  0  0  0
    5.3813    0.3991    0.0000 F   0  0  0  0  0  0  0  0  0  0  0  0
    4.0703   -1.2686    0.0000 F   0  0  0  0  0  0  0  0  0  0  0  0
    3.7136    1.7101    0.0000 F   0  0  0  0  0  0  0  0  0  0  0  0
   -2.9646    0.7080    0.0000 C   0  0  0  0  0  0  0  0  0  0  0  0
   -4.4539    0.5297    0.0000 C   0  0  0  0  0  0  0  0  0  0  0  0
   -5.0442   -0.8493    0.0000 O   0  0  0  0  0  0  0  0  0  0  0  0
   -5.3531    1.7303    0.0000 O   0  0  0  0  0  0  0  0  0  0  0  0
  1  2  1  0
  2  3  1  0
  3  4  1  0
  4  5  2  0
  5  6  1  0
  6  7  2  0
  7  8  1  0
  6  9  1  0
  9 10  1  0
  9 11  1  0
  9 12  1  0
  2 13  1  0
 13 14  1  0
 14 15  2  0
 14 16  1  0
  8  3  2  0
M  END
>  <rName>  (3970) 
bAla_3Ph_4CF3

>  <PQ_SYMBOL>  (3970) 
bAla_3Ph_4CF3

>  <FULL_NAME>  (3970) 
3-Amino-3-(4-Trifluoromethylphenyl)-Propionic Acid

>  <IUPAC_CONDENSED>  (3970) 
bAla(3-Ph(4-CF3))

>  <IUPAC>  (3970) 
3-amino-3-(4-(trifluoromethyl)phenyl)propanoic acid

>  <TYPE>  (3970) 
Backbone

>  <CLASS>  (3970) 
beta

>  <ANALOG>  (3970) 
X

>  <MOL_WT>  (3970) 
233.18899999999994

>  <LOGP>  (3970) 
2.1799

>  <TPSA>  (3970) 
63.32000000000001

>  <POPULARITY>  (3970) 
7.9

>  <PROTECTED>  (3970) 
TRUE

>  <SMILES>  (3970) 
NC(c1(ccc(cc1)C(F)(F)F))CC(=O)O

>  <INCHIKEY>  (3970) 
ABDRZHVLIRZFQO-UHFFFAOYSA-N

$$$$
bAla_3Ph_4F
     RDKit          2D

 13 13  0  0  0  0  0  0  0  0999 V2000
   -1.5598   -1.8792    0.0000 N   0  0  0  0  0  0  0  0  0  0  0  0
   -1.0324   -0.4750    0.0000 C   0  0  0  0  0  0  0  0  0  0  0  0
    0.4474   -0.2297    0.0000 C   0  0  0  0  0  0  0  0  0  0  0  0
    0.9749    1.1745    0.0000 C   0  0  0  0  0  0  0  0  0  0  0  0
    2.4547    1.4199    0.0000 C   0  0  0  0  0  0  0  0  0  0  0  0
    3.4070    0.2610    0.0000 C   0  0  0  0  0  0  0  0  0  0  0  0
    4.8868    0.5063    0.0000 F   0  0  0  0  0  0  0  0  0  0  0  0
    2.8796   -1.1432    0.0000 C   0  0  0  0  0  0  0  0  0  0  0  0
    1.3998   -1.3886    0.0000 C   0  0  0  0  0  0  0  0  0  0  0  0
   -1.9847    0.6838    0.0000 C   0  0  0  0  0  0  0  0  0  0  0  0
   -3.4645    0.4385    0.0000 C   0  0  0  0  0  0  0  0  0  0  0  0
   -3.9920   -0.9657    0.0000 O   0  0  0  0  0  0  0  0  0  0  0  0
   -4.4169    1.5974    0.0000 O   0  0  0  0  0  0  0  0  0  0  0  0
  1  2  1  0
  2  3  1  0
  3  4  1  0
  4  5  2  0
  5  6  1  0
  6  7  1  0
  6  8  2  0
  8  9  1  0
  2 10  1  0
 10 11  1  0
 11 12  2  0
 11 13  1  0
  9  3  2  0
M  END
>  <rName>  (3971) 
bAla_3Ph_4F

>  <PQ_SYMBOL>  (3971) 
bAla_3Ph_4F

>  <FULL_NAME>  (3971) 
3-amino-3-(4-fluorophenyl)propanoic acid

>  <IUPAC_CONDENSED>  (3971) 
bAla(3-Ph(4-F))

>  <IUPAC>  (3971) 
3-amino-3-(4-fluorophenyl)propanoic acid

>  <TYPE>  (3971) 
Backbone

>  <CLASS>  (3971) 
beta

>  <ANALOG>  (3971) 
X

>  <MOL_WT>  (3971) 
183.18199999999996

>  <LOGP>  (3971) 
1.3002000000000002

>  <TPSA>  (3971) 
63.32000000000001

>  <POPULARITY>  (3971) 
10.3

>  <PROTECTED>  (3971) 
TRUE

>  <SMILES>  (3971) 
NC(c1(ccc(F)cc1))CC(=O)O

>  <INCHIKEY>  (3971) 
CPGFMWPQXUXQRX-UHFFFAOYSA-N

$$$$
bAla_3Ph_4OCF3
     RDKit          2D

 17 17  0  0  0  0  0  0  0  0999 V2000
   -2.8504   -1.8871    0.0000 N   0  0  0  0  0  0  0  0  0  0  0  0
   -2.4348   -0.4458    0.0000 C   0  0  0  0  0  0  0  0  0  0  0  0
   -0.9789   -0.0851    0.0000 C   0  0  0  0  0  0  0  0  0  0  0  0
   -0.5633    1.3562    0.0000 C   0  0  0  0  0  0  0  0  0  0  0  0
    0.8927    1.7169    0.0000 C   0  0  0  0  0  0  0  0  0  0  0  0
    1.9331    0.6364    0.0000 C   0  0  0  0  0  0  0  0  0  0  0  0
    3.3891    0.9971    0.0000 O   0  0  0  0  0  0  0  0  0  0  0  0
    4.4295   -0.0834    0.0000 C   0  0  0  0  0  0  0  0  0  0  0  0
    5.4699   -1.1640    0.0000 F   0  0  0  0  0  0  0  0  0  0  0  0
    5.5100    0.9569    0.0000 F   0  0  0  0  0  0  0  0  0  0  0  0
    3.3489   -1.1238    0.0000 F   0  0  0  0  0  0  0  0  0  0  0  0
    1.5175   -0.8049    0.0000 C   0  0  0  0  0  0  0  0  0  0  0  0
    0.0615   -1.1656    0.0000 C   0  0  0  0  0  0  0  0  0  0  0  0
   -3.4752    0.6348    0.0000 C   0  0  0  0  0  0  0  0  0  0  0  0
   -4.9312    0.2740    0.0000 C   0  0  0  0  0  0  0  0  0  0  0  0
   -5.3468   -1.1672    0.0000 O   0  0  0  0  0  0  0  0  0  0  0  0
   -5.9716    1.3546    0.0000 O   0  0  0  0  0  0  0  0  0  0  0  0
  1  2  1  0
  2  3  1  0
  3  4  1  0
  4  5  2  0
  5  6  1  0
  6  7  1  0
  7  8  1  0
  8  9  1  0
  8 10  1  0
  8 11  1  0
  6 12  2  0
 12 13  1  0
  2 14  1  0
 14 15  1  0
 15 16  2  0
 15 17  1  0
 13  3  2  0
M  END
>  <rName>  (3972) 
bAla_3Ph_4OCF3

>  <PQ_SYMBOL>  (3972) 
bAla_3Ph_4OCF3

>  <FULL_NAME>  (3972) 
3-Amino-3-(4-(trifluoromethoxy)phenyl)propanoic acid

>  <IUPAC_CONDENSED>  (3972) 
bAla(3-Ph(4-OCF3))

>  <IUPAC>  (3972) 
3-amino-3-(4-((trifluoromethyl)oxy)phenyl)propanoic acid

>  <TYPE>  (3972) 
Backbone

>  <CLASS>  (3972) 
beta

>  <ANALOG>  (3972) 
X

>  <MOL_WT>  (3972) 
249.18799999999996

>  <LOGP>  (3972) 
2.0597

>  <TPSA>  (3972) 
72.55

>  <POPULARITY>  (3972) 
5.0

>  <PROTECTED>  (3972) 
TRUE

>  <SMILES>  (3972) 
NC(c1(ccc(OC(F)(F)F)cc1))CC(=O)O

>  <INCHIKEY>  (3972) 
CMNPXOOSNAGXEE-UHFFFAOYSA-N

$$$$
bAla_3Ph_4OMe
     RDKit          2D

 14 14  0  0  0  0  0  0  0  0999 V2000
   -1.9239   -1.8882    0.0000 N   0  0  0  0  0  0  0  0  0  0  0  0
   -1.4367   -0.4695    0.0000 C   0  0  0  0  0  0  0  0  0  0  0  0
    0.0356   -0.1821    0.0000 C   0  0  0  0  0  0  0  0  0  0  0  0
    0.5228    1.2365    0.0000 C   0  0  0  0  0  0  0  0  0  0  0  0
    1.9950    1.5239    0.0000 C   0  0  0  0  0  0  0  0  0  0  0  0
    2.9800    0.3926    0.0000 C   0  0  0  0  0  0  0  0  0  0  0  0
    4.4522    0.6799    0.0000 O   0  0  0  0  0  0  0  0  0  0  0  0
    5.4372   -0.4514    0.0000 C   0  0  0  0  0  0  0  0  0  0  0  0
    2.4927   -1.0261    0.0000 C   0  0  0  0  0  0  0  0  0  0  0  0
    1.0205   -1.3134    0.0000 C   0  0  0  0  0  0  0  0  0  0  0  0
   -2.4216    0.6618    0.0000 C   0  0  0  0  0  0  0  0  0  0  0  0
   -3.8939    0.3744    0.0000 C   0  0  0  0  0  0  0  0  0  0  0  0
   -4.3811   -1.0442    0.0000 O   0  0  0  0  0  0  0  0  0  0  0  0
   -4.8788    1.5057    0.0000 O   0  0  0  0  0  0  0  0  0  0  0  0
  1  2  1  0
  2  3  1  0
  3  4  1  0
  4  5  2  0
  5  6  1  0
  6  7  1  0
  7  8  1  0
  6  9  2  0
  9 10  1  0
  2 11  1  0
 11 12  1  0
 12 13  2  0
 12 14  1  0
 10  3  2  0
M  END
>  <rName>  (3973) 
bAla_3Ph_4OMe

>  <PQ_SYMBOL>  (3973) 
bAla_3Ph_4OMe

>  <FULL_NAME>  (3973) 
3-Amino-3-(4-methoxyphenyl)propanoic acid

>  <IUPAC_CONDENSED>  (3973) 
bAla(3-Ph(4-OMe))

>  <IUPAC>  (3973) 
3-amino-3-(4-methoxyphenyl)propanoic acid

>  <TYPE>  (3973) 
Backbone

>  <CLASS>  (3973) 
beta

>  <ANALOG>  (3973) 
X

>  <MOL_WT>  (3973) 
195.21799999999996

>  <LOGP>  (3973) 
1.1697

>  <TPSA>  (3973) 
72.55

>  <POPULARITY>  (3973) 
11.2

>  <PROTECTED>  (3973) 
TRUE

>  <SMILES>  (3973) 
NC(c1(ccc(OC)cc1))CC(=O)O

>  <INCHIKEY>  (3973) 
NYTANCDDCQVQHG-UHFFFAOYSA-N

$$$$
bAla_3Ph_4Ph
     RDKit          2D

 18 19  0  0  0  0  0  0  0  0999 V2000
   -3.5589   -1.8393    0.0000 N   0  0  0  0  0  0  0  0  0  0  0  0
   -2.9274   -0.4787    0.0000 C   0  0  0  0  0  0  0  0  0  0  0  0
   -1.4333   -0.3453    0.0000 C   0  0  0  0  0  0  0  0  0  0  0  0
   -0.8018    1.0153    0.0000 C   0  0  0  0  0  0  0  0  0  0  0  0
    0.6923    1.1486    0.0000 C   0  0  0  0  0  0  0  0  0  0  0  0
    1.5548   -0.0786    0.0000 C   0  0  0  0  0  0  0  0  0  0  0  0
    0.9233   -1.4391    0.0000 C   0  0  0  0  0  0  0  0  0  0  0  0
   -0.5708   -1.5725    0.0000 C   0  0  0  0  0  0  0  0  0  0  0  0
    3.0489    0.0548    0.0000 C   0  0  0  0  0  0  0  0  0  0  0  0
    3.9114   -1.1724    0.0000 C   0  0  0  0  0  0  0  0  0  0  0  0
    5.4055   -1.0390    0.0000 C   0  0  0  0  0  0  0  0  0  0  0  0
    6.0370    0.3216    0.0000 C   0  0  0  0  0  0  0  0  0  0  0  0
    5.1744    1.5488    0.0000 C   0  0  0  0  0  0  0  0  0  0  0  0
    3.6804    1.4154    0.0000 C   0  0  0  0  0  0  0  0  0  0  0  0
   -3.7899    0.7485    0.0000 C   0  0  0  0  0  0  0  0  0  0  0  0
   -5.2840    0.6151    0.0000 C   0  0  0  0  0  0  0  0  0  0  0  0
   -5.9155   -0.7455    0.0000 O   0  0  0  0  0  0  0  0  0  0  0  0
   -6.1465    1.8423    0.0000 O   0  0  0  0  0  0  0  0  0  0  0  0
  1  2  1  0
  2  3  1  0
  3  4  1  0
  4  5  2  0
  5  6  1  0
  6  7  2  0
  7  8  1  0
  6  9  1  0
  9 10  2  0
 10 11  1  0
 11 12  2  0
 12 13  1  0
 13 14  2  0
  2 15  1  0
 15 16  1  0
 16 17  2  0
 16 18  1  0
  8  3  2  0
 14  9  1  0
M  END
>  <rName>  (3974) 
bAla_3Ph_4Ph

>  <PQ_SYMBOL>  (3974) 
bAla_3Ph_4Ph

>  <FULL_NAME>  (3974) 
3-([1,1'-biphenyl]-4-yl)-3-aminopropanoic acid

>  <IUPAC_CONDENSED>  (3974) 
bAla(3-Ph(4-Ph))

>  <IUPAC>  (3974) 
3-amino-3-(4-phenylphenyl)propanoic acid

>  <TYPE>  (3974) 
Backbone

>  <CLASS>  (3974) 
beta

>  <ANALOG>  (3974) 
X

>  <MOL_WT>  (3974) 
241.29

>  <LOGP>  (3974) 
2.828100000000001

>  <TPSA>  (3974) 
63.32000000000001

>  <POPULARITY>  (3974) 
7.1

>  <PROTECTED>  (3974) 
TRUE

>  <SMILES>  (3974) 
NC(c1(ccc(cc1)c2(ccccc2)))CC(=O)O

>  <INCHIKEY>  (3974) 
BJZGTTDEOZUSRH-UHFFFAOYSA-N

$$$$
bAla_3Ph_4iPr
     RDKit          2D

 15 15  0  0  0  0  0  0  0  0999 V2000
   -2.3844   -1.8721    0.0000 N   0  0  0  0  0  0  0  0  0  0  0  0
   -1.8029   -0.4894    0.0000 C   0  0  0  0  0  0  0  0  0  0  0  0
   -0.3147   -0.3016    0.0000 C   0  0  0  0  0  0  0  0  0  0  0  0
    0.2667    1.0811    0.0000 C   0  0  0  0  0  0  0  0  0  0  0  0
    1.7549    1.2689    0.0000 C   0  0  0  0  0  0  0  0  0  0  0  0
    2.6617    0.0740    0.0000 C   0  0  0  0  0  0  0  0  0  0  0  0
    2.0802   -1.3087    0.0000 C   0  0  0  0  0  0  0  0  0  0  0  0
    0.5920   -1.4965    0.0000 C   0  0  0  0  0  0  0  0  0  0  0  0
    4.1499    0.2618    0.0000 C   0  0  0  0  0  0  0  0  0  0  0  0
    5.0566   -0.9331    0.0000 C   0  0  0  0  0  0  0  0  0  0  0  0
    4.7313    1.6445    0.0000 C   0  0  0  0  0  0  0  0  0  0  0  0
   -2.7097    0.7055    0.0000 C   0  0  0  0  0  0  0  0  0  0  0  0
   -4.1978    0.5177    0.0000 C   0  0  0  0  0  0  0  0  0  0  0  0
   -4.7793   -0.8650    0.0000 O   0  0  0  0  0  0  0  0  0  0  0  0
   -5.1046    1.7127    0.0000 O   0  0  0  0  0  0  0  0  0  0  0  0
  1  2  1  0
  2  3  1  0
  3  4  1  0
  4  5  2  0
  5  6  1  0
  6  7  2  0
  7  8  1  0
  6  9  1  0
  9 10  1  0
  9 11  1  0
  2 12  1  0
 12 13  1  0
 13 14  2  0
 13 15  1  0
  8  3  2  0
M  END
>  <rName>  (3975) 
bAla_3Ph_4iPr

>  <PQ_SYMBOL>  (3975) 
bAla_3Ph_4iPr

>  <FULL_NAME>  (3975) 
beta-Amino-4-(1-methylethyl)benzenepropanoic acid

>  <IUPAC_CONDENSED>  (3975) 
bAla(3-Ph(4-iPr))

>  <IUPAC>  (3975) 
3-amino-3-(4-(propan-2-yl)phenyl)propanoic acid

>  <TYPE>  (3975) 
Backbone

>  <CLASS>  (3975) 
beta

>  <ANALOG>  (3975) 
X

>  <MOL_WT>  (3975) 
207.27299999999994

>  <LOGP>  (3975) 
2.2845

>  <TPSA>  (3975) 
63.32000000000001

>  <POPULARITY>  (3975) 
6.7

>  <PROTECTED>  (3975) 
TRUE

>  <SMILES>  (3975) 
NC(c1(ccc(cc1)C(C)C))CC(=O)O

>  <INCHIKEY>  (3975) 
XRDCVKSGZNDEDT-UHFFFAOYSA-N

$$$$
bAla_3R1methoxyethyl_R
     RDKit          2D

 10  9  0  0  0  0  0  0  0  0999 V2000
    0.2598    1.5000    0.0000 N   0  0  0  0  0  0  0  0  0  0  0  0
    0.2598    0.0000    0.0000 C   0  0  0  0  0  0  0  0  0  0  0  0
    1.5588   -0.7500    0.0000 C   0  0  0  0  0  0  0  0  0  0  0  0
    2.8579    0.0000    0.0000 O   0  0  0  0  0  0  0  0  0  0  0  0
    2.8579    1.5000    0.0000 C   0  0  0  0  0  0  0  0  0  0  0  0
    1.5588   -2.2500    0.0000 C   0  0  0  0  0  0  0  0  0  0  0  0
   -1.0392   -0.7500    0.0000 C   0  0  0  0  0  0  0  0  0  0  0  0
   -2.3383    0.0000    0.0000 C   0  0  0  0  0  0  0  0  0  0  0  0
   -2.3383    1.5000    0.0000 O   0  0  0  0  0  0  0  0  0  0  0  0
   -3.6373   -0.7500    0.0000 O   0  0  0  0  0  0  0  0  0  0  0  0
  2  1  1  1
  2  3  1  0
  3  4  1  0
  4  5  1  0
  3  6  1  6
  2  7  1  0
  7  8  1  0
  8  9  2  0
  8 10  1  0
M  END
>  <rName>  (3976) 
bAla_3R1methoxyethyl_R

>  <PQ_SYMBOL>  (3976) 
bAla_3R1methoxyethyl_R

>  <FULL_NAME>  (3976) 
(3R,4R)-3-amino-4-methoxypentanoic acid

>  <IUPAC_CONDENSED>  (3976) 
bAla(3R-1-methoxyethyl(R))

>  <IUPAC>  (3976) 
(3R,4R)-3-amino-4-methoxypentanoic acid

>  <TYPE>  (3976) 
Backbone

>  <CLASS>  (3976) 
beta

>  <ANALOG>  (3976) 
Thr

>  <MOL_WT>  (3976) 
147.174

>  <LOGP>  (3976) 
-0.17670000000000036

>  <TPSA>  (3976) 
72.55

>  <POPULARITY>  (3976) 
9.1

>  <PROTECTED>  (3976) 
TRUE

>  <SMILES>  (3976) 
N[C@@H]([C@H](OC)C)CC(=O)O

>  <INCHIKEY>  (3976) 
WBTMFTFFBNAWMS-RFZPGFLSSA-N

$$$$
bAla_3RBn
     RDKit          2D

 13 13  0  0  0  0  0  0  0  0999 V2000
   -0.9767    1.2065    0.0000 N   0  0  0  0  0  0  0  0  0  0  0  0
   -1.1358   -0.2850    0.0000 C   0  0  0  0  0  0  0  0  0  0  0  0
    0.0764   -1.1685    0.0000 C   0  0  0  0  0  0  0  0  0  0  0  0
    1.4476   -0.5605    0.0000 C   0  0  0  0  0  0  0  0  0  0  0  0
    1.6067    0.9310    0.0000 C   0  0  0  0  0  0  0  0  0  0  0  0
    2.9779    1.5390    0.0000 C   0  0  0  0  0  0  0  0  0  0  0  0
    4.1901    0.6555    0.0000 C   0  0  0  0  0  0  0  0  0  0  0  0
    4.0310   -0.8361    0.0000 C   0  0  0  0  0  0  0  0  0  0  0  0
    2.6598   -1.4441    0.0000 C   0  0  0  0  0  0  0  0  0  0  0  0
   -2.5071   -0.8930    0.0000 C   0  0  0  0  0  0  0  0  0  0  0  0
   -3.7192   -0.0095    0.0000 C   0  0  0  0  0  0  0  0  0  0  0  0
   -3.5602    1.4821    0.0000 O   0  0  0  0  0  0  0  0  0  0  0  0
   -5.0905   -0.6175    0.0000 O   0  0  0  0  0  0  0  0  0  0  0  0
  2  1  1  6
  2  3  1  0
  3  4  1  0
  4  5  2  0
  5  6  1  0
  6  7  2  0
  7  8  1  0
  8  9  2  0
  2 10  1  0
 10 11  1  0
 11 12  2  0
 11 13  1  0
  9  4  1  0
M  END
>  <rName>  (3977) 
bAla_3RBn

>  <PQ_SYMBOL>  (3977) 
bAla_3RBn

>  <FULL_NAME>  (3977) 
(R)-3-amino-4-phenylbutanoic acid

>  <IUPAC_CONDENSED>  (3977) 
bAla(3R-Bn)

>  <IUPAC>  (3977) 
(3R)-3-amino-4-phenylbutanoic acid

>  <TYPE>  (3977) 
Backbone

>  <CLASS>  (3977) 
beta

>  <ANALOG>  (3977) 
Phe

>  <MOL_WT>  (3977) 
179.21899999999994

>  <LOGP>  (3977) 
1.0311000000000001

>  <TPSA>  (3977) 
63.32000000000001

>  <POPULARITY>  (3977) 
15.2

>  <PROTECTED>  (3977) 
TRUE

>  <SMILES>  (3977) 
N[C@H](Cc1(ccccc1))CC(=O)O

>  <INCHIKEY>  (3977) 
OFVBLKINTLPEGH-SECBINFHSA-N

$$$$
bAla_3RBn_23_45_6pentaF
     RDKit          2D

 18 18  0  0  0  0  0  0  0  0999 V2000
   -1.9160    1.1192    0.0000 N   0  0  0  0  0  0  0  0  0  0  0  0
   -2.0699   -0.3729    0.0000 C   0  0  0  0  0  0  0  0  0  0  0  0
   -0.8547   -1.2522    0.0000 C   0  0  0  0  0  0  0  0  0  0  0  0
    0.5144   -0.6395    0.0000 C   0  0  0  0  0  0  0  0  0  0  0  0
    0.6684    0.8526    0.0000 C   0  0  0  0  0  0  0  0  0  0  0  0
   -0.5468    1.7319    0.0000 F   0  0  0  0  0  0  0  0  0  0  0  0
    2.0375    1.4653    0.0000 C   0  0  0  0  0  0  0  0  0  0  0  0
    2.1915    2.9574    0.0000 F   0  0  0  0  0  0  0  0  0  0  0  0
    3.2527    0.5859    0.0000 C   0  0  0  0  0  0  0  0  0  0  0  0
    4.6219    1.1987    0.0000 F   0  0  0  0  0  0  0  0  0  0  0  0
    3.0988   -0.9061    0.0000 C   0  0  0  0  0  0  0  0  0  0  0  0
    4.3140   -1.7855    0.0000 F   0  0  0  0  0  0  0  0  0  0  0  0
    1.7296   -1.5189    0.0000 C   0  0  0  0  0  0  0  0  0  0  0  0
    1.5757   -3.0109    0.0000 F   0  0  0  0  0  0  0  0  0  0  0  0
   -3.4391   -0.9856    0.0000 C   0  0  0  0  0  0  0  0  0  0  0  0
   -4.6543   -0.1062    0.0000 C   0  0  0  0  0  0  0  0  0  0  0  0
   -4.5003    1.3858    0.0000 O   0  0  0  0  0  0  0  0  0  0  0  0
   -6.0234   -0.7190    0.0000 O   0  0  0  0  0  0  0  0  0  0  0  0
  2  1  1  6
  2  3  1  0
  3  4  1  0
  4  5  2  0
  5  6  1  0
  5  7  1  0
  7  8  1  0
  7  9  2  0
  9 10  1  0
  9 11  1  0
 11 12  1  0
 11 13  2  0
 13 14  1  0
  2 15  1  0
 15 16  1  0
 16 17  2  0
 16 18  1  0
 13  4  1  0
M  END
>  <rName>  (3978) 
bAla_3RBn_23_45_6pentaF

>  <PQ_SYMBOL>  (3978) 
bAla_3RBn_23_45_6pentaF

>  <FULL_NAME>  (3978) 
(R)-3-amino-4-(perfluorophenyl)butanoic acid

>  <IUPAC_CONDENSED>  (3978) 
bAla(3R-Bn(2,3,4,5,6-pentaF))

>  <IUPAC>  (3978) 
(3R)-3-amino-4-(2,3,4,5,6-pentafluorophenyl)butanoic acid

>  <TYPE>  (3978) 
Backbone

>  <CLASS>  (3978) 
beta

>  <ANALOG>  (3978) 
Phe

>  <MOL_WT>  (3978) 
269.1689999999999

>  <LOGP>  (3978) 
1.7266000000000001

>  <TPSA>  (3978) 
63.32000000000001

>  <POPULARITY>  (3978) 
4.6

>  <PROTECTED>  (3978) 
TRUE

>  <SMILES>  (3978) 
N[C@H](Cc1(c(F)c(F)c(F)c(F)c1F))CC(=O)O

>  <INCHIKEY>  (3978) 
IBSVXBXKRWGCRU-GSVOUGTGSA-N

$$$$
bAla_3RBn_24_5triF
     RDKit          2D

 16 16  0  0  0  0  0  0  0  0999 V2000
   -1.5978    1.2314    0.0000 N   0  0  0  0  0  0  0  0  0  0  0  0
   -1.8564   -0.2461    0.0000 C   0  0  0  0  0  0  0  0  0  0  0  0
   -0.7061   -1.2089    0.0000 C   0  0  0  0  0  0  0  0  0  0  0  0
    0.7028   -0.6941    0.0000 C   0  0  0  0  0  0  0  0  0  0  0  0
    0.9614    0.7835    0.0000 C   0  0  0  0  0  0  0  0  0  0  0  0
    2.3703    1.2983    0.0000 C   0  0  0  0  0  0  0  0  0  0  0  0
    2.6289    2.7758    0.0000 F   0  0  0  0  0  0  0  0  0  0  0  0
    3.5205    0.3356    0.0000 C   0  0  0  0  0  0  0  0  0  0  0  0
    4.9294    0.8504    0.0000 F   0  0  0  0  0  0  0  0  0  0  0  0
    3.2619   -1.1420    0.0000 C   0  0  0  0  0  0  0  0  0  0  0  0
    1.8531   -1.6568    0.0000 C   0  0  0  0  0  0  0  0  0  0  0  0
    1.5944   -3.1343    0.0000 F   0  0  0  0  0  0  0  0  0  0  0  0
   -3.2653   -0.7610    0.0000 C   0  0  0  0  0  0  0  0  0  0  0  0
   -4.4156    0.2018    0.0000 C   0  0  0  0  0  0  0  0  0  0  0  0
   -4.1570    1.6793    0.0000 O   0  0  0  0  0  0  0  0  0  0  0  0
   -5.8245   -0.3130    0.0000 O   0  0  0  0  0  0  0  0  0  0  0  0
  2  1  1  6
  2  3  1  0
  3  4  1  0
  4  5  1  0
  5  6  2  0
  6  7  1  0
  6  8  1  0
  8  9  1  0
  8 10  2  0
 10 11  1  0
 11 12  1  0
  2 13  1  0
 13 14  1  0
 14 15  2  0
 14 16  1  0
 11  4  2  0
M  END
>  <rName>  (3979) 
bAla_3RBn_24_5triF

>  <PQ_SYMBOL>  (3979) 
bAla_3RBn_24_5triF

>  <FULL_NAME>  (3979) 
(R)-3-amino-4-(2,4,5-trifluorophenyl)butanoic acid

>  <IUPAC_CONDENSED>  (3979) 
bAla(3R-Bn(2,4,5-triF))

>  <IUPAC>  (3979) 
(3R)-3-amino-4-(2,4,5-trifluorophenyl)butanoic acid

>  <TYPE>  (3979) 
Backbone

>  <CLASS>  (3979) 
beta

>  <ANALOG>  (3979) 
Phe

>  <MOL_WT>  (3979) 
233.18899999999996

>  <LOGP>  (3979) 
1.4484000000000001

>  <TPSA>  (3979) 
63.32000000000001

>  <POPULARITY>  (3979) 
11.2

>  <PROTECTED>  (3979) 
TRUE

>  <SMILES>  (3979) 
N[C@H](Cc1(cc(F)c(F)cc1F))CC(=O)O

>  <INCHIKEY>  (3979) 
KEFQQJVYCWLKPL-ZCFIWIBFSA-N

$$$$
bAla_3RBn_24diCl
     RDKit          2D

 15 15  0  0  0  0  0  0  0  0999 V2000
   -1.5080    1.3251    0.0000 N   0  0  0  0  0  0  0  0  0  0  0  0
   -1.6741   -0.1657    0.0000 C   0  0  0  0  0  0  0  0  0  0  0  0
   -0.4660   -1.0549    0.0000 C   0  0  0  0  0  0  0  0  0  0  0  0
    0.9080   -0.4533    0.0000 C   0  0  0  0  0  0  0  0  0  0  0  0
    1.0741    1.0375    0.0000 C   0  0  0  0  0  0  0  0  0  0  0  0
    2.4481    1.6391    0.0000 C   0  0  0  0  0  0  0  0  0  0  0  0
    3.6562    0.7499    0.0000 C   0  0  0  0  0  0  0  0  0  0  0  0
    5.0303    1.3515    0.0000 Cl  0  0  0  0  0  0  0  0  0  0  0  0
    3.4901   -0.7409    0.0000 C   0  0  0  0  0  0  0  0  0  0  0  0
    2.1161   -1.3425    0.0000 C   0  0  0  0  0  0  0  0  0  0  0  0
    1.9500   -2.8333    0.0000 Cl  0  0  0  0  0  0  0  0  0  0  0  0
   -3.0482   -0.7673    0.0000 C   0  0  0  0  0  0  0  0  0  0  0  0
   -4.2562    0.1219    0.0000 C   0  0  0  0  0  0  0  0  0  0  0  0
   -4.0902    1.6127    0.0000 O   0  0  0  0  0  0  0  0  0  0  0  0
   -5.6303   -0.4797    0.0000 O   0  0  0  0  0  0  0  0  0  0  0  0
  2  1  1  6
  2  3  1  0
  3  4  1  0
  4  5  1  0
  5  6  2  0
  6  7  1  0
  7  8  1  0
  7  9  2  0
  9 10  1  0
 10 11  1  0
  2 12  1  0
 12 13  1  0
 13 14  2  0
 13 15  1  0
 10  4  2  0
M  END
>  <rName>  (3980) 
bAla_3RBn_24diCl

>  <PQ_SYMBOL>  (3980) 
bAla_3RBn_24diCl

>  <FULL_NAME>  (3980) 
(R)-3-amino-4-(2,4-dichlorophenyl)butanoic acid

>  <IUPAC_CONDENSED>  (3980) 
bAla(3R-Bn(2,4-diCl))

>  <IUPAC>  (3980) 
(3R)-3-amino-4-(2,4-dichlorophenyl)butanoic acid

>  <TYPE>  (3980) 
Backbone

>  <CLASS>  (3980) 
beta

>  <ANALOG>  (3980) 
Phe

>  <MOL_WT>  (3980) 
248.10899999999998

>  <LOGP>  (3980) 
2.3379000000000003

>  <TPSA>  (3980) 
63.32000000000001

>  <POPULARITY>  (3980) 
5.4

>  <PROTECTED>  (3980) 
TRUE

>  <SMILES>  (3980) 
N[C@H](Cc1(ccc(Cl)cc1Cl))CC(=O)O

>  <INCHIKEY>  (3980) 
TYJLKWUTGBOOBY-MRVPVSSYSA-N

$$$$
bAla_3RBn_2Br
     RDKit          2D

 14 14  0  0  0  0  0  0  0  0999 V2000
   -1.2485    1.3349    0.0000 N   0  0  0  0  0  0  0  0  0  0  0  0
   -1.3063   -0.1640    0.0000 C   0  0  0  0  0  0  0  0  0  0  0  0
   -0.0372   -0.9636    0.0000 C   0  0  0  0  0  0  0  0  0  0  0  0
    1.2898   -0.2643    0.0000 C   0  0  0  0  0  0  0  0  0  0  0  0
    1.3477    1.2346    0.0000 C   0  0  0  0  0  0  0  0  0  0  0  0
    2.6747    1.9339    0.0000 C   0  0  0  0  0  0  0  0  0  0  0  0
    3.9438    1.1344    0.0000 C   0  0  0  0  0  0  0  0  0  0  0  0
    3.8859   -0.3645    0.0000 C   0  0  0  0  0  0  0  0  0  0  0  0
    2.5589   -1.0638    0.0000 C   0  0  0  0  0  0  0  0  0  0  0  0
    2.5010   -2.5627    0.0000 Br  0  0  0  0  0  0  0  0  0  0  0  0
   -2.6334   -0.8633    0.0000 C   0  0  0  0  0  0  0  0  0  0  0  0
   -3.9025   -0.0637    0.0000 C   0  0  0  0  0  0  0  0  0  0  0  0
   -3.8446    1.4351    0.0000 O   0  0  0  0  0  0  0  0  0  0  0  0
   -5.2295   -0.7631    0.0000 O   0  0  0  0  0  0  0  0  0  0  0  0
  2  1  1  6
  2  3  1  0
  3  4  1  0
  4  5  2  0
  5  6  1  0
  6  7  2  0
  7  8  1  0
  8  9  2  0
  9 10  1  0
  2 11  1  0
 11 12  1  0
 12 13  2  0
 12 14  1  0
  9  4  1  0
M  END
>  <rName>  (3981) 
bAla_3RBn_2Br

>  <PQ_SYMBOL>  (3981) 
bAla_3RBn_2Br

>  <FULL_NAME>  (3981) 
(3R)-3-amino-4-(2-bromophenyl)butanoic acid

>  <IUPAC_CONDENSED>  (3981) 
bAla(3R-Bn(2-Br))

>  <IUPAC>  (3981) 
(3R)-3-amino-4-(2-bromophenyl)butanoic acid

>  <TYPE>  (3981) 
Backbone

>  <CLASS>  (3981) 
beta

>  <ANALOG>  (3981) 
Phe

>  <MOL_WT>  (3981) 
258.11499999999995

>  <LOGP>  (3981) 
1.7936000000000003

>  <TPSA>  (3981) 
63.32000000000001

>  <POPULARITY>  (3981) 
5.4

>  <PROTECTED>  (3981) 
TRUE

>  <SMILES>  (3981) 
N[C@H](Cc1(ccccc1Br))CC(=O)O

>  <INCHIKEY>  (3981) 
GKIOKKDLKBJXIS-MRVPVSSYSA-N

$$$$
bAla_3RBn_2CF3
     RDKit          2D

 17 17  0  0  0  0  0  0  0  0999 V2000
   -2.0061    1.5285    0.0000 N   0  0  0  0  0  0  0  0  0  0  0  0
   -1.7839    0.0450    0.0000 C   0  0  0  0  0  0  0  0  0  0  0  0
   -0.3881   -0.5042    0.0000 C   0  0  0  0  0  0  0  0  0  0  0  0
    0.7855    0.4299    0.0000 C   0  0  0  0  0  0  0  0  0  0  0  0
    0.5633    1.9134    0.0000 C   0  0  0  0  0  0  0  0  0  0  0  0
    1.7369    2.8476    0.0000 C   0  0  0  0  0  0  0  0  0  0  0  0
    3.1327    2.2983    0.0000 C   0  0  0  0  0  0  0  0  0  0  0  0
    3.3549    0.8148    0.0000 C   0  0  0  0  0  0  0  0  0  0  0  0
    2.1813   -0.1193    0.0000 C   0  0  0  0  0  0  0  0  0  0  0  0
    2.4036   -1.6028    0.0000 C   0  0  0  0  0  0  0  0  0  0  0  0
    2.6258   -3.0862    0.0000 F   0  0  0  0  0  0  0  0  0  0  0  0
    3.8870   -1.3806    0.0000 F   0  0  0  0  0  0  0  0  0  0  0  0
    0.9201   -1.8250    0.0000 F   0  0  0  0  0  0  0  0  0  0  0  0
   -2.9575   -0.8891    0.0000 C   0  0  0  0  0  0  0  0  0  0  0  0
   -4.3533   -0.3398    0.0000 C   0  0  0  0  0  0  0  0  0  0  0  0
   -4.5755    1.1436    0.0000 O   0  0  0  0  0  0  0  0  0  0  0  0
   -5.5269   -1.2740    0.0000 O   0  0  0  0  0  0  0  0  0  0  0  0
  2  1  1  6
  2  3  1  0
  3  4  1  0
  4  5  2  0
  5  6  1  0
  6  7  2  0
  7  8  1  0
  8  9  2  0
  9 10  1  0
 10 11  1  0
 10 12  1  0
 10 13  1  0
  2 14  1  0
 14 15  1  0
 15 16  2  0
 15 17  1  0
  9  4  1  0
M  END
>  <rName>  (3982) 
bAla_3RBn_2CF3

>  <PQ_SYMBOL>  (3982) 
bAla_3RBn_2CF3

>  <FULL_NAME>  (3982) 
(R)-3-amino-4-(2-(trifluoromethyl)phenyl)butanoic acid

>  <IUPAC_CONDENSED>  (3982) 
bAla(3R-Bn(2-CF3))

>  <IUPAC>  (3982) 
(3R)-3-amino-4-(2-(trifluoromethyl)phenyl)butanoic acid

>  <TYPE>  (3982) 
Backbone

>  <CLASS>  (3982) 
beta

>  <ANALOG>  (3982) 
Phe

>  <MOL_WT>  (3982) 
247.21599999999992

>  <LOGP>  (3982) 
2.0499

>  <TPSA>  (3982) 
63.32000000000001

>  <POPULARITY>  (3982) 
4.9

>  <PROTECTED>  (3982) 
TRUE

>  <SMILES>  (3982) 
N[C@H](Cc1(ccccc1C(F)(F)F))CC(=O)O

>  <INCHIKEY>  (3982) 
VPYQIUMVXMMGSD-MRVPVSSYSA-N

$$$$
bAla_3RBn_2CN
     RDKit          2D

 15 15  0  0  0  0  0  0  0  0999 V2000
   -1.5648    1.4565    0.0000 N   0  0  0  0  0  0  0  0  0  0  0  0
   -1.4725   -0.0406    0.0000 C   0  0  0  0  0  0  0  0  0  0  0  0
   -0.1298   -0.7093    0.0000 C   0  0  0  0  0  0  0  0  0  0  0  0
    1.1206    0.1192    0.0000 C   0  0  0  0  0  0  0  0  0  0  0  0
    1.0284    1.6163    0.0000 C   0  0  0  0  0  0  0  0  0  0  0  0
    2.2788    2.4448    0.0000 C   0  0  0  0  0  0  0  0  0  0  0  0
    3.6215    1.7761    0.0000 C   0  0  0  0  0  0  0  0  0  0  0  0
    3.7138    0.2790    0.0000 C   0  0  0  0  0  0  0  0  0  0  0  0
    2.4633   -0.5495    0.0000 C   0  0  0  0  0  0  0  0  0  0  0  0
    2.5556   -2.0467    0.0000 C   0  0  0  0  0  0  0  0  0  0  0  0
    2.6479   -3.5438    0.0000 N   0  0  0  0  0  0  0  0  0  0  0  0
   -2.7230   -0.8691    0.0000 C   0  0  0  0  0  0  0  0  0  0  0  0
   -4.0657   -0.2004    0.0000 C   0  0  0  0  0  0  0  0  0  0  0  0
   -4.1579    1.2967    0.0000 O   0  0  0  0  0  0  0  0  0  0  0  0
   -5.3161   -1.0289    0.0000 O   0  0  0  0  0  0  0  0  0  0  0  0
  2  1  1  6
  2  3  1  0
  3  4  1  0
  4  5  2  0
  5  6  1  0
  6  7  2  0
  7  8  1  0
  8  9  2  0
  9 10  1  0
 10 11  3  0
  2 12  1  0
 12 13  1  0
 13 14  2  0
 13 15  1  0
  9  4  1  0
M  END
>  <rName>  (3983) 
bAla_3RBn_2CN

>  <PQ_SYMBOL>  (3983) 
bAla_3RBn_2CN

>  <FULL_NAME>  (3983) 
(R)-3-amino-4-(2-cyanophenyl)butanoic acid

>  <IUPAC_CONDENSED>  (3983) 
bAla(3R-Bn(2-CN))

>  <IUPAC>  (3983) 
(3R)-3-amino-4-(2-(nitrilomethyl)phenyl)butanoic acid

>  <TYPE>  (3983) 
Backbone

>  <CLASS>  (3983) 
beta

>  <ANALOG>  (3983) 
Phe

>  <MOL_WT>  (3983) 
204.22899999999996

>  <LOGP>  (3983) 
0.9027800000000001

>  <TPSA>  (3983) 
87.11

>  <POPULARITY>  (3983) 
3.3

>  <PROTECTED>  (3983) 
TRUE

>  <SMILES>  (3983) 
N[C@H](Cc1(ccccc1C#N))CC(=O)O

>  <INCHIKEY>  (3983) 
VAIQDFORVKLNPH-SNVBAGLBSA-N

$$$$
bAla_3RBn_2Cl
     RDKit          2D

 14 14  0  0  0  0  0  0  0  0999 V2000
   -1.2485    1.3349    0.0000 N   0  0  0  0  0  0  0  0  0  0  0  0
   -1.3063   -0.1640    0.0000 C   0  0  0  0  0  0  0  0  0  0  0  0
   -0.0372   -0.9636    0.0000 C   0  0  0  0  0  0  0  0  0  0  0  0
    1.2898   -0.2643    0.0000 C   0  0  0  0  0  0  0  0  0  0  0  0
    1.3477    1.2346    0.0000 C   0  0  0  0  0  0  0  0  0  0  0  0
    2.6747    1.9339    0.0000 C   0  0  0  0  0  0  0  0  0  0  0  0
    3.9438    1.1344    0.0000 C   0  0  0  0  0  0  0  0  0  0  0  0
    3.8859   -0.3645    0.0000 C   0  0  0  0  0  0  0  0  0  0  0  0
    2.5589   -1.0638    0.0000 C   0  0  0  0  0  0  0  0  0  0  0  0
    2.5010   -2.5627    0.0000 Cl  0  0  0  0  0  0  0  0  0  0  0  0
   -2.6334   -0.8633    0.0000 C   0  0  0  0  0  0  0  0  0  0  0  0
   -3.9025   -0.0637    0.0000 C   0  0  0  0  0  0  0  0  0  0  0  0
   -3.8446    1.4351    0.0000 O   0  0  0  0  0  0  0  0  0  0  0  0
   -5.2295   -0.7631    0.0000 O   0  0  0  0  0  0  0  0  0  0  0  0
  2  1  1  6
  2  3  1  0
  3  4  1  0
  4  5  2  0
  5  6  1  0
  6  7  2  0
  7  8  1  0
  8  9  2  0
  9 10  1  0
  2 11  1  0
 11 12  1  0
 12 13  2  0
 12 14  1  0
  9  4  1  0
M  END
>  <rName>  (3984) 
bAla_3RBn_2Cl

>  <PQ_SYMBOL>  (3984) 
bAla_3RBn_2Cl

>  <FULL_NAME>  (3984) 
(R)-3-amino-4-(2-chlorophenyl)butanoic acid

>  <IUPAC_CONDENSED>  (3984) 
bAla(3R-Bn(2-Cl))

>  <IUPAC>  (3984) 
(3R)-3-amino-4-(2-chlorophenyl)butanoic acid

>  <TYPE>  (3984) 
Backbone

>  <CLASS>  (3984) 
beta

>  <ANALOG>  (3984) 
Phe

>  <MOL_WT>  (3984) 
213.66399999999993

>  <LOGP>  (3984) 
1.6845

>  <TPSA>  (3984) 
63.32000000000001

>  <POPULARITY>  (3984) 
6.1

>  <PROTECTED>  (3984) 
TRUE

>  <SMILES>  (3984) 
N[C@H](Cc1(ccccc1Cl))CC(=O)O

>  <INCHIKEY>  (3984) 
URIOIHMVAXZFMB-MRVPVSSYSA-N

$$$$
bAla_3RBn_2F
     RDKit          2D

 14 14  0  0  0  0  0  0  0  0999 V2000
   -1.2485    1.3349    0.0000 N   0  0  0  0  0  0  0  0  0  0  0  0
   -1.3063   -0.1640    0.0000 C   0  0  0  0  0  0  0  0  0  0  0  0
   -0.0372   -0.9636    0.0000 C   0  0  0  0  0  0  0  0  0  0  0  0
    1.2898   -0.2643    0.0000 C   0  0  0  0  0  0  0  0  0  0  0  0
    1.3477    1.2346    0.0000 C   0  0  0  0  0  0  0  0  0  0  0  0
    2.6747    1.9339    0.0000 C   0  0  0  0  0  0  0  0  0  0  0  0
    3.9438    1.1344    0.0000 C   0  0  0  0  0  0  0  0  0  0  0  0
    3.8859   -0.3645    0.0000 C   0  0  0  0  0  0  0  0  0  0  0  0
    2.5589   -1.0638    0.0000 C   0  0  0  0  0  0  0  0  0  0  0  0
    2.5010   -2.5627    0.0000 F   0  0  0  0  0  0  0  0  0  0  0  0
   -2.6334   -0.8633    0.0000 C   0  0  0  0  0  0  0  0  0  0  0  0
   -3.9025   -0.0637    0.0000 C   0  0  0  0  0  0  0  0  0  0  0  0
   -3.8446    1.4351    0.0000 O   0  0  0  0  0  0  0  0  0  0  0  0
   -5.2295   -0.7631    0.0000 O   0  0  0  0  0  0  0  0  0  0  0  0
  2  1  1  6
  2  3  1  0
  3  4  1  0
  4  5  2  0
  5  6  1  0
  6  7  2  0
  7  8  1  0
  8  9  2  0
  9 10  1  0
  2 11  1  0
 11 12  1  0
 12 13  2  0
 12 14  1  0
  9  4  1  0
M  END
>  <rName>  (3985) 
bAla_3RBn_2F

>  <PQ_SYMBOL>  (3985) 
bAla_3RBn_2F

>  <FULL_NAME>  (3985) 
(R)-3-amino-4-(2-fluorophenyl)butanoic acid

>  <IUPAC_CONDENSED>  (3985) 
bAla(3R-Bn(2-F))

>  <IUPAC>  (3985) 
(3R)-3-amino-4-(2-fluorophenyl)butanoic acid

>  <TYPE>  (3985) 
Backbone

>  <CLASS>  (3985) 
beta

>  <ANALOG>  (3985) 
Phe

>  <MOL_WT>  (3985) 
197.20899999999995

>  <LOGP>  (3985) 
1.1702000000000001

>  <TPSA>  (3985) 
63.32000000000001

>  <POPULARITY>  (3985) 
12.3

>  <PROTECTED>  (3985) 
TRUE

>  <SMILES>  (3985) 
N[C@H](Cc1(ccccc1F))CC(=O)O

>  <INCHIKEY>  (3985) 
CTZJKXPNBFSWAK-MRVPVSSYSA-N

$$$$
bAla_3RBn_2Me
     RDKit          2D

 14 14  0  0  0  0  0  0  0  0999 V2000
   -1.2485    1.3349    0.0000 N   0  0  0  0  0  0  0  0  0  0  0  0
   -1.3063   -0.1640    0.0000 C   0  0  0  0  0  0  0  0  0  0  0  0
   -0.0372   -0.9636    0.0000 C   0  0  0  0  0  0  0  0  0  0  0  0
    1.2898   -0.2643    0.0000 C   0  0  0  0  0  0  0  0  0  0  0  0
    1.3477    1.2346    0.0000 C   0  0  0  0  0  0  0  0  0  0  0  0
    2.6747    1.9339    0.0000 C   0  0  0  0  0  0  0  0  0  0  0  0
    3.9438    1.1344    0.0000 C   0  0  0  0  0  0  0  0  0  0  0  0
    3.8859   -0.3645    0.0000 C   0  0  0  0  0  0  0  0  0  0  0  0
    2.5589   -1.0638    0.0000 C   0  0  0  0  0  0  0  0  0  0  0  0
    2.5010   -2.5627    0.0000 C   0  0  0  0  0  0  0  0  0  0  0  0
   -2.6334   -0.8633    0.0000 C   0  0  0  0  0  0  0  0  0  0  0  0
   -3.9025   -0.0637    0.0000 C   0  0  0  0  0  0  0  0  0  0  0  0
   -3.8446    1.4351    0.0000 O   0  0  0  0  0  0  0  0  0  0  0  0
   -5.2295   -0.7631    0.0000 O   0  0  0  0  0  0  0  0  0  0  0  0
  2  1  1  6
  2  3  1  0
  3  4  1  0
  4  5  2  0
  5  6  1  0
  6  7  2  0
  7  8  1  0
  8  9  2  0
  9 10  1  0
  2 11  1  0
 11 12  1  0
 12 13  2  0
 12 14  1  0
  9  4  1  0
M  END
>  <rName>  (3986) 
bAla_3RBn_2Me

>  <PQ_SYMBOL>  (3986) 
bAla_3RBn_2Me

>  <FULL_NAME>  (3986) 
(R)-3-amino-4-(o-tolyl)butanoic acid

>  <IUPAC_CONDENSED>  (3986) 
bAla(3R-Bn(2-Me))

>  <IUPAC>  (3986) 
(3R)-3-amino-4-(2-methylphenyl)butanoic acid

>  <TYPE>  (3986) 
Backbone

>  <CLASS>  (3986) 
beta

>  <ANALOG>  (3986) 
Phe

>  <MOL_WT>  (3986) 
193.24599999999995

>  <LOGP>  (3986) 
1.33952

>  <TPSA>  (3986) 
63.32000000000001

>  <POPULARITY>  (3986) 
7.6

>  <PROTECTED>  (3986) 
TRUE

>  <SMILES>  (3986) 
N[C@H](Cc1(ccccc1C))CC(=O)O

>  <INCHIKEY>  (3986) 
PBGLTHUKEHCADU-SNVBAGLBSA-N

$$$$
bAla_3RBn_2OMe
     RDKit          2D

 15 15  0  0  0  0  0  0  0  0999 V2000
   -1.6648    1.3815    0.0000 N   0  0  0  0  0  0  0  0  0  0  0  0
   -1.5546   -0.1144    0.0000 C   0  0  0  0  0  0  0  0  0  0  0  0
   -0.2040   -0.7671    0.0000 C   0  0  0  0  0  0  0  0  0  0  0  0
    1.0364    0.0763    0.0000 C   0  0  0  0  0  0  0  0  0  0  0  0
    0.9263    1.5723    0.0000 C   0  0  0  0  0  0  0  0  0  0  0  0
    2.1668    2.4156    0.0000 C   0  0  0  0  0  0  0  0  0  0  0  0
    3.5174    1.7630    0.0000 C   0  0  0  0  0  0  0  0  0  0  0  0
    3.6275    0.2670    0.0000 C   0  0  0  0  0  0  0  0  0  0  0  0
    2.3870   -0.5763    0.0000 C   0  0  0  0  0  0  0  0  0  0  0  0
    2.4972   -2.0723    0.0000 O   0  0  0  0  0  0  0  0  0  0  0  0
    3.8477   -2.7249    0.0000 C   0  0  0  0  0  0  0  0  0  0  0  0
   -2.7951   -0.9578    0.0000 C   0  0  0  0  0  0  0  0  0  0  0  0
   -4.1457   -0.3052    0.0000 C   0  0  0  0  0  0  0  0  0  0  0  0
   -4.2558    1.1908    0.0000 O   0  0  0  0  0  0  0  0  0  0  0  0
   -5.3862   -1.1485    0.0000 O   0  0  0  0  0  0  0  0  0  0  0  0
  2  1  1  6
  2  3  1  0
  3  4  1  0
  4  5  2  0
  5  6  1  0
  6  7  2  0
  7  8  1  0
  8  9  2  0
  9 10  1  0
 10 11  1  0
  2 12  1  0
 12 13  1  0
 13 14  2  0
 13 15  1  0
  9  4  1  0
M  END
>  <rName>  (3987) 
bAla_3RBn_2OMe

>  <PQ_SYMBOL>  (3987) 
bAla_3RBn_2OMe

>  <FULL_NAME>  (3987) 
(3R)-3-amino-4-(2-methoxyphenyl)butanoic acid

>  <IUPAC_CONDENSED>  (3987) 
bAla(3R-Bn(2-OMe))

>  <IUPAC>  (3987) 
(3R)-3-amino-4-(2-methoxyphenyl)butanoic acid

>  <TYPE>  (3987) 
Backbone

>  <CLASS>  (3987) 
beta

>  <ANALOG>  (3987) 
Tyr

>  <MOL_WT>  (3987) 
209.24499999999995

>  <LOGP>  (3987) 
1.0396999999999998

>  <TPSA>  (3987) 
72.55

>  <POPULARITY>  (3987) 
2.2

>  <PROTECTED>  (3987) 
TRUE

>  <SMILES>  (3987) 
N[C@H](Cc1(ccccc1OC))CC(=O)O

>  <INCHIKEY>  (3987) 
VCMUHLQFCYAAOY-SECBINFHSA-N

$$$$
bAla_3RBn_34diCl
     RDKit          2D

 15 15  0  0  0  0  0  0  0  0999 V2000
   -1.7108    1.2179    0.0000 N   0  0  0  0  0  0  0  0  0  0  0  0
   -1.8532   -0.2753    0.0000 C   0  0  0  0  0  0  0  0  0  0  0  0
   -0.6312   -1.1453    0.0000 C   0  0  0  0  0  0  0  0  0  0  0  0
    0.7332   -0.5220    0.0000 C   0  0  0  0  0  0  0  0  0  0  0  0
    0.8756    0.9713    0.0000 C   0  0  0  0  0  0  0  0  0  0  0  0
    2.2399    1.5946    0.0000 C   0  0  0  0  0  0  0  0  0  0  0  0
    3.4619    0.7247    0.0000 C   0  0  0  0  0  0  0  0  0  0  0  0
    4.8263    1.3480    0.0000 Cl  0  0  0  0  0  0  0  0  0  0  0  0
    3.3195   -0.7686    0.0000 C   0  0  0  0  0  0  0  0  0  0  0  0
    4.5415   -1.6385    0.0000 Cl  0  0  0  0  0  0  0  0  0  0  0  0
    1.9552   -1.3919    0.0000 C   0  0  0  0  0  0  0  0  0  0  0  0
   -3.2175   -0.8987    0.0000 C   0  0  0  0  0  0  0  0  0  0  0  0
   -4.4395   -0.0287    0.0000 C   0  0  0  0  0  0  0  0  0  0  0  0
   -4.2971    1.4645    0.0000 O   0  0  0  0  0  0  0  0  0  0  0  0
   -5.8039   -0.6520    0.0000 O   0  0  0  0  0  0  0  0  0  0  0  0
  2  1  1  6
  2  3  1  0
  3  4  1  0
  4  5  1  0
  5  6  2  0
  6  7  1  0
  7  8  1  0
  7  9  2  0
  9 10  1  0
  9 11  1  0
  2 12  1  0
 12 13  1  0
 13 14  2  0
 13 15  1  0
 11  4  2  0
M  END
>  <rName>  (3988) 
bAla_3RBn_34diCl

>  <PQ_SYMBOL>  (3988) 
bAla_3RBn_34diCl

>  <FULL_NAME>  (3988) 
(R)-3-amino-4-(3,4-dichlorophenyl)butanoic acid

>  <IUPAC_CONDENSED>  (3988) 
bAla(3R-Bn(3,4-diCl))

>  <IUPAC>  (3988) 
(3R)-3-amino-4-(3,4-dichlorophenyl)butanoic acid

>  <TYPE>  (3988) 
Backbone

>  <CLASS>  (3988) 
beta

>  <ANALOG>  (3988) 
Phe

>  <MOL_WT>  (3988) 
248.10899999999998

>  <LOGP>  (3988) 
2.3379000000000003

>  <TPSA>  (3988) 
63.32000000000001

>  <POPULARITY>  (3988) 
6.2

>  <PROTECTED>  (3988) 
TRUE

>  <SMILES>  (3988) 
N[C@H](Cc1(ccc(Cl)c(Cl)c1))CC(=O)O

>  <INCHIKEY>  (3988) 
MVUQWYZNNRALPX-SSDOTTSWSA-N

$$$$
bAla_3RBn_34diF
     RDKit          2D

 15 15  0  0  0  0  0  0  0  0999 V2000
   -1.7108    1.2179    0.0000 N   0  0  0  0  0  0  0  0  0  0  0  0
   -1.8532   -0.2753    0.0000 C   0  0  0  0  0  0  0  0  0  0  0  0
   -0.6312   -1.1453    0.0000 C   0  0  0  0  0  0  0  0  0  0  0  0
    0.7332   -0.5220    0.0000 C   0  0  0  0  0  0  0  0  0  0  0  0
    0.8756    0.9713    0.0000 C   0  0  0  0  0  0  0  0  0  0  0  0
    2.2399    1.5946    0.0000 C   0  0  0  0  0  0  0  0  0  0  0  0
    3.4619    0.7247    0.0000 C   0  0  0  0  0  0  0  0  0  0  0  0
    4.8263    1.3480    0.0000 F   0  0  0  0  0  0  0  0  0  0  0  0
    3.3195   -0.7686    0.0000 C   0  0  0  0  0  0  0  0  0  0  0  0
    4.5415   -1.6385    0.0000 F   0  0  0  0  0  0  0  0  0  0  0  0
    1.9552   -1.3919    0.0000 C   0  0  0  0  0  0  0  0  0  0  0  0
   -3.2175   -0.8987    0.0000 C   0  0  0  0  0  0  0  0  0  0  0  0
   -4.4395   -0.0287    0.0000 C   0  0  0  0  0  0  0  0  0  0  0  0
   -4.2971    1.4645    0.0000 O   0  0  0  0  0  0  0  0  0  0  0  0
   -5.8039   -0.6520    0.0000 O   0  0  0  0  0  0  0  0  0  0  0  0
  2  1  1  6
  2  3  1  0
  3  4  1  0
  4  5  1  0
  5  6  2  0
  6  7  1  0
  7  8  1  0
  7  9  2  0
  9 10  1  0
  9 11  1  0
  2 12  1  0
 12 13  1  0
 13 14  2  0
 13 15  1  0
 11  4  2  0
M  END
>  <rName>  (3989) 
bAla_3RBn_34diF

>  <PQ_SYMBOL>  (3989) 
bAla_3RBn_34diF

>  <FULL_NAME>  (3989) 
(R)-3-amino-4-(3,4-difluorophenyl)butanoic acid

>  <IUPAC_CONDENSED>  (3989) 
bAla(3R-Bn(3,4-diF))

>  <IUPAC>  (3989) 
(3R)-3-amino-4-(3,4-difluorophenyl)butanoic acid

>  <TYPE>  (3989) 
Backbone

>  <CLASS>  (3989) 
beta

>  <ANALOG>  (3989) 
Phe

>  <MOL_WT>  (3989) 
215.19899999999996

>  <LOGP>  (3989) 
1.3093000000000001

>  <TPSA>  (3989) 
63.32000000000001

>  <POPULARITY>  (3989) 
11.2

>  <PROTECTED>  (3989) 
TRUE

>  <SMILES>  (3989) 
N[C@H](Cc1(ccc(F)c(F)c1))CC(=O)O

>  <INCHIKEY>  (3989) 
LYHJWUKHUZUWDC-SSDOTTSWSA-N

$$$$
bAla_3RBn_35diF
     RDKit          2D

 15 15  0  0  0  0  0  0  0  0999 V2000
   -1.5376    1.1161    0.0000 N   0  0  0  0  0  0  0  0  0  0  0  0
   -1.6938   -0.3757    0.0000 C   0  0  0  0  0  0  0  0  0  0  0  0
   -0.4799   -1.2569    0.0000 C   0  0  0  0  0  0  0  0  0  0  0  0
    0.8902   -0.6462    0.0000 C   0  0  0  0  0  0  0  0  0  0  0  0
    1.0463    0.8457    0.0000 C   0  0  0  0  0  0  0  0  0  0  0  0
    2.4164    1.4564    0.0000 C   0  0  0  0  0  0  0  0  0  0  0  0
    2.5725    2.9482    0.0000 F   0  0  0  0  0  0  0  0  0  0  0  0
    3.6303    0.5752    0.0000 C   0  0  0  0  0  0  0  0  0  0  0  0
    3.4742   -0.9166    0.0000 C   0  0  0  0  0  0  0  0  0  0  0  0
    4.6881   -1.7978    0.0000 F   0  0  0  0  0  0  0  0  0  0  0  0
    2.1041   -1.5273    0.0000 C   0  0  0  0  0  0  0  0  0  0  0  0
   -3.0638   -0.9864    0.0000 C   0  0  0  0  0  0  0  0  0  0  0  0
   -4.2777   -0.1053    0.0000 C   0  0  0  0  0  0  0  0  0  0  0  0
   -4.1216    1.3866    0.0000 O   0  0  0  0  0  0  0  0  0  0  0  0
   -5.6478   -0.7160    0.0000 O   0  0  0  0  0  0  0  0  0  0  0  0
  2  1  1  6
  2  3  1  0
  3  4  1  0
  4  5  2  0
  5  6  1  0
  6  7  1  0
  6  8  2  0
  8  9  1  0
  9 10  1  0
  9 11  2  0
  2 12  1  0
 12 13  1  0
 13 14  2  0
 13 15  1  0
 11  4  1  0
M  END
>  <rName>  (3990) 
bAla_3RBn_35diF

>  <PQ_SYMBOL>  (3990) 
bAla_3RBn_35diF

>  <FULL_NAME>  (3990) 
(R)-3-Amino-4-(3,5-difluorophenyl)butanoic acid

>  <IUPAC_CONDENSED>  (3990) 
bAla(3R-Bn(3,5-diF))

>  <IUPAC>  (3990) 
(3R)-3-amino-4-(3,5-difluorophenyl)butanoic acid

>  <TYPE>  (3990) 
Backbone

>  <CLASS>  (3990) 
beta

>  <ANALOG>  (3990) 
Phe

>  <MOL_WT>  (3990) 
215.19899999999996

>  <LOGP>  (3990) 
1.3093000000000001

>  <TPSA>  (3990) 
63.32000000000001

>  <POPULARITY>  (3990) 
2.2

>  <PROTECTED>  (3990) 
TRUE

>  <SMILES>  (3990) 
N[C@H](Cc1(cc(F)cc(F)c1))CC(=O)O

>  <INCHIKEY>  (3990) 
JUZLHHFRXMTMCJ-SECBINFHSA-N

$$$$
bAla_3RBn_3Br
     RDKit          2D

 14 14  0  0  0  0  0  0  0  0999 V2000
   -1.4366    1.2366    0.0000 N   0  0  0  0  0  0  0  0  0  0  0  0
   -1.4962   -0.2622    0.0000 C   0  0  0  0  0  0  0  0  0  0  0  0
   -0.2280   -1.0632    0.0000 C   0  0  0  0  0  0  0  0  0  0  0  0
    1.0998   -0.3654    0.0000 C   0  0  0  0  0  0  0  0  0  0  0  0
    1.1594    1.1334    0.0000 C   0  0  0  0  0  0  0  0  0  0  0  0
    2.4872    1.8312    0.0000 C   0  0  0  0  0  0  0  0  0  0  0  0
    3.7554    1.0302    0.0000 C   0  0  0  0  0  0  0  0  0  0  0  0
    3.6958   -0.4686    0.0000 C   0  0  0  0  0  0  0  0  0  0  0  0
    4.9641   -1.2696    0.0000 Br  0  0  0  0  0  0  0  0  0  0  0  0
    2.3680   -1.1664    0.0000 C   0  0  0  0  0  0  0  0  0  0  0  0
   -2.8240   -0.9600    0.0000 C   0  0  0  0  0  0  0  0  0  0  0  0
   -4.0922   -0.1590    0.0000 C   0  0  0  0  0  0  0  0  0  0  0  0
   -4.0327    1.3398    0.0000 O   0  0  0  0  0  0  0  0  0  0  0  0
   -5.4200   -0.8568    0.0000 O   0  0  0  0  0  0  0  0  0  0  0  0
  2  1  1  6
  2  3  1  0
  3  4  1  0
  4  5  2  0
  5  6  1  0
  6  7  2  0
  7  8  1  0
  8  9  1  0
  8 10  2  0
  2 11  1  0
 11 12  1  0
 12 13  2  0
 12 14  1  0
 10  4  1  0
M  END
>  <rName>  (3991) 
bAla_3RBn_3Br

>  <PQ_SYMBOL>  (3991) 
bAla_3RBn_3Br

>  <FULL_NAME>  (3991) 
(R)-3-Amino-4-(3-bromophenyl)butanoic acid

>  <IUPAC_CONDENSED>  (3991) 
bAla(3R-Bn(3-Br))

>  <IUPAC>  (3991) 
(3R)-3-amino-4-(3-bromophenyl)butanoic acid

>  <TYPE>  (3991) 
Backbone

>  <CLASS>  (3991) 
beta

>  <ANALOG>  (3991) 
Phe

>  <MOL_WT>  (3991) 
258.11499999999995

>  <LOGP>  (3991) 
1.7936

>  <TPSA>  (3991) 
63.32000000000001

>  <POPULARITY>  (3991) 
6.7

>  <PROTECTED>  (3991) 
TRUE

>  <SMILES>  (3991) 
N[C@H](Cc1(cccc(Br)c1))CC(=O)O

>  <INCHIKEY>  (3991) 
RAIGQDRULUGHDH-SECBINFHSA-N

$$$$
bAla_3RBn_3CF3
     RDKit          2D

 17 17  0  0  0  0  0  0  0  0999 V2000
   -2.5243    1.2650    0.0000 N   0  0  0  0  0  0  0  0  0  0  0  0
   -2.4358   -0.2324    0.0000 C   0  0  0  0  0  0  0  0  0  0  0  0
   -1.0948   -0.9044    0.0000 C   0  0  0  0  0  0  0  0  0  0  0  0
    0.1578   -0.0791    0.0000 C   0  0  0  0  0  0  0  0  0  0  0  0
    0.0693    1.4183    0.0000 C   0  0  0  0  0  0  0  0  0  0  0  0
    1.3218    2.2437    0.0000 C   0  0  0  0  0  0  0  0  0  0  0  0
    2.6628    1.5716    0.0000 C   0  0  0  0  0  0  0  0  0  0  0  0
    2.7513    0.0742    0.0000 C   0  0  0  0  0  0  0  0  0  0  0  0
    1.4988   -0.7511    0.0000 C   0  0  0  0  0  0  0  0  0  0  0  0
    4.0923   -0.5978    0.0000 C   0  0  0  0  0  0  0  0  0  0  0  0
    5.4334   -1.2698    0.0000 F   0  0  0  0  0  0  0  0  0  0  0  0
    3.4203   -1.9388    0.0000 F   0  0  0  0  0  0  0  0  0  0  0  0
    4.7644    0.7432    0.0000 F   0  0  0  0  0  0  0  0  0  0  0  0
   -3.6883   -1.0577    0.0000 C   0  0  0  0  0  0  0  0  0  0  0  0
   -5.0293   -0.3857    0.0000 C   0  0  0  0  0  0  0  0  0  0  0  0
   -5.1178    1.1117    0.0000 O   0  0  0  0  0  0  0  0  0  0  0  0
   -6.2819   -1.2110    0.0000 O   0  0  0  0  0  0  0  0  0  0  0  0
  2  1  1  6
  2  3  1  0
  3  4  1  0
  4  5  1  0
  5  6  2  0
  6  7  1  0
  7  8  2  0
  8  9  1  0
  8 10  1  0
 10 11  1  0
 10 12  1  0
 10 13  1  0
  2 14  1  0
 14 15  1  0
 15 16  2  0
 15 17  1  0
  9  4  2  0
M  END
>  <rName>  (3992) 
bAla_3RBn_3CF3

>  <PQ_SYMBOL>  (3992) 
bAla_3RBn_3CF3

>  <FULL_NAME>  (3992) 
(R)-3-amino-4-(3-(trifluoromethyl)phenyl)butanoic acid

>  <IUPAC_CONDENSED>  (3992) 
bAla(3R-Bn(3-CF3))

>  <IUPAC>  (3992) 
(3R)-3-amino-4-(3-(trifluoromethyl)phenyl)butanoic acid

>  <TYPE>  (3992) 
Backbone

>  <CLASS>  (3992) 
beta

>  <ANALOG>  (3992) 
Phe

>  <MOL_WT>  (3992) 
247.21599999999992

>  <LOGP>  (3992) 
2.0499

>  <TPSA>  (3992) 
63.32000000000001

>  <POPULARITY>  (3992) 
5.3

>  <PROTECTED>  (3992) 
TRUE

>  <SMILES>  (3992) 
N[C@H](Cc1(cccc(c1)C(F)(F)F))CC(=O)O

>  <INCHIKEY>  (3992) 
UUVNRBNPVFBPTH-SECBINFHSA-N

$$$$
bAla_3RBn_3CN
     RDKit          2D

 15 15  0  0  0  0  0  0  0  0999 V2000
   -1.9504    1.2312    0.0000 N   0  0  0  0  0  0  0  0  0  0  0  0
   -1.8969   -0.2678    0.0000 C   0  0  0  0  0  0  0  0  0  0  0  0
   -0.5719   -0.9710    0.0000 C   0  0  0  0  0  0  0  0  0  0  0  0
    0.6995   -0.1752    0.0000 C   0  0  0  0  0  0  0  0  0  0  0  0
    0.6460    1.3239    0.0000 C   0  0  0  0  0  0  0  0  0  0  0  0
    1.9175    2.1198    0.0000 C   0  0  0  0  0  0  0  0  0  0  0  0
    3.2424    1.4166    0.0000 C   0  0  0  0  0  0  0  0  0  0  0  0
    3.2959   -0.0825    0.0000 C   0  0  0  0  0  0  0  0  0  0  0  0
    4.6209   -0.7856    0.0000 C   0  0  0  0  0  0  0  0  0  0  0  0
    5.9459   -1.4888    0.0000 N   0  0  0  0  0  0  0  0  0  0  0  0
    2.0245   -0.8783    0.0000 C   0  0  0  0  0  0  0  0  0  0  0  0
   -3.1684   -1.0637    0.0000 C   0  0  0  0  0  0  0  0  0  0  0  0
   -4.4933   -0.3605    0.0000 C   0  0  0  0  0  0  0  0  0  0  0  0
   -4.5468    1.1385    0.0000 O   0  0  0  0  0  0  0  0  0  0  0  0
   -5.7648   -1.1564    0.0000 O   0  0  0  0  0  0  0  0  0  0  0  0
  2  1  1  6
  2  3  1  0
  3  4  1  0
  4  5  2  0
  5  6  1  0
  6  7  2  0
  7  8  1  0
  8  9  1  0
  9 10  3  0
  8 11  2  0
  2 12  1  0
 12 13  1  0
 13 14  2  0
 13 15  1  0
 11  4  1  0
M  END
>  <rName>  (3993) 
bAla_3RBn_3CN

>  <PQ_SYMBOL>  (3993) 
bAla_3RBn_3CN

>  <FULL_NAME>  (3993) 
(R)-3-amino-4-(3-cyanophenyl)butanoic acid

>  <IUPAC_CONDENSED>  (3993) 
bAla(3R-Bn(3-CN))

>  <IUPAC>  (3993) 
(3R)-3-amino-4-(3-(nitrilomethyl)phenyl)butanoic acid

>  <TYPE>  (3993) 
Backbone

>  <CLASS>  (3993) 
beta

>  <ANALOG>  (3993) 
Phe

>  <MOL_WT>  (3993) 
204.22899999999996

>  <LOGP>  (3993) 
0.9027800000000001

>  <TPSA>  (3993) 
87.11

>  <POPULARITY>  (3993) 
4.9

>  <PROTECTED>  (3993) 
TRUE

>  <SMILES>  (3993) 
N[C@H](Cc1(cccc(C#N)c1))CC(=O)O

>  <INCHIKEY>  (3993) 
CSBSIUBNUHRWDO-SNVBAGLBSA-N

$$$$
bAla_3RBn_3Cl
     RDKit          2D

 14 14  0  0  0  0  0  0  0  0999 V2000
   -1.4366    1.2366    0.0000 N   0  0  0  0  0  0  0  0  0  0  0  0
   -1.4962   -0.2622    0.0000 C   0  0  0  0  0  0  0  0  0  0  0  0
   -0.2280   -1.0632    0.0000 C   0  0  0  0  0  0  0  0  0  0  0  0
    1.0998   -0.3654    0.0000 C   0  0  0  0  0  0  0  0  0  0  0  0
    1.1594    1.1334    0.0000 C   0  0  0  0  0  0  0  0  0  0  0  0
    2.4872    1.8312    0.0000 C   0  0  0  0  0  0  0  0  0  0  0  0
    3.7554    1.0302    0.0000 C   0  0  0  0  0  0  0  0  0  0  0  0
    3.6958   -0.4686    0.0000 C   0  0  0  0  0  0  0  0  0  0  0  0
    4.9641   -1.2696    0.0000 Cl  0  0  0  0  0  0  0  0  0  0  0  0
    2.3680   -1.1664    0.0000 C   0  0  0  0  0  0  0  0  0  0  0  0
   -2.8240   -0.9600    0.0000 C   0  0  0  0  0  0  0  0  0  0  0  0
   -4.0922   -0.1590    0.0000 C   0  0  0  0  0  0  0  0  0  0  0  0
   -4.0327    1.3398    0.0000 O   0  0  0  0  0  0  0  0  0  0  0  0
   -5.4200   -0.8568    0.0000 O   0  0  0  0  0  0  0  0  0  0  0  0
  2  1  1  6
  2  3  1  0
  3  4  1  0
  4  5  2  0
  5  6  1  0
  6  7  2  0
  7  8  1  0
  8  9  1  0
  8 10  2  0
  2 11  1  0
 11 12  1  0
 12 13  2  0
 12 14  1  0
 10  4  1  0
M  END
>  <rName>  (3994) 
bAla_3RBn_3Cl

>  <PQ_SYMBOL>  (3994) 
bAla_3RBn_3Cl

>  <FULL_NAME>  (3994) 
(R)-3-amino-4-(3-chlorophenyl)butanoic acid

>  <IUPAC_CONDENSED>  (3994) 
bAla(3R-Bn(3-Cl))

>  <IUPAC>  (3994) 
(3R)-3-amino-4-(3-chlorophenyl)butanoic acid

>  <TYPE>  (3994) 
Backbone

>  <CLASS>  (3994) 
beta

>  <ANALOG>  (3994) 
Phe

>  <MOL_WT>  (3994) 
213.66399999999996

>  <LOGP>  (3994) 
1.6845

>  <TPSA>  (3994) 
63.32000000000001

>  <POPULARITY>  (3994) 
6.8

>  <PROTECTED>  (3994) 
TRUE

>  <SMILES>  (3994) 
N[C@H](Cc1(cccc(Cl)c1))CC(=O)O

>  <INCHIKEY>  (3994) 
IWIJTZNQNXPKGN-SECBINFHSA-N

$$$$
bAla_3RBn_3F
     RDKit          2D

 14 14  0  0  0  0  0  0  0  0999 V2000
   -1.4366    1.2366    0.0000 N   0  0  0  0  0  0  0  0  0  0  0  0
   -1.4962   -0.2622    0.0000 C   0  0  0  0  0  0  0  0  0  0  0  0
   -0.2280   -1.0632    0.0000 C   0  0  0  0  0  0  0  0  0  0  0  0
    1.0998   -0.3654    0.0000 C   0  0  0  0  0  0  0  0  0  0  0  0
    1.1594    1.1334    0.0000 C   0  0  0  0  0  0  0  0  0  0  0  0
    2.4872    1.8312    0.0000 C   0  0  0  0  0  0  0  0  0  0  0  0
    3.7554    1.0302    0.0000 C   0  0  0  0  0  0  0  0  0  0  0  0
    3.6958   -0.4686    0.0000 C   0  0  0  0  0  0  0  0  0  0  0  0
    4.9641   -1.2696    0.0000 F   0  0  0  0  0  0  0  0  0  0  0  0
    2.3680   -1.1664    0.0000 C   0  0  0  0  0  0  0  0  0  0  0  0
   -2.8240   -0.9600    0.0000 C   0  0  0  0  0  0  0  0  0  0  0  0
   -4.0922   -0.1590    0.0000 C   0  0  0  0  0  0  0  0  0  0  0  0
   -4.0327    1.3398    0.0000 O   0  0  0  0  0  0  0  0  0  0  0  0
   -5.4200   -0.8568    0.0000 O   0  0  0  0  0  0  0  0  0  0  0  0
  2  1  1  6
  2  3  1  0
  3  4  1  0
  4  5  2  0
  5  6  1  0
  6  7  2  0
  7  8  1  0
  8  9  1  0
  8 10  2  0
  2 11  1  0
 11 12  1  0
 12 13  2  0
 12 14  1  0
 10  4  1  0
M  END
>  <rName>  (3995) 
bAla_3RBn_3F

>  <PQ_SYMBOL>  (3995) 
bAla_3RBn_3F

>  <FULL_NAME>  (3995) 
(R)-3-amino-4-(3-fluorophenyl)butanoic acid

>  <IUPAC_CONDENSED>  (3995) 
bAla(3R-Bn(3-F))

>  <IUPAC>  (3995) 
(3R)-3-amino-4-(3-fluorophenyl)butanoic acid

>  <TYPE>  (3995) 
Backbone

>  <CLASS>  (3995) 
beta

>  <ANALOG>  (3995) 
Phe

>  <MOL_WT>  (3995) 
197.20899999999997

>  <LOGP>  (3995) 
1.1702000000000001

>  <TPSA>  (3995) 
63.32000000000001

>  <POPULARITY>  (3995) 
11.3

>  <PROTECTED>  (3995) 
TRUE

>  <SMILES>  (3995) 
N[C@H](Cc1(cccc(F)c1))CC(=O)O

>  <INCHIKEY>  (3995) 
UVEHSQZQGJXLEV-SECBINFHSA-N

$$$$
bAla_3RBn_3Me
     RDKit          2D

 14 14  0  0  0  0  0  0  0  0999 V2000
   -1.4366    1.2366    0.0000 N   0  0  0  0  0  0  0  0  0  0  0  0
   -1.4962   -0.2622    0.0000 C   0  0  0  0  0  0  0  0  0  0  0  0
   -0.2280   -1.0632    0.0000 C   0  0  0  0  0  0  0  0  0  0  0  0
    1.0998   -0.3654    0.0000 C   0  0  0  0  0  0  0  0  0  0  0  0
    1.1594    1.1334    0.0000 C   0  0  0  0  0  0  0  0  0  0  0  0
    2.4872    1.8312    0.0000 C   0  0  0  0  0  0  0  0  0  0  0  0
    3.7554    1.0302    0.0000 C   0  0  0  0  0  0  0  0  0  0  0  0
    3.6958   -0.4686    0.0000 C   0  0  0  0  0  0  0  0  0  0  0  0
    4.9641   -1.2696    0.0000 C   0  0  0  0  0  0  0  0  0  0  0  0
    2.3680   -1.1664    0.0000 C   0  0  0  0  0  0  0  0  0  0  0  0
   -2.8240   -0.9600    0.0000 C   0  0  0  0  0  0  0  0  0  0  0  0
   -4.0922   -0.1590    0.0000 C   0  0  0  0  0  0  0  0  0  0  0  0
   -4.0327    1.3398    0.0000 O   0  0  0  0  0  0  0  0  0  0  0  0
   -5.4200   -0.8568    0.0000 O   0  0  0  0  0  0  0  0  0  0  0  0
  2  1  1  6
  2  3  1  0
  3  4  1  0
  4  5  2  0
  5  6  1  0
  6  7  2  0
  7  8  1  0
  8  9  1  0
  8 10  2  0
  2 11  1  0
 11 12  1  0
 12 13  2  0
 12 14  1  0
 10  4  1  0
M  END
>  <rName>  (3996) 
bAla_3RBn_3Me

>  <PQ_SYMBOL>  (3996) 
bAla_3RBn_3Me

>  <FULL_NAME>  (3996) 
(R)-3-amino-4-(m-tolyl)butanoic acid

>  <IUPAC_CONDENSED>  (3996) 
bAla(3R-Bn(3-Me))

>  <IUPAC>  (3996) 
(3R)-3-amino-4-(3-methylphenyl)butanoic acid

>  <TYPE>  (3996) 
Backbone

>  <CLASS>  (3996) 
beta

>  <ANALOG>  (3996) 
Phe

>  <MOL_WT>  (3996) 
193.24599999999995

>  <LOGP>  (3996) 
1.33952

>  <TPSA>  (3996) 
63.32000000000001

>  <POPULARITY>  (3996) 
13.1

>  <PROTECTED>  (3996) 
TRUE

>  <SMILES>  (3996) 
N[C@H](Cc1(cccc(C)c1))CC(=O)O

>  <INCHIKEY>  (3996) 
SMOOMZALOMCYEF-SNVBAGLBSA-N

$$$$
bAla_3RBn_3OMe
     RDKit          2D

 15 15  0  0  0  0  0  0  0  0999 V2000
   -1.8824    1.2596    0.0000 N   0  0  0  0  0  0  0  0  0  0  0  0
   -1.8092   -0.2387    0.0000 C   0  0  0  0  0  0  0  0  0  0  0  0
   -0.4750   -0.9243    0.0000 C   0  0  0  0  0  0  0  0  0  0  0  0
    0.7858   -0.1118    0.0000 C   0  0  0  0  0  0  0  0  0  0  0  0
    0.7126    1.3865    0.0000 C   0  0  0  0  0  0  0  0  0  0  0  0
    1.9734    2.1990    0.0000 C   0  0  0  0  0  0  0  0  0  0  0  0
    3.3075    1.5134    0.0000 C   0  0  0  0  0  0  0  0  0  0  0  0
    3.3808    0.0152    0.0000 C   0  0  0  0  0  0  0  0  0  0  0  0
    4.7149   -0.6705    0.0000 O   0  0  0  0  0  0  0  0  0  0  0  0
    4.7882   -2.1687    0.0000 C   0  0  0  0  0  0  0  0  0  0  0  0
    2.1199   -0.7974    0.0000 C   0  0  0  0  0  0  0  0  0  0  0  0
   -3.0700   -1.0512    0.0000 C   0  0  0  0  0  0  0  0  0  0  0  0
   -4.4041   -0.3656    0.0000 C   0  0  0  0  0  0  0  0  0  0  0  0
   -4.4774    1.1327    0.0000 O   0  0  0  0  0  0  0  0  0  0  0  0
   -5.6650   -1.1781    0.0000 O   0  0  0  0  0  0  0  0  0  0  0  0
  2  1  1  6
  2  3  1  0
  3  4  1  0
  4  5  1  0
  5  6  2  0
  6  7  1  0
  7  8  2  0
  8  9  1  0
  9 10  1  0
  8 11  1  0
  2 12  1  0
 12 13  1  0
 13 14  2  0
 13 15  1  0
 11  4  2  0
M  END
>  <rName>  (3997) 
bAla_3RBn_3OMe

>  <PQ_SYMBOL>  (3997) 
bAla_3RBn_3OMe

>  <FULL_NAME>  (3997) 
(3R)-3-amino-4-(3-methoxyphenyl)butanoic acid

>  <IUPAC_CONDENSED>  (3997) 
bAla(3R-Bn(3-OMe))

>  <IUPAC>  (3997) 
(3R)-3-amino-4-(3-methoxyphenyl)butanoic acid

>  <TYPE>  (3997) 
Backbone

>  <CLASS>  (3997) 
beta

>  <ANALOG>  (3997) 
Tyr

>  <MOL_WT>  (3997) 
209.24499999999995

>  <LOGP>  (3997) 
1.0396999999999998

>  <TPSA>  (3997) 
72.55

>  <POPULARITY>  (3997) 
2.2

>  <PROTECTED>  (3997) 
TRUE

>  <SMILES>  (3997) 
N[C@H](Cc1(cccc(OC)c1))CC(=O)O

>  <INCHIKEY>  (3997) 
UIMAQFUSTFNVPJ-SECBINFHSA-N

$$$$
bAla_3RBn_4Br
     RDKit          2D

 14 14  0  0  0  0  0  0  0  0999 V2000
   -1.3163    1.1838    0.0000 N   0  0  0  0  0  0  0  0  0  0  0  0
   -1.5499   -0.2979    0.0000 C   0  0  0  0  0  0  0  0  0  0  0  0
   -0.3836   -1.2411    0.0000 C   0  0  0  0  0  0  0  0  0  0  0  0
    1.0164   -0.7026    0.0000 C   0  0  0  0  0  0  0  0  0  0  0  0
    1.2501    0.7790    0.0000 C   0  0  0  0  0  0  0  0  0  0  0  0
    2.6501    1.3175    0.0000 C   0  0  0  0  0  0  0  0  0  0  0  0
    3.8164    0.3743    0.0000 C   0  0  0  0  0  0  0  0  0  0  0  0
    5.2165    0.9127    0.0000 Br  0  0  0  0  0  0  0  0  0  0  0  0
    3.5828   -1.1074    0.0000 C   0  0  0  0  0  0  0  0  0  0  0  0
    2.1827   -1.6459    0.0000 C   0  0  0  0  0  0  0  0  0  0  0  0
   -2.9500   -0.8363    0.0000 C   0  0  0  0  0  0  0  0  0  0  0  0
   -4.1163    0.1069    0.0000 C   0  0  0  0  0  0  0  0  0  0  0  0
   -3.8826    1.5886    0.0000 O   0  0  0  0  0  0  0  0  0  0  0  0
   -5.5163   -0.4316    0.0000 O   0  0  0  0  0  0  0  0  0  0  0  0
  2  1  1  6
  2  3  1  0
  3  4  1  0
  4  5  1  0
  5  6  2  0
  6  7  1  0
  7  8  1  0
  7  9  2  0
  9 10  1  0
  2 11  1  0
 11 12  1  0
 12 13  2  0
 12 14  1  0
 10  4  2  0
M  END
>  <rName>  (3998) 
bAla_3RBn_4Br

>  <PQ_SYMBOL>  (3998) 
bAla_3RBn_4Br

>  <FULL_NAME>  (3998) 
(3R)-3-amino-4-(4-bromophenyl)butanoic Acid

>  <IUPAC_CONDENSED>  (3998) 
bAla(3R-Bn(4-Br))

>  <IUPAC>  (3998) 
(3R)-3-amino-4-(4-bromophenyl)butanoic acid

>  <TYPE>  (3998) 
Backbone

>  <CLASS>  (3998) 
beta

>  <ANALOG>  (3998) 
Phe

>  <MOL_WT>  (3998) 
258.11499999999995

>  <LOGP>  (3998) 
1.7936

>  <TPSA>  (3998) 
63.32000000000001

>  <POPULARITY>  (3998) 
5.0

>  <PROTECTED>  (3998) 
TRUE

>  <SMILES>  (3998) 
N[C@H](Cc1(ccc(Br)cc1))CC(=O)O

>  <INCHIKEY>  (3998) 
DAUFDZAPQZNOGC-SECBINFHSA-N

$$$$
bAla_3RBn_4CF3
     RDKit          2D

 17 17  0  0  0  0  0  0  0  0999 V2000
   -2.2447    1.1497    0.0000 N   0  0  0  0  0  0  0  0  0  0  0  0
   -2.5808   -0.3121    0.0000 C   0  0  0  0  0  0  0  0  0  0  0  0
   -1.4828   -1.3341    0.0000 C   0  0  0  0  0  0  0  0  0  0  0  0
   -0.0487   -0.8942    0.0000 C   0  0  0  0  0  0  0  0  0  0  0  0
    0.2873    0.5677    0.0000 C   0  0  0  0  0  0  0  0  0  0  0  0
    1.7213    1.0076    0.0000 C   0  0  0  0  0  0  0  0  0  0  0  0
    2.8194   -0.0143    0.0000 C   0  0  0  0  0  0  0  0  0  0  0  0
    2.4833   -1.4762    0.0000 C   0  0  0  0  0  0  0  0  0  0  0  0
    1.0493   -1.9161    0.0000 C   0  0  0  0  0  0  0  0  0  0  0  0
    4.2534    0.4256    0.0000 C   0  0  0  0  0  0  0  0  0  0  0  0
    5.6874    0.8655    0.0000 F   0  0  0  0  0  0  0  0  0  0  0  0
    4.6933   -1.0084    0.0000 F   0  0  0  0  0  0  0  0  0  0  0  0
    3.8135    1.8597    0.0000 F   0  0  0  0  0  0  0  0  0  0  0  0
   -4.0148   -0.7521    0.0000 C   0  0  0  0  0  0  0  0  0  0  0  0
   -5.1128    0.2699    0.0000 C   0  0  0  0  0  0  0  0  0  0  0  0
   -4.7768    1.7318    0.0000 O   0  0  0  0  0  0  0  0  0  0  0  0
   -6.5468   -0.1701    0.0000 O   0  0  0  0  0  0  0  0  0  0  0  0
  2  1  1  6
  2  3  1  0
  3  4  1  0
  4  5  1  0
  5  6  2  0
  6  7  1  0
  7  8  2  0
  8  9  1  0
  7 10  1  0
 10 11  1  0
 10 12  1  0
 10 13  1  0
  2 14  1  0
 14 15  1  0
 15 16  2  0
 15 17  1  0
  9  4  2  0
M  END
>  <rName>  (3999) 
bAla_3RBn_4CF3

>  <PQ_SYMBOL>  (3999) 
bAla_3RBn_4CF3

>  <FULL_NAME>  (3999) 
(R)-3-Amino-4-(4-trifluoromethylphenyl)butanoic acid

>  <IUPAC_CONDENSED>  (3999) 
bAla(3R-Bn(4-CF3))

>  <IUPAC>  (3999) 
(3R)-3-amino-4-[4-(trifluoromethyl)phenyl]butanoic acid

>  <TYPE>  (3999) 
Backbone

>  <CLASS>  (3999) 
beta

>  <ANALOG>  (3999) 
Phe

>  <MOL_WT>  (3999) 
247.21599999999992

>  <LOGP>  (3999) 
2.0499

>  <TPSA>  (3999) 
63.32000000000001

>  <POPULARITY>  (3999) 
2.2

>  <PROTECTED>  (3999) 
TRUE

>  <SMILES>  (3999) 
N[C@H](Cc1(ccc(cc1)C(F)(F)F))CC(=O)O

>  <INCHIKEY>  (3999) 
RCVBUWYXFGWFHR-SECBINFHSA-N

$$$$
bAla_3RBn_4CN
     RDKit          2D

 15 15  0  0  0  0  0  0  0  0999 V2000
   -1.6975    1.1783    0.0000 N   0  0  0  0  0  0  0  0  0  0  0  0
   -2.0091   -0.2890    0.0000 C   0  0  0  0  0  0  0  0  0  0  0  0
   -0.8942   -1.2925    0.0000 C   0  0  0  0  0  0  0  0  0  0  0  0
    0.5323   -0.8286    0.0000 C   0  0  0  0  0  0  0  0  0  0  0  0
    0.8439    0.6387    0.0000 C   0  0  0  0  0  0  0  0  0  0  0  0
    2.2704    1.1025    0.0000 C   0  0  0  0  0  0  0  0  0  0  0  0
    3.3853    0.0990    0.0000 C   0  0  0  0  0  0  0  0  0  0  0  0
    4.8118    0.5629    0.0000 C   0  0  0  0  0  0  0  0  0  0  0  0
    6.2383    1.0267    0.0000 N   0  0  0  0  0  0  0  0  0  0  0  0
    3.0737   -1.3683    0.0000 C   0  0  0  0  0  0  0  0  0  0  0  0
    1.6473   -1.8321    0.0000 C   0  0  0  0  0  0  0  0  0  0  0  0
   -3.4356   -0.7528    0.0000 C   0  0  0  0  0  0  0  0  0  0  0  0
   -4.5505    0.2506    0.0000 C   0  0  0  0  0  0  0  0  0  0  0  0
   -4.2390    1.7179    0.0000 O   0  0  0  0  0  0  0  0  0  0  0  0
   -5.9770   -0.2132    0.0000 O   0  0  0  0  0  0  0  0  0  0  0  0
  2  1  1  6
  2  3  1  0
  3  4  1  0
  4  5  1  0
  5  6  2  0
  6  7  1  0
  7  8  1  0
  8  9  3  0
  7 10  2  0
 10 11  1  0
  2 12  1  0
 12 13  1  0
 13 14  2  0
 13 15  1  0
 11  4  2  0
M  END
>  <rName>  (4000) 
bAla_3RBn_4CN

>  <PQ_SYMBOL>  (4000) 
bAla_3RBn_4CN

>  <FULL_NAME>  (4000) 
(R)-3-amino-4-(4-cyanophenyl)butanoic acid

>  <IUPAC_CONDENSED>  (4000) 
bAla(3R-Bn(4-CN))

>  <IUPAC>  (4000) 
(3R)-3-amino-4-(4-(nitrilomethyl)phenyl)butanoic acid

>  <TYPE>  (4000) 
Backbone

>  <CLASS>  (4000) 
beta

>  <ANALOG>  (4000) 
Phe

>  <MOL_WT>  (4000) 
204.22899999999998

>  <LOGP>  (4000) 
0.9027800000000001

>  <TPSA>  (4000) 
87.11

>  <POPULARITY>  (4000) 
5.7

>  <PROTECTED>  (4000) 
TRUE

>  <SMILES>  (4000) 
N[C@H](Cc1(ccc(C#N)cc1))CC(=O)O

>  <INCHIKEY>  (4000) 
YXRYZOCXTPVLRS-SNVBAGLBSA-N

$$$$
bAla_3RBn_4Cl
     RDKit          2D

 14 14  0  0  0  0  0  0  0  0999 V2000
   -1.3163    1.1838    0.0000 N   0  0  0  0  0  0  0  0  0  0  0  0
   -1.5499   -0.2979    0.0000 C   0  0  0  0  0  0  0  0  0  0  0  0
   -0.3836   -1.2411    0.0000 C   0  0  0  0  0  0  0  0  0  0  0  0
    1.0164   -0.7026    0.0000 C   0  0  0  0  0  0  0  0  0  0  0  0
    1.2501    0.7790    0.0000 C   0  0  0  0  0  0  0  0  0  0  0  0
    2.6501    1.3175    0.0000 C   0  0  0  0  0  0  0  0  0  0  0  0
    3.8164    0.3743    0.0000 C   0  0  0  0  0  0  0  0  0  0  0  0
    5.2165    0.9127    0.0000 Cl  0  0  0  0  0  0  0  0  0  0  0  0
    3.5828   -1.1074    0.0000 C   0  0  0  0  0  0  0  0  0  0  0  0
    2.1827   -1.6459    0.0000 C   0  0  0  0  0  0  0  0  0  0  0  0
   -2.9500   -0.8363    0.0000 C   0  0  0  0  0  0  0  0  0  0  0  0
   -4.1163    0.1069    0.0000 C   0  0  0  0  0  0  0  0  0  0  0  0
   -3.8826    1.5886    0.0000 O   0  0  0  0  0  0  0  0  0  0  0  0
   -5.5163   -0.4316    0.0000 O   0  0  0  0  0  0  0  0  0  0  0  0
  2  1  1  6
  2  3  1  0
  3  4  1  0
  4  5  1  0
  5  6  2  0
  6  7  1  0
  7  8  1  0
  7  9  2  0
  9 10  1  0
  2 11  1  0
 11 12  1  0
 12 13  2  0
 12 14  1  0
 10  4  2  0
M  END
>  <rName>  (4001) 
bAla_3RBn_4Cl

>  <PQ_SYMBOL>  (4001) 
bAla_3RBn_4Cl

>  <FULL_NAME>  (4001) 
(R)-3-Amino-4-(4-chlorophenyl)butanoic acid

>  <IUPAC_CONDENSED>  (4001) 
bAla(3R-Bn(4-Cl))

>  <IUPAC>  (4001) 
(3R)-3-amino-4-(4-chlorophenyl)butanoic acid

>  <TYPE>  (4001) 
Backbone

>  <CLASS>  (4001) 
beta

>  <ANALOG>  (4001) 
Phe

>  <MOL_WT>  (4001) 
213.664

>  <LOGP>  (4001) 
1.6845

>  <TPSA>  (4001) 
63.32000000000001

>  <POPULARITY>  (4001) 
2.2

>  <PROTECTED>  (4001) 
TRUE

>  <SMILES>  (4001) 
N[C@H](Cc1(ccc(Cl)cc1))CC(=O)O

>  <INCHIKEY>  (4001) 
LCYHDQUYYVDIPY-SECBINFHSA-N

$$$$
bAla_3RBn_4F
     RDKit          2D

 14 14  0  0  0  0  0  0  0  0999 V2000
   -1.3163    1.1838    0.0000 N   0  0  0  0  0  0  0  0  0  0  0  0
   -1.5499   -0.2979    0.0000 C   0  0  0  0  0  0  0  0  0  0  0  0
   -0.3836   -1.2411    0.0000 C   0  0  0  0  0  0  0  0  0  0  0  0
    1.0164   -0.7026    0.0000 C   0  0  0  0  0  0  0  0  0  0  0  0
    1.2501    0.7790    0.0000 C   0  0  0  0  0  0  0  0  0  0  0  0
    2.6501    1.3175    0.0000 C   0  0  0  0  0  0  0  0  0  0  0  0
    3.8164    0.3743    0.0000 C   0  0  0  0  0  0  0  0  0  0  0  0
    5.2165    0.9127    0.0000 F   0  0  0  0  0  0  0  0  0  0  0  0
    3.5828   -1.1074    0.0000 C   0  0  0  0  0  0  0  0  0  0  0  0
    2.1827   -1.6459    0.0000 C   0  0  0  0  0  0  0  0  0  0  0  0
   -2.9500   -0.8363    0.0000 C   0  0  0  0  0  0  0  0  0  0  0  0
   -4.1163    0.1069    0.0000 C   0  0  0  0  0  0  0  0  0  0  0  0
   -3.8826    1.5886    0.0000 O   0  0  0  0  0  0  0  0  0  0  0  0
   -5.5163   -0.4316    0.0000 O   0  0  0  0  0  0  0  0  0  0  0  0
  2  1  1  6
  2  3  1  0
  3  4  1  0
  4  5  1  0
  5  6  2  0
  6  7  1  0
  7  8  1  0
  7  9  2  0
  9 10  1  0
  2 11  1  0
 11 12  1  0
 12 13  2  0
 12 14  1  0
 10  4  2  0
M  END
>  <rName>  (4002) 
bAla_3RBn_4F

>  <PQ_SYMBOL>  (4002) 
bAla_3RBn_4F

>  <FULL_NAME>  (4002) 
(R)-3-amino-4-(4-fluorophenyl)butanoic acid

>  <IUPAC_CONDENSED>  (4002) 
bAla(3R-Bn(4-F))

>  <IUPAC>  (4002) 
(3R)-3-amino-4-(4-fluorophenyl)butanoic acid

>  <TYPE>  (4002) 
Backbone

>  <CLASS>  (4002) 
beta

>  <ANALOG>  (4002) 
Phe

>  <MOL_WT>  (4002) 
197.20899999999997

>  <LOGP>  (4002) 
1.1702000000000001

>  <TPSA>  (4002) 
63.32000000000001

>  <POPULARITY>  (4002) 
12.3

>  <PROTECTED>  (4002) 
TRUE

>  <SMILES>  (4002) 
N[C@H](Cc1(ccc(F)cc1))CC(=O)O

>  <INCHIKEY>  (4002) 
MWAZHPYPJNEKID-SECBINFHSA-N

$$$$
bAla_3RBn_4I
     RDKit          2D

 14 14  0  0  0  0  0  0  0  0999 V2000
   -1.3163    1.1838    0.0000 N   0  0  0  0  0  0  0  0  0  0  0  0
   -1.5499   -0.2979    0.0000 C   0  0  0  0  0  0  0  0  0  0  0  0
   -0.3836   -1.2411    0.0000 C   0  0  0  0  0  0  0  0  0  0  0  0
    1.0164   -0.7026    0.0000 C   0  0  0  0  0  0  0  0  0  0  0  0
    1.2501    0.7790    0.0000 C   0  0  0  0  0  0  0  0  0  0  0  0
    2.6501    1.3175    0.0000 C   0  0  0  0  0  0  0  0  0  0  0  0
    3.8164    0.3743    0.0000 C   0  0  0  0  0  0  0  0  0  0  0  0
    5.2165    0.9127    0.0000 I   0  0  0  0  0  0  0  0  0  0  0  0
    3.5828   -1.1074    0.0000 C   0  0  0  0  0  0  0  0  0  0  0  0
    2.1827   -1.6459    0.0000 C   0  0  0  0  0  0  0  0  0  0  0  0
   -2.9500   -0.8363    0.0000 C   0  0  0  0  0  0  0  0  0  0  0  0
   -4.1163    0.1069    0.0000 C   0  0  0  0  0  0  0  0  0  0  0  0
   -3.8826    1.5886    0.0000 O   0  0  0  0  0  0  0  0  0  0  0  0
   -5.5163   -0.4316    0.0000 O   0  0  0  0  0  0  0  0  0  0  0  0
  2  1  1  6
  2  3  1  0
  3  4  1  0
  4  5  1  0
  5  6  2  0
  6  7  1  0
  7  8  1  0
  7  9  2  0
  9 10  1  0
  2 11  1  0
 11 12  1  0
 12 13  2  0
 12 14  1  0
 10  4  2  0
M  END
>  <rName>  (4003) 
bAla_3RBn_4I

>  <PQ_SYMBOL>  (4003) 
bAla_3RBn_4I

>  <FULL_NAME>  (4003) 
(R)-3-amino-4-(4-iodophenyl)butanoic acid

>  <IUPAC_CONDENSED>  (4003) 
bAla(3R-Bn(4-I))

>  <IUPAC>  (4003) 
(3R)-3-amino-4-(4-iodophenyl)butanoic acid

>  <TYPE>  (4003) 
Backbone

>  <CLASS>  (4003) 
beta

>  <ANALOG>  (4003) 
Phe

>  <MOL_WT>  (4003) 
305.11500000000007

>  <LOGP>  (4003) 
1.6357000000000002

>  <TPSA>  (4003) 
63.32000000000001

>  <POPULARITY>  (4003) 
5.1

>  <PROTECTED>  (4003) 
TRUE

>  <SMILES>  (4003) 
N[C@H](Cc1(ccc(I)cc1))CC(=O)O

>  <INCHIKEY>  (4003) 
JZJBJZHUZJDMMU-SECBINFHSA-N

$$$$
bAla_3RBn_4NO2
     RDKit          2D

 16 16  0  0  0  0  0  0  0  0999 V2000
   -1.9908    1.1560    0.0000 N   0  0  0  0  0  0  0  0  0  0  0  0
   -2.3119   -0.3092    0.0000 C   0  0  0  0  0  0  0  0  0  0  0  0
   -1.2035   -1.3199    0.0000 C   0  0  0  0  0  0  0  0  0  0  0  0
    0.2260   -0.8653    0.0000 C   0  0  0  0  0  0  0  0  0  0  0  0
    0.5470    0.5999    0.0000 C   0  0  0  0  0  0  0  0  0  0  0  0
    1.9765    1.0545    0.0000 C   0  0  0  0  0  0  0  0  0  0  0  0
    3.0849    0.0439    0.0000 C   0  0  0  0  0  0  0  0  0  0  0  0
    2.7639   -1.4214    0.0000 C   0  0  0  0  0  0  0  0  0  0  0  0
    1.3344   -1.8759    0.0000 C   0  0  0  0  0  0  0  0  0  0  0  0
    4.5144    0.4985    0.0000 N   0  0  0  0  0  0  0  0  0  0  0  0
    4.8354    1.9637    0.0000 O   0  0  0  0  0  0  0  0  0  0  0  0
    5.6228   -0.5122    0.0000 O   0  0  0  0  0  0  0  0  0  0  0  0
   -3.7413   -0.7638    0.0000 C   0  0  0  0  0  0  0  0  0  0  0  0
   -4.8498    0.2468    0.0000 C   0  0  0  0  0  0  0  0  0  0  0  0
   -4.5287    1.7121    0.0000 O   0  0  0  0  0  0  0  0  0  0  0  0
   -6.2792   -0.2078    0.0000 O   0  0  0  0  0  0  0  0  0  0  0  0
  2  1  1  6
  2  3  1  0
  3  4  1  0
  4  5  1  0
  5  6  2  0
  6  7  1  0
  7  8  2  0
  8  9  1  0
  7 10  1  0
 10 11  2  0
 10 12  1  0
  2 13  1  0
 13 14  1  0
 14 15  2  0
 14 16  1  0
  9  4  2  0
M  CHG  2  10   1  12  -1
M  END
>  <rName>  (4004) 
bAla_3RBn_4NO2

>  <PQ_SYMBOL>  (4004) 
bAla_3RBn_4NO2

>  <FULL_NAME>  (4004) 
(R)-3-Amino-4-(4-nitrophenyl)butanoic acid

>  <IUPAC_CONDENSED>  (4004) 
bAla(3R-Bn(4-NO2))

>  <IUPAC>  (4004) 
(3R)-3-amino-4-(4-nitrophenyl)butanoic acid

>  <TYPE>  (4004) 
Backbone

>  <CLASS>  (4004) 
beta

>  <ANALOG>  (4004) 
Phe

>  <MOL_WT>  (4004) 
224.21599999999992

>  <LOGP>  (4004) 
0.9393

>  <TPSA>  (4004) 
106.46

>  <POPULARITY>  (4004) 
5.5

>  <PROTECTED>  (4004) 
TRUE

>  <SMILES>  (4004) 
N[C@H](Cc1(ccc(cc1)[N+](=O)[O-]))CC(=O)O

>  <INCHIKEY>  (4004) 
SMTCEKUITUZDPM-MRVPVSSYSA-N

$$$$
bAla_3RBn_4OH
     RDKit          2D

 14 14  0  0  0  0  0  0  0  0999 V2000
   -1.3163    1.1838    0.0000 N   0  0  0  0  0  0  0  0  0  0  0  0
   -1.5499   -0.2979    0.0000 C   0  0  0  0  0  0  0  0  0  0  0  0
   -0.3836   -1.2411    0.0000 C   0  0  0  0  0  0  0  0  0  0  0  0
    1.0164   -0.7026    0.0000 C   0  0  0  0  0  0  0  0  0  0  0  0
    1.2501    0.7790    0.0000 C   0  0  0  0  0  0  0  0  0  0  0  0
    2.6501    1.3175    0.0000 C   0  0  0  0  0  0  0  0  0  0  0  0
    3.8164    0.3743    0.0000 C   0  0  0  0  0  0  0  0  0  0  0  0
    5.2165    0.9127    0.0000 O   0  0  0  0  0  0  0  0  0  0  0  0
    3.5828   -1.1074    0.0000 C   0  0  0  0  0  0  0  0  0  0  0  0
    2.1827   -1.6459    0.0000 C   0  0  0  0  0  0  0  0  0  0  0  0
   -2.9500   -0.8363    0.0000 C   0  0  0  0  0  0  0  0  0  0  0  0
   -4.1163    0.1069    0.0000 C   0  0  0  0  0  0  0  0  0  0  0  0
   -3.8826    1.5886    0.0000 O   0  0  0  0  0  0  0  0  0  0  0  0
   -5.5163   -0.4316    0.0000 O   0  0  0  0  0  0  0  0  0  0  0  0
  2  1  1  6
  2  3  1  0
  3  4  1  0
  4  5  1  0
  5  6  2  0
  6  7  1  0
  7  8  1  0
  7  9  2  0
  9 10  1  0
  2 11  1  0
 11 12  1  0
 12 13  2  0
 12 14  1  0
 10  4  2  0
M  END
>  <rName>  (4005) 
bAla_3RBn_4OH

>  <PQ_SYMBOL>  (4005) 
bAla_3RBn_4OH

>  <FULL_NAME>  (4005) 
(R)-3-amino-4-(4-hydroxyphenyl)butanoic acid

>  <IUPAC_CONDENSED>  (4005) 
bAla(3R-Bn(4-OH))

>  <IUPAC>  (4005) 
(3R)-3-amino-4-(4-hydroxyphenyl)butanoic acid

>  <TYPE>  (4005) 
Backbone

>  <CLASS>  (4005) 
beta

>  <ANALOG>  (4005) 
Tyr

>  <MOL_WT>  (4005) 
195.21799999999996

>  <LOGP>  (4005) 
0.7367000000000001

>  <TPSA>  (4005) 
83.55

>  <POPULARITY>  (4005) 
13.2

>  <PROTECTED>  (4005) 
TRUE

>  <SMILES>  (4005) 
N[C@H](Cc1(ccc(O)cc1))CC(=O)O

>  <INCHIKEY>  (4005) 
VUNPIAMEJXBAFP-MRVPVSSYSA-N

$$$$
bAla_3RBn_4Ph
     RDKit          2D

 19 20  0  0  0  0  0  0  0  0999 V2000
   -3.0062    1.1685    0.0000 N   0  0  0  0  0  0  0  0  0  0  0  0
   -3.4278   -0.2710    0.0000 C   0  0  0  0  0  0  0  0  0  0  0  0
   -2.3920   -1.3560    0.0000 C   0  0  0  0  0  0  0  0  0  0  0  0
   -0.9345   -1.0014    0.0000 C   0  0  0  0  0  0  0  0  0  0  0  0
   -0.5128    0.4381    0.0000 C   0  0  0  0  0  0  0  0  0  0  0  0
    0.9446    0.7927    0.0000 C   0  0  0  0  0  0  0  0  0  0  0  0
    1.9805   -0.2922    0.0000 C   0  0  0  0  0  0  0  0  0  0  0  0
    1.5588   -1.7317    0.0000 C   0  0  0  0  0  0  0  0  0  0  0  0
    0.1013   -2.0863    0.0000 C   0  0  0  0  0  0  0  0  0  0  0  0
    3.4380    0.0624    0.0000 C   0  0  0  0  0  0  0  0  0  0  0  0
    4.4738   -1.0225    0.0000 C   0  0  0  0  0  0  0  0  0  0  0  0
    5.9313   -0.6679    0.0000 C   0  0  0  0  0  0  0  0  0  0  0  0
    6.3529    0.7716    0.0000 C   0  0  0  0  0  0  0  0  0  0  0  0
    5.3171    1.8565    0.0000 C   0  0  0  0  0  0  0  0  0  0  0  0
    3.8596    1.5019    0.0000 C   0  0  0  0  0  0  0  0  0  0  0  0
   -4.8853   -0.6256    0.0000 C   0  0  0  0  0  0  0  0  0  0  0  0
   -5.9211    0.4593    0.0000 C   0  0  0  0  0  0  0  0  0  0  0  0
   -5.4995    1.8988    0.0000 O   0  0  0  0  0  0  0  0  0  0  0  0
   -7.3786    0.1047    0.0000 O   0  0  0  0  0  0  0  0  0  0  0  0
  2  1  1  6
  2  3  1  0
  3  4  1  0
  4  5  1  0
  5  6  2  0
  6  7  1  0
  7  8  2  0
  8  9  1  0
  7 10  1  0
 10 11  2  0
 11 12  1  0
 12 13  2  0
 13 14  1  0
 14 15  2  0
  2 16  1  0
 16 17  1  0
 17 18  2  0
 17 19  1  0
  9  4  2  0
 15 10  1  0
M  END
>  <rName>  (4006) 
bAla_3RBn_4Ph

>  <PQ_SYMBOL>  (4006) 
bAla_3RBn_4Ph

>  <FULL_NAME>  (4006) 
(R)-4-([1,1'-Biphenyl]-4-yl)-3-aminobutanoicacid

>  <IUPAC_CONDENSED>  (4006) 
bAla(3R-Bn(4-Ph))

>  <IUPAC>  (4006) 
(3R)-3-amino-4-(4-phenylphenyl)butanoic acid

>  <TYPE>  (4006) 
Backbone

>  <CLASS>  (4006) 
beta

>  <ANALOG>  (4006) 
Phe

>  <MOL_WT>  (4006) 
255.31699999999998

>  <LOGP>  (4006) 
2.698100000000001

>  <TPSA>  (4006) 
63.32000000000001

>  <POPULARITY>  (4006) 
2.2

>  <PROTECTED>  (4006) 
TRUE

>  <SMILES>  (4006) 
N[C@H](Cc1(ccc(cc1)c2(ccccc2)))CC(=O)O

>  <INCHIKEY>  (4006) 
IHXITIQUZBCIHA-OAHLLOKOSA-N

$$$$
bAla_3RBn_4tBu
     RDKit          2D

 17 17  0  0  0  0  0  0  0  0999 V2000
   -2.2447    1.1497    0.0000 N   0  0  0  0  0  0  0  0  0  0  0  0
   -2.5808   -0.3121    0.0000 C   0  0  0  0  0  0  0  0  0  0  0  0
   -1.4828   -1.3341    0.0000 C   0  0  0  0  0  0  0  0  0  0  0  0
   -0.0487   -0.8942    0.0000 C   0  0  0  0  0  0  0  0  0  0  0  0
    0.2873    0.5677    0.0000 C   0  0  0  0  0  0  0  0  0  0  0  0
    1.7213    1.0076    0.0000 C   0  0  0  0  0  0  0  0  0  0  0  0
    2.8194   -0.0143    0.0000 C   0  0  0  0  0  0  0  0  0  0  0  0
    2.4833   -1.4762    0.0000 C   0  0  0  0  0  0  0  0  0  0  0  0
    1.0493   -1.9161    0.0000 C   0  0  0  0  0  0  0  0  0  0  0  0
    4.2534    0.4256    0.0000 C   0  0  0  0  0  0  0  0  0  0  0  0
    4.6933   -1.0084    0.0000 C   0  0  0  0  0  0  0  0  0  0  0  0
    3.8135    1.8597    0.0000 C   0  0  0  0  0  0  0  0  0  0  0  0
    5.6874    0.8655    0.0000 C   0  0  0  0  0  0  0  0  0  0  0  0
   -4.0148   -0.7521    0.0000 C   0  0  0  0  0  0  0  0  0  0  0  0
   -5.1128    0.2699    0.0000 C   0  0  0  0  0  0  0  0  0  0  0  0
   -4.7768    1.7318    0.0000 O   0  0  0  0  0  0  0  0  0  0  0  0
   -6.5468   -0.1701    0.0000 O   0  0  0  0  0  0  0  0  0  0  0  0
  2  1  1  6
  2  3  1  0
  3  4  1  0
  4  5  1  0
  5  6  2  0
  6  7  1  0
  7  8  2  0
  8  9  1  0
  7 10  1  0
 10 11  1  0
 10 12  1  0
 10 13  1  0
  2 14  1  0
 14 15  1  0
 15 16  2  0
 15 17  1  0
  9  4  2  0
M  END
>  <rName>  (4007) 
bAla_3RBn_4tBu

>  <PQ_SYMBOL>  (4007) 
bAla_3RBn_4tBu

>  <FULL_NAME>  (4007) 
(R)-3-amino-4-(4-(tert-butyl)phenyl)butanoic acid

>  <IUPAC_CONDENSED>  (4007) 
bAla(3R-Bn(4-tBu))

>  <IUPAC>  (4007) 
(3R)-3-amino-4-(4-(tert-butyl)phenyl)butanoic acid

>  <TYPE>  (4007) 
Backbone

>  <CLASS>  (4007) 
beta

>  <ANALOG>  (4007) 
Phe

>  <MOL_WT>  (4007) 
235.32699999999994

>  <LOGP>  (4007) 
2.3286000000000002

>  <TPSA>  (4007) 
63.32000000000001

>  <POPULARITY>  (4007) 
4.7

>  <PROTECTED>  (4007) 
TRUE

>  <SMILES>  (4007) 
N[C@H](Cc1(ccc(cc1)C(C)(C)C))CC(=O)O

>  <INCHIKEY>  (4007) 
KDMFJTJDCJZSGE-GFCCVEGCSA-N

$$$$
bAla_3RBu
     RDKit          2D

 10  9  0  0  0  0  0  0  0  0999 V2000
   -0.3386    1.4842    0.0000 N   0  0  0  0  0  0  0  0  0  0  0  0
   -0.2594   -0.0137    0.0000 C   0  0  0  0  0  0  0  0  0  0  0  0
    1.0773   -0.6941    0.0000 C   0  0  0  0  0  0  0  0  0  0  0  0
    2.3350    0.1233    0.0000 C   0  0  0  0  0  0  0  0  0  0  0  0
    3.6718   -0.5571    0.0000 C   0  0  0  0  0  0  0  0  0  0  0  0
    4.9295    0.2604    0.0000 C   0  0  0  0  0  0  0  0  0  0  0  0
   -1.5171   -0.8312    0.0000 C   0  0  0  0  0  0  0  0  0  0  0  0
   -2.8539   -0.1507    0.0000 C   0  0  0  0  0  0  0  0  0  0  0  0
   -2.9330    1.3472    0.0000 O   0  0  0  0  0  0  0  0  0  0  0  0
   -4.1116   -0.9682    0.0000 O   0  0  0  0  0  0  0  0  0  0  0  0
  2  1  1  6
  2  3  1  0
  3  4  1  0
  4  5  1  0
  5  6  1  0
  2  7  1  0
  7  8  1  0
  8  9  2  0
  8 10  1  0
M  END
>  <rName>  (4008) 
bAla_3RBu

>  <PQ_SYMBOL>  (4008) 
bAla_3RBu

>  <FULL_NAME>  (4008) 
D-Beta3-Homo-Norleucine

>  <IUPAC_CONDENSED>  (4008) 
bAla(3R-Bu)

>  <IUPAC>  (4008) 
(3R)-3-aminoheptanoic acid

>  <TYPE>  (4008) 
Backbone

>  <CLASS>  (4008) 
beta

>  <ANALOG>  (4008) 
Leu

>  <MOL_WT>  (4008) 
145.202

>  <LOGP>  (4008) 
0.9785999999999997

>  <TPSA>  (4008) 
63.32000000000001

>  <POPULARITY>  (4008) 
15.5

>  <PROTECTED>  (4008) 
TRUE

>  <SMILES>  (4008) 
N[C@H](CCCC)CC(=O)O

>  <INCHIKEY>  (4008) 
FUENJGFCFZKXBX-ZCFIWIBFSA-N

$$$$
bAla_3RBuNH2
     RDKit          2D

 11 10  0  0  0  0  0  0  0  0999 V2000
    0.9412   -1.5022    0.0000 N   0  0  0  0  0  0  0  0  0  0  0  0
    0.8294   -0.0064    0.0000 C   0  0  0  0  0  0  0  0  0  0  0  0
   -0.5219    0.6447    0.0000 C   0  0  0  0  0  0  0  0  0  0  0  0
   -1.7614   -0.2000    0.0000 C   0  0  0  0  0  0  0  0  0  0  0  0
   -3.1127    0.4511    0.0000 C   0  0  0  0  0  0  0  0  0  0  0  0
   -4.3523   -0.3937    0.0000 C   0  0  0  0  0  0  0  0  0  0  0  0
   -5.7036    0.2574    0.0000 N   0  0  0  0  0  0  0  0  0  0  0  0
    2.0690    0.8384    0.0000 C   0  0  0  0  0  0  0  0  0  0  0  0
    3.4203    0.1873    0.0000 C   0  0  0  0  0  0  0  0  0  0  0  0
    3.5321   -1.3086    0.0000 O   0  0  0  0  0  0  0  0  0  0  0  0
    4.6598    1.0320    0.0000 O   0  0  0  0  0  0  0  0  0  0  0  0
  2  1  1  6
  2  3  1  0
  3  4  1  0
  4  5  1  0
  5  6  1  0
  6  7  1  0
  2  8  1  0
  8  9  1  0
  9 10  2  0
  9 11  1  0
M  END
>  <rName>  (4009) 
bAla_3RBuNH2

>  <PQ_SYMBOL>  (4009) 
bAla_3RBuNH2

>  <FULL_NAME>  (4009) 
(R)-3,7-diaminoheptanoic acid

>  <IUPAC_CONDENSED>  (4009) 
bAla(3R-BuNH2)

>  <IUPAC>  (4009) 
(3R)-3,7-diaminoheptanoic acid

>  <TYPE>  (4009) 
Backbone

>  <CLASS>  (4009) 
beta

>  <ANALOG>  (4009) 
Lys

>  <MOL_WT>  (4009) 
160.217

>  <LOGP>  (4009) 
-0.08260000000000073

>  <TPSA>  (4009) 
89.34

>  <POPULARITY>  (4009) 
9.8

>  <PROTECTED>  (4009) 
TRUE

>  <SMILES>  (4009) 
N[C@H](CCCCN)CC(=O)O

>  <INCHIKEY>  (4009) 
PJDINCOFOROBQW-ZCFIWIBFSA-N

$$$$
bAla_3RCF3
     RDKit          2D

 10  9  0  0  0  0  0  0  0  0999 V2000
   -0.0629   -1.7674    0.0000 N   0  0  0  0  0  0  0  0  0  0  0  0
   -0.3412   -0.2934    0.0000 C   0  0  0  0  0  0  0  0  0  0  0  0
   -1.7568    0.2026    0.0000 C   0  0  0  0  0  0  0  0  0  0  0  0
   -3.1725    0.6986    0.0000 F   0  0  0  0  0  0  0  0  0  0  0  0
   -2.2528   -1.2130    0.0000 F   0  0  0  0  0  0  0  0  0  0  0  0
   -1.2608    1.6182    0.0000 F   0  0  0  0  0  0  0  0  0  0  0  0
    0.7961    0.6846    0.0000 C   0  0  0  0  0  0  0  0  0  0  0  0
    2.2118    0.1886    0.0000 C   0  0  0  0  0  0  0  0  0  0  0  0
    2.4900   -1.2854    0.0000 O   0  0  0  0  0  0  0  0  0  0  0  0
    3.3491    1.1666    0.0000 O   0  0  0  0  0  0  0  0  0  0  0  0
  2  1  1  1
  2  3  1  0
  3  4  1  0
  3  5  1  0
  3  6  1  0
  2  7  1  0
  7  8  1  0
  8  9  2  0
  8 10  1  0
M  END
>  <rName>  (4010) 
bAla_3RCF3

>  <PQ_SYMBOL>  (4010) 
bAla_3RCF3

>  <FULL_NAME>  (4010) 
(R)-3-Amino-4,4,4-trifluorobutanoic acid

>  <IUPAC_CONDENSED>  (4010) 
bAla(3R-CF3)

>  <IUPAC>  (4010) 
(3R)-3-amino-4,4,4-trifluorobutanoic acid

>  <TYPE>  (4010) 
Backbone

>  <CLASS>  (4010) 
beta

>  <ANALOG>  (4010) 
X

>  <MOL_WT>  (4010) 
157.091

>  <LOGP>  (4010) 
0.3507

>  <TPSA>  (4010) 
63.32000000000001

>  <POPULARITY>  (4010) 
8.1

>  <PROTECTED>  (4010) 
TRUE

>  <SMILES>  (4010) 
N[C@@H](C(F)(F)F)CC(=O)O

>  <INCHIKEY>  (4010) 
XRXQOEWWPPJVII-UWTATZPHSA-N

$$$$
bAla_3RCH2N3
     RDKit          2D

 10  9  0  0  0  0  0  0  0  0999 V2000
    0.5082    1.5911    0.0000 N   0  0  0  0  0  0  0  0  0  0  0  0
    0.2796    0.1087    0.0000 C   0  0  0  0  0  0  0  0  0  0  0  0
   -1.1185   -0.4346    0.0000 C   0  0  0  0  0  0  0  0  0  0  0  0
   -2.2881    0.5046    0.0000 N   0  0  0  0  0  0  0  0  0  0  0  0
   -3.6863   -0.0387    0.0000 N   0  0  0  0  0  0  0  0  0  0  0  0
   -5.0844   -0.5819    0.0000 N   0  0  0  0  0  0  0  0  0  0  0  0
    1.4492   -0.8306    0.0000 C   0  0  0  0  0  0  0  0  0  0  0  0
    2.8474   -0.2873    0.0000 C   0  0  0  0  0  0  0  0  0  0  0  0
    3.0760    1.1952    0.0000 O   0  0  0  0  0  0  0  0  0  0  0  0
    4.0169   -1.2265    0.0000 O   0  0  0  0  0  0  0  0  0  0  0  0
  2  1  1  6
  2  3  1  0
  3  4  1  0
  4  5  2  0
  5  6  2  0
  2  7  1  0
  7  8  1  0
  8  9  2  0
  8 10  1  0
M  CHG  2   5   1   6  -1
M  END
>  <rName>  (4011) 
bAla_3RCH2N3

>  <PQ_SYMBOL>  (4011) 
bAla_3RCH2N3

>  <FULL_NAME>  (4011) 
(3R)-3-amino-4-azidobutanoic acid

>  <IUPAC_CONDENSED>  (4011) 
bAla(3R-CH2N3)

>  <IUPAC>  (4011) 
(3R)-3-amino-4-azidobutanoic acid

>  <TYPE>  (4011) 
Backbone

>  <CLASS>  (4011) 
beta

>  <ANALOG>  (4011) 
X

>  <MOL_WT>  (4011) 
144.13400000000001

>  <LOGP>  (4011) 
0.09869999999999973

>  <TPSA>  (4011) 
112.08

>  <POPULARITY>  (4011) 
3.5

>  <PROTECTED>  (4011) 
TRUE

>  <SMILES>  (4011) 
N[C@@H](CN=[N+]=[N-])CC(=O)O

>  <INCHIKEY>  (4011) 
JRKNECXMMGNWMM-GSVOUGTGSA-N

$$$$
bAla_3RCH2NHMe
     RDKit          2D

  9  9  0  0  0  0  0  0  0  0999 V2000
   -0.5115   -2.3139    0.0000 N   0  0  0  0  0  0  0  0  0  0  0  0
   -0.8624   -0.8555    0.0000 C   0  0  0  0  0  0  0  0  0  0  0  0
    0.1113    0.2855    0.0000 C   0  0  0  0  0  0  0  0  0  0  0  0
   -0.6730    1.5641    0.0000 C   0  0  0  0  0  0  0  0  0  0  0  0
   -2.1314    1.2133    0.0000 N   0  0  0  0  0  0  0  0  0  0  0  0
   -2.2485   -0.2821    0.0000 C   0  0  0  0  0  0  0  0  0  0  0  0
    1.6067    0.1685    0.0000 C   0  0  0  0  0  0  0  0  0  0  0  0
    2.4558    1.4051    0.0000 O   0  0  0  0  0  0  0  0  0  0  0  0
    2.2531   -1.1851    0.0000 O   0  0  0  0  0  0  0  0  0  0  0  0
  2  1  1  1
  2  3  1  0
  3  4  1  0
  4  5  1  0
  5  6  1  0
  3  7  1  6
  7  8  2  0
  7  9  1  0
  6  2  1  0
M  END
>  <rName>  (4012) 
bAla_3RCH2NHMe

>  <PQ_SYMBOL>  (4012) 
bAla_3RCH2NHMe

>  <FULL_NAME>  (4012) 
(3S,4R)-4-Amino-3-pyrrolidinecarboxylic acid

>  <IUPAC_CONDENSED>  (4012) 
bAla(3R-CH2NHMe)

>  <IUPAC>  (4012) 
(3S,4R)-4-aminopyrrolidine-3-carboxylic acid

>  <TYPE>  (4012) 
Backbone

>  <CLASS>  (4012) 
beta

>  <ANALOG>  (4012) 
X

>  <MOL_WT>  (4012) 
130.147

>  <LOGP>  (4012) 
-1.3822999999999994

>  <TPSA>  (4012) 
75.35

>  <POPULARITY>  (4012) 
5.8

>  <PROTECTED>  (4012) 
TRUE

>  <SMILES>  (4012) 
N[C@@H]1[C@H](CNC1)C(=O)O

>  <INCHIKEY>  (4012) 
RMNHPXDNGOBDOT-IMJSIDKUSA-N

$$$$
bAla_3RCH2OH
     RDKit          2D

  8  7  0  0  0  0  0  0  0  0999 V2000
   -0.7931    1.4169    0.0000 N   0  0  0  0  0  0  0  0  0  0  0  0
   -0.8131   -0.0829    0.0000 C   0  0  0  0  0  0  0  0  0  0  0  0
   -2.1220   -0.8156    0.0000 C   0  0  0  0  0  0  0  0  0  0  0  0
   -3.4109   -0.0483    0.0000 O   0  0  0  0  0  0  0  0  0  0  0  0
    0.4759   -0.8502    0.0000 C   0  0  0  0  0  0  0  0  0  0  0  0
    1.7848   -0.1175    0.0000 C   0  0  0  0  0  0  0  0  0  0  0  0
    1.8048    1.3823    0.0000 O   0  0  0  0  0  0  0  0  0  0  0  0
    3.0737   -0.8848    0.0000 O   0  0  0  0  0  0  0  0  0  0  0  0
  2  1  1  6
  2  3  1  0
  3  4  1  0
  2  5  1  0
  5  6  1  0
  6  7  2  0
  6  8  1  0
M  END
>  <rName>  (4013) 
bAla_3RCH2OH

>  <PQ_SYMBOL>  (4013) 
bAla_3RCH2OH

>  <FULL_NAME>  (4013) 
L-beta-Homoserine

>  <IUPAC_CONDENSED>  (4013) 
bAla(3R-CH2OH)

>  <IUPAC>  (4013) 
(3R)-3-amino-4-hydroxybutanoic acid

>  <TYPE>  (4013) 
Backbone

>  <CLASS>  (4013) 
beta

>  <ANALOG>  (4013) 
Ser

>  <MOL_WT>  (4013) 
119.11999999999999

>  <LOGP>  (4013) 
-1.2192999999999998

>  <TPSA>  (4013) 
83.55

>  <POPULARITY>  (4013) 
25.0

>  <PROTECTED>  (4013) 
TRUE

>  <SMILES>  (4013) 
N[C@@H](CO)CC(=O)O

>  <INCHIKEY>  (4013) 
BUZICZZQJDLXJN-GSVOUGTGSA-N

$$$$
bAla_3RCH2OH_Ph
     RDKit          2D

 14 14  0  0  0  0  0  0  0  0999 V2000
   -2.1732   -1.6585    0.0000 N   0  0  0  0  0  0  0  0  0  0  0  0
   -1.8487   -0.1940    0.0000 C   0  0  0  0  0  0  0  0  0  0  0  0
   -0.4182    0.2573    0.0000 C   0  0  0  0  0  0  0  0  0  0  0  0
    0.6879   -0.7560    0.0000 O   0  0  0  0  0  0  0  0  0  0  0  0
    2.1184   -0.3047    0.0000 C   0  0  0  0  0  0  0  0  0  0  0  0
    2.4428    1.1598    0.0000 C   0  0  0  0  0  0  0  0  0  0  0  0
    3.8734    1.6110    0.0000 C   0  0  0  0  0  0  0  0  0  0  0  0
    4.9794    0.5978    0.0000 C   0  0  0  0  0  0  0  0  0  0  0  0
    4.6549   -0.8667    0.0000 C   0  0  0  0  0  0  0  0  0  0  0  0
    3.2244   -1.3180    0.0000 C   0  0  0  0  0  0  0  0  0  0  0  0
   -2.9548    0.8193    0.0000 C   0  0  0  0  0  0  0  0  0  0  0  0
   -4.3853    0.3680    0.0000 C   0  0  0  0  0  0  0  0  0  0  0  0
   -4.7097   -1.0965    0.0000 O   0  0  0  0  0  0  0  0  0  0  0  0
   -5.4913    1.3812    0.0000 O   0  0  0  0  0  0  0  0  0  0  0  0
  2  1  1  6
  2  3  1  0
  3  4  1  0
  4  5  1  0
  5  6  2  0
  6  7  1  0
  7  8  2  0
  8  9  1  0
  9 10  2  0
  2 11  1  0
 11 12  1  0
 12 13  2  0
 12 14  1  0
 10  5  1  0
M  END
>  <rName>  (4014) 
bAla_3RCH2OH_Ph

>  <PQ_SYMBOL>  (4014) 
bAla_3RCH2OH_Ph

>  <FULL_NAME>  (4014) 
bAla(3R-CH2OH,Ph)

>  <IUPAC_CONDENSED>  (4014) 
bAla(3R-CH2OH,Ph)

>  <IUPAC>  (4014) 
(3R)-3-amino-4-phenoxybutanoic acid

>  <TYPE>  (4014) 
Backbone

>  <CLASS>  (4014) 
beta

>  <ANALOG>  (4014) 
Ser

>  <MOL_WT>  (4014) 
195.21799999999996

>  <LOGP>  (4014) 
0.8674

>  <TPSA>  (4014) 
72.55

>  <POPULARITY>  (4014) 
2.2

>  <PROTECTED>  (4014) 
TRUE

>  <SMILES>  (4014) 
N[C@@H](COc1(ccccc1))CC(=O)O

>  <INCHIKEY>  (4014) 
SSODNSPEVQXJLB-MRVPVSSYSA-N

$$$$
bAla_3RCH2SPh
     RDKit          2D

 14 14  0  0  0  0  0  0  0  0999 V2000
   -2.1732   -1.6585    0.0000 N   0  0  0  0  0  0  0  0  0  0  0  0
   -1.8487   -0.1940    0.0000 C   0  0  0  0  0  0  0  0  0  0  0  0
   -0.4182    0.2573    0.0000 C   0  0  0  0  0  0  0  0  0  0  0  0
    0.6879   -0.7560    0.0000 S   0  0  0  0  0  0  0  0  0  0  0  0
    2.1184   -0.3047    0.0000 C   0  0  0  0  0  0  0  0  0  0  0  0
    2.4428    1.1598    0.0000 C   0  0  0  0  0  0  0  0  0  0  0  0
    3.8734    1.6110    0.0000 C   0  0  0  0  0  0  0  0  0  0  0  0
    4.9794    0.5978    0.0000 C   0  0  0  0  0  0  0  0  0  0  0  0
    4.6549   -0.8667    0.0000 C   0  0  0  0  0  0  0  0  0  0  0  0
    3.2244   -1.3180    0.0000 C   0  0  0  0  0  0  0  0  0  0  0  0
   -2.9548    0.8193    0.0000 C   0  0  0  0  0  0  0  0  0  0  0  0
   -4.3853    0.3680    0.0000 C   0  0  0  0  0  0  0  0  0  0  0  0
   -4.7097   -1.0965    0.0000 O   0  0  0  0  0  0  0  0  0  0  0  0
   -5.4913    1.3812    0.0000 O   0  0  0  0  0  0  0  0  0  0  0  0
  2  1  1  6
  2  3  1  0
  3  4  1  0
  4  5  1  0
  5  6  2  0
  6  7  1  0
  7  8  2  0
  8  9  1  0
  9 10  2  0
  2 11  1  0
 11 12  1  0
 12 13  2  0
 12 14  1  0
 10  5  1  0
M  END
>  <rName>  (4015) 
bAla_3RCH2SPh

>  <PQ_SYMBOL>  (4015) 
bAla_3RCH2SPh

>  <FULL_NAME>  (4015) 
(R)-3-amino-4-(phenylthio)butanoic acid

>  <IUPAC_CONDENSED>  (4015) 
bAla(3R-CH2SPh)

>  <IUPAC>  (4015) 
(3R)-3-amino-4-(phenylsulfanyl)butanoic acid

>  <TYPE>  (4015) 
Backbone

>  <CLASS>  (4015) 
beta

>  <ANALOG>  (4015) 
Cys

>  <MOL_WT>  (4015) 
211.28599999999997

>  <LOGP>  (4015) 
1.5807

>  <TPSA>  (4015) 
63.32000000000001

>  <POPULARITY>  (4015) 
6.8

>  <PROTECTED>  (4015) 
TRUE

>  <SMILES>  (4015) 
N[C@@H](CSc1(ccccc1))CC(=O)O

>  <INCHIKEY>  (4015) 
BAFKFCWMJAHLQJ-MRVPVSSYSA-N

$$$$
bAla_3RCH2cHex
     RDKit          2D

 13 13  0  0  0  0  0  0  0  0999 V2000
   -0.9767    1.2065    0.0000 N   0  0  0  0  0  0  0  0  0  0  0  0
   -1.1358   -0.2850    0.0000 C   0  0  0  0  0  0  0  0  0  0  0  0
    0.0764   -1.1685    0.0000 C   0  0  0  0  0  0  0  0  0  0  0  0
    1.4476   -0.5605    0.0000 C   0  0  0  0  0  0  0  0  0  0  0  0
    1.6067    0.9310    0.0000 C   0  0  0  0  0  0  0  0  0  0  0  0
    2.9779    1.5390    0.0000 C   0  0  0  0  0  0  0  0  0  0  0  0
    4.1901    0.6555    0.0000 C   0  0  0  0  0  0  0  0  0  0  0  0
    4.0310   -0.8361    0.0000 C   0  0  0  0  0  0  0  0  0  0  0  0
    2.6598   -1.4441    0.0000 C   0  0  0  0  0  0  0  0  0  0  0  0
   -2.5071   -0.8930    0.0000 C   0  0  0  0  0  0  0  0  0  0  0  0
   -3.7192   -0.0095    0.0000 C   0  0  0  0  0  0  0  0  0  0  0  0
   -3.5602    1.4821    0.0000 O   0  0  0  0  0  0  0  0  0  0  0  0
   -5.0905   -0.6175    0.0000 O   0  0  0  0  0  0  0  0  0  0  0  0
  2  1  1  6
  2  3  1  0
  3  4  1  0
  4  5  1  0
  5  6  1  0
  6  7  1  0
  7  8  1  0
  8  9  1  0
  2 10  1  0
 10 11  1  0
 11 12  2  0
 11 13  1  0
  9  4  1  0
M  END
>  <rName>  (4016) 
bAla_3RCH2cHex

>  <PQ_SYMBOL>  (4016) 
bAla_3RCH2cHex

>  <FULL_NAME>  (4016) 
(R)-3-Amino-4-cyclohexylbutanoic acid

>  <IUPAC_CONDENSED>  (4016) 
bAla(3R-CH2cHex)

>  <IUPAC>  (4016) 
(3R)-3-amino-4-cyclohexylbutanoic acid

>  <TYPE>  (4016) 
Backbone

>  <CLASS>  (4016) 
beta

>  <ANALOG>  (4016) 
Ala

>  <MOL_WT>  (4016) 
185.267

>  <LOGP>  (4016) 
1.7588

>  <TPSA>  (4016) 
63.32000000000001

>  <POPULARITY>  (4016) 
8.8

>  <PROTECTED>  (4016) 
TRUE

>  <SMILES>  (4016) 
N[C@H](CC1(CCCCC1))CC(=O)O

>  <INCHIKEY>  (4016) 
KFJPIMWRYYGPGM-SECBINFHSA-N

$$$$
bAla_3RCH2cPent
     RDKit          2D

 12 12  0  0  0  0  0  0  0  0999 V2000
   -0.6782    1.2367    0.0000 N   0  0  0  0  0  0  0  0  0  0  0  0
   -0.8112   -0.2574    0.0000 C   0  0  0  0  0  0  0  0  0  0  0  0
    0.4162   -1.1196    0.0000 C   0  0  0  0  0  0  0  0  0  0  0  0
    1.7766   -0.4878    0.0000 C   0  0  0  0  0  0  0  0  0  0  0  0
    3.0874   -1.2170    0.0000 C   0  0  0  0  0  0  0  0  0  0  0  0
    4.1860   -0.1957    0.0000 C   0  0  0  0  0  0  0  0  0  0  0  0
    3.5542    1.1647    0.0000 C   0  0  0  0  0  0  0  0  0  0  0  0
    2.0651    0.9842    0.0000 C   0  0  0  0  0  0  0  0  0  0  0  0
   -2.1716   -0.8892    0.0000 C   0  0  0  0  0  0  0  0  0  0  0  0
   -3.3991   -0.0270    0.0000 C   0  0  0  0  0  0  0  0  0  0  0  0
   -3.2660    1.4671    0.0000 O   0  0  0  0  0  0  0  0  0  0  0  0
   -4.7595   -0.6589    0.0000 O   0  0  0  0  0  0  0  0  0  0  0  0
  2  1  1  6
  2  3  1  0
  3  4  1  0
  4  5  1  0
  5  6  1  0
  6  7  1  0
  7  8  1  0
  2  9  1  0
  9 10  1  0
 10 11  2  0
 10 12  1  0
  8  4  1  0
M  END
>  <rName>  (4017) 
bAla_3RCH2cPent

>  <PQ_SYMBOL>  (4017) 
bAla_3RCH2cPent

>  <FULL_NAME>  (4017) 
bAla(3R-CH2cPent)

>  <IUPAC_CONDENSED>  (4017) 
bAla(3R-CH2cPent)

>  <IUPAC>  (4017) 
(3R)-3-amino-4-cyclopentylbutanoic acid

>  <TYPE>  (4017) 
Backbone

>  <CLASS>  (4017) 
beta

>  <ANALOG>  (4017) 
Ala

>  <MOL_WT>  (4017) 
171.24

>  <LOGP>  (4017) 
1.3687

>  <TPSA>  (4017) 
63.32000000000001

>  <POPULARITY>  (4017) 
2.2

>  <PROTECTED>  (4017) 
TRUE

>  <SMILES>  (4017) 
N[C@H](CC1(CCCC1))CC(=O)O

>  <INCHIKEY>  (4017) 
LREMTHPUZSUFPH-MRVPVSSYSA-N

$$$$
bAla_3RCH2cPr
     RDKit          2D

 10 10  0  0  0  0  0  0  0  0999 V2000
   -0.0258    1.2983    0.0000 N   0  0  0  0  0  0  0  0  0  0  0  0
   -0.1059   -0.1995    0.0000 C   0  0  0  0  0  0  0  0  0  0  0  0
    1.1512   -1.0179    0.0000 C   0  0  0  0  0  0  0  0  0  0  0  0
    2.4885   -0.3383    0.0000 C   0  0  0  0  0  0  0  0  0  0  0  0
    3.9863   -0.4185    0.0000 C   0  0  0  0  0  0  0  0  0  0  0  0
    3.3068    0.9188    0.0000 C   0  0  0  0  0  0  0  0  0  0  0  0
   -1.4432   -0.8791    0.0000 C   0  0  0  0  0  0  0  0  0  0  0  0
   -2.7003   -0.0607    0.0000 C   0  0  0  0  0  0  0  0  0  0  0  0
   -2.6201    1.4371    0.0000 O   0  0  0  0  0  0  0  0  0  0  0  0
   -4.0375   -0.7403    0.0000 O   0  0  0  0  0  0  0  0  0  0  0  0
  2  1  1  6
  2  3  1  0
  3  4  1  0
  4  5  1  0
  5  6  1  0
  2  7  1  0
  7  8  1  0
  8  9  2  0
  8 10  1  0
  6  4  1  0
M  END
>  <rName>  (4018) 
bAla_3RCH2cPr

>  <PQ_SYMBOL>  (4018) 
bAla_3RCH2cPr

>  <FULL_NAME>  (4018) 
(3R)-3-amino-4-cyclopropylbutanoic acid

>  <IUPAC_CONDENSED>  (4018) 
bAla(3R-CH2cPr)

>  <IUPAC>  (4018) 
(3R)-3-amino-4-cyclopropylbutanoic acid

>  <TYPE>  (4018) 
Backbone

>  <CLASS>  (4018) 
beta

>  <ANALOG>  (4018) 
Ala

>  <MOL_WT>  (4018) 
143.186

>  <LOGP>  (4018) 
0.5884999999999998

>  <TPSA>  (4018) 
63.32000000000001

>  <POPULARITY>  (4018) 
6.4

>  <PROTECTED>  (4018) 
TRUE

>  <SMILES>  (4018) 
N[C@H](CC1(CC1))CC(=O)O

>  <INCHIKEY>  (4018) 
VJGFNPLMAVQRCF-ZCFIWIBFSA-N

$$$$
bAla_3RCONHPh_4NO2
     RDKit          2D

 18 18  0  0  0  0  0  0  0  0999 V2000
   -3.4368   -1.7323    0.0000 N   0  0  0  0  0  0  0  0  0  0  0  0
   -3.0170   -0.2923    0.0000 C   0  0  0  0  0  0  0  0  0  0  0  0
   -1.5599    0.0642    0.0000 C   0  0  0  0  0  0  0  0  0  0  0  0
   -1.1401    1.5042    0.0000 O   0  0  0  0  0  0  0  0  0  0  0  0
   -0.5227   -1.0194    0.0000 N   0  0  0  0  0  0  0  0  0  0  0  0
    0.9343   -0.6630    0.0000 C   0  0  0  0  0  0  0  0  0  0  0  0
    1.3541    0.7771    0.0000 C   0  0  0  0  0  0  0  0  0  0  0  0
    2.8112    1.1335    0.0000 C   0  0  0  0  0  0  0  0  0  0  0  0
    3.8484    0.0499    0.0000 C   0  0  0  0  0  0  0  0  0  0  0  0
    3.4286   -1.3901    0.0000 C   0  0  0  0  0  0  0  0  0  0  0  0
    1.9715   -1.7466    0.0000 C   0  0  0  0  0  0  0  0  0  0  0  0
    5.3054    0.4064    0.0000 N   0  0  0  0  0  0  0  0  0  0  0  0
    5.7252    1.8464    0.0000 O   0  0  0  0  0  0  0  0  0  0  0  0
    6.3426   -0.6772    0.0000 O   0  0  0  0  0  0  0  0  0  0  0  0
   -4.0542    0.7913    0.0000 C   0  0  0  0  0  0  0  0  0  0  0  0
   -5.5112    0.4349    0.0000 C   0  0  0  0  0  0  0  0  0  0  0  0
   -5.9310   -1.0052    0.0000 O   0  0  0  0  0  0  0  0  0  0  0  0
   -6.5484    1.5185    0.0000 O   0  0  0  0  0  0  0  0  0  0  0  0
  2  1  1  1
  2  3  1  0
  3  4  2  0
  3  5  1  0
  5  6  1  0
  6  7  1  0
  7  8  2  0
  8  9  1  0
  9 10  2  0
 10 11  1  0
  9 12  1  0
 12 13  2  0
 12 14  1  0
  2 15  1  0
 15 16  1  0
 16 17  2  0
 16 18  1  0
 11  6  2  0
M  CHG  2  12   1  14  -1
M  END
>  <rName>  (4019) 
bAla_3RCONHPh_4NO2

>  <PQ_SYMBOL>  (4019) 
bAla_3RCONHPh_4NO2

>  <FULL_NAME>  (4019) 
(S)-3-amino-4-((4-nitrophenyl)amino)-4-oxobutanoic acid

>  <IUPAC_CONDENSED>  (4019) 
Asp-pNA

>  <IUPAC>  (4019) 
(3S)-3-amino-3-((4-nitrophenyl)carbamoyl)propanoic acid

>  <TYPE>  (4019) 
Backbone

>  <CLASS>  (4019) 
beta

>  <ANALOG>  (4019) 
X

>  <MOL_WT>  (4019) 
253.21399999999997

>  <LOGP>  (4019) 
0.33529999999999943

>  <TPSA>  (4019) 
135.56

>  <POPULARITY>  (4019) 
7.0

>  <PROTECTED>  (4019) 
TRUE

>  <SMILES>  (4019) 
N[C@H](C(=O)Nc1(ccc(cc1)[N+](=O)[O-]))CC(=O)O

>  <INCHIKEY>  (4019) 
JPSVAMXHSUXSEY-QMMMGPOBSA-N

$$$$
bAla_3REt
     RDKit          2D

  8  7  0  0  0  0  0  0  0  0999 V2000
    0.7931    1.4169    0.0000 N   0  0  0  0  0  0  0  0  0  0  0  0
    0.8131   -0.0829    0.0000 C   0  0  0  0  0  0  0  0  0  0  0  0
    2.1220   -0.8156    0.0000 C   0  0  0  0  0  0  0  0  0  0  0  0
    3.4109   -0.0483    0.0000 C   0  0  0  0  0  0  0  0  0  0  0  0
   -0.4759   -0.8502    0.0000 C   0  0  0  0  0  0  0  0  0  0  0  0
   -1.7848   -0.1175    0.0000 C   0  0  0  0  0  0  0  0  0  0  0  0
   -1.8048    1.3823    0.0000 O   0  0  0  0  0  0  0  0  0  0  0  0
   -3.0737   -0.8848    0.0000 O   0  0  0  0  0  0  0  0  0  0  0  0
  2  1  1  6
  2  3  1  0
  3  4  1  0
  2  5  1  0
  5  6  1  0
  6  7  2  0
  6  8  1  0
M  END
>  <rName>  (4020) 
bAla_3REt

>  <PQ_SYMBOL>  (4020) 
bAla_3REt

>  <FULL_NAME>  (4020) 
(R)-3-aminopentanoic acid

>  <IUPAC_CONDENSED>  (4020) 
bAla(3R-Et)

>  <IUPAC>  (4020) 
(3R)-3-aminopentanoic acid

>  <TYPE>  (4020) 
Backbone

>  <CLASS>  (4020) 
beta

>  <ANALOG>  (4020) 
Ala

>  <MOL_WT>  (4020) 
117.14799999999998

>  <LOGP>  (4020) 
0.19839999999999985

>  <TPSA>  (4020) 
63.32000000000001

>  <POPULARITY>  (4020) 
17.0

>  <PROTECTED>  (4020) 
TRUE

>  <SMILES>  (4020) 
N[C@H](CC)CC(=O)O

>  <INCHIKEY>  (4020) 
QFRURJKLPJVRQY-SCSAIBSYSA-N

$$$$
bAla_3REtNH2
     RDKit          2D

  9  8  0  0  0  0  0  0  0  0999 V2000
   -0.1633   -1.5188    0.0000 N   0  0  0  0  0  0  0  0  0  0  0  0
   -0.2877   -0.0239    0.0000 C   0  0  0  0  0  0  0  0  0  0  0  0
   -1.6444    0.6157    0.0000 C   0  0  0  0  0  0  0  0  0  0  0  0
   -2.8768   -0.2394    0.0000 C   0  0  0  0  0  0  0  0  0  0  0  0
   -4.2336    0.4002    0.0000 N   0  0  0  0  0  0  0  0  0  0  0  0
    0.9447    0.8312    0.0000 C   0  0  0  0  0  0  0  0  0  0  0  0
    2.3014    0.1915    0.0000 C   0  0  0  0  0  0  0  0  0  0  0  0
    2.4259   -1.3033    0.0000 O   0  0  0  0  0  0  0  0  0  0  0  0
    3.5338    1.0467    0.0000 O   0  0  0  0  0  0  0  0  0  0  0  0
  2  1  1  6
  2  3  1  0
  3  4  1  0
  4  5  1  0
  2  6  1  0
  6  7  1  0
  7  8  2  0
  7  9  1  0
M  END
>  <rName>  (4021) 
bAla_3REtNH2

>  <PQ_SYMBOL>  (4021) 
bAla_3REtNH2

>  <FULL_NAME>  (4021) 
(R)-3,5-diaminopentanoic acid

>  <IUPAC_CONDENSED>  (4021) 
bAla(3R-EtNH2)

>  <IUPAC>  (4021) 
(3R)-3,5-diaminopentanoic acid

>  <TYPE>  (4021) 
Backbone

>  <CLASS>  (4021) 
beta

>  <ANALOG>  (4021) 
X

>  <MOL_WT>  (4021) 
132.163

>  <LOGP>  (4021) 
-0.8628

>  <TPSA>  (4021) 
89.34

>  <POPULARITY>  (4021) 
12.2

>  <PROTECTED>  (4021) 
TRUE

>  <SMILES>  (4021) 
N[C@H](CCN)CC(=O)O

>  <INCHIKEY>  (4021) 
UOYNFMVJDVKLNJ-SCSAIBSYSA-N

$$$$
bAla_3REtO2H
     RDKit          2D

 10  9  0  0  0  0  0  0  0  0999 V2000
   -0.0000    1.3500    0.0000 N   0  0  0  0  0  0  0  0  0  0  0  0
   -0.0000   -0.1500    0.0000 C   0  0  0  0  0  0  0  0  0  0  0  0
   -1.2990   -0.9000    0.0000 C   0  0  0  0  0  0  0  0  0  0  0  0
   -2.5981   -0.1500    0.0000 C   0  0  0  0  0  0  0  0  0  0  0  0
   -2.5981    1.3500    0.0000 O   0  0  0  0  0  0  0  0  0  0  0  0
   -3.8971   -0.9000    0.0000 O   0  0  0  0  0  0  0  0  0  0  0  0
    1.2990   -0.9000    0.0000 C   0  0  0  0  0  0  0  0  0  0  0  0
    2.5981   -0.1500    0.0000 C   0  0  0  0  0  0  0  0  0  0  0  0
    2.5981    1.3500    0.0000 O   0  0  0  0  0  0  0  0  0  0  0  0
    3.8971   -0.9000    0.0000 O   0  0  0  0  0  0  0  0  0  0  0  0
  1  2  1  0
  2  3  1  0
  3  4  1  0
  4  5  2  0
  4  6  1  0
  2  7  1  0
  7  8  1  0
  8  9  2  0
  8 10  1  0
M  END
>  <rName>  (4022) 
bAla_3REtO2H

>  <PQ_SYMBOL>  (4022) 
bAla_3REtO2H

>  <FULL_NAME>  (4022) 
L-beta-Glutamic acid

>  <IUPAC_CONDENSED>  (4022) 
bAla(3R-EtO2H)

>  <IUPAC>  (4022) 
3-aminopentanedioic acid

>  <TYPE>  (4022) 
Backbone

>  <CLASS>  (4022) 
beta

>  <ANALOG>  (4022) 
Asp

>  <MOL_WT>  (4022) 
147.13

>  <LOGP>  (4022) 
-0.7369000000000001

>  <TPSA>  (4022) 
100.62000000000002

>  <POPULARITY>  (4022) 
24.0

>  <PROTECTED>  (4022) 
TRUE

>  <SMILES>  (4022) 
NC(CC(=O)O)CC(=O)O

>  <INCHIKEY>  (4022) 
BBJIPMIXTXKYLZ-UHFFFAOYSA-N

$$$$
bAla_3REtPh
     RDKit          2D

 14 14  0  0  0  0  0  0  0  0999 V2000
   -2.1732   -1.6585    0.0000 N   0  0  0  0  0  0  0  0  0  0  0  0
   -1.8487   -0.1940    0.0000 C   0  0  0  0  0  0  0  0  0  0  0  0
   -0.4182    0.2573    0.0000 C   0  0  0  0  0  0  0  0  0  0  0  0
    0.6879   -0.7560    0.0000 C   0  0  0  0  0  0  0  0  0  0  0  0
    2.1184   -0.3047    0.0000 C   0  0  0  0  0  0  0  0  0  0  0  0
    2.4428    1.1598    0.0000 C   0  0  0  0  0  0  0  0  0  0  0  0
    3.8734    1.6110    0.0000 C   0  0  0  0  0  0  0  0  0  0  0  0
    4.9794    0.5978    0.0000 C   0  0  0  0  0  0  0  0  0  0  0  0
    4.6549   -0.8667    0.0000 C   0  0  0  0  0  0  0  0  0  0  0  0
    3.2244   -1.3180    0.0000 C   0  0  0  0  0  0  0  0  0  0  0  0
   -2.9548    0.8193    0.0000 C   0  0  0  0  0  0  0  0  0  0  0  0
   -4.3853    0.3680    0.0000 C   0  0  0  0  0  0  0  0  0  0  0  0
   -4.7097   -1.0965    0.0000 O   0  0  0  0  0  0  0  0  0  0  0  0
   -5.4913    1.3812    0.0000 O   0  0  0  0  0  0  0  0  0  0  0  0
  2  1  1  1
  2  3  1  0
  3  4  1  0
  4  5  1  0
  5  6  2  0
  6  7  1  0
  7  8  2  0
  8  9  1  0
  9 10  2  0
  2 11  1  0
 11 12  1  0
 12 13  2  0
 12 14  1  0
 10  5  1  0
M  END
>  <rName>  (4023) 
bAla_3REtPh

>  <PQ_SYMBOL>  (4023) 
bAla_3REtPh

>  <FULL_NAME>  (4023) 
(3R)-3-amino-5-phenylpentanoic acid

>  <IUPAC_CONDENSED>  (4023) 
bAla(3R-EtPh)

>  <IUPAC>  (4023) 
(3R)-3-amino-5-phenylpentanoic acid

>  <TYPE>  (4023) 
Backbone

>  <CLASS>  (4023) 
beta

>  <ANALOG>  (4023) 
Phe

>  <MOL_WT>  (4023) 
193.24599999999995

>  <LOGP>  (4023) 
1.4211999999999998

>  <TPSA>  (4023) 
63.32000000000001

>  <POPULARITY>  (4023) 
9.5

>  <PROTECTED>  (4023) 
TRUE

>  <SMILES>  (4023) 
N[C@H](CCc1(ccccc1))CC(=O)O

>  <INCHIKEY>  (4023) 
CJJYCYZKUNRKFP-SNVBAGLBSA-N

$$$$
bAla_3RMbzl
     RDKit          2D

 14 14  0  0  0  0  0  0  0  0999 V2000
   -1.3163    1.1838    0.0000 N   0  0  0  0  0  0  0  0  0  0  0  0
   -1.5499   -0.2979    0.0000 C   0  0  0  0  0  0  0  0  0  0  0  0
   -0.3836   -1.2411    0.0000 C   0  0  0  0  0  0  0  0  0  0  0  0
    1.0164   -0.7026    0.0000 C   0  0  0  0  0  0  0  0  0  0  0  0
    1.2501    0.7790    0.0000 C   0  0  0  0  0  0  0  0  0  0  0  0
    2.6501    1.3175    0.0000 C   0  0  0  0  0  0  0  0  0  0  0  0
    3.8164    0.3743    0.0000 C   0  0  0  0  0  0  0  0  0  0  0  0
    5.2165    0.9127    0.0000 C   0  0  0  0  0  0  0  0  0  0  0  0
    3.5828   -1.1074    0.0000 C   0  0  0  0  0  0  0  0  0  0  0  0
    2.1827   -1.6459    0.0000 C   0  0  0  0  0  0  0  0  0  0  0  0
   -2.9500   -0.8363    0.0000 C   0  0  0  0  0  0  0  0  0  0  0  0
   -4.1163    0.1069    0.0000 C   0  0  0  0  0  0  0  0  0  0  0  0
   -3.8826    1.5886    0.0000 O   0  0  0  0  0  0  0  0  0  0  0  0
   -5.5163   -0.4316    0.0000 O   0  0  0  0  0  0  0  0  0  0  0  0
  2  1  1  6
  2  3  1  0
  3  4  1  0
  4  5  1  0
  5  6  2  0
  6  7  1  0
  7  8  1  0
  7  9  2  0
  9 10  1  0
  2 11  1  0
 11 12  1  0
 12 13  2  0
 12 14  1  0
 10  4  2  0
M  END
>  <rName>  (4024) 
bAla_3RMbzl

>  <PQ_SYMBOL>  (4024) 
bAla_3RMbzl

>  <FULL_NAME>  (4024) 
(R)-3-amino-4-(p-tolyl)butanoic acid

>  <IUPAC_CONDENSED>  (4024) 
bAla(3R-Mbzl)

>  <IUPAC>  (4024) 
(3R)-3-amino-4-(4-methylphenyl)butanoic acid

>  <TYPE>  (4024) 
Backbone

>  <CLASS>  (4024) 
beta

>  <ANALOG>  (4024) 
Phe

>  <MOL_WT>  (4024) 
193.24599999999995

>  <LOGP>  (4024) 
1.3395200000000003

>  <TPSA>  (4024) 
63.32000000000001

>  <POPULARITY>  (4024) 
8.3

>  <PROTECTED>  (4024) 
TRUE

>  <SMILES>  (4024) 
N[C@H](Cc1(ccc(C)cc1))CC(=O)O

>  <INCHIKEY>  (4024) 
OCNPVFDANAYUCR-SNVBAGLBSA-N

$$$$
bAla_3RMe
     RDKit          2D

  7  6  0  0  0  0  0  0  0  0999 V2000
   -1.2990    1.3929    0.0000 N   0  0  0  0  0  0  0  0  0  0  0  0
   -1.2990   -0.1071    0.0000 C   0  0  0  0  0  0  0  0  0  0  0  0
   -2.5981   -0.8571    0.0000 C   0  0  0  0  0  0  0  0  0  0  0  0
    0.0000   -0.8571    0.0000 C   0  0  0  0  0  0  0  0  0  0  0  0
    1.2990   -0.1071    0.0000 C   0  0  0  0  0  0  0  0  0  0  0  0
    1.2990    1.3929    0.0000 O   0  0  0  0  0  0  0  0  0  0  0  0
    2.5981   -0.8571    0.0000 O   0  0  0  0  0  0  0  0  0  0  0  0
  1  2  1  0
  2  3  1  1
  2  4  1  0
  4  5  1  0
  5  6  2  0
  5  7  1  0
M  END
>  <rName>  (4025) 
bAla_3RMe

>  <PQ_SYMBOL>  (4025) 
bAla_3RMe

>  <FULL_NAME>  (4025) 
D-3-aminobutyric acid

>  <IUPAC_CONDENSED>  (4025) 
bAla(3R-Me)

>  <IUPAC>  (4025) 
(3R)-3-aminobutanoic acid

>  <TYPE>  (4025) 
Backbone

>  <CLASS>  (4025) 
beta

>  <ANALOG>  (4025) 
Ala

>  <MOL_WT>  (4025) 
103.12099999999998

>  <LOGP>  (4025) 
-0.19170000000000004

>  <TPSA>  (4025) 
63.32000000000001

>  <POPULARITY>  (4025) 
19.0

>  <PROTECTED>  (4025) 
TRUE

>  <SMILES>  (4025) 
N[C@H](C)CC(=O)O

>  <INCHIKEY>  (4025) 
OQEBBZSWEGYTPG-GSVOUGTGSA-N

$$$$
bAla_3RMeNH2
     RDKit          2D

  8  7  0  0  0  0  0  0  0  0999 V2000
   -0.7931    1.4169    0.0000 N   0  0  0  0  0  0  0  0  0  0  0  0
   -0.8131   -0.0829    0.0000 C   0  0  0  0  0  0  0  0  0  0  0  0
   -2.1220   -0.8156    0.0000 C   0  0  0  0  0  0  0  0  0  0  0  0
   -3.4109   -0.0483    0.0000 N   0  0  0  0  0  0  0  0  0  0  0  0
    0.4759   -0.8502    0.0000 C   0  0  0  0  0  0  0  0  0  0  0  0
    1.7848   -0.1175    0.0000 C   0  0  0  0  0  0  0  0  0  0  0  0
    1.8048    1.3823    0.0000 O   0  0  0  0  0  0  0  0  0  0  0  0
    3.0737   -0.8848    0.0000 O   0  0  0  0  0  0  0  0  0  0  0  0
  2  1  1  6
  2  3  1  0
  3  4  1  0
  2  5  1  0
  5  6  1  0
  6  7  2  0
  6  8  1  0
M  END
>  <rName>  (4026) 
bAla_3RMeNH2

>  <PQ_SYMBOL>  (4026) 
bAla_3RMeNH2

>  <FULL_NAME>  (4026) 
(R)-3,4-Diaminobutyric acid

>  <IUPAC_CONDENSED>  (4026) 
bAla(3R-MeNH2)

>  <IUPAC>  (4026) 
(3R)-3,4-diaminobutanoic acid

>  <TYPE>  (4026) 
Backbone

>  <CLASS>  (4026) 
beta

>  <ANALOG>  (4026) 
X

>  <MOL_WT>  (4026) 
118.13599999999998

>  <LOGP>  (4026) 
-1.2529

>  <TPSA>  (4026) 
89.34

>  <POPULARITY>  (4026) 
14.0

>  <PROTECTED>  (4026) 
TRUE

>  <SMILES>  (4026) 
N[C@@H](CN)CC(=O)O

>  <INCHIKEY>  (4026) 
XQKAYTBBWLDCBB-GSVOUGTGSA-N

$$$$
bAla_3RMeOMe
     RDKit          2D

  9  8  0  0  0  0  0  0  0  0999 V2000
   -0.1633    1.5188    0.0000 N   0  0  0  0  0  0  0  0  0  0  0  0
   -0.2877    0.0239    0.0000 C   0  0  0  0  0  0  0  0  0  0  0  0
   -1.6444   -0.6157    0.0000 C   0  0  0  0  0  0  0  0  0  0  0  0
   -2.8768    0.2394    0.0000 O   0  0  0  0  0  0  0  0  0  0  0  0
   -4.2336   -0.4002    0.0000 C   0  0  0  0  0  0  0  0  0  0  0  0
    0.9447   -0.8312    0.0000 C   0  0  0  0  0  0  0  0  0  0  0  0
    2.3014   -0.1915    0.0000 C   0  0  0  0  0  0  0  0  0  0  0  0
    2.4259    1.3033    0.0000 O   0  0  0  0  0  0  0  0  0  0  0  0
    3.5338   -1.0467    0.0000 O   0  0  0  0  0  0  0  0  0  0  0  0
  2  1  1  6
  2  3  1  0
  3  4  1  0
  4  5  1  0
  2  6  1  0
  6  7  1  0
  7  8  2  0
  7  9  1  0
M  END
>  <rName>  (4027) 
bAla_3RMeOMe

>  <PQ_SYMBOL>  (4027) 
bAla_3RMeOMe

>  <FULL_NAME>  (4027) 
(3R)-3-amino-4-methoxybutanoic acid

>  <IUPAC_CONDENSED>  (4027) 
bAla(3R-MeOMe)

>  <IUPAC>  (4027) 
(3R)-3-amino-4-methoxybutanoic acid

>  <TYPE>  (4027) 
Backbone

>  <CLASS>  (4027) 
beta

>  <ANALOG>  (4027) 
Ser

>  <MOL_WT>  (4027) 
133.147

>  <LOGP>  (4027) 
-0.5652000000000004

>  <TPSA>  (4027) 
72.55

>  <POPULARITY>  (4027) 
10.1

>  <PROTECTED>  (4027) 
TRUE

>  <SMILES>  (4027) 
N[C@@H](COC)CC(=O)O

>  <INCHIKEY>  (4027) 
YDUMIOQVLFELGB-SCSAIBSYSA-N

$$$$
bAla_3RMeSH
     RDKit          2D

  8  7  0  0  0  0  0  0  0  0999 V2000
   -0.7931    1.4169    0.0000 N   0  0  0  0  0  0  0  0  0  0  0  0
   -0.8131   -0.0829    0.0000 C   0  0  0  0  0  0  0  0  0  0  0  0
   -2.1220   -0.8156    0.0000 C   0  0  0  0  0  0  0  0  0  0  0  0
   -3.4109   -0.0483    0.0000 S   0  0  0  0  0  0  0  0  0  0  0  0
    0.4759   -0.8502    0.0000 C   0  0  0  0  0  0  0  0  0  0  0  0
    1.7848   -0.1175    0.0000 C   0  0  0  0  0  0  0  0  0  0  0  0
    1.8048    1.3823    0.0000 O   0  0  0  0  0  0  0  0  0  0  0  0
    3.0737   -0.8848    0.0000 O   0  0  0  0  0  0  0  0  0  0  0  0
  2  1  1  6
  2  3  1  0
  3  4  1  0
  2  5  1  0
  5  6  1  0
  6  7  2  0
  6  8  1  0
M  END
>  <rName>  (4028) 
bAla_3RMeSH

>  <PQ_SYMBOL>  (4028) 
bAla_3RMeSH

>  <FULL_NAME>  (4028) 
(3R)-3-amino-4-sulfanylbutanoic acid

>  <IUPAC_CONDENSED>  (4028) 
bAla(3R-MeSH)

>  <IUPAC>  (4028) 
(3R)-3-amino-4-sulfanylbutanoic acid

>  <TYPE>  (4028) 
Backbone

>  <CLASS>  (4028) 
beta

>  <ANALOG>  (4028) 
Cys

>  <MOL_WT>  (4028) 
135.188

>  <LOGP>  (4028) 
-0.28180000000000033

>  <TPSA>  (4028) 
63.32000000000001

>  <POPULARITY>  (4028) 
12.2

>  <PROTECTED>  (4028) 
TRUE

>  <SMILES>  (4028) 
N[C@@H](CS)CC(=O)O

>  <INCHIKEY>  (4028) 
UGPZHAXXEJECMI-GSVOUGTGSA-N

$$$$
bAla_3RMe_PhEt
     RDKit          2D

 15 15  0  0  0  0  0  0  0  0999 V2000
   -2.3375    1.3624    0.0000 N   0  0  0  0  0  0  0  0  0  0  0  0
   -2.4397   -0.1341    0.0000 C   0  0  0  0  0  0  0  0  0  0  0  0
   -1.1948   -0.9709    0.0000 C   0  0  0  0  0  0  0  0  0  0  0  0
    0.1524   -0.3111    0.0000 C   0  0  0  0  0  0  0  0  0  0  0  0
    1.3973   -1.1479    0.0000 C   0  0  0  0  0  0  0  0  0  0  0  0
    2.7444   -0.4881    0.0000 C   0  0  0  0  0  0  0  0  0  0  0  0
    2.8466    1.0084    0.0000 C   0  0  0  0  0  0  0  0  0  0  0  0
    4.1937    1.6681    0.0000 C   0  0  0  0  0  0  0  0  0  0  0  0
    5.4386    0.8314    0.0000 C   0  0  0  0  0  0  0  0  0  0  0  0
    5.3364   -0.6651    0.0000 C   0  0  0  0  0  0  0  0  0  0  0  0
    3.9893   -1.3249    0.0000 C   0  0  0  0  0  0  0  0  0  0  0  0
   -3.7868   -0.7938    0.0000 C   0  0  0  0  0  0  0  0  0  0  0  0
   -5.0317    0.0429    0.0000 C   0  0  0  0  0  0  0  0  0  0  0  0
   -4.9295    1.5395    0.0000 O   0  0  0  0  0  0  0  0  0  0  0  0
   -6.3788   -0.6168    0.0000 O   0  0  0  0  0  0  0  0  0  0  0  0
  2  1  1  6
  2  3  1  0
  3  4  1  0
  4  5  2  0
  5  6  1  0
  6  7  2  0
  7  8  1  0
  8  9  2  0
  9 10  1  0
 10 11  2  0
  2 12  1  0
 12 13  1  0
 13 14  2  0
 13 15  1  0
 11  6  1  0
M  END
>  <rName>  (4029) 
bAla_3RMe_PhEt

>  <PQ_SYMBOL>  (4029) 
bAla_3RMe_PhEt

>  <FULL_NAME>  (4029) 
(R,E)-3-amino-6-phenylhex-5-enoic acid

>  <IUPAC_CONDENSED>  (4029) 
bAla(3R-Me,PhEt)

>  <IUPAC>  (4029) 
(3R,5E)-3-amino-6-phenylhex-5-enoic acid

>  <TYPE>  (4029) 
Backbone

>  <CLASS>  (4029) 
beta

>  <ANALOG>  (4029) 
X

>  <MOL_WT>  (4029) 
205.25699999999998

>  <LOGP>  (4029) 
1.8919

>  <TPSA>  (4029) 
63.32000000000001

>  <POPULARITY>  (4029) 
5.0

>  <PROTECTED>  (4029) 
TRUE

>  <SMILES>  (4029) 
N[C@H](C/C=C/c1ccccc1)CC(=O)O

>  <INCHIKEY>  (4029) 
BYMYELCZQGMMKN-TZOMUSMUSA-N

$$$$
bAla_3RMe_SO2Me
     RDKit          2D

 11 10  0  0  0  0  0  0  0  0999 V2000
    0.2445    1.3622    0.0000 N   0  0  0  0  0  0  0  0  0  0  0  0
    0.2354   -0.1378    0.0000 C   0  0  0  0  0  0  0  0  0  0  0  0
   -1.0682   -0.8799    0.0000 C   0  0  0  0  0  0  0  0  0  0  0  0
   -2.3627   -0.1220    0.0000 S   0  0  0  0  0  0  0  0  0  0  0  0
   -3.1206   -1.4164    0.0000 O   0  0  0  0  0  0  0  0  0  0  0  0
   -1.6048    1.1725    0.0000 O   0  0  0  0  0  0  0  0  0  0  0  0
   -3.6571    0.6360    0.0000 C   0  0  0  0  0  0  0  0  0  0  0  0
    1.5298   -0.8957    0.0000 C   0  0  0  0  0  0  0  0  0  0  0  0
    2.8334   -0.1536    0.0000 C   0  0  0  0  0  0  0  0  0  0  0  0
    2.8425    1.3463    0.0000 O   0  0  0  0  0  0  0  0  0  0  0  0
    4.1278   -0.9116    0.0000 O   0  0  0  0  0  0  0  0  0  0  0  0
  2  1  1  6
  2  3  1  0
  3  4  1  0
  4  5  2  0
  4  6  2  0
  4  7  1  0
  2  8  1  0
  8  9  1  0
  9 10  2  0
  9 11  1  0
M  END
>  <rName>  (4030) 
bAla_3RMe_SO2Me

>  <PQ_SYMBOL>  (4030) 
bAla_3RMe_SO2Me

>  <FULL_NAME>  (4030) 
CS(=O)(=O)C[C@H](N)CC(=O)O

>  <IUPAC_CONDENSED>  (4030) 
bAla(3R-Me,SO2Me)

>  <IUPAC>  (4030) 
(3R)-3-amino-4-(methylsulfonyl)butanoic acid

>  <TYPE>  (4030) 
Backbone

>  <CLASS>  (4030) 
beta

>  <ANALOG>  (4030) 
X

>  <MOL_WT>  (4030) 
181.21299999999997

>  <LOGP>  (4030) 
-1.167

>  <TPSA>  (4030) 
97.46000000000001

>  <POPULARITY>  (4030) 
4.6

>  <PROTECTED>  (4030) 
TRUE

>  <SMILES>  (4030) 
N[C@@H](CS(=O)(=O)C)CC(=O)O

>  <INCHIKEY>  (4030) 
RASQVPBYLBQMOC-SCSAIBSYSA-N

$$$$
bAla_3RMe_cPent
     RDKit          2D

 13 13  0  0  0  0  0  0  0  0999 V2000
   -1.7943   -1.6475    0.0000 N   0  0  0  0  0  0  0  0  0  0  0  0
   -1.4911   -0.1785    0.0000 C   0  0  0  0  0  0  0  0  0  0  0  0
   -0.0673    0.2935    0.0000 C   0  0  0  0  0  0  0  0  0  0  0  0
    1.0534   -0.7036    0.0000 C   0  0  0  0  0  0  0  0  0  0  0  0
    2.4772   -0.2316    0.0000 C   0  0  0  0  0  0  0  0  0  0  0  0
    3.6959   -1.1060    0.0000 C   0  0  0  0  0  0  0  0  0  0  0  0
    4.9042   -0.2172    0.0000 C   0  0  0  0  0  0  0  0  0  0  0  0
    4.4322    1.2066    0.0000 C   0  0  0  0  0  0  0  0  0  0  0  0
    2.9322    1.1977    0.0000 C   0  0  0  0  0  0  0  0  0  0  0  0
   -2.6118    0.8186    0.0000 C   0  0  0  0  0  0  0  0  0  0  0  0
   -4.0356    0.3466    0.0000 C   0  0  0  0  0  0  0  0  0  0  0  0
   -4.3387   -1.1224    0.0000 O   0  0  0  0  0  0  0  0  0  0  0  0
   -5.1562    1.3437    0.0000 O   0  0  0  0  0  0  0  0  0  0  0  0
  2  1  1  1
  2  3  1  0
  3  4  1  0
  4  5  1  0
  5  6  1  0
  6  7  1  0
  7  8  1  0
  8  9  1  0
  2 10  1  0
 10 11  1  0
 11 12  2  0
 11 13  1  0
  9  5  1  0
M  END
>  <rName>  (4031) 
bAla_3RMe_cPent

>  <PQ_SYMBOL>  (4031) 
bAla_3RMe_cPent

>  <FULL_NAME>  (4031) 
bAla(3R-Me,cPent)

>  <IUPAC_CONDENSED>  (4031) 
bAla(3R-Me,cPent)

>  <IUPAC>  (4031) 
(3R)-3-amino-5-cyclopentylpentanoic acid

>  <TYPE>  (4031) 
Backbone

>  <CLASS>  (4031) 
beta

>  <ANALOG>  (4031) 
Ala

>  <MOL_WT>  (4031) 
185.267

>  <LOGP>  (4031) 
1.7588

>  <TPSA>  (4031) 
63.32000000000001

>  <POPULARITY>  (4031) 
2.2

>  <PROTECTED>  (4031) 
TRUE

>  <SMILES>  (4031) 
N[C@H](CCC1(CCCC1))CC(=O)O

>  <INCHIKEY>  (4031) 
VOEINZGDVGRNAS-SECBINFHSA-N

$$$$
bAla_3RMob
     RDKit          2D

 15 15  0  0  0  0  0  0  0  0999 V2000
   -1.7431    1.1840    0.0000 N   0  0  0  0  0  0  0  0  0  0  0  0
   -1.9751   -0.2980    0.0000 C   0  0  0  0  0  0  0  0  0  0  0  0
   -0.8078   -1.2399    0.0000 C   0  0  0  0  0  0  0  0  0  0  0  0
    0.5916   -0.7000    0.0000 C   0  0  0  0  0  0  0  0  0  0  0  0
    0.8237    0.7820    0.0000 C   0  0  0  0  0  0  0  0  0  0  0  0
    2.2232    1.3219    0.0000 C   0  0  0  0  0  0  0  0  0  0  0  0
    3.3905    0.3800    0.0000 C   0  0  0  0  0  0  0  0  0  0  0  0
    4.7900    0.9199    0.0000 O   0  0  0  0  0  0  0  0  0  0  0  0
    5.9573   -0.0220    0.0000 C   0  0  0  0  0  0  0  0  0  0  0  0
    3.1584   -1.1020    0.0000 C   0  0  0  0  0  0  0  0  0  0  0  0
    1.7590   -1.6419    0.0000 C   0  0  0  0  0  0  0  0  0  0  0  0
   -3.3746   -0.8379    0.0000 C   0  0  0  0  0  0  0  0  0  0  0  0
   -4.5419    0.1040    0.0000 C   0  0  0  0  0  0  0  0  0  0  0  0
   -4.3098    1.5860    0.0000 O   0  0  0  0  0  0  0  0  0  0  0  0
   -5.9414   -0.4359    0.0000 O   0  0  0  0  0  0  0  0  0  0  0  0
  2  1  1  6
  2  3  1  0
  3  4  1  0
  4  5  1  0
  5  6  2  0
  6  7  1  0
  7  8  1  0
  8  9  1  0
  7 10  2  0
 10 11  1  0
  2 12  1  0
 12 13  1  0
 13 14  2  0
 13 15  1  0
 11  4  2  0
M  END
>  <rName>  (4032) 
bAla_3RMob

>  <PQ_SYMBOL>  (4032) 
bAla_3RMob

>  <FULL_NAME>  (4032) 
(R)-3-amino-4-(4-methoxyphenyl)butanoic acid

>  <IUPAC_CONDENSED>  (4032) 
bAla(3R-Mob)

>  <IUPAC>  (4032) 
(3R)-3-amino-4-(4-methoxyphenyl)butanoic acid

>  <TYPE>  (4032) 
Backbone

>  <CLASS>  (4032) 
beta

>  <ANALOG>  (4032) 
Tyr

>  <MOL_WT>  (4032) 
209.24499999999998

>  <LOGP>  (4032) 
1.0396999999999998

>  <TPSA>  (4032) 
72.55

>  <POPULARITY>  (4032) 
12.3

>  <PROTECTED>  (4032) 
TRUE

>  <SMILES>  (4032) 
N[C@H](Cc1(ccc(OC)cc1))CC(=O)O

>  <INCHIKEY>  (4032) 
GQFFGGKZIKRIFE-SECBINFHSA-N

$$$$
bAla_3RPh_23diCl
     RDKit          2D

 14 14  0  0  0  0  0  0  0  0999 V2000
   -1.2589   -1.7308    0.0000 N   0  0  0  0  0  0  0  0  0  0  0  0
   -0.9897   -0.2551    0.0000 C   0  0  0  0  0  0  0  0  0  0  0  0
    0.4228    0.2496    0.0000 C   0  0  0  0  0  0  0  0  0  0  0  0
    0.6920    1.7253    0.0000 C   0  0  0  0  0  0  0  0  0  0  0  0
    2.1045    2.2300    0.0000 C   0  0  0  0  0  0  0  0  0  0  0  0
    3.2479    1.2591    0.0000 C   0  0  0  0  0  0  0  0  0  0  0  0
    2.9787   -0.2166    0.0000 C   0  0  0  0  0  0  0  0  0  0  0  0
    4.1221   -1.1875    0.0000 Cl  0  0  0  0  0  0  0  0  0  0  0  0
    1.5662   -0.7213    0.0000 C   0  0  0  0  0  0  0  0  0  0  0  0
    1.2970   -2.1970    0.0000 Cl  0  0  0  0  0  0  0  0  0  0  0  0
   -2.1331    0.7158    0.0000 C   0  0  0  0  0  0  0  0  0  0  0  0
   -3.5456    0.2111    0.0000 C   0  0  0  0  0  0  0  0  0  0  0  0
   -3.8148   -1.2646    0.0000 O   0  0  0  0  0  0  0  0  0  0  0  0
   -4.6890    1.1820    0.0000 O   0  0  0  0  0  0  0  0  0  0  0  0
  2  1  1  6
  2  3  1  0
  3  4  2  0
  4  5  1  0
  5  6  2  0
  6  7  1  0
  7  8  1  0
  7  9  2  0
  9 10  1  0
  2 11  1  0
 11 12  1  0
 12 13  2  0
 12 14  1  0
  9  3  1  0
M  END
>  <rName>  (4033) 
bAla_3RPh_23diCl

>  <PQ_SYMBOL>  (4033) 
bAla_3RPh_23diCl

>  <FULL_NAME>  (4033) 
(R)-3-amino-3-(2,3-dichlorophenyl)propanoic acid

>  <IUPAC_CONDENSED>  (4033) 
bAla(3R-Ph(2,3-diCl))

>  <IUPAC>  (4033) 
(3R)-3-amino-3-(2,3-dichlorophenyl)propanoic acid

>  <TYPE>  (4033) 
Backbone

>  <CLASS>  (4033) 
beta

>  <ANALOG>  (4033) 
X

>  <MOL_WT>  (4033) 
234.08199999999997

>  <LOGP>  (4033) 
2.4679

>  <TPSA>  (4033) 
63.32000000000001

>  <POPULARITY>  (4033) 
6.6

>  <PROTECTED>  (4033) 
TRUE

>  <SMILES>  (4033) 
N[C@@H](c1(cccc(Cl)c1Cl))CC(=O)O

>  <INCHIKEY>  (4033) 
GQKLESLYMHWBOP-SSDOTTSWSA-N

$$$$
bAla_3RPh_23diOMe
     RDKit          2D

 16 16  0  0  0  0  0  0  0  0999 V2000
   -1.3353   -1.5465    0.0000 N   0  0  0  0  0  0  0  0  0  0  0  0
   -1.2249   -0.0506    0.0000 C   0  0  0  0  0  0  0  0  0  0  0  0
    0.1258    0.6017    0.0000 C   0  0  0  0  0  0  0  0  0  0  0  0
    0.2363    2.0977    0.0000 C   0  0  0  0  0  0  0  0  0  0  0  0
    1.5870    2.7500    0.0000 C   0  0  0  0  0  0  0  0  0  0  0  0
    2.8273    1.9064    0.0000 C   0  0  0  0  0  0  0  0  0  0  0  0
    2.7169    0.4105    0.0000 C   0  0  0  0  0  0  0  0  0  0  0  0
    3.9572   -0.4331    0.0000 O   0  0  0  0  0  0  0  0  0  0  0  0
    3.8467   -1.9291    0.0000 C   0  0  0  0  0  0  0  0  0  0  0  0
    1.3661   -0.2419    0.0000 C   0  0  0  0  0  0  0  0  0  0  0  0
    1.2557   -1.7378    0.0000 O   0  0  0  0  0  0  0  0  0  0  0  0
   -0.0950   -2.3901    0.0000 C   0  0  0  0  0  0  0  0  0  0  0  0
   -2.4652    0.7930    0.0000 C   0  0  0  0  0  0  0  0  0  0  0  0
   -3.8159    0.1407    0.0000 C   0  0  0  0  0  0  0  0  0  0  0  0
   -3.9264   -1.3552    0.0000 O   0  0  0  0  0  0  0  0  0  0  0  0
   -5.0562    0.9843    0.0000 O   0  0  0  0  0  0  0  0  0  0  0  0
  2  1  1  6
  2  3  1  0
  3  4  2  0
  4  5  1  0
  5  6  2  0
  6  7  1  0
  7  8  1  0
  8  9  1  0
  7 10  2  0
 10 11  1  0
 11 12  1  0
  2 13  1  0
 13 14  1  0
 14 15  2  0
 14 16  1  0
 10  3  1  0
M  END
>  <rName>  (4034) 
bAla_3RPh_23diOMe

>  <PQ_SYMBOL>  (4034) 
bAla_3RPh_23diOMe

>  <FULL_NAME>  (4034) 
(R)-3-amino-3-(2,3-dimethoxyphenyl)propanoic acid

>  <IUPAC_CONDENSED>  (4034) 
bAla(3R-Ph(2,3-diOMe))

>  <IUPAC>  (4034) 
(3R)-3-amino-3-(2,3-dimethoxyphenyl)propanoic acid

>  <TYPE>  (4034) 
Backbone

>  <CLASS>  (4034) 
beta

>  <ANALOG>  (4034) 
X

>  <MOL_WT>  (4034) 
225.24399999999994

>  <LOGP>  (4034) 
1.1783000000000001

>  <TPSA>  (4034) 
81.78

>  <POPULARITY>  (4034) 
6.3

>  <PROTECTED>  (4034) 
TRUE

>  <SMILES>  (4034) 
N[C@@H](c1(cccc(OC)c1OC))CC(=O)O

>  <INCHIKEY>  (4034) 
XZFWLSJPXJTSMZ-MRVPVSSYSA-N

$$$$
bAla_3RPh_24diCl
     RDKit          2D

 14 14  0  0  0  0  0  0  0  0999 V2000
   -1.5776   -1.7216    0.0000 N   0  0  0  0  0  0  0  0  0  0  0  0
   -1.0871   -0.3041    0.0000 C   0  0  0  0  0  0  0  0  0  0  0  0
    0.3858   -0.0201    0.0000 C   0  0  0  0  0  0  0  0  0  0  0  0
    0.8763    1.3974    0.0000 C   0  0  0  0  0  0  0  0  0  0  0  0
    2.3492    1.6814    0.0000 C   0  0  0  0  0  0  0  0  0  0  0  0
    3.3315    0.5478    0.0000 C   0  0  0  0  0  0  0  0  0  0  0  0
    4.8044    0.8318    0.0000 Cl  0  0  0  0  0  0  0  0  0  0  0  0
    2.8410   -0.8697    0.0000 C   0  0  0  0  0  0  0  0  0  0  0  0
    1.3682   -1.1537    0.0000 C   0  0  0  0  0  0  0  0  0  0  0  0
    0.8777   -2.5712    0.0000 Cl  0  0  0  0  0  0  0  0  0  0  0  0
   -2.0695    0.8295    0.0000 C   0  0  0  0  0  0  0  0  0  0  0  0
   -3.5423    0.5455    0.0000 C   0  0  0  0  0  0  0  0  0  0  0  0
   -4.0328   -0.8721    0.0000 O   0  0  0  0  0  0  0  0  0  0  0  0
   -4.5247    1.6790    0.0000 O   0  0  0  0  0  0  0  0  0  0  0  0
  2  1  1  6
  2  3  1  0
  3  4  1  0
  4  5  2  0
  5  6  1  0
  6  7  1  0
  6  8  2  0
  8  9  1  0
  9 10  1  0
  2 11  1  0
 11 12  1  0
 12 13  2  0
 12 14  1  0
  9  3  2  0
M  END
>  <rName>  (4035) 
bAla_3RPh_24diCl

>  <PQ_SYMBOL>  (4035) 
bAla_3RPh_24diCl

>  <FULL_NAME>  (4035) 
(R)-3-amino-3-(2,4-dichlorophenyl)propanoic acid

>  <IUPAC_CONDENSED>  (4035) 
bAla(3R-Ph(2,4-diCl))

>  <IUPAC>  (4035) 
(3R)-3-amino-3-(2,4-dichlorophenyl)propanoic acid

>  <TYPE>  (4035) 
Backbone

>  <CLASS>  (4035) 
beta

>  <ANALOG>  (4035) 
X

>  <MOL_WT>  (4035) 
234.08199999999997

>  <LOGP>  (4035) 
2.4679

>  <TPSA>  (4035) 
63.32000000000001

>  <POPULARITY>  (4035) 
7.6

>  <PROTECTED>  (4035) 
TRUE

>  <SMILES>  (4035) 
N[C@@H](c1(ccc(Cl)cc1Cl))CC(=O)O

>  <INCHIKEY>  (4035) 
QGHQDRDWQIHGKZ-MRVPVSSYSA-N

$$$$
bAla_3RPh_24diF
     RDKit          2D

 14 14  0  0  0  0  0  0  0  0999 V2000
   -1.5776   -1.7216    0.0000 N   0  0  0  0  0  0  0  0  0  0  0  0
   -1.0871   -0.3041    0.0000 C   0  0  0  0  0  0  0  0  0  0  0  0
    0.3858   -0.0201    0.0000 C   0  0  0  0  0  0  0  0  0  0  0  0
    0.8763    1.3974    0.0000 C   0  0  0  0  0  0  0  0  0  0  0  0
    2.3492    1.6814    0.0000 C   0  0  0  0  0  0  0  0  0  0  0  0
    3.3315    0.5478    0.0000 C   0  0  0  0  0  0  0  0  0  0  0  0
    4.8044    0.8318    0.0000 F   0  0  0  0  0  0  0  0  0  0  0  0
    2.8410   -0.8697    0.0000 C   0  0  0  0  0  0  0  0  0  0  0  0
    1.3682   -1.1537    0.0000 C   0  0  0  0  0  0  0  0  0  0  0  0
    0.8777   -2.5712    0.0000 F   0  0  0  0  0  0  0  0  0  0  0  0
   -2.0695    0.8295    0.0000 C   0  0  0  0  0  0  0  0  0  0  0  0
   -3.5423    0.5455    0.0000 C   0  0  0  0  0  0  0  0  0  0  0  0
   -4.0328   -0.8721    0.0000 O   0  0  0  0  0  0  0  0  0  0  0  0
   -4.5247    1.6790    0.0000 O   0  0  0  0  0  0  0  0  0  0  0  0
  2  1  1  6
  2  3  1  0
  3  4  1  0
  4  5  2  0
  5  6  1  0
  6  7  1  0
  6  8  2  0
  8  9  1  0
  9 10  1  0
  2 11  1  0
 11 12  1  0
 12 13  2  0
 12 14  1  0
  9  3  2  0
M  END
>  <rName>  (4036) 
bAla_3RPh_24diF

>  <PQ_SYMBOL>  (4036) 
bAla_3RPh_24diF

>  <FULL_NAME>  (4036) 
(3R)-3-amino-3-(2,4-difluorophenyl)propanoic acid

>  <IUPAC_CONDENSED>  (4036) 
bAla(3R-Ph(2,4-diF))

>  <IUPAC>  (4036) 
(3R)-3-amino-3-(2,4-difluorophenyl)propanoic acid

>  <TYPE>  (4036) 
Backbone

>  <CLASS>  (4036) 
beta

>  <ANALOG>  (4036) 
X

>  <MOL_WT>  (4036) 
201.17199999999997

>  <LOGP>  (4036) 
1.4393000000000002

>  <TPSA>  (4036) 
63.32000000000001

>  <POPULARITY>  (4036) 
4.5

>  <PROTECTED>  (4036) 
TRUE

>  <SMILES>  (4036) 
N[C@@H](c1(ccc(F)cc1F))CC(=O)O

>  <INCHIKEY>  (4036) 
RXNSEGYWKJUNMR-MRVPVSSYSA-N

$$$$
bAla_3RPh_25diF
     RDKit          2D

 14 14  0  0  0  0  0  0  0  0999 V2000
   -1.5850   -1.7610    0.0000 N   0  0  0  0  0  0  0  0  0  0  0  0
   -0.9814   -0.3879    0.0000 C   0  0  0  0  0  0  0  0  0  0  0  0
    0.5097   -0.2240    0.0000 C   0  0  0  0  0  0  0  0  0  0  0  0
    1.1133    1.1491    0.0000 C   0  0  0  0  0  0  0  0  0  0  0  0
    2.6043    1.3129    0.0000 C   0  0  0  0  0  0  0  0  0  0  0  0
    3.2080    2.6861    0.0000 F   0  0  0  0  0  0  0  0  0  0  0  0
    3.4917    0.1036    0.0000 C   0  0  0  0  0  0  0  0  0  0  0  0
    2.8881   -1.2696    0.0000 C   0  0  0  0  0  0  0  0  0  0  0  0
    1.3970   -1.4334    0.0000 C   0  0  0  0  0  0  0  0  0  0  0  0
    0.7934   -2.8066    0.0000 F   0  0  0  0  0  0  0  0  0  0  0  0
   -1.8687    0.8215    0.0000 C   0  0  0  0  0  0  0  0  0  0  0  0
   -3.3598    0.6577    0.0000 C   0  0  0  0  0  0  0  0  0  0  0  0
   -3.9634   -0.7155    0.0000 O   0  0  0  0  0  0  0  0  0  0  0  0
   -4.2471    1.8671    0.0000 O   0  0  0  0  0  0  0  0  0  0  0  0
  2  1  1  6
  2  3  1  0
  3  4  1  0
  4  5  2  0
  5  6  1  0
  5  7  1  0
  7  8  2  0
  8  9  1  0
  9 10  1  0
  2 11  1  0
 11 12  1  0
 12 13  2  0
 12 14  1  0
  9  3  2  0
M  END
>  <rName>  (4037) 
bAla_3RPh_25diF

>  <PQ_SYMBOL>  (4037) 
bAla_3RPh_25diF

>  <FULL_NAME>  (4037) 
(3R)-3-amino-3-(2,5-difluorophenyl)propanoic acid

>  <IUPAC_CONDENSED>  (4037) 
bAla(3R-Ph(2,5-diF))

>  <IUPAC>  (4037) 
(3R)-3-amino-3-(2,5-difluorophenyl)propanoic acid

>  <TYPE>  (4037) 
Backbone

>  <CLASS>  (4037) 
beta

>  <ANALOG>  (4037) 
X

>  <MOL_WT>  (4037) 
201.17199999999997

>  <LOGP>  (4037) 
1.4393000000000002

>  <TPSA>  (4037) 
63.32000000000001

>  <POPULARITY>  (4037) 
4.2

>  <PROTECTED>  (4037) 
TRUE

>  <SMILES>  (4037) 
N[C@@H](c1(cc(F)ccc1F))CC(=O)O

>  <INCHIKEY>  (4037) 
AXIFQWRTBOFNKU-MRVPVSSYSA-N

$$$$
bAla_3RPh_2Br
     RDKit          2D

 13 13  0  0  0  0  0  0  0  0999 V2000
   -1.0916   -1.7365    0.0000 N   0  0  0  0  0  0  0  0  0  0  0  0
   -0.6994   -0.2887    0.0000 C   0  0  0  0  0  0  0  0  0  0  0  0
    0.7506    0.0955    0.0000 C   0  0  0  0  0  0  0  0  0  0  0  0
    1.1428    1.5433    0.0000 C   0  0  0  0  0  0  0  0  0  0  0  0
    2.5927    1.9276    0.0000 C   0  0  0  0  0  0  0  0  0  0  0  0
    3.6505    0.8640    0.0000 C   0  0  0  0  0  0  0  0  0  0  0  0
    3.2583   -0.5838    0.0000 C   0  0  0  0  0  0  0  0  0  0  0  0
    1.8083   -0.9680    0.0000 C   0  0  0  0  0  0  0  0  0  0  0  0
    1.4161   -2.4159    0.0000 Br  0  0  0  0  0  0  0  0  0  0  0  0
   -1.7571    0.7749    0.0000 C   0  0  0  0  0  0  0  0  0  0  0  0
   -3.2071    0.3906    0.0000 C   0  0  0  0  0  0  0  0  0  0  0  0
   -3.5993   -1.0572    0.0000 O   0  0  0  0  0  0  0  0  0  0  0  0
   -4.2648    1.4542    0.0000 O   0  0  0  0  0  0  0  0  0  0  0  0
  2  1  1  6
  2  3  1  0
  3  4  2  0
  4  5  1  0
  5  6  2  0
  6  7  1  0
  7  8  2  0
  8  9  1  0
  2 10  1  0
 10 11  1  0
 11 12  2  0
 11 13  1  0
  8  3  1  0
M  END
>  <rName>  (4038) 
bAla_3RPh_2Br

>  <PQ_SYMBOL>  (4038) 
bAla_3RPh_2Br

>  <FULL_NAME>  (4038) 
(R)-3-amino-3-(2-bromophenyl)propanoic acid

>  <IUPAC_CONDENSED>  (4038) 
bAla(3R-Ph(2-Br))

>  <IUPAC>  (4038) 
(3R)-3-amino-3-(2-bromophenyl)propanoic acid

>  <TYPE>  (4038) 
Backbone

>  <CLASS>  (4038) 
beta

>  <ANALOG>  (4038) 
X

>  <MOL_WT>  (4038) 
244.08799999999997

>  <LOGP>  (4038) 
1.9236

>  <TPSA>  (4038) 
63.32000000000001

>  <POPULARITY>  (4038) 
7.8

>  <PROTECTED>  (4038) 
TRUE

>  <SMILES>  (4038) 
N[C@@H](c1(ccccc1Br))CC(=O)O

>  <INCHIKEY>  (4038) 
OETRFEPZCAGEMK-MRVPVSSYSA-N

$$$$
bAla_3RPh_2CF3
     RDKit          2D

 16 16  0  0  0  0  0  0  0  0999 V2000
   -1.0824   -1.4239    0.0000 N   0  0  0  0  0  0  0  0  0  0  0  0
   -0.9716    0.0720    0.0000 C   0  0  0  0  0  0  0  0  0  0  0  0
    0.3793    0.7240    0.0000 C   0  0  0  0  0  0  0  0  0  0  0  0
    0.4901    2.2199    0.0000 C   0  0  0  0  0  0  0  0  0  0  0  0
    1.8410    2.8718    0.0000 C   0  0  0  0  0  0  0  0  0  0  0  0
    3.0811    2.0279    0.0000 C   0  0  0  0  0  0  0  0  0  0  0  0
    2.9703    0.5320    0.0000 C   0  0  0  0  0  0  0  0  0  0  0  0
    1.6194   -0.1200    0.0000 C   0  0  0  0  0  0  0  0  0  0  0  0
    1.5085   -1.6159    0.0000 C   0  0  0  0  0  0  0  0  0  0  0  0
    1.3977   -3.1118    0.0000 F   0  0  0  0  0  0  0  0  0  0  0  0
    3.0044   -1.7267    0.0000 F   0  0  0  0  0  0  0  0  0  0  0  0
    0.0126   -1.5050    0.0000 F   0  0  0  0  0  0  0  0  0  0  0  0
   -2.2117    0.9159    0.0000 C   0  0  0  0  0  0  0  0  0  0  0  0
   -3.5626    0.2639    0.0000 C   0  0  0  0  0  0  0  0  0  0  0  0
   -3.6734   -1.2320    0.0000 O   0  0  0  0  0  0  0  0  0  0  0  0
   -4.8027    1.1079    0.0000 O   0  0  0  0  0  0  0  0  0  0  0  0
  2  1  1  6
  2  3  1  0
  3  4  2  0
  4  5  1  0
  5  6  2  0
  6  7  1  0
  7  8  2  0
  8  9  1  0
  9 10  1  0
  9 11  1  0
  9 12  1  0
  2 13  1  0
 13 14  1  0
 14 15  2  0
 14 16  1  0
  8  3  1  0
M  END
>  <rName>  (4039) 
bAla_3RPh_2CF3

>  <PQ_SYMBOL>  (4039) 
bAla_3RPh_2CF3

>  <FULL_NAME>  (4039) 
(R)-3-amino-3-(2-(trifluoromethyl)phenyl)propanoic acid

>  <IUPAC_CONDENSED>  (4039) 
bAla(3R-Ph(2-CF3))

>  <IUPAC>  (4039) 
(3R)-3-amino-3-(2-(trifluoromethyl)phenyl)propanoic acid

>  <TYPE>  (4039) 
Backbone

>  <CLASS>  (4039) 
beta

>  <ANALOG>  (4039) 
X

>  <MOL_WT>  (4039) 
233.18899999999994

>  <LOGP>  (4039) 
2.1799

>  <TPSA>  (4039) 
63.32000000000001

>  <POPULARITY>  (4039) 
6.2

>  <PROTECTED>  (4039) 
TRUE

>  <SMILES>  (4039) 
N[C@@H](c1(ccccc1C(F)(F)F))CC(=O)O

>  <INCHIKEY>  (4039) 
MXKROQQTKYAUJB-MRVPVSSYSA-N

$$$$
bAla_3RPh_2Cl
     RDKit          2D

 13 13  0  0  0  0  0  0  0  0999 V2000
   -1.0916   -1.7365    0.0000 N   0  0  0  0  0  0  0  0  0  0  0  0
   -0.6994   -0.2887    0.0000 C   0  0  0  0  0  0  0  0  0  0  0  0
    0.7506    0.0955    0.0000 C   0  0  0  0  0  0  0  0  0  0  0  0
    1.1428    1.5433    0.0000 C   0  0  0  0  0  0  0  0  0  0  0  0
    2.5927    1.9276    0.0000 C   0  0  0  0  0  0  0  0  0  0  0  0
    3.6505    0.8640    0.0000 C   0  0  0  0  0  0  0  0  0  0  0  0
    3.2583   -0.5838    0.0000 C   0  0  0  0  0  0  0  0  0  0  0  0
    1.8083   -0.9680    0.0000 C   0  0  0  0  0  0  0  0  0  0  0  0
    1.4161   -2.4159    0.0000 Cl  0  0  0  0  0  0  0  0  0  0  0  0
   -1.7571    0.7749    0.0000 C   0  0  0  0  0  0  0  0  0  0  0  0
   -3.2071    0.3906    0.0000 C   0  0  0  0  0  0  0  0  0  0  0  0
   -3.5993   -1.0572    0.0000 O   0  0  0  0  0  0  0  0  0  0  0  0
   -4.2648    1.4542    0.0000 O   0  0  0  0  0  0  0  0  0  0  0  0
  2  1  1  6
  2  3  1  0
  3  4  2  0
  4  5  1  0
  5  6  2  0
  6  7  1  0
  7  8  2  0
  8  9  1  0
  2 10  1  0
 10 11  1  0
 11 12  2  0
 11 13  1  0
  8  3  1  0
M  END
>  <rName>  (4040) 
bAla_3RPh_2Cl

>  <PQ_SYMBOL>  (4040) 
bAla_3RPh_2Cl

>  <FULL_NAME>  (4040) 
(R)-3-amino-3-(2-chlorophenyl)propanoic acid

>  <IUPAC_CONDENSED>  (4040) 
bAla(3R-Ph(2-Cl))

>  <IUPAC>  (4040) 
(3R)-3-amino-3-(2-chlorophenyl)propanoic acid

>  <TYPE>  (4040) 
Backbone

>  <CLASS>  (4040) 
beta

>  <ANALOG>  (4040) 
X

>  <MOL_WT>  (4040) 
199.63699999999994

>  <LOGP>  (4040) 
1.8145000000000002

>  <TPSA>  (4040) 
63.32000000000001

>  <POPULARITY>  (4040) 
9.3

>  <PROTECTED>  (4040) 
TRUE

>  <SMILES>  (4040) 
N[C@@H](c1(ccccc1Cl))CC(=O)O

>  <INCHIKEY>  (4040) 
NXXFYRJVRISCCP-MRVPVSSYSA-N

$$$$
bAla_3RPh_2F
     RDKit          2D

 13 13  0  0  0  0  0  0  0  0999 V2000
   -1.0916   -1.7365    0.0000 N   0  0  0  0  0  0  0  0  0  0  0  0
   -0.6994   -0.2887    0.0000 C   0  0  0  0  0  0  0  0  0  0  0  0
    0.7506    0.0955    0.0000 C   0  0  0  0  0  0  0  0  0  0  0  0
    1.1428    1.5433    0.0000 C   0  0  0  0  0  0  0  0  0  0  0  0
    2.5927    1.9276    0.0000 C   0  0  0  0  0  0  0  0  0  0  0  0
    3.6505    0.8640    0.0000 C   0  0  0  0  0  0  0  0  0  0  0  0
    3.2583   -0.5838    0.0000 C   0  0  0  0  0  0  0  0  0  0  0  0
    1.8083   -0.9680    0.0000 C   0  0  0  0  0  0  0  0  0  0  0  0
    1.4161   -2.4159    0.0000 F   0  0  0  0  0  0  0  0  0  0  0  0
   -1.7571    0.7749    0.0000 C   0  0  0  0  0  0  0  0  0  0  0  0
   -3.2071    0.3906    0.0000 C   0  0  0  0  0  0  0  0  0  0  0  0
   -3.5993   -1.0572    0.0000 O   0  0  0  0  0  0  0  0  0  0  0  0
   -4.2648    1.4542    0.0000 O   0  0  0  0  0  0  0  0  0  0  0  0
  2  1  1  6
  2  3  1  0
  3  4  2  0
  4  5  1  0
  5  6  2  0
  6  7  1  0
  7  8  2  0
  8  9  1  0
  2 10  1  0
 10 11  1  0
 11 12  2  0
 11 13  1  0
  8  3  1  0
M  END
>  <rName>  (4041) 
bAla_3RPh_2F

>  <PQ_SYMBOL>  (4041) 
bAla_3RPh_2F

>  <FULL_NAME>  (4041) 
(R)-3-amino-3-(2-fluorophenyl)propanoic acid

>  <IUPAC_CONDENSED>  (4041) 
bAla(3R-Ph(2-F))

>  <IUPAC>  (4041) 
(3R)-3-amino-3-(2-fluorophenyl)propanoic acid

>  <TYPE>  (4041) 
Backbone

>  <CLASS>  (4041) 
beta

>  <ANALOG>  (4041) 
X

>  <MOL_WT>  (4041) 
183.18199999999996

>  <LOGP>  (4041) 
1.3002000000000002

>  <TPSA>  (4041) 
63.32000000000001

>  <POPULARITY>  (4041) 
8.5

>  <PROTECTED>  (4041) 
TRUE

>  <SMILES>  (4041) 
N[C@@H](c1(ccccc1F))CC(=O)O

>  <INCHIKEY>  (4041) 
RSCLTSJQAQBNCE-MRVPVSSYSA-N

$$$$
bAla_3RPh_2F_5Br
     RDKit          2D

 14 14  0  0  0  0  0  0  0  0999 V2000
   -1.5850   -1.7610    0.0000 N   0  0  0  0  0  0  0  0  0  0  0  0
   -0.9814   -0.3879    0.0000 C   0  0  0  0  0  0  0  0  0  0  0  0
    0.5097   -0.2240    0.0000 C   0  0  0  0  0  0  0  0  0  0  0  0
    1.1133    1.1491    0.0000 C   0  0  0  0  0  0  0  0  0  0  0  0
    2.6043    1.3129    0.0000 C   0  0  0  0  0  0  0  0  0  0  0  0
    3.2080    2.6861    0.0000 Br  0  0  0  0  0  0  0  0  0  0  0  0
    3.4917    0.1036    0.0000 C   0  0  0  0  0  0  0  0  0  0  0  0
    2.8881   -1.2696    0.0000 C   0  0  0  0  0  0  0  0  0  0  0  0
    1.3970   -1.4334    0.0000 C   0  0  0  0  0  0  0  0  0  0  0  0
    0.7934   -2.8066    0.0000 F   0  0  0  0  0  0  0  0  0  0  0  0
   -1.8687    0.8215    0.0000 C   0  0  0  0  0  0  0  0  0  0  0  0
   -3.3598    0.6577    0.0000 C   0  0  0  0  0  0  0  0  0  0  0  0
   -3.9634   -0.7155    0.0000 O   0  0  0  0  0  0  0  0  0  0  0  0
   -4.2471    1.8671    0.0000 O   0  0  0  0  0  0  0  0  0  0  0  0
  2  1  1  6
  2  3  1  0
  3  4  1  0
  4  5  2  0
  5  6  1  0
  5  7  1  0
  7  8  2  0
  8  9  1  0
  9 10  1  0
  2 11  1  0
 11 12  1  0
 12 13  2  0
 12 14  1  0
  9  3  2  0
M  END
>  <rName>  (4042) 
bAla_3RPh_2F_5Br

>  <PQ_SYMBOL>  (4042) 
bAla_3RPh_2F_5Br

>  <FULL_NAME>  (4042) 
(R)-3-Amino-3-(5-bromo-2-fluorophenyl)propanoicacidhcl

>  <IUPAC_CONDENSED>  (4042) 
bAla(3R-Ph(2-F,5-Br))

>  <IUPAC>  (4042) 
(3R)-3-amino-3-(5-bromo-2-fluorophenyl)propanoic acid

>  <TYPE>  (4042) 
Backbone

>  <CLASS>  (4042) 
beta

>  <ANALOG>  (4042) 
X

>  <MOL_WT>  (4042) 
262.078

>  <LOGP>  (4042) 
2.0627

>  <TPSA>  (4042) 
63.32000000000001

>  <POPULARITY>  (4042) 
3.2

>  <PROTECTED>  (4042) 
TRUE

>  <SMILES>  (4042) 
N[C@@H](c1(cc(Br)ccc1F))CC(=O)O

>  <INCHIKEY>  (4042) 
QHKWNVXSQJZRJG-MRVPVSSYSA-N

$$$$
bAla_3RPh_2Me
     RDKit          2D

 13 13  0  0  0  0  0  0  0  0999 V2000
   -1.0916   -1.7365    0.0000 N   0  0  0  0  0  0  0  0  0  0  0  0
   -0.6994   -0.2887    0.0000 C   0  0  0  0  0  0  0  0  0  0  0  0
    0.7506    0.0955    0.0000 C   0  0  0  0  0  0  0  0  0  0  0  0
    1.1428    1.5433    0.0000 C   0  0  0  0  0  0  0  0  0  0  0  0
    2.5927    1.9276    0.0000 C   0  0  0  0  0  0  0  0  0  0  0  0
    3.6505    0.8640    0.0000 C   0  0  0  0  0  0  0  0  0  0  0  0
    3.2583   -0.5838    0.0000 C   0  0  0  0  0  0  0  0  0  0  0  0
    1.8083   -0.9680    0.0000 C   0  0  0  0  0  0  0  0  0  0  0  0
    1.4161   -2.4159    0.0000 C   0  0  0  0  0  0  0  0  0  0  0  0
   -1.7571    0.7749    0.0000 C   0  0  0  0  0  0  0  0  0  0  0  0
   -3.2071    0.3906    0.0000 C   0  0  0  0  0  0  0  0  0  0  0  0
   -3.5993   -1.0572    0.0000 O   0  0  0  0  0  0  0  0  0  0  0  0
   -4.2648    1.4542    0.0000 O   0  0  0  0  0  0  0  0  0  0  0  0
  2  1  1  6
  2  3  1  0
  3  4  2  0
  4  5  1  0
  5  6  2  0
  6  7  1  0
  7  8  2  0
  8  9  1  0
  2 10  1  0
 10 11  1  0
 11 12  2  0
 11 13  1  0
  8  3  1  0
M  END
>  <rName>  (4043) 
bAla_3RPh_2Me

>  <PQ_SYMBOL>  (4043) 
bAla_3RPh_2Me

>  <FULL_NAME>  (4043) 
(R)-3-amino-3-(o-tolyl)propanoic acid

>  <IUPAC_CONDENSED>  (4043) 
bAla(3R-Ph(2-Me))

>  <IUPAC>  (4043) 
(3R)-3-amino-3-(2-methylphenyl)propanoic acid

>  <TYPE>  (4043) 
Backbone

>  <CLASS>  (4043) 
beta

>  <ANALOG>  (4043) 
X

>  <MOL_WT>  (4043) 
179.21899999999997

>  <LOGP>  (4043) 
1.4695200000000002

>  <TPSA>  (4043) 
63.32000000000001

>  <POPULARITY>  (4043) 
9.9

>  <PROTECTED>  (4043) 
TRUE

>  <SMILES>  (4043) 
N[C@@H](c1(ccccc1C))CC(=O)O

>  <INCHIKEY>  (4043) 
GORGZFRGYDIRJA-SECBINFHSA-N

$$$$
bAla_3RPh_2NO2
     RDKit          2D

 15 15  0  0  0  0  0  0  0  0999 V2000
   -1.0552   -1.4821    0.0000 N   0  0  0  0  0  0  0  0  0  0  0  0
   -0.8718    0.0067    0.0000 C   0  0  0  0  0  0  0  0  0  0  0  0
    0.5093    0.5922    0.0000 C   0  0  0  0  0  0  0  0  0  0  0  0
    0.6928    2.0809    0.0000 C   0  0  0  0  0  0  0  0  0  0  0  0
    2.0738    2.6664    0.0000 C   0  0  0  0  0  0  0  0  0  0  0  0
    3.2713    1.7631    0.0000 C   0  0  0  0  0  0  0  0  0  0  0  0
    3.0878    0.2744    0.0000 C   0  0  0  0  0  0  0  0  0  0  0  0
    1.7068   -0.3111    0.0000 C   0  0  0  0  0  0  0  0  0  0  0  0
    1.5233   -1.7999    0.0000 N   0  0  0  0  0  0  0  0  0  0  0  0
    0.1423   -2.3853    0.0000 O   0  0  0  0  0  0  0  0  0  0  0  0
    2.7209   -2.7031    0.0000 O   0  0  0  0  0  0  0  0  0  0  0  0
   -2.0693    0.9100    0.0000 C   0  0  0  0  0  0  0  0  0  0  0  0
   -3.4503    0.3245    0.0000 C   0  0  0  0  0  0  0  0  0  0  0  0
   -3.6338   -1.1643    0.0000 O   0  0  0  0  0  0  0  0  0  0  0  0
   -4.6479    1.2278    0.0000 O   0  0  0  0  0  0  0  0  0  0  0  0
  2  1  1  6
  2  3  1  0
  3  4  2  0
  4  5  1  0
  5  6  2  0
  6  7  1  0
  7  8  2  0
  8  9  1  0
  9 10  2  0
  9 11  1  0
  2 12  1  0
 12 13  1  0
 13 14  2  0
 13 15  1  0
  8  3  1  0
M  CHG  2   9   1  11  -1
M  END
>  <rName>  (4044) 
bAla_3RPh_2NO2

>  <PQ_SYMBOL>  (4044) 
bAla_3RPh_2NO2

>  <FULL_NAME>  (4044) 
(R)-3-amino-3-(2-nitrophenyl)propanoic acid

>  <IUPAC_CONDENSED>  (4044) 
bAla(3R-Ph(2-NO2))

>  <IUPAC>  (4044) 
(3R)-3-amino-3-(2-nitrophenyl)propanoic acid

>  <TYPE>  (4044) 
Backbone

>  <CLASS>  (4044) 
beta

>  <ANALOG>  (4044) 
X

>  <MOL_WT>  (4044) 
210.18899999999996

>  <LOGP>  (4044) 
1.0693000000000001

>  <TPSA>  (4044) 
106.46

>  <POPULARITY>  (4044) 
6.9

>  <PROTECTED>  (4044) 
TRUE

>  <SMILES>  (4044) 
N[C@@H](c1(ccccc1[N+](=O)[O-]))CC(=O)O

>  <INCHIKEY>  (4044) 
XXBOYULKNZTOMN-SSDOTTSWSA-N

$$$$
bAla_3RPh_2OH
     RDKit          2D

 13 13  0  0  0  0  0  0  0  0999 V2000
   -1.0916   -1.7365    0.0000 N   0  0  0  0  0  0  0  0  0  0  0  0
   -0.6994   -0.2887    0.0000 C   0  0  0  0  0  0  0  0  0  0  0  0
    0.7506    0.0955    0.0000 C   0  0  0  0  0  0  0  0  0  0  0  0
    1.1428    1.5433    0.0000 C   0  0  0  0  0  0  0  0  0  0  0  0
    2.5927    1.9276    0.0000 C   0  0  0  0  0  0  0  0  0  0  0  0
    3.6505    0.8640    0.0000 C   0  0  0  0  0  0  0  0  0  0  0  0
    3.2583   -0.5838    0.0000 C   0  0  0  0  0  0  0  0  0  0  0  0
    1.8083   -0.9680    0.0000 C   0  0  0  0  0  0  0  0  0  0  0  0
    1.4161   -2.4159    0.0000 O   0  0  0  0  0  0  0  0  0  0  0  0
   -1.7571    0.7749    0.0000 C   0  0  0  0  0  0  0  0  0  0  0  0
   -3.2071    0.3906    0.0000 C   0  0  0  0  0  0  0  0  0  0  0  0
   -3.5993   -1.0572    0.0000 O   0  0  0  0  0  0  0  0  0  0  0  0
   -4.2648    1.4542    0.0000 O   0  0  0  0  0  0  0  0  0  0  0  0
  2  1  1  6
  2  3  1  0
  3  4  2  0
  4  5  1  0
  5  6  2  0
  6  7  1  0
  7  8  2  0
  8  9  1  0
  2 10  1  0
 10 11  1  0
 11 12  2  0
 11 13  1  0
  8  3  1  0
M  END
>  <rName>  (4045) 
bAla_3RPh_2OH

>  <PQ_SYMBOL>  (4045) 
bAla_3RPh_2OH

>  <FULL_NAME>  (4045) 
(R)-3-amino-3-(2-hydroxyphenyl)propanoic acid

>  <IUPAC_CONDENSED>  (4045) 
bAla(3R-Ph(2-OH))

>  <IUPAC>  (4045) 
(3R)-3-amino-3-(2-hydroxyphenyl)propanoic acid

>  <TYPE>  (4045) 
Backbone

>  <CLASS>  (4045) 
beta

>  <ANALOG>  (4045) 
X

>  <MOL_WT>  (4045) 
181.19099999999995

>  <LOGP>  (4045) 
0.8667

>  <TPSA>  (4045) 
83.55

>  <POPULARITY>  (4045) 
8.9

>  <PROTECTED>  (4045) 
TRUE

>  <SMILES>  (4045) 
N[C@@H](c1(ccccc1O))CC(=O)O

>  <INCHIKEY>  (4045) 
BMUFWTKVAWBABX-SSDOTTSWSA-N

$$$$
bAla_3RPh_2OMe
     RDKit          2D

 14 14  0  0  0  0  0  0  0  0999 V2000
   -1.0551   -1.6460    0.0000 N   0  0  0  0  0  0  0  0  0  0  0  0
   -0.8626   -0.1584    0.0000 C   0  0  0  0  0  0  0  0  0  0  0  0
    0.5220    0.4186    0.0000 C   0  0  0  0  0  0  0  0  0  0  0  0
    0.7146    1.9062    0.0000 C   0  0  0  0  0  0  0  0  0  0  0  0
    2.0991    2.4832    0.0000 C   0  0  0  0  0  0  0  0  0  0  0  0
    3.2911    1.5726    0.0000 C   0  0  0  0  0  0  0  0  0  0  0  0
    3.0986    0.0851    0.0000 C   0  0  0  0  0  0  0  0  0  0  0  0
    1.7140   -0.4920    0.0000 C   0  0  0  0  0  0  0  0  0  0  0  0
    1.5214   -1.9796    0.0000 O   0  0  0  0  0  0  0  0  0  0  0  0
    2.7134   -2.8901    0.0000 C   0  0  0  0  0  0  0  0  0  0  0  0
   -2.0546    0.7521    0.0000 C   0  0  0  0  0  0  0  0  0  0  0  0
   -3.4392    0.1751    0.0000 C   0  0  0  0  0  0  0  0  0  0  0  0
   -3.6317   -1.3125    0.0000 O   0  0  0  0  0  0  0  0  0  0  0  0
   -4.6312    1.0857    0.0000 O   0  0  0  0  0  0  0  0  0  0  0  0
  2  1  1  6
  2  3  1  0
  3  4  2  0
  4  5  1  0
  5  6  2  0
  6  7  1  0
  7  8  2  0
  8  9  1  0
  9 10  1  0
  2 11  1  0
 11 12  1  0
 12 13  2  0
 12 14  1  0
  8  3  1  0
M  END
>  <rName>  (4046) 
bAla_3RPh_2OMe

>  <PQ_SYMBOL>  (4046) 
bAla_3RPh_2OMe

>  <FULL_NAME>  (4046) 
(R)-3-amino-3-(2-methoxyphenyl)propanoic acid

>  <IUPAC_CONDENSED>  (4046) 
bAla(3R-Ph(2-OMe))

>  <IUPAC>  (4046) 
(3R)-3-amino-3-(2-methoxyphenyl)propanoic acid

>  <TYPE>  (4046) 
Backbone

>  <CLASS>  (4046) 
beta

>  <ANALOG>  (4046) 
X

>  <MOL_WT>  (4046) 
195.21799999999996

>  <LOGP>  (4046) 
1.1697

>  <TPSA>  (4046) 
72.55

>  <POPULARITY>  (4046) 
8.4

>  <PROTECTED>  (4046) 
TRUE

>  <SMILES>  (4046) 
N[C@@H](c1(ccccc1OC))CC(=O)O

>  <INCHIKEY>  (4046) 
UAZGIQATDPCZHH-MRVPVSSYSA-N

$$$$
bAla_3RPh_34diCl
     RDKit          2D

 14 14  0  0  0  0  0  0  0  0999 V2000
   -1.6907   -1.8557    0.0000 N   0  0  0  0  0  0  0  0  0  0  0  0
   -1.2771   -0.4139    0.0000 C   0  0  0  0  0  0  0  0  0  0  0  0
    0.1784   -0.0512    0.0000 C   0  0  0  0  0  0  0  0  0  0  0  0
    0.5920    1.3907    0.0000 C   0  0  0  0  0  0  0  0  0  0  0  0
    2.0475    1.7534    0.0000 C   0  0  0  0  0  0  0  0  0  0  0  0
    3.0894    0.6742    0.0000 C   0  0  0  0  0  0  0  0  0  0  0  0
    4.5448    1.0370    0.0000 Cl  0  0  0  0  0  0  0  0  0  0  0  0
    2.6757   -0.7676    0.0000 C   0  0  0  0  0  0  0  0  0  0  0  0
    3.7176   -1.8467    0.0000 Cl  0  0  0  0  0  0  0  0  0  0  0  0
    1.2202   -1.1303    0.0000 C   0  0  0  0  0  0  0  0  0  0  0  0
   -2.3190    0.6652    0.0000 C   0  0  0  0  0  0  0  0  0  0  0  0
   -3.7745    0.3025    0.0000 C   0  0  0  0  0  0  0  0  0  0  0  0
   -4.1881   -1.1393    0.0000 O   0  0  0  0  0  0  0  0  0  0  0  0
   -4.8163    1.3817    0.0000 O   0  0  0  0  0  0  0  0  0  0  0  0
  2  1  1  6
  2  3  1  0
  3  4  1  0
  4  5  2  0
  5  6  1  0
  6  7  1  0
  6  8  2  0
  8  9  1  0
  8 10  1  0
  2 11  1  0
 11 12  1  0
 12 13  2  0
 12 14  1  0
 10  3  2  0
M  END
>  <rName>  (4047) 
bAla_3RPh_34diCl

>  <PQ_SYMBOL>  (4047) 
bAla_3RPh_34diCl

>  <FULL_NAME>  (4047) 
(R)-3-Amino-3-(3,4-dichlorophenyl)propanoic acid

>  <IUPAC_CONDENSED>  (4047) 
bAla(3R-Ph(3,4-diCl))

>  <IUPAC>  (4047) 
(3R)-3-amino-3-(3,4-dichlorophenyl)propanoic acid

>  <TYPE>  (4047) 
Backbone

>  <CLASS>  (4047) 
beta

>  <ANALOG>  (4047) 
X

>  <MOL_WT>  (4047) 
234.082

>  <LOGP>  (4047) 
2.4679

>  <TPSA>  (4047) 
63.32000000000001

>  <POPULARITY>  (4047) 
2.2

>  <PROTECTED>  (4047) 
TRUE

>  <SMILES>  (4047) 
N[C@@H](c1(ccc(Cl)c(Cl)c1))CC(=O)O

>  <INCHIKEY>  (4047) 
ACJWNKAQMZQVBW-MRVPVSSYSA-N

$$$$
bAla_3RPh_34diOMe
     RDKit          2D

 16 16  0  0  0  0  0  0  0  0999 V2000
   -2.1244   -1.8021    0.0000 N   0  0  0  0  0  0  0  0  0  0  0  0
   -1.8137   -0.3346    0.0000 C   0  0  0  0  0  0  0  0  0  0  0  0
   -0.3874    0.1300    0.0000 C   0  0  0  0  0  0  0  0  0  0  0  0
   -0.0767    1.5974    0.0000 C   0  0  0  0  0  0  0  0  0  0  0  0
    1.3496    2.0620    0.0000 C   0  0  0  0  0  0  0  0  0  0  0  0
    2.4650    1.0592    0.0000 C   0  0  0  0  0  0  0  0  0  0  0  0
    3.8913    1.5238    0.0000 O   0  0  0  0  0  0  0  0  0  0  0  0
    5.0067    0.5209    0.0000 C   0  0  0  0  0  0  0  0  0  0  0  0
    2.1543   -0.4083    0.0000 C   0  0  0  0  0  0  0  0  0  0  0  0
    3.2698   -1.4111    0.0000 O   0  0  0  0  0  0  0  0  0  0  0  0
    2.9590   -2.8786    0.0000 C   0  0  0  0  0  0  0  0  0  0  0  0
    0.7280   -0.8729    0.0000 C   0  0  0  0  0  0  0  0  0  0  0  0
   -2.9291    0.6682    0.0000 C   0  0  0  0  0  0  0  0  0  0  0  0
   -4.3554    0.2036    0.0000 C   0  0  0  0  0  0  0  0  0  0  0  0
   -4.6661   -1.2639    0.0000 O   0  0  0  0  0  0  0  0  0  0  0  0
   -5.4709    1.2064    0.0000 O   0  0  0  0  0  0  0  0  0  0  0  0
  2  1  1  6
  2  3  1  0
  3  4  1  0
  4  5  2  0
  5  6  1  0
  6  7  1  0
  7  8  1  0
  6  9  2  0
  9 10  1  0
 10 11  1  0
  9 12  1  0
  2 13  1  0
 13 14  1  0
 14 15  2  0
 14 16  1  0
 12  3  2  0
M  END
>  <rName>  (4048) 
bAla_3RPh_34diOMe

>  <PQ_SYMBOL>  (4048) 
bAla_3RPh_34diOMe

>  <FULL_NAME>  (4048) 
(R)-3-amino-3-(3,4-dimethoxyphenyl)propanoic acid

>  <IUPAC_CONDENSED>  (4048) 
bAla(3R-Ph(3,4-diOMe))

>  <IUPAC>  (4048) 
(3R)-3-amino-3-(3,4-dimethoxyphenyl)propanoic acid

>  <TYPE>  (4048) 
Backbone

>  <CLASS>  (4048) 
beta

>  <ANALOG>  (4048) 
X

>  <MOL_WT>  (4048) 
225.24399999999997

>  <LOGP>  (4048) 
1.1783000000000001

>  <TPSA>  (4048) 
81.78

>  <POPULARITY>  (4048) 
8.9

>  <PROTECTED>  (4048) 
TRUE

>  <SMILES>  (4048) 
N[C@@H](c1(ccc(OC)c(OC)c1))CC(=O)O

>  <INCHIKEY>  (4048) 
FGCXSFRGPCUBPW-MRVPVSSYSA-N

$$$$
bAla_3RPh_35diOMe
     RDKit          2D

 16 16  0  0  0  0  0  0  0  0999 V2000
   -2.1417   -1.8682    0.0000 N   0  0  0  0  0  0  0  0  0  0  0  0
   -1.6325   -0.4573    0.0000 C   0  0  0  0  0  0  0  0  0  0  0  0
   -0.1559   -0.1929    0.0000 C   0  0  0  0  0  0  0  0  0  0  0  0
    0.3533    1.2180    0.0000 C   0  0  0  0  0  0  0  0  0  0  0  0
    1.8298    1.4824    0.0000 C   0  0  0  0  0  0  0  0  0  0  0  0
    2.3391    2.8933    0.0000 O   0  0  0  0  0  0  0  0  0  0  0  0
    3.8156    3.1577    0.0000 C   0  0  0  0  0  0  0  0  0  0  0  0
    2.7971    0.3359    0.0000 C   0  0  0  0  0  0  0  0  0  0  0  0
    2.2878   -1.0750    0.0000 C   0  0  0  0  0  0  0  0  0  0  0  0
    3.2550   -2.2215    0.0000 O   0  0  0  0  0  0  0  0  0  0  0  0
    2.7458   -3.6324    0.0000 C   0  0  0  0  0  0  0  0  0  0  0  0
    0.8113   -1.3394    0.0000 C   0  0  0  0  0  0  0  0  0  0  0  0
   -2.5997    0.6892    0.0000 C   0  0  0  0  0  0  0  0  0  0  0  0
   -4.0762    0.4248    0.0000 C   0  0  0  0  0  0  0  0  0  0  0  0
   -4.5855   -0.9861    0.0000 O   0  0  0  0  0  0  0  0  0  0  0  0
   -5.0434    1.5713    0.0000 O   0  0  0  0  0  0  0  0  0  0  0  0
  2  1  1  6
  2  3  1  0
  3  4  2  0
  4  5  1  0
  5  6  1  0
  6  7  1  0
  5  8  2  0
  8  9  1  0
  9 10  1  0
 10 11  1  0
  9 12  2  0
  2 13  1  0
 13 14  1  0
 14 15  2  0
 14 16  1  0
 12  3  1  0
M  END
>  <rName>  (4049) 
bAla_3RPh_35diOMe

>  <PQ_SYMBOL>  (4049) 
bAla_3RPh_35diOMe

>  <FULL_NAME>  (4049) 
(R)-3-amino-3-(3,5-dimethoxyphenyl)propanoic acid

>  <IUPAC_CONDENSED>  (4049) 
bAla(3R-Ph(3,5-diOMe))

>  <IUPAC>  (4049) 
(3R)-3-amino-3-(3,5-dimethoxyphenyl)propanoic acid

>  <TYPE>  (4049) 
Backbone

>  <CLASS>  (4049) 
beta

>  <ANALOG>  (4049) 
X

>  <MOL_WT>  (4049) 
225.24399999999997

>  <LOGP>  (4049) 
1.1783000000000001

>  <TPSA>  (4049) 
81.78

>  <POPULARITY>  (4049) 
7.7

>  <PROTECTED>  (4049) 
TRUE

>  <SMILES>  (4049) 
N[C@@H](c1(cc(OC)cc(OC)c1))CC(=O)O

>  <INCHIKEY>  (4049) 
HUPNLRFWWQFWCS-SNVBAGLBSA-N

$$$$
bAla_3RPh_3Br
     RDKit          2D

 13 13  0  0  0  0  0  0  0  0999 V2000
   -1.2291   -1.8553    0.0000 N   0  0  0  0  0  0  0  0  0  0  0  0
   -0.9051   -0.3907    0.0000 C   0  0  0  0  0  0  0  0  0  0  0  0
    0.5252    0.0611    0.0000 C   0  0  0  0  0  0  0  0  0  0  0  0
    0.8491    1.5257    0.0000 C   0  0  0  0  0  0  0  0  0  0  0  0
    2.2795    1.9775    0.0000 C   0  0  0  0  0  0  0  0  0  0  0  0
    3.3859    0.9646    0.0000 C   0  0  0  0  0  0  0  0  0  0  0  0
    3.0620   -0.5000    0.0000 C   0  0  0  0  0  0  0  0  0  0  0  0
    4.1684   -1.5128    0.0000 Br  0  0  0  0  0  0  0  0  0  0  0  0
    1.6316   -0.9517    0.0000 C   0  0  0  0  0  0  0  0  0  0  0  0
   -2.0116    0.6222    0.0000 C   0  0  0  0  0  0  0  0  0  0  0  0
   -3.4419    0.1704    0.0000 C   0  0  0  0  0  0  0  0  0  0  0  0
   -3.7658   -1.2942    0.0000 O   0  0  0  0  0  0  0  0  0  0  0  0
   -4.5483    1.1832    0.0000 O   0  0  0  0  0  0  0  0  0  0  0  0
  2  1  1  6
  2  3  1  0
  3  4  2  0
  4  5  1  0
  5  6  2  0
  6  7  1  0
  7  8  1  0
  7  9  2  0
  2 10  1  0
 10 11  1  0
 11 12  2  0
 11 13  1  0
  9  3  1  0
M  END
>  <rName>  (4050) 
bAla_3RPh_3Br

>  <PQ_SYMBOL>  (4050) 
bAla_3RPh_3Br

>  <FULL_NAME>  (4050) 
(R)-3-amino-3-(3-bromophenyl)propanoic acid

>  <IUPAC_CONDENSED>  (4050) 
bAla(3R-Ph(3-Br))

>  <IUPAC>  (4050) 
(3R)-3-amino-3-(3-bromophenyl)propanoic acid

>  <TYPE>  (4050) 
Backbone

>  <CLASS>  (4050) 
beta

>  <ANALOG>  (4050) 
X

>  <MOL_WT>  (4050) 
244.08799999999997

>  <LOGP>  (4050) 
1.9236000000000002

>  <TPSA>  (4050) 
63.32000000000001

>  <POPULARITY>  (4050) 
8.9

>  <PROTECTED>  (4050) 
TRUE

>  <SMILES>  (4050) 
N[C@@H](c1(cccc(Br)c1))CC(=O)O

>  <INCHIKEY>  (4050) 
RLYAXKJHJUXZOT-MRVPVSSYSA-N

$$$$
bAla_3RPh_3Br_4F
     RDKit          2D

 14 14  0  0  0  0  0  0  0  0999 V2000
   -1.6907   -1.8557    0.0000 N   0  0  0  0  0  0  0  0  0  0  0  0
   -1.2771   -0.4139    0.0000 C   0  0  0  0  0  0  0  0  0  0  0  0
    0.1784   -0.0512    0.0000 C   0  0  0  0  0  0  0  0  0  0  0  0
    0.5920    1.3907    0.0000 C   0  0  0  0  0  0  0  0  0  0  0  0
    2.0475    1.7534    0.0000 C   0  0  0  0  0  0  0  0  0  0  0  0
    3.0894    0.6742    0.0000 C   0  0  0  0  0  0  0  0  0  0  0  0
    4.5448    1.0370    0.0000 F   0  0  0  0  0  0  0  0  0  0  0  0
    2.6757   -0.7676    0.0000 C   0  0  0  0  0  0  0  0  0  0  0  0
    3.7176   -1.8467    0.0000 Br  0  0  0  0  0  0  0  0  0  0  0  0
    1.2202   -1.1303    0.0000 C   0  0  0  0  0  0  0  0  0  0  0  0
   -2.3190    0.6652    0.0000 C   0  0  0  0  0  0  0  0  0  0  0  0
   -3.7745    0.3025    0.0000 C   0  0  0  0  0  0  0  0  0  0  0  0
   -4.1881   -1.1393    0.0000 O   0  0  0  0  0  0  0  0  0  0  0  0
   -4.8163    1.3817    0.0000 O   0  0  0  0  0  0  0  0  0  0  0  0
  2  1  1  6
  2  3  1  0
  3  4  1  0
  4  5  2  0
  5  6  1  0
  6  7  1  0
  6  8  2  0
  8  9  1  0
  8 10  1  0
  2 11  1  0
 11 12  1  0
 12 13  2  0
 12 14  1  0
 10  3  2  0
M  END
>  <rName>  (4051) 
bAla_3RPh_3Br_4F

>  <PQ_SYMBOL>  (4051) 
bAla_3RPh_3Br_4F

>  <FULL_NAME>  (4051) 
(R)-3-Amino-3-(3-bromo-4-fluorophenyl)propanoic acid

>  <IUPAC_CONDENSED>  (4051) 
bAla(3R-Ph(3-Br,4-F))

>  <IUPAC>  (4051) 
(3R)-3-amino-3-(3-bromo-4-fluorophenyl)propanoic acid

>  <TYPE>  (4051) 
Backbone

>  <CLASS>  (4051) 
beta

>  <ANALOG>  (4051) 
X

>  <MOL_WT>  (4051) 
262.078

>  <LOGP>  (4051) 
2.0627

>  <TPSA>  (4051) 
63.32000000000001

>  <POPULARITY>  (4051) 
3.8

>  <PROTECTED>  (4051) 
TRUE

>  <SMILES>  (4051) 
N[C@@H](c1(ccc(F)c(Br)c1))CC(=O)O

>  <INCHIKEY>  (4051) 
HTXYECRYAFLCAS-MRVPVSSYSA-N

$$$$
bAla_3RPh_3Br_5F
     RDKit          2D

 14 14  0  0  0  0  0  0  0  0999 V2000
   -1.6283   -1.9406    0.0000 N   0  0  0  0  0  0  0  0  0  0  0  0
   -1.1520   -0.5182    0.0000 C   0  0  0  0  0  0  0  0  0  0  0  0
    0.3179   -0.2194    0.0000 C   0  0  0  0  0  0  0  0  0  0  0  0
    0.7942    1.2029    0.0000 C   0  0  0  0  0  0  0  0  0  0  0  0
    2.2641    1.5017    0.0000 C   0  0  0  0  0  0  0  0  0  0  0  0
    2.7404    2.9241    0.0000 F   0  0  0  0  0  0  0  0  0  0  0  0
    3.2578    0.3780    0.0000 C   0  0  0  0  0  0  0  0  0  0  0  0
    2.7816   -1.0443    0.0000 C   0  0  0  0  0  0  0  0  0  0  0  0
    3.7753   -2.1680    0.0000 Br  0  0  0  0  0  0  0  0  0  0  0  0
    1.3116   -1.3431    0.0000 C   0  0  0  0  0  0  0  0  0  0  0  0
   -2.1457    0.6055    0.0000 C   0  0  0  0  0  0  0  0  0  0  0  0
   -3.6157    0.3067    0.0000 C   0  0  0  0  0  0  0  0  0  0  0  0
   -4.0919   -1.1157    0.0000 O   0  0  0  0  0  0  0  0  0  0  0  0
   -4.6094    1.4304    0.0000 O   0  0  0  0  0  0  0  0  0  0  0  0
  2  1  1  6
  2  3  1  0
  3  4  2  0
  4  5  1  0
  5  6  1  0
  5  7  2  0
  7  8  1  0
  8  9  1  0
  8 10  2  0
  2 11  1  0
 11 12  1  0
 12 13  2  0
 12 14  1  0
 10  3  1  0
M  END
>  <rName>  (4052) 
bAla_3RPh_3Br_5F

>  <PQ_SYMBOL>  (4052) 
bAla_3RPh_3Br_5F

>  <FULL_NAME>  (4052) 
(3R)-3-amino-3-(3-bromo-5-fluorophenyl)propanoic acid

>  <IUPAC_CONDENSED>  (4052) 
bAla(3R-Ph(3-Br,5-F))

>  <IUPAC>  (4052) 
(3R)-3-amino-3-(3-bromo-5-fluorophenyl)propanoic acid

>  <TYPE>  (4052) 
Backbone

>  <CLASS>  (4052) 
beta

>  <ANALOG>  (4052) 
X

>  <MOL_WT>  (4052) 
262.078

>  <LOGP>  (4052) 
2.0627

>  <TPSA>  (4052) 
63.32000000000001

>  <POPULARITY>  (4052) 
3.0

>  <PROTECTED>  (4052) 
TRUE

>  <SMILES>  (4052) 
N[C@@H](c1(cc(F)cc(Br)c1))CC(=O)O

>  <INCHIKEY>  (4052) 
NLQSIYYNYUJEFN-MRVPVSSYSA-N

$$$$
bAla_3RPh_3CF3
     RDKit          2D

 16 16  0  0  0  0  0  0  0  0999 V2000
   -1.8339   -1.7993    0.0000 N   0  0  0  0  0  0  0  0  0  0  0  0
   -1.7301   -0.3029    0.0000 C   0  0  0  0  0  0  0  0  0  0  0  0
   -0.3823    0.3554    0.0000 C   0  0  0  0  0  0  0  0  0  0  0  0
   -0.2785    1.8518    0.0000 C   0  0  0  0  0  0  0  0  0  0  0  0
    1.0693    2.5102    0.0000 C   0  0  0  0  0  0  0  0  0  0  0  0
    2.3133    1.6721    0.0000 C   0  0  0  0  0  0  0  0  0  0  0  0
    2.2096    0.1757    0.0000 C   0  0  0  0  0  0  0  0  0  0  0  0
    0.8618   -0.4826    0.0000 C   0  0  0  0  0  0  0  0  0  0  0  0
    3.4536   -0.6624    0.0000 C   0  0  0  0  0  0  0  0  0  0  0  0
    4.6977   -1.5004    0.0000 F   0  0  0  0  0  0  0  0  0  0  0  0
    2.6155   -1.9064    0.0000 F   0  0  0  0  0  0  0  0  0  0  0  0
    4.2917    0.5817    0.0000 F   0  0  0  0  0  0  0  0  0  0  0  0
   -2.9741    0.5352    0.0000 C   0  0  0  0  0  0  0  0  0  0  0  0
   -4.3219   -0.1232    0.0000 C   0  0  0  0  0  0  0  0  0  0  0  0
   -4.4257   -1.6196    0.0000 O   0  0  0  0  0  0  0  0  0  0  0  0
   -5.5660    0.7149    0.0000 O   0  0  0  0  0  0  0  0  0  0  0  0
  2  1  1  6
  2  3  1  0
  3  4  1  0
  4  5  2  0
  5  6  1  0
  6  7  2  0
  7  8  1  0
  7  9  1  0
  9 10  1  0
  9 11  1  0
  9 12  1  0
  2 13  1  0
 13 14  1  0
 14 15  2  0
 14 16  1  0
  8  3  2  0
M  END
>  <rName>  (4053) 
bAla_3RPh_3CF3

>  <PQ_SYMBOL>  (4053) 
bAla_3RPh_3CF3

>  <FULL_NAME>  (4053) 
(R)-3-amino-3-(3-(trifluoromethyl)phenyl)propanoic acid

>  <IUPAC_CONDENSED>  (4053) 
bAla(3R-Ph(3-CF3))

>  <IUPAC>  (4053) 
(3R)-3-amino-3-(3-(trifluoromethyl)phenyl)propanoic acid

>  <TYPE>  (4053) 
Backbone

>  <CLASS>  (4053) 
beta

>  <ANALOG>  (4053) 
X

>  <MOL_WT>  (4053) 
233.18899999999994

>  <LOGP>  (4053) 
2.1799

>  <TPSA>  (4053) 
63.32000000000001

>  <POPULARITY>  (4053) 
8.1

>  <PROTECTED>  (4053) 
TRUE

>  <SMILES>  (4053) 
N[C@@H](c1(cccc(c1)C(F)(F)F))CC(=O)O

>  <INCHIKEY>  (4053) 
WZXBASRNQXYUIP-MRVPVSSYSA-N

$$$$
bAla_3RPh_3CN
     RDKit          2D

 14 14  0  0  0  0  0  0  0  0999 V2000
   -1.3964   -1.8531    0.0000 N   0  0  0  0  0  0  0  0  0  0  0  0
   -1.2480   -0.3604    0.0000 C   0  0  0  0  0  0  0  0  0  0  0  0
    0.1188    0.2574    0.0000 C   0  0  0  0  0  0  0  0  0  0  0  0
    0.2672    1.7500    0.0000 C   0  0  0  0  0  0  0  0  0  0  0  0
    1.6341    2.3678    0.0000 C   0  0  0  0  0  0  0  0  0  0  0  0
    2.8526    1.4930    0.0000 C   0  0  0  0  0  0  0  0  0  0  0  0
    2.7042    0.0003    0.0000 C   0  0  0  0  0  0  0  0  0  0  0  0
    3.9226   -0.8745    0.0000 C   0  0  0  0  0  0  0  0  0  0  0  0
    5.1411   -1.7494    0.0000 N   0  0  0  0  0  0  0  0  0  0  0  0
    1.3373   -0.6175    0.0000 C   0  0  0  0  0  0  0  0  0  0  0  0
   -2.4665    0.5144    0.0000 C   0  0  0  0  0  0  0  0  0  0  0  0
   -3.8334   -0.1034    0.0000 C   0  0  0  0  0  0  0  0  0  0  0  0
   -3.9818   -1.5960    0.0000 O   0  0  0  0  0  0  0  0  0  0  0  0
   -5.0518    0.7715    0.0000 O   0  0  0  0  0  0  0  0  0  0  0  0
  2  1  1  6
  2  3  1  0
  3  4  2  0
  4  5  1  0
  5  6  2  0
  6  7  1  0
  7  8  1  0
  8  9  3  0
  7 10  2  0
  2 11  1  0
 11 12  1  0
 12 13  2  0
 12 14  1  0
 10  3  1  0
M  END
>  <rName>  (4054) 
bAla_3RPh_3CN

>  <PQ_SYMBOL>  (4054) 
bAla_3RPh_3CN

>  <FULL_NAME>  (4054) 
(R)-3-amino-3-(3-cyanophenyl)propanoic acid

>  <IUPAC_CONDENSED>  (4054) 
bAla(3R-Ph(3-CN))

>  <IUPAC>  (4054) 
(3R)-3-amino-3-(3-(nitrilomethyl)phenyl)propanoic acid

>  <TYPE>  (4054) 
Backbone

>  <CLASS>  (4054) 
beta

>  <ANALOG>  (4054) 
Lys

>  <MOL_WT>  (4054) 
190.20199999999997

>  <LOGP>  (4054) 
1.03278

>  <TPSA>  (4054) 
87.11

>  <POPULARITY>  (4054) 
6.5

>  <PROTECTED>  (4054) 
TRUE

>  <SMILES>  (4054) 
N[C@@H](c1(cccc(C#N)c1))CC(=O)O

>  <INCHIKEY>  (4054) 
RRUDIPCLABXNDE-SECBINFHSA-N

$$$$
bAla_3RPh_3Cl
     RDKit          2D

 13 13  0  0  0  0  0  0  0  0999 V2000
   -1.2291   -1.8553    0.0000 N   0  0  0  0  0  0  0  0  0  0  0  0
   -0.9051   -0.3907    0.0000 C   0  0  0  0  0  0  0  0  0  0  0  0
    0.5252    0.0611    0.0000 C   0  0  0  0  0  0  0  0  0  0  0  0
    0.8491    1.5257    0.0000 C   0  0  0  0  0  0  0  0  0  0  0  0
    2.2795    1.9775    0.0000 C   0  0  0  0  0  0  0  0  0  0  0  0
    3.3859    0.9646    0.0000 C   0  0  0  0  0  0  0  0  0  0  0  0
    3.0620   -0.5000    0.0000 C   0  0  0  0  0  0  0  0  0  0  0  0
    4.1684   -1.5128    0.0000 Cl  0  0  0  0  0  0  0  0  0  0  0  0
    1.6316   -0.9517    0.0000 C   0  0  0  0  0  0  0  0  0  0  0  0
   -2.0116    0.6222    0.0000 C   0  0  0  0  0  0  0  0  0  0  0  0
   -3.4419    0.1704    0.0000 C   0  0  0  0  0  0  0  0  0  0  0  0
   -3.7658   -1.2942    0.0000 O   0  0  0  0  0  0  0  0  0  0  0  0
   -4.5483    1.1832    0.0000 O   0  0  0  0  0  0  0  0  0  0  0  0
  2  1  1  6
  2  3  1  0
  3  4  2  0
  4  5  1  0
  5  6  2  0
  6  7  1  0
  7  8  1  0
  7  9  2  0
  2 10  1  0
 10 11  1  0
 11 12  2  0
 11 13  1  0
  9  3  1  0
M  END
>  <rName>  (4055) 
bAla_3RPh_3Cl

>  <PQ_SYMBOL>  (4055) 
bAla_3RPh_3Cl

>  <FULL_NAME>  (4055) 
(R)-3-amino-3-(3-chlorophenyl)propanoic acid

>  <IUPAC_CONDENSED>  (4055) 
bAla(3R-Ph(3-Cl))

>  <IUPAC>  (4055) 
(3R)-3-amino-3-(3-chlorophenyl)propanoic acid

>  <TYPE>  (4055) 
Backbone

>  <CLASS>  (4055) 
beta

>  <ANALOG>  (4055) 
X

>  <MOL_WT>  (4055) 
199.63699999999997

>  <LOGP>  (4055) 
1.8145000000000002

>  <TPSA>  (4055) 
63.32000000000001

>  <POPULARITY>  (4055) 
9.4

>  <PROTECTED>  (4055) 
TRUE

>  <SMILES>  (4055) 
N[C@@H](c1(cccc(Cl)c1))CC(=O)O

>  <INCHIKEY>  (4055) 
LIDRHPCWOYOBIZ-MRVPVSSYSA-N

$$$$
bAla_3RPh_3F
     RDKit          2D

 13 13  0  0  0  0  0  0  0  0999 V2000
   -1.2291   -1.8553    0.0000 N   0  0  0  0  0  0  0  0  0  0  0  0
   -0.9051   -0.3907    0.0000 C   0  0  0  0  0  0  0  0  0  0  0  0
    0.5252    0.0611    0.0000 C   0  0  0  0  0  0  0  0  0  0  0  0
    0.8491    1.5257    0.0000 C   0  0  0  0  0  0  0  0  0  0  0  0
    2.2795    1.9775    0.0000 C   0  0  0  0  0  0  0  0  0  0  0  0
    3.3859    0.9646    0.0000 C   0  0  0  0  0  0  0  0  0  0  0  0
    3.0620   -0.5000    0.0000 C   0  0  0  0  0  0  0  0  0  0  0  0
    4.1684   -1.5128    0.0000 F   0  0  0  0  0  0  0  0  0  0  0  0
    1.6316   -0.9517    0.0000 C   0  0  0  0  0  0  0  0  0  0  0  0
   -2.0116    0.6222    0.0000 C   0  0  0  0  0  0  0  0  0  0  0  0
   -3.4419    0.1704    0.0000 C   0  0  0  0  0  0  0  0  0  0  0  0
   -3.7658   -1.2942    0.0000 O   0  0  0  0  0  0  0  0  0  0  0  0
   -4.5483    1.1832    0.0000 O   0  0  0  0  0  0  0  0  0  0  0  0
  2  1  1  6
  2  3  1  0
  3  4  2  0
  4  5  1  0
  5  6  2  0
  6  7  1  0
  7  8  1  0
  7  9  2  0
  2 10  1  0
 10 11  1  0
 11 12  2  0
 11 13  1  0
  9  3  1  0
M  END
>  <rName>  (4056) 
bAla_3RPh_3F

>  <PQ_SYMBOL>  (4056) 
bAla_3RPh_3F

>  <FULL_NAME>  (4056) 
(R)-3-amino-3-(3-fluorophenyl)propanoic acid

>  <IUPAC_CONDENSED>  (4056) 
bAla(3R-Ph(3-F))

>  <IUPAC>  (4056) 
(3R)-3-amino-3-(3-fluorophenyl)propanoic acid

>  <TYPE>  (4056) 
Backbone

>  <CLASS>  (4056) 
beta

>  <ANALOG>  (4056) 
X

>  <MOL_WT>  (4056) 
183.18199999999996

>  <LOGP>  (4056) 
1.3002000000000002

>  <TPSA>  (4056) 
63.32000000000001

>  <POPULARITY>  (4056) 
10.1

>  <PROTECTED>  (4056) 
TRUE

>  <SMILES>  (4056) 
N[C@@H](c1(cccc(F)c1))CC(=O)O

>  <INCHIKEY>  (4056) 
GZNJUJNKZBHINS-MRVPVSSYSA-N

$$$$
bAla_3RPh_3F_4Br
     RDKit          2D

 14 14  0  0  0  0  0  0  0  0999 V2000
   -1.6907   -1.8557    0.0000 N   0  0  0  0  0  0  0  0  0  0  0  0
   -1.2771   -0.4139    0.0000 C   0  0  0  0  0  0  0  0  0  0  0  0
    0.1784   -0.0512    0.0000 C   0  0  0  0  0  0  0  0  0  0  0  0
    0.5920    1.3907    0.0000 C   0  0  0  0  0  0  0  0  0  0  0  0
    2.0475    1.7534    0.0000 C   0  0  0  0  0  0  0  0  0  0  0  0
    3.0894    0.6742    0.0000 C   0  0  0  0  0  0  0  0  0  0  0  0
    4.5448    1.0370    0.0000 Br  0  0  0  0  0  0  0  0  0  0  0  0
    2.6757   -0.7676    0.0000 C   0  0  0  0  0  0  0  0  0  0  0  0
    3.7176   -1.8467    0.0000 F   0  0  0  0  0  0  0  0  0  0  0  0
    1.2202   -1.1303    0.0000 C   0  0  0  0  0  0  0  0  0  0  0  0
   -2.3190    0.6652    0.0000 C   0  0  0  0  0  0  0  0  0  0  0  0
   -3.7745    0.3025    0.0000 C   0  0  0  0  0  0  0  0  0  0  0  0
   -4.1881   -1.1393    0.0000 O   0  0  0  0  0  0  0  0  0  0  0  0
   -4.8163    1.3817    0.0000 O   0  0  0  0  0  0  0  0  0  0  0  0
  2  1  1  6
  2  3  1  0
  3  4  1  0
  4  5  2  0
  5  6  1  0
  6  7  1  0
  6  8  2  0
  8  9  1  0
  8 10  1  0
  2 11  1  0
 11 12  1  0
 12 13  2  0
 12 14  1  0
 10  3  2  0
M  END
>  <rName>  (4057) 
bAla_3RPh_3F_4Br

>  <PQ_SYMBOL>  (4057) 
bAla_3RPh_3F_4Br

>  <FULL_NAME>  (4057) 
(R)-3-Amino-3-(4-bromo-3-fluorophenyl)propanoic acid

>  <IUPAC_CONDENSED>  (4057) 
bAla(3R-Ph(3-F,4-Br))

>  <IUPAC>  (4057) 
(3R)-3-amino-3-(4-bromo-3-fluorophenyl)propanoic acid

>  <TYPE>  (4057) 
Backbone

>  <CLASS>  (4057) 
beta

>  <ANALOG>  (4057) 
X

>  <MOL_WT>  (4057) 
262.0779999999999

>  <LOGP>  (4057) 
2.0627

>  <TPSA>  (4057) 
63.32000000000001

>  <POPULARITY>  (4057) 
3.6

>  <PROTECTED>  (4057) 
TRUE

>  <SMILES>  (4057) 
N[C@@H](c1(ccc(Br)c(F)c1))CC(=O)O

>  <INCHIKEY>  (4057) 
KQILRFRQSYLNIS-MRVPVSSYSA-N

$$$$
bAla_3RPh_3I
     RDKit          2D

 13 13  0  0  0  0  0  0  0  0999 V2000
   -1.2291   -1.8553    0.0000 N   0  0  0  0  0  0  0  0  0  0  0  0
   -0.9051   -0.3907    0.0000 C   0  0  0  0  0  0  0  0  0  0  0  0
    0.5252    0.0611    0.0000 C   0  0  0  0  0  0  0  0  0  0  0  0
    0.8491    1.5257    0.0000 C   0  0  0  0  0  0  0  0  0  0  0  0
    2.2795    1.9775    0.0000 C   0  0  0  0  0  0  0  0  0  0  0  0
    3.3859    0.9646    0.0000 C   0  0  0  0  0  0  0  0  0  0  0  0
    3.0620   -0.5000    0.0000 C   0  0  0  0  0  0  0  0  0  0  0  0
    4.1684   -1.5128    0.0000 I   0  0  0  0  0  0  0  0  0  0  0  0
    1.6316   -0.9517    0.0000 C   0  0  0  0  0  0  0  0  0  0  0  0
   -2.0116    0.6222    0.0000 C   0  0  0  0  0  0  0  0  0  0  0  0
   -3.4419    0.1704    0.0000 C   0  0  0  0  0  0  0  0  0  0  0  0
   -3.7658   -1.2942    0.0000 O   0  0  0  0  0  0  0  0  0  0  0  0
   -4.5483    1.1832    0.0000 O   0  0  0  0  0  0  0  0  0  0  0  0
  2  1  1  6
  2  3  1  0
  3  4  2  0
  4  5  1  0
  5  6  2  0
  6  7  1  0
  7  8  1  0
  7  9  2  0
  2 10  1  0
 10 11  1  0
 11 12  2  0
 11 13  1  0
  9  3  1  0
M  END
>  <rName>  (4058) 
bAla_3RPh_3I

>  <PQ_SYMBOL>  (4058) 
bAla_3RPh_3I

>  <FULL_NAME>  (4058) 
(3R)-3-amino-3-(3-iodophenyl)propanoic acid

>  <IUPAC_CONDENSED>  (4058) 
bAla(3R-Ph(3-I))

>  <IUPAC>  (4058) 
(3R)-3-amino-3-(3-iodophenyl)propanoic acid

>  <TYPE>  (4058) 
Backbone

>  <CLASS>  (4058) 
beta

>  <ANALOG>  (4058) 
X

>  <MOL_WT>  (4058) 
291.088

>  <LOGP>  (4058) 
1.7657000000000003

>  <TPSA>  (4058) 
63.32000000000001

>  <POPULARITY>  (4058) 
5.2

>  <PROTECTED>  (4058) 
TRUE

>  <SMILES>  (4058) 
N[C@@H](c1(cccc(I)c1))CC(=O)O

>  <INCHIKEY>  (4058) 
ZBOWULRIADNEHR-MRVPVSSYSA-N

$$$$
bAla_3RPh_3Me
     RDKit          2D

 13 13  0  0  0  0  0  0  0  0999 V2000
   -1.2291   -1.8553    0.0000 N   0  0  0  0  0  0  0  0  0  0  0  0
   -0.9051   -0.3907    0.0000 C   0  0  0  0  0  0  0  0  0  0  0  0
    0.5252    0.0611    0.0000 C   0  0  0  0  0  0  0  0  0  0  0  0
    0.8491    1.5257    0.0000 C   0  0  0  0  0  0  0  0  0  0  0  0
    2.2795    1.9775    0.0000 C   0  0  0  0  0  0  0  0  0  0  0  0
    3.3859    0.9646    0.0000 C   0  0  0  0  0  0  0  0  0  0  0  0
    3.0620   -0.5000    0.0000 C   0  0  0  0  0  0  0  0  0  0  0  0
    4.1684   -1.5128    0.0000 C   0  0  0  0  0  0  0  0  0  0  0  0
    1.6316   -0.9517    0.0000 C   0  0  0  0  0  0  0  0  0  0  0  0
   -2.0116    0.6222    0.0000 C   0  0  0  0  0  0  0  0  0  0  0  0
   -3.4419    0.1704    0.0000 C   0  0  0  0  0  0  0  0  0  0  0  0
   -3.7658   -1.2942    0.0000 O   0  0  0  0  0  0  0  0  0  0  0  0
   -4.5483    1.1832    0.0000 O   0  0  0  0  0  0  0  0  0  0  0  0
  2  1  1  6
  2  3  1  0
  3  4  2  0
  4  5  1  0
  5  6  2  0
  6  7  1  0
  7  8  1  0
  7  9  2  0
  2 10  1  0
 10 11  1  0
 11 12  2  0
 11 13  1  0
  9  3  1  0
M  END
>  <rName>  (4059) 
bAla_3RPh_3Me

>  <PQ_SYMBOL>  (4059) 
bAla_3RPh_3Me

>  <FULL_NAME>  (4059) 
(R)-3-amino-3-(m-tolyl)propanoic acid

>  <IUPAC_CONDENSED>  (4059) 
bAla(3R-Ph(3-Me))

>  <IUPAC>  (4059) 
(3R)-3-amino-3-(3-methylphenyl)propanoic acid

>  <TYPE>  (4059) 
Backbone

>  <CLASS>  (4059) 
beta

>  <ANALOG>  (4059) 
X

>  <MOL_WT>  (4059) 
179.21899999999997

>  <LOGP>  (4059) 
1.4695200000000002

>  <TPSA>  (4059) 
63.32000000000001

>  <POPULARITY>  (4059) 
9.0

>  <PROTECTED>  (4059) 
TRUE

>  <SMILES>  (4059) 
N[C@@H](c1(cccc(C)c1))CC(=O)O

>  <INCHIKEY>  (4059) 
HMLYKNGYKKJNLC-SECBINFHSA-N

$$$$
bAla_3RPh_3NO2
     RDKit          2D

 15 15  0  0  0  0  0  0  0  0999 V2000
   -1.6415   -1.8098    0.0000 N   0  0  0  0  0  0  0  0  0  0  0  0
   -1.5067   -0.3159    0.0000 C   0  0  0  0  0  0  0  0  0  0  0  0
   -0.1455    0.3144    0.0000 C   0  0  0  0  0  0  0  0  0  0  0  0
   -0.0107    1.8083    0.0000 C   0  0  0  0  0  0  0  0  0  0  0  0
    1.3505    2.4385    0.0000 C   0  0  0  0  0  0  0  0  0  0  0  0
    2.5768    1.5748    0.0000 C   0  0  0  0  0  0  0  0  0  0  0  0
    2.4420    0.0808    0.0000 C   0  0  0  0  0  0  0  0  0  0  0  0
    1.0808   -0.5494    0.0000 C   0  0  0  0  0  0  0  0  0  0  0  0
    3.6684   -0.7829    0.0000 N   0  0  0  0  0  0  0  0  0  0  0  0
    5.0296   -0.1527    0.0000 O   0  0  0  0  0  0  0  0  0  0  0  0
    3.5336   -2.2768    0.0000 O   0  0  0  0  0  0  0  0  0  0  0  0
   -2.7331    0.5479    0.0000 C   0  0  0  0  0  0  0  0  0  0  0  0
   -4.0943   -0.0824    0.0000 C   0  0  0  0  0  0  0  0  0  0  0  0
   -4.2291   -1.5763    0.0000 O   0  0  0  0  0  0  0  0  0  0  0  0
   -5.3207    0.7814    0.0000 O   0  0  0  0  0  0  0  0  0  0  0  0
  2  1  1  6
  2  3  1  0
  3  4  1  0
  4  5  2  0
  5  6  1  0
  6  7  2  0
  7  8  1  0
  7  9  1  0
  9 10  2  0
  9 11  1  0
  2 12  1  0
 12 13  1  0
 13 14  2  0
 13 15  1  0
  8  3  2  0
M  CHG  2   9   1  11  -1
M  END
>  <rName>  (4060) 
bAla_3RPh_3NO2

>  <PQ_SYMBOL>  (4060) 
bAla_3RPh_3NO2

>  <FULL_NAME>  (4060) 
(R)-3-amino-3-(3-nitrophenyl)propanoic acid

>  <IUPAC_CONDENSED>  (4060) 
bAla(3R-Ph(3-NO2))

>  <IUPAC>  (4060) 
(3R)-3-amino-3-(3-nitrophenyl)propanoic acid

>  <TYPE>  (4060) 
Backbone

>  <CLASS>  (4060) 
beta

>  <ANALOG>  (4060) 
Lys

>  <MOL_WT>  (4060) 
210.18899999999996

>  <LOGP>  (4060) 
1.0693000000000001

>  <TPSA>  (4060) 
106.46

>  <POPULARITY>  (4060) 
7.9

>  <PROTECTED>  (4060) 
TRUE

>  <SMILES>  (4060) 
N[C@@H](c1(cccc(c1)[N+](=O)[O-]))CC(=O)O

>  <INCHIKEY>  (4060) 
SJBFILRQMRECCK-MRVPVSSYSA-N

$$$$
bAla_3RPh_3OH
     RDKit          2D

 13 13  0  0  0  0  0  0  0  0999 V2000
   -1.2291   -1.8553    0.0000 N   0  0  0  0  0  0  0  0  0  0  0  0
   -0.9051   -0.3907    0.0000 C   0  0  0  0  0  0  0  0  0  0  0  0
    0.5252    0.0611    0.0000 C   0  0  0  0  0  0  0  0  0  0  0  0
    0.8491    1.5257    0.0000 C   0  0  0  0  0  0  0  0  0  0  0  0
    2.2795    1.9775    0.0000 C   0  0  0  0  0  0  0  0  0  0  0  0
    3.3859    0.9646    0.0000 C   0  0  0  0  0  0  0  0  0  0  0  0
    3.0620   -0.5000    0.0000 C   0  0  0  0  0  0  0  0  0  0  0  0
    4.1684   -1.5128    0.0000 O   0  0  0  0  0  0  0  0  0  0  0  0
    1.6316   -0.9517    0.0000 C   0  0  0  0  0  0  0  0  0  0  0  0
   -2.0116    0.6222    0.0000 C   0  0  0  0  0  0  0  0  0  0  0  0
   -3.4419    0.1704    0.0000 C   0  0  0  0  0  0  0  0  0  0  0  0
   -3.7658   -1.2942    0.0000 O   0  0  0  0  0  0  0  0  0  0  0  0
   -4.5483    1.1832    0.0000 O   0  0  0  0  0  0  0  0  0  0  0  0
  2  1  1  6
  2  3  1  0
  3  4  2  0
  4  5  1  0
  5  6  2  0
  6  7  1  0
  7  8  1  0
  7  9  2  0
  2 10  1  0
 10 11  1  0
 11 12  2  0
 11 13  1  0
  9  3  1  0
M  END
>  <rName>  (4061) 
bAla_3RPh_3OH

>  <PQ_SYMBOL>  (4061) 
bAla_3RPh_3OH

>  <FULL_NAME>  (4061) 
(R)-3-amino-3-(3-hydroxyphenyl)propanoic acid

>  <IUPAC_CONDENSED>  (4061) 
bAla(3R-Ph(3-OH))

>  <IUPAC>  (4061) 
(3R)-3-amino-3-(3-hydroxyphenyl)propanoic acid

>  <TYPE>  (4061) 
Backbone

>  <CLASS>  (4061) 
beta

>  <ANALOG>  (4061) 
X

>  <MOL_WT>  (4061) 
181.19099999999995

>  <LOGP>  (4061) 
0.8667

>  <TPSA>  (4061) 
83.55

>  <POPULARITY>  (4061) 
9.5

>  <PROTECTED>  (4061) 
TRUE

>  <SMILES>  (4061) 
N[C@@H](c1(cccc(O)c1))CC(=O)O

>  <INCHIKEY>  (4061) 
NYHNEKBZZXSUNO-MRVPVSSYSA-N

$$$$
bAla_3RPh_3OMe
     RDKit          2D

 14 14  0  0  0  0  0  0  0  0999 V2000
   -1.2988   -1.8090    0.0000 N   0  0  0  0  0  0  0  0  0  0  0  0
   -1.1504   -0.3163    0.0000 C   0  0  0  0  0  0  0  0  0  0  0  0
    0.2165    0.3015    0.0000 C   0  0  0  0  0  0  0  0  0  0  0  0
    0.3649    1.7941    0.0000 C   0  0  0  0  0  0  0  0  0  0  0  0
    1.7317    2.4119    0.0000 C   0  0  0  0  0  0  0  0  0  0  0  0
    2.9502    1.5371    0.0000 C   0  0  0  0  0  0  0  0  0  0  0  0
    2.8018    0.0445    0.0000 C   0  0  0  0  0  0  0  0  0  0  0  0
    4.0203   -0.8304    0.0000 O   0  0  0  0  0  0  0  0  0  0  0  0
    3.8719   -2.3230    0.0000 C   0  0  0  0  0  0  0  0  0  0  0  0
    1.4349   -0.5733    0.0000 C   0  0  0  0  0  0  0  0  0  0  0  0
   -2.3689    0.5585    0.0000 C   0  0  0  0  0  0  0  0  0  0  0  0
   -3.7357   -0.0593    0.0000 C   0  0  0  0  0  0  0  0  0  0  0  0
   -3.8841   -1.5519    0.0000 O   0  0  0  0  0  0  0  0  0  0  0  0
   -4.9542    0.8155    0.0000 O   0  0  0  0  0  0  0  0  0  0  0  0
  2  1  1  6
  2  3  1  0
  3  4  2  0
  4  5  1  0
  5  6  2  0
  6  7  1  0
  7  8  1  0
  8  9  1  0
  7 10  2  0
  2 11  1  0
 11 12  1  0
 12 13  2  0
 12 14  1  0
 10  3  1  0
M  END
>  <rName>  (4062) 
bAla_3RPh_3OMe

>  <PQ_SYMBOL>  (4062) 
bAla_3RPh_3OMe

>  <FULL_NAME>  (4062) 
(R)-3-amino-3-(3-methoxyphenyl)propanoic acid

>  <IUPAC_CONDENSED>  (4062) 
bAla(3R-Ph(3-OMe))

>  <IUPAC>  (4062) 
(3R)-3-amino-3-(3-methoxyphenyl)propanoic acid

>  <TYPE>  (4062) 
Backbone

>  <CLASS>  (4062) 
beta

>  <ANALOG>  (4062) 
X

>  <MOL_WT>  (4062) 
195.21799999999996

>  <LOGP>  (4062) 
1.1697

>  <TPSA>  (4062) 
72.55

>  <POPULARITY>  (4062) 
9.3

>  <PROTECTED>  (4062) 
TRUE

>  <SMILES>  (4062) 
N[C@@H](c1(cccc(OC)c1))CC(=O)O

>  <INCHIKEY>  (4062) 
FGMPGCPZEOXEES-SECBINFHSA-N

$$$$
bAla_3RPh_3OPh
     RDKit          2D

 19 20  0  0  0  0  0  0  0  0999 V2000
   -1.6902   -1.6815    0.0000 N   0  0  0  0  0  0  0  0  0  0  0  0
   -2.2385   -0.2853    0.0000 C   0  0  0  0  0  0  0  0  0  0  0  0
   -1.3035    0.8876    0.0000 C   0  0  0  0  0  0  0  0  0  0  0  0
   -1.8517    2.2838    0.0000 C   0  0  0  0  0  0  0  0  0  0  0  0
   -0.9167    3.4567    0.0000 C   0  0  0  0  0  0  0  0  0  0  0  0
    0.5665    3.2335    0.0000 C   0  0  0  0  0  0  0  0  0  0  0  0
    1.1148    1.8373    0.0000 C   0  0  0  0  0  0  0  0  0  0  0  0
    2.5981    1.6140    0.0000 O   0  0  0  0  0  0  0  0  0  0  0  0
    3.1464    0.2178    0.0000 C   0  0  0  0  0  0  0  0  0  0  0  0
    2.2114   -0.9551    0.0000 C   0  0  0  0  0  0  0  0  0  0  0  0
    2.7597   -2.3513    0.0000 C   0  0  0  0  0  0  0  0  0  0  0  0
    4.2430   -2.5746    0.0000 C   0  0  0  0  0  0  0  0  0  0  0  0
    5.1780   -1.4017    0.0000 C   0  0  0  0  0  0  0  0  0  0  0  0
    4.6297   -0.0055    0.0000 C   0  0  0  0  0  0  0  0  0  0  0  0
    0.1798    0.6643    0.0000 C   0  0  0  0  0  0  0  0  0  0  0  0
   -3.7217   -0.0621    0.0000 C   0  0  0  0  0  0  0  0  0  0  0  0
   -4.6567   -1.2350    0.0000 C   0  0  0  0  0  0  0  0  0  0  0  0
   -4.1085   -2.6312    0.0000 O   0  0  0  0  0  0  0  0  0  0  0  0
   -6.1400   -1.0117    0.0000 O   0  0  0  0  0  0  0  0  0  0  0  0
  2  1  1  6
  2  3  1  0
  3  4  2  0
  4  5  1  0
  5  6  2  0
  6  7  1  0
  7  8  1  0
  8  9  1  0
  9 10  2  0
 10 11  1  0
 11 12  2  0
 12 13  1  0
 13 14  2  0
  7 15  2  0
  2 16  1  0
 16 17  1  0
 17 18  2  0
 17 19  1  0
 14  9  1  0
 15  3  1  0
M  END
>  <rName>  (4063) 
bAla_3RPh_3OPh

>  <PQ_SYMBOL>  (4063) 
bAla_3RPh_3OPh

>  <FULL_NAME>  (4063) 
(r)-3-Amino-3-(3-phenoxy-phenyl)-propionic acid

>  <IUPAC_CONDENSED>  (4063) 
bAla(3R-Ph(3-OPh))

>  <IUPAC>  (4063) 
(3R)-3-amino-3-(3-phenoxyphenyl)propanoic acid

>  <TYPE>  (4063) 
Backbone

>  <CLASS>  (4063) 
beta

>  <ANALOG>  (4063) 
X

>  <MOL_WT>  (4063) 
257.289

>  <LOGP>  (4063) 
2.953400000000001

>  <TPSA>  (4063) 
72.55

>  <POPULARITY>  (4063) 
3.9

>  <PROTECTED>  (4063) 
TRUE

>  <SMILES>  (4063) 
N[C@@H](c2(cccc(Oc1(ccccc1))c2))CC(=O)O

>  <INCHIKEY>  (4063) 
DOHHGYXZPWMNKT-CQSZACIVSA-N

$$$$
bAla_3RPh_4Br
     RDKit          2D

 13 13  0  0  0  0  0  0  0  0999 V2000
   -1.5598   -1.8792    0.0000 N   0  0  0  0  0  0  0  0  0  0  0  0
   -1.0324   -0.4750    0.0000 C   0  0  0  0  0  0  0  0  0  0  0  0
    0.4474   -0.2297    0.0000 C   0  0  0  0  0  0  0  0  0  0  0  0
    0.9749    1.1745    0.0000 C   0  0  0  0  0  0  0  0  0  0  0  0
    2.4547    1.4199    0.0000 C   0  0  0  0  0  0  0  0  0  0  0  0
    3.4070    0.2610    0.0000 C   0  0  0  0  0  0  0  0  0  0  0  0
    4.8868    0.5063    0.0000 Br  0  0  0  0  0  0  0  0  0  0  0  0
    2.8796   -1.1432    0.0000 C   0  0  0  0  0  0  0  0  0  0  0  0
    1.3998   -1.3886    0.0000 C   0  0  0  0  0  0  0  0  0  0  0  0
   -1.9847    0.6838    0.0000 C   0  0  0  0  0  0  0  0  0  0  0  0
   -3.4645    0.4385    0.0000 C   0  0  0  0  0  0  0  0  0  0  0  0
   -3.9920   -0.9657    0.0000 O   0  0  0  0  0  0  0  0  0  0  0  0
   -4.4169    1.5974    0.0000 O   0  0  0  0  0  0  0  0  0  0  0  0
  2  1  1  6
  2  3  1  0
  3  4  1  0
  4  5  2  0
  5  6  1  0
  6  7  1  0
  6  8  2  0
  8  9  1  0
  2 10  1  0
 10 11  1  0
 11 12  2  0
 11 13  1  0
  9  3  2  0
M  END
>  <rName>  (4064) 
bAla_3RPh_4Br

>  <PQ_SYMBOL>  (4064) 
bAla_3RPh_4Br

>  <FULL_NAME>  (4064) 
(R)-3-amino-3-(4-bromophenyl)propanoic acid

>  <IUPAC_CONDENSED>  (4064) 
bAla(3R-Ph(4-Br))

>  <IUPAC>  (4064) 
(3R)-3-amino-3-(4-bromophenyl)propanoic acid

>  <TYPE>  (4064) 
Backbone

>  <CLASS>  (4064) 
beta

>  <ANALOG>  (4064) 
X

>  <MOL_WT>  (4064) 
244.08799999999997

>  <LOGP>  (4064) 
1.9236

>  <TPSA>  (4064) 
63.32000000000001

>  <POPULARITY>  (4064) 
8.8

>  <PROTECTED>  (4064) 
TRUE

>  <SMILES>  (4064) 
N[C@@H](c1(ccc(Br)cc1))CC(=O)O

>  <INCHIKEY>  (4064) 
RBOUYDUXPMAYMJ-MRVPVSSYSA-N

$$$$
bAla_3RPh_4CF3
     RDKit          2D

 16 16  0  0  0  0  0  0  0  0999 V2000
   -2.6557   -1.8716    0.0000 N   0  0  0  0  0  0  0  0  0  0  0  0
   -2.0655   -0.4926    0.0000 C   0  0  0  0  0  0  0  0  0  0  0  0
   -0.5761   -0.3143    0.0000 C   0  0  0  0  0  0  0  0  0  0  0  0
    0.0141    1.0647    0.0000 C   0  0  0  0  0  0  0  0  0  0  0  0
    1.5035    1.2430    0.0000 C   0  0  0  0  0  0  0  0  0  0  0  0
    2.4026    0.0424    0.0000 C   0  0  0  0  0  0  0  0  0  0  0  0
    1.8124   -1.3366    0.0000 C   0  0  0  0  0  0  0  0  0  0  0  0
    0.3230   -1.5149    0.0000 C   0  0  0  0  0  0  0  0  0  0  0  0
    3.8920    0.2207    0.0000 C   0  0  0  0  0  0  0  0  0  0  0  0
    5.3813    0.3991    0.0000 F   0  0  0  0  0  0  0  0  0  0  0  0
    4.0703   -1.2686    0.0000 F   0  0  0  0  0  0  0  0  0  0  0  0
    3.7136    1.7101    0.0000 F   0  0  0  0  0  0  0  0  0  0  0  0
   -2.9646    0.7080    0.0000 C   0  0  0  0  0  0  0  0  0  0  0  0
   -4.4539    0.5297    0.0000 C   0  0  0  0  0  0  0  0  0  0  0  0
   -5.0442   -0.8493    0.0000 O   0  0  0  0  0  0  0  0  0  0  0  0
   -5.3531    1.7303    0.0000 O   0  0  0  0  0  0  0  0  0  0  0  0
  2  1  1  6
  2  3  1  0
  3  4  1  0
  4  5  2  0
  5  6  1  0
  6  7  2  0
  7  8  1  0
  6  9  1  0
  9 10  1  0
  9 11  1  0
  9 12  1  0
  2 13  1  0
 13 14  1  0
 14 15  2  0
 14 16  1  0
  8  3  2  0
M  END
>  <rName>  (4065) 
bAla_3RPh_4CF3

>  <PQ_SYMBOL>  (4065) 
bAla_3RPh_4CF3

>  <FULL_NAME>  (4065) 
(R)-3-amino-3-(4-(trifluoromethyl)phenyl)propanoic acid

>  <IUPAC_CONDENSED>  (4065) 
bAla(3R-Ph(4-CF3))

>  <IUPAC>  (4065) 
(3R)-3-amino-3-(4-(trifluoromethyl)phenyl)propanoic acid

>  <TYPE>  (4065) 
Backbone

>  <CLASS>  (4065) 
beta

>  <ANALOG>  (4065) 
X

>  <MOL_WT>  (4065) 
233.18899999999994

>  <LOGP>  (4065) 
2.1799

>  <TPSA>  (4065) 
63.32000000000001

>  <POPULARITY>  (4065) 
7.4

>  <PROTECTED>  (4065) 
TRUE

>  <SMILES>  (4065) 
N[C@@H](c1(ccc(cc1)C(F)(F)F))CC(=O)O

>  <INCHIKEY>  (4065) 
ABDRZHVLIRZFQO-MRVPVSSYSA-N

$$$$
bAla_3RPh_4CN
     RDKit          2D

 14 14  0  0  0  0  0  0  0  0999 V2000
   -2.0793   -1.8631    0.0000 N   0  0  0  0  0  0  0  0  0  0  0  0
   -1.5043   -0.4777    0.0000 C   0  0  0  0  0  0  0  0  0  0  0  0
   -0.0170   -0.2830    0.0000 C   0  0  0  0  0  0  0  0  0  0  0  0
    0.5581    1.1024    0.0000 C   0  0  0  0  0  0  0  0  0  0  0  0
    2.0454    1.2971    0.0000 C   0  0  0  0  0  0  0  0  0  0  0  0
    2.9576    0.1064    0.0000 C   0  0  0  0  0  0  0  0  0  0  0  0
    4.4449    0.3011    0.0000 C   0  0  0  0  0  0  0  0  0  0  0  0
    5.9323    0.4958    0.0000 N   0  0  0  0  0  0  0  0  0  0  0  0
    2.3826   -1.2790    0.0000 C   0  0  0  0  0  0  0  0  0  0  0  0
    0.8953   -1.4737    0.0000 C   0  0  0  0  0  0  0  0  0  0  0  0
   -2.4166    0.7130    0.0000 C   0  0  0  0  0  0  0  0  0  0  0  0
   -3.9039    0.5183    0.0000 C   0  0  0  0  0  0  0  0  0  0  0  0
   -4.4789   -0.8671    0.0000 O   0  0  0  0  0  0  0  0  0  0  0  0
   -4.8162    1.7090    0.0000 O   0  0  0  0  0  0  0  0  0  0  0  0
  2  1  1  6
  2  3  1  0
  3  4  1  0
  4  5  2  0
  5  6  1  0
  6  7  1  0
  7  8  3  0
  6  9  2  0
  9 10  1  0
  2 11  1  0
 11 12  1  0
 12 13  2  0
 12 14  1  0
 10  3  2  0
M  END
>  <rName>  (4066) 
bAla_3RPh_4CN

>  <PQ_SYMBOL>  (4066) 
bAla_3RPh_4CN

>  <FULL_NAME>  (4066) 
(R)-3-amino-3-(4-cyanophenyl)propanoic acid

>  <IUPAC_CONDENSED>  (4066) 
bAla(3R-Ph(4-CN))

>  <IUPAC>  (4066) 
(3R)-3-amino-3-(4-(nitrilomethyl)phenyl)propanoic acid

>  <TYPE>  (4066) 
Backbone

>  <CLASS>  (4066) 
beta

>  <ANALOG>  (4066) 
Lys

>  <MOL_WT>  (4066) 
190.20199999999997

>  <LOGP>  (4066) 
1.03278

>  <TPSA>  (4066) 
87.11

>  <POPULARITY>  (4066) 
8.3

>  <PROTECTED>  (4066) 
TRUE

>  <SMILES>  (4066) 
N[C@@H](c1(ccc(C#N)cc1))CC(=O)O

>  <INCHIKEY>  (4066) 
JFPLLJRLBHIJPS-SECBINFHSA-N

$$$$
bAla_3RPh_4Cl
     RDKit          2D

 13 13  0  0  0  0  0  0  0  0999 V2000
   -1.5598   -1.8792    0.0000 N   0  0  0  0  0  0  0  0  0  0  0  0
   -1.0324   -0.4750    0.0000 C   0  0  0  0  0  0  0  0  0  0  0  0
    0.4474   -0.2297    0.0000 C   0  0  0  0  0  0  0  0  0  0  0  0
    0.9749    1.1745    0.0000 C   0  0  0  0  0  0  0  0  0  0  0  0
    2.4547    1.4199    0.0000 C   0  0  0  0  0  0  0  0  0  0  0  0
    3.4070    0.2610    0.0000 C   0  0  0  0  0  0  0  0  0  0  0  0
    4.8868    0.5063    0.0000 Cl  0  0  0  0  0  0  0  0  0  0  0  0
    2.8796   -1.1432    0.0000 C   0  0  0  0  0  0  0  0  0  0  0  0
    1.3998   -1.3886    0.0000 C   0  0  0  0  0  0  0  0  0  0  0  0
   -1.9847    0.6838    0.0000 C   0  0  0  0  0  0  0  0  0  0  0  0
   -3.4645    0.4385    0.0000 C   0  0  0  0  0  0  0  0  0  0  0  0
   -3.9920   -0.9657    0.0000 O   0  0  0  0  0  0  0  0  0  0  0  0
   -4.4169    1.5974    0.0000 O   0  0  0  0  0  0  0  0  0  0  0  0
  2  1  1  6
  2  3  1  0
  3  4  1  0
  4  5  2  0
  5  6  1  0
  6  7  1  0
  6  8  2  0
  8  9  1  0
  2 10  1  0
 10 11  1  0
 11 12  2  0
 11 13  1  0
  9  3  2  0
M  END
>  <rName>  (4067) 
bAla_3RPh_4Cl

>  <PQ_SYMBOL>  (4067) 
bAla_3RPh_4Cl

>  <FULL_NAME>  (4067) 
(R)-3-amino-3-(4-chlorophenyl)propanoic acid

>  <IUPAC_CONDENSED>  (4067) 
bAla(3R-Ph(4-Cl))

>  <IUPAC>  (4067) 
(3R)-3-amino-3-(4-chlorophenyl)propanoic acid

>  <TYPE>  (4067) 
Backbone

>  <CLASS>  (4067) 
beta

>  <ANALOG>  (4067) 
X

>  <MOL_WT>  (4067) 
199.63699999999997

>  <LOGP>  (4067) 
1.8145000000000002

>  <TPSA>  (4067) 
63.32000000000001

>  <POPULARITY>  (4067) 
10.3

>  <PROTECTED>  (4067) 
TRUE

>  <SMILES>  (4067) 
N[C@@H](c1(ccc(Cl)cc1))CC(=O)O

>  <INCHIKEY>  (4067) 
BXGDBHAMTMMNTO-MRVPVSSYSA-N

$$$$
bAla_3RPh_4F
     RDKit          2D

 13 13  0  0  0  0  0  0  0  0999 V2000
   -1.5598   -1.8792    0.0000 N   0  0  0  0  0  0  0  0  0  0  0  0
   -1.0324   -0.4750    0.0000 C   0  0  0  0  0  0  0  0  0  0  0  0
    0.4474   -0.2297    0.0000 C   0  0  0  0  0  0  0  0  0  0  0  0
    0.9749    1.1745    0.0000 C   0  0  0  0  0  0  0  0  0  0  0  0
    2.4547    1.4199    0.0000 C   0  0  0  0  0  0  0  0  0  0  0  0
    3.4070    0.2610    0.0000 C   0  0  0  0  0  0  0  0  0  0  0  0
    4.8868    0.5063    0.0000 F   0  0  0  0  0  0  0  0  0  0  0  0
    2.8796   -1.1432    0.0000 C   0  0  0  0  0  0  0  0  0  0  0  0
    1.3998   -1.3886    0.0000 C   0  0  0  0  0  0  0  0  0  0  0  0
   -1.9847    0.6838    0.0000 C   0  0  0  0  0  0  0  0  0  0  0  0
   -3.4645    0.4385    0.0000 C   0  0  0  0  0  0  0  0  0  0  0  0
   -3.9920   -0.9657    0.0000 O   0  0  0  0  0  0  0  0  0  0  0  0
   -4.4169    1.5974    0.0000 O   0  0  0  0  0  0  0  0  0  0  0  0
  2  1  1  6
  2  3  1  0
  3  4  1  0
  4  5  2  0
  5  6  1  0
  6  7  1  0
  6  8  2  0
  8  9  1  0
  2 10  1  0
 10 11  1  0
 11 12  2  0
 11 13  1  0
  9  3  2  0
M  END
>  <rName>  (4068) 
bAla_3RPh_4F

>  <PQ_SYMBOL>  (4068) 
bAla_3RPh_4F

>  <FULL_NAME>  (4068) 
(R)-3-amino-3-(4-fluorophenyl)propanoic acid

>  <IUPAC_CONDENSED>  (4068) 
bAla(3R-Ph(4-F))

>  <IUPAC>  (4068) 
(3R)-3-amino-3-(4-fluorophenyl)propanoic acid

>  <TYPE>  (4068) 
Backbone

>  <CLASS>  (4068) 
beta

>  <ANALOG>  (4068) 
X

>  <MOL_WT>  (4068) 
183.18199999999996

>  <LOGP>  (4068) 
1.3002000000000002

>  <TPSA>  (4068) 
63.32000000000001

>  <POPULARITY>  (4068) 
9.8

>  <PROTECTED>  (4068) 
TRUE

>  <SMILES>  (4068) 
N[C@@H](c1(ccc(F)cc1))CC(=O)O

>  <INCHIKEY>  (4068) 
CPGFMWPQXUXQRX-MRVPVSSYSA-N

$$$$
bAla_3RPh_4Me
     RDKit          2D

 13 13  0  0  0  0  0  0  0  0999 V2000
   -1.5598   -1.8792    0.0000 N   0  0  0  0  0  0  0  0  0  0  0  0
   -1.0324   -0.4750    0.0000 C   0  0  0  0  0  0  0  0  0  0  0  0
    0.4474   -0.2297    0.0000 C   0  0  0  0  0  0  0  0  0  0  0  0
    0.9749    1.1745    0.0000 C   0  0  0  0  0  0  0  0  0  0  0  0
    2.4547    1.4199    0.0000 C   0  0  0  0  0  0  0  0  0  0  0  0
    3.4070    0.2610    0.0000 C   0  0  0  0  0  0  0  0  0  0  0  0
    4.8868    0.5063    0.0000 C   0  0  0  0  0  0  0  0  0  0  0  0
    2.8796   -1.1432    0.0000 C   0  0  0  0  0  0  0  0  0  0  0  0
    1.3998   -1.3886    0.0000 C   0  0  0  0  0  0  0  0  0  0  0  0
   -1.9847    0.6838    0.0000 C   0  0  0  0  0  0  0  0  0  0  0  0
   -3.4645    0.4385    0.0000 C   0  0  0  0  0  0  0  0  0  0  0  0
   -3.9920   -0.9657    0.0000 O   0  0  0  0  0  0  0  0  0  0  0  0
   -4.4169    1.5974    0.0000 O   0  0  0  0  0  0  0  0  0  0  0  0
  2  1  1  6
  2  3  1  0
  3  4  1  0
  4  5  2  0
  5  6  1  0
  6  7  1  0
  6  8  2  0
  8  9  1  0
  2 10  1  0
 10 11  1  0
 11 12  2  0
 11 13  1  0
  9  3  2  0
M  END
>  <rName>  (4069) 
bAla_3RPh_4Me

>  <PQ_SYMBOL>  (4069) 
bAla_3RPh_4Me

>  <FULL_NAME>  (4069) 
(R)-3-amino-3-(p-tolyl)propanoic acid

>  <IUPAC_CONDENSED>  (4069) 
bAla(3R-Ph(4-Me))

>  <IUPAC>  (4069) 
(3R)-3-amino-3-(4-methylphenyl)propanoic acid

>  <TYPE>  (4069) 
Backbone

>  <CLASS>  (4069) 
beta

>  <ANALOG>  (4069) 
X

>  <MOL_WT>  (4069) 
179.21899999999997

>  <LOGP>  (4069) 
1.4695200000000002

>  <TPSA>  (4069) 
63.32000000000001

>  <POPULARITY>  (4069) 
9.8

>  <PROTECTED>  (4069) 
TRUE

>  <SMILES>  (4069) 
N[C@@H](c1(ccc(C)cc1))CC(=O)O

>  <INCHIKEY>  (4069) 
XPDAKEOBPKFUAH-SECBINFHSA-N

$$$$
bAla_3RPh_4NO2
     RDKit          2D

 15 15  0  0  0  0  0  0  0  0999 V2000
   -2.3844   -1.8721    0.0000 N   0  0  0  0  0  0  0  0  0  0  0  0
   -1.8029   -0.4894    0.0000 C   0  0  0  0  0  0  0  0  0  0  0  0
   -0.3147   -0.3016    0.0000 C   0  0  0  0  0  0  0  0  0  0  0  0
    0.2667    1.0811    0.0000 C   0  0  0  0  0  0  0  0  0  0  0  0
    1.7549    1.2689    0.0000 C   0  0  0  0  0  0  0  0  0  0  0  0
    2.6617    0.0740    0.0000 C   0  0  0  0  0  0  0  0  0  0  0  0
    2.0802   -1.3087    0.0000 C   0  0  0  0  0  0  0  0  0  0  0  0
    0.5920   -1.4965    0.0000 C   0  0  0  0  0  0  0  0  0  0  0  0
    4.1499    0.2618    0.0000 N   0  0  0  0  0  0  0  0  0  0  0  0
    4.7313    1.6445    0.0000 O   0  0  0  0  0  0  0  0  0  0  0  0
    5.0566   -0.9331    0.0000 O   0  0  0  0  0  0  0  0  0  0  0  0
   -2.7097    0.7055    0.0000 C   0  0  0  0  0  0  0  0  0  0  0  0
   -4.1978    0.5177    0.0000 C   0  0  0  0  0  0  0  0  0  0  0  0
   -4.7793   -0.8650    0.0000 O   0  0  0  0  0  0  0  0  0  0  0  0
   -5.1046    1.7127    0.0000 O   0  0  0  0  0  0  0  0  0  0  0  0
  2  1  1  6
  2  3  1  0
  3  4  1  0
  4  5  2  0
  5  6  1  0
  6  7  2  0
  7  8  1  0
  6  9  1  0
  9 10  2  0
  9 11  1  0
  2 12  1  0
 12 13  1  0
 13 14  2  0
 13 15  1  0
  8  3  2  0
M  CHG  2   9   1  11  -1
M  END
>  <rName>  (4070) 
bAla_3RPh_4NO2

>  <PQ_SYMBOL>  (4070) 
bAla_3RPh_4NO2

>  <FULL_NAME>  (4070) 
(R)-3-amino-3-(4-nitrophenyl)propanoic acid

>  <IUPAC_CONDENSED>  (4070) 
bAla(3R-Ph(4-NO2))

>  <IUPAC>  (4070) 
(3R)-3-amino-3-(4-nitrophenyl)propanoic acid

>  <TYPE>  (4070) 
Backbone

>  <CLASS>  (4070) 
beta

>  <ANALOG>  (4070) 
Lys

>  <MOL_WT>  (4070) 
210.18899999999996

>  <LOGP>  (4070) 
1.0693

>  <TPSA>  (4070) 
106.46

>  <POPULARITY>  (4070) 
7.9

>  <PROTECTED>  (4070) 
TRUE

>  <SMILES>  (4070) 
N[C@@H](c1(ccc(cc1)[N+](=O)[O-]))CC(=O)O

>  <INCHIKEY>  (4070) 
JVQPVKJZKRICRR-MRVPVSSYSA-N

$$$$
bAla_3RPh_4OMe
     RDKit          2D

 14 14  0  0  0  0  0  0  0  0999 V2000
   -1.9239   -1.8882    0.0000 N   0  0  0  0  0  0  0  0  0  0  0  0
   -1.4367   -0.4695    0.0000 C   0  0  0  0  0  0  0  0  0  0  0  0
    0.0356   -0.1821    0.0000 C   0  0  0  0  0  0  0  0  0  0  0  0
    0.5228    1.2365    0.0000 C   0  0  0  0  0  0  0  0  0  0  0  0
    1.9950    1.5239    0.0000 C   0  0  0  0  0  0  0  0  0  0  0  0
    2.9800    0.3926    0.0000 C   0  0  0  0  0  0  0  0  0  0  0  0
    4.4522    0.6799    0.0000 O   0  0  0  0  0  0  0  0  0  0  0  0
    5.4372   -0.4514    0.0000 C   0  0  0  0  0  0  0  0  0  0  0  0
    2.4927   -1.0261    0.0000 C   0  0  0  0  0  0  0  0  0  0  0  0
    1.0205   -1.3134    0.0000 C   0  0  0  0  0  0  0  0  0  0  0  0
   -2.4216    0.6618    0.0000 C   0  0  0  0  0  0  0  0  0  0  0  0
   -3.8939    0.3744    0.0000 C   0  0  0  0  0  0  0  0  0  0  0  0
   -4.3811   -1.0442    0.0000 O   0  0  0  0  0  0  0  0  0  0  0  0
   -4.8788    1.5057    0.0000 O   0  0  0  0  0  0  0  0  0  0  0  0
  2  1  1  6
  2  3  1  0
  3  4  1  0
  4  5  2  0
  5  6  1  0
  6  7  1  0
  7  8  1  0
  6  9  2  0
  9 10  1  0
  2 11  1  0
 11 12  1  0
 12 13  2  0
 12 14  1  0
 10  3  2  0
M  END
>  <rName>  (4071) 
bAla_3RPh_4OMe

>  <PQ_SYMBOL>  (4071) 
bAla_3RPh_4OMe

>  <FULL_NAME>  (4071) 
(R)-3-amino-3-(4-methoxyphenyl)propanoic acid

>  <IUPAC_CONDENSED>  (4071) 
bAla(3R-Ph(4-OMe))

>  <IUPAC>  (4071) 
(3R)-3-amino-3-(4-methoxyphenyl)propanoic acid

>  <TYPE>  (4071) 
Backbone

>  <CLASS>  (4071) 
beta

>  <ANALOG>  (4071) 
X

>  <MOL_WT>  (4071) 
195.21799999999996

>  <LOGP>  (4071) 
1.1697

>  <TPSA>  (4071) 
72.55

>  <POPULARITY>  (4071) 
11.4

>  <PROTECTED>  (4071) 
TRUE

>  <SMILES>  (4071) 
N[C@@H](c1(ccc(OC)cc1))CC(=O)O

>  <INCHIKEY>  (4071) 
NYTANCDDCQVQHG-SECBINFHSA-N

$$$$
bAla_3RPr
     RDKit          2D

  9  8  0  0  0  0  0  0  0  0999 V2000
   -0.1633    1.5188    0.0000 N   0  0  0  0  0  0  0  0  0  0  0  0
   -0.2877    0.0239    0.0000 C   0  0  0  0  0  0  0  0  0  0  0  0
   -1.6444   -0.6157    0.0000 C   0  0  0  0  0  0  0  0  0  0  0  0
   -2.8768    0.2394    0.0000 C   0  0  0  0  0  0  0  0  0  0  0  0
   -4.2336   -0.4002    0.0000 C   0  0  0  0  0  0  0  0  0  0  0  0
    0.9447   -0.8312    0.0000 C   0  0  0  0  0  0  0  0  0  0  0  0
    2.3014   -0.1915    0.0000 C   0  0  0  0  0  0  0  0  0  0  0  0
    2.4259    1.3033    0.0000 O   0  0  0  0  0  0  0  0  0  0  0  0
    3.5338   -1.0467    0.0000 O   0  0  0  0  0  0  0  0  0  0  0  0
  2  1  1  1
  2  3  1  0
  3  4  1  0
  4  5  1  0
  2  6  1  0
  6  7  1  0
  7  8  2  0
  7  9  1  0
M  END
>  <rName>  (4072) 
bAla_3RPr

>  <PQ_SYMBOL>  (4072) 
bAla_3RPr

>  <FULL_NAME>  (4072) 
(3R)-3-Aminohexanoic acid

>  <IUPAC_CONDENSED>  (4072) 
bAla(3R-Pr)

>  <IUPAC>  (4072) 
(3R)-3-aminohexanoic acid

>  <TYPE>  (4072) 
Backbone

>  <CLASS>  (4072) 
beta

>  <ANALOG>  (4072) 
Val

>  <MOL_WT>  (4072) 
131.175

>  <LOGP>  (4072) 
0.5884999999999998

>  <TPSA>  (4072) 
63.32000000000001

>  <POPULARITY>  (4072) 
14.9

>  <PROTECTED>  (4072) 
TRUE

>  <SMILES>  (4072) 
N[C@H](CCC)CC(=O)O

>  <INCHIKEY>  (4072) 
YIJFIIXHVSHQEN-RXMQYKEDSA-N

$$$$
bAla_3Rallyl
     RDKit          2D

  9  8  0  0  0  0  0  0  0  0999 V2000
   -0.1633    1.5188    0.0000 N   0  0  0  0  0  0  0  0  0  0  0  0
   -0.2877    0.0239    0.0000 C   0  0  0  0  0  0  0  0  0  0  0  0
   -1.6444   -0.6157    0.0000 C   0  0  0  0  0  0  0  0  0  0  0  0
   -2.8768    0.2394    0.0000 C   0  0  0  0  0  0  0  0  0  0  0  0
   -4.2336   -0.4002    0.0000 C   0  0  0  0  0  0  0  0  0  0  0  0
    0.9447   -0.8312    0.0000 C   0  0  0  0  0  0  0  0  0  0  0  0
    2.3014   -0.1915    0.0000 C   0  0  0  0  0  0  0  0  0  0  0  0
    2.4259    1.3033    0.0000 O   0  0  0  0  0  0  0  0  0  0  0  0
    3.5338   -1.0467    0.0000 O   0  0  0  0  0  0  0  0  0  0  0  0
  2  1  1  1
  2  3  1  0
  3  4  1  0
  4  5  2  0
  2  6  1  0
  6  7  1  0
  7  8  2  0
  7  9  1  0
M  END
>  <rName>  (4073) 
bAla_3Rallyl

>  <PQ_SYMBOL>  (4073) 
bAla_3Rallyl

>  <FULL_NAME>  (4073) 
(R)-3-aminohex-5-enoic acid

>  <IUPAC_CONDENSED>  (4073) 
bAla(3R-allyl)

>  <IUPAC>  (4073) 
(3R)-3-aminohex-5-enoic acid

>  <TYPE>  (4073) 
Backbone

>  <CLASS>  (4073) 
beta

>  <ANALOG>  (4073) 
Val

>  <MOL_WT>  (4073) 
129.15900000000002

>  <LOGP>  (4073) 
0.3645

>  <TPSA>  (4073) 
63.32000000000001

>  <POPULARITY>  (4073) 
14.5

>  <PROTECTED>  (4073) 
TRUE

>  <SMILES>  (4073) 
N[C@H](CC=C)CC(=O)O

>  <INCHIKEY>  (4073) 
UEMNCMYSSFWTCS-RXMQYKEDSA-N

$$$$
bAla_3Rbenzhydryl
     RDKit          2D

 19 20  0  0  0  0  0  0  0  0999 V2000
   -0.5750   -2.6112    0.0000 N   0  0  0  0  0  0  0  0  0  0  0  0
   -0.9213   -1.1517    0.0000 C   0  0  0  0  0  0  0  0  0  0  0  0
    0.1695   -0.1221    0.0000 C   0  0  0  0  0  0  0  0  0  0  0  0
    1.6066   -0.5519    0.0000 C   0  0  0  0  0  0  0  0  0  0  0  0
    1.9529   -2.0114    0.0000 C   0  0  0  0  0  0  0  0  0  0  0  0
    3.3900   -2.4412    0.0000 C   0  0  0  0  0  0  0  0  0  0  0  0
    4.4808   -1.4116    0.0000 C   0  0  0  0  0  0  0  0  0  0  0  0
    4.1345    0.0479    0.0000 C   0  0  0  0  0  0  0  0  0  0  0  0
    2.6974    0.4777    0.0000 C   0  0  0  0  0  0  0  0  0  0  0  0
   -0.1768    1.3374    0.0000 C   0  0  0  0  0  0  0  0  0  0  0  0
    0.9140    2.3671    0.0000 C   0  0  0  0  0  0  0  0  0  0  0  0
    0.5677    3.8265    0.0000 C   0  0  0  0  0  0  0  0  0  0  0  0
   -0.8694    4.2564    0.0000 C   0  0  0  0  0  0  0  0  0  0  0  0
   -1.9602    3.2267    0.0000 C   0  0  0  0  0  0  0  0  0  0  0  0
   -1.6139    1.7673    0.0000 C   0  0  0  0  0  0  0  0  0  0  0  0
   -2.3584   -0.7219    0.0000 C   0  0  0  0  0  0  0  0  0  0  0  0
   -3.4492   -1.7515    0.0000 C   0  0  0  0  0  0  0  0  0  0  0  0
   -3.1029   -3.2110    0.0000 O   0  0  0  0  0  0  0  0  0  0  0  0
   -4.8863   -1.3217    0.0000 O   0  0  0  0  0  0  0  0  0  0  0  0
  2  1  1  6
  2  3  1  0
  3  4  1  0
  4  5  2  0
  5  6  1  0
  6  7  2  0
  7  8  1  0
  8  9  2  0
  3 10  1  0
 10 11  2  0
 11 12  1  0
 12 13  2  0
 13 14  1  0
 14 15  2  0
  2 16  1  0
 16 17  1  0
 17 18  2  0
 17 19  1  0
  9  4  1  0
 15 10  1  0
M  END
>  <rName>  (4074) 
bAla_3Rbenzhydryl

>  <PQ_SYMBOL>  (4074) 
bAla_3Rbenzhydryl

>  <FULL_NAME>  (4074) 
(R)-3-amino-4,4-diphenylbutanoic acid

>  <IUPAC_CONDENSED>  (4074) 
bAla(3R-benzhydryl)

>  <IUPAC>  (4074) 
(3R)-3-amino-4,4-diphenylbutanoic acid

>  <TYPE>  (4074) 
Backbone

>  <CLASS>  (4074) 
beta

>  <ANALOG>  (4074) 
Phe

>  <MOL_WT>  (4074) 
255.31699999999998

>  <LOGP>  (4074) 
2.6205000000000007

>  <TPSA>  (4074) 
63.32000000000001

>  <POPULARITY>  (4074) 
4.9

>  <PROTECTED>  (4074) 
TRUE

>  <SMILES>  (4074) 
N[C@@H](C(c1(ccccc1))c2(ccccc2))CC(=O)O

>  <INCHIKEY>  (4074) 
BMWWMUHNEWGJJH-CQSZACIVSA-N

$$$$
bAla_3Rbenzothiophen3yl
     RDKit          2D

 16 17  0  0  0  0  0  0  0  0999 V2000
   -2.2204   -1.3731    0.0000 N   0  0  0  0  0  0  0  0  0  0  0  0
   -2.0671    0.1190    0.0000 C   0  0  0  0  0  0  0  0  0  0  0  0
   -0.6982    0.7323    0.0000 C   0  0  0  0  0  0  0  0  0  0  0  0
    0.5173   -0.1465    0.0000 C   0  0  0  0  0  0  0  0  0  0  0  0
    0.5208   -1.6465    0.0000 C   0  0  0  0  0  0  0  0  0  0  0  0
    1.9485   -2.1067    0.0000 S   0  0  0  0  0  0  0  0  0  0  0  0
    2.8273   -0.8912    0.0000 C   0  0  0  0  0  0  0  0  0  0  0  0
    4.3188   -0.7309    0.0000 C   0  0  0  0  0  0  0  0  0  0  0  0
    4.9257    0.6408    0.0000 C   0  0  0  0  0  0  0  0  0  0  0  0
    4.0412    1.8523    0.0000 C   0  0  0  0  0  0  0  0  0  0  0  0
    2.5498    1.6920    0.0000 C   0  0  0  0  0  0  0  0  0  0  0  0
    1.9428    0.3203    0.0000 C   0  0  0  0  0  0  0  0  0  0  0  0
   -3.2827    0.9979    0.0000 C   0  0  0  0  0  0  0  0  0  0  0  0
   -4.6516    0.3846    0.0000 C   0  0  0  0  0  0  0  0  0  0  0  0
   -4.8049   -1.1076    0.0000 O   0  0  0  0  0  0  0  0  0  0  0  0
   -5.8672    1.2634    0.0000 O   0  0  0  0  0  0  0  0  0  0  0  0
  2  1  1  1
  2  3  1  0
  3  4  1  0
  4  5  2  0
  5  6  1  0
  6  7  1  0
  7  8  2  0
  8  9  1  0
  9 10  2  0
 10 11  1  0
 11 12  2  0
  2 13  1  0
 13 14  1  0
 14 15  2  0
 14 16  1  0
 12  4  1  0
 12  7  1  0
M  END
>  <rName>  (4075) 
bAla_3Rbenzothiophen3yl

>  <PQ_SYMBOL>  (4075) 
bAla_3Rbenzothiophen3yl

>  <FULL_NAME>  (4075) 
(R)-3-amino-4-(benzo[b]thiophen-3-yl)butanoic acid

>  <IUPAC_CONDENSED>  (4075) 
bAla(3R-benzothiophen-3-yl)

>  <IUPAC>  (4075) 
(3R)-3-amino-4-(1-benzothiophen-3-yl)butanoic acid

>  <TYPE>  (4075) 
Backbone

>  <CLASS>  (4075) 
beta

>  <ANALOG>  (4075) 
Phe

>  <MOL_WT>  (4075) 
235.308

>  <LOGP>  (4075) 
2.2458

>  <TPSA>  (4075) 
63.32000000000001

>  <POPULARITY>  (4075) 
2.2

>  <PROTECTED>  (4075) 
TRUE

>  <SMILES>  (4075) 
N[C@H](Cc1(csc2(ccccc12)))CC(=O)O

>  <INCHIKEY>  (4075) 
FGCYUNZSPGBIGH-SECBINFHSA-N

$$$$
bAla_3Rbut3enyl
     RDKit          2D

 10  9  0  0  0  0  0  0  0  0999 V2000
   -0.3386    1.4842    0.0000 N   0  0  0  0  0  0  0  0  0  0  0  0
   -0.2594   -0.0137    0.0000 C   0  0  0  0  0  0  0  0  0  0  0  0
    1.0773   -0.6941    0.0000 C   0  0  0  0  0  0  0  0  0  0  0  0
    2.3350    0.1233    0.0000 C   0  0  0  0  0  0  0  0  0  0  0  0
    3.6718   -0.5571    0.0000 C   0  0  0  0  0  0  0  0  0  0  0  0
    4.9295    0.2604    0.0000 C   0  0  0  0  0  0  0  0  0  0  0  0
   -1.5171   -0.8312    0.0000 C   0  0  0  0  0  0  0  0  0  0  0  0
   -2.8539   -0.1507    0.0000 C   0  0  0  0  0  0  0  0  0  0  0  0
   -2.9330    1.3472    0.0000 O   0  0  0  0  0  0  0  0  0  0  0  0
   -4.1116   -0.9682    0.0000 O   0  0  0  0  0  0  0  0  0  0  0  0
  2  1  1  6
  2  3  1  0
  3  4  1  0
  4  5  1  0
  5  6  2  0
  2  7  1  0
  7  8  1  0
  8  9  2  0
  8 10  1  0
M  END
>  <rName>  (4076) 
bAla_3Rbut3enyl

>  <PQ_SYMBOL>  (4076) 
bAla_3Rbut3enyl

>  <FULL_NAME>  (4076) 
(R)-3-Amino-hept-6-enoic acid

>  <IUPAC_CONDENSED>  (4076) 
bAla(3R-but-3-enyl)

>  <IUPAC>  (4076) 
(3R)-3-aminohept-6-enoic acid

>  <TYPE>  (4076) 
Backbone

>  <CLASS>  (4076) 
beta

>  <ANALOG>  (4076) 
Leu

>  <MOL_WT>  (4076) 
143.186

>  <LOGP>  (4076) 
0.7545999999999999

>  <TPSA>  (4076) 
63.32000000000001

>  <POPULARITY>  (4076) 
8.9

>  <PROTECTED>  (4076) 
TRUE

>  <SMILES>  (4076) 
N[C@H](CCC=C)CC(=O)O

>  <INCHIKEY>  (4076) 
IAWLQRWQXWXELQ-ZCFIWIBFSA-N

$$$$
bAla_3RcHex
     RDKit          2D

 12 12  0  0  0  0  0  0  0  0999 V2000
   -1.0786   -1.8814    0.0000 N   0  0  0  0  0  0  0  0  0  0  0  0
   -0.6074   -0.4573    0.0000 C   0  0  0  0  0  0  0  0  0  0  0  0
    0.8615   -0.1534    0.0000 C   0  0  0  0  0  0  0  0  0  0  0  0
    1.3327    1.2707    0.0000 C   0  0  0  0  0  0  0  0  0  0  0  0
    2.8016    1.5746    0.0000 C   0  0  0  0  0  0  0  0  0  0  0  0
    3.7992    0.4545    0.0000 C   0  0  0  0  0  0  0  0  0  0  0  0
    3.3280   -0.9696    0.0000 C   0  0  0  0  0  0  0  0  0  0  0  0
    1.8591   -1.2735    0.0000 C   0  0  0  0  0  0  0  0  0  0  0  0
   -1.6051    0.6628    0.0000 C   0  0  0  0  0  0  0  0  0  0  0  0
   -3.0740    0.3588    0.0000 C   0  0  0  0  0  0  0  0  0  0  0  0
   -3.5452   -1.0652    0.0000 O   0  0  0  0  0  0  0  0  0  0  0  0
   -4.0716    1.4790    0.0000 O   0  0  0  0  0  0  0  0  0  0  0  0
  2  1  1  6
  2  3  1  0
  3  4  1  0
  4  5  1  0
  5  6  1  0
  6  7  1  0
  7  8  1  0
  2  9  1  0
  9 10  1  0
 10 11  2  0
 10 12  1  0
  8  3  1  0
M  END
>  <rName>  (4077) 
bAla_3RcHex

>  <PQ_SYMBOL>  (4077) 
bAla_3RcHex

>  <FULL_NAME>  (4077) 
(R)-3-Amino-3-cyclohexyl-propionic acid

>  <IUPAC_CONDENSED>  (4077) 
bAla(3R-cHex)

>  <IUPAC>  (4077) 
(3R)-3-amino-3-cyclohexylpropanoic acid

>  <TYPE>  (4077) 
Backbone

>  <CLASS>  (4077) 
beta

>  <ANALOG>  (4077) 
X

>  <MOL_WT>  (4077) 
171.24

>  <LOGP>  (4077) 
1.3687

>  <TPSA>  (4077) 
63.32000000000001

>  <POPULARITY>  (4077) 
9.8

>  <PROTECTED>  (4077) 
TRUE

>  <SMILES>  (4077) 
N[C@@H](C1(CCCCC1))CC(=O)O

>  <INCHIKEY>  (4077) 
XGRSAFKZAGGXJV-MRVPVSSYSA-N

$$$$
bAla_3RcHexEt
     RDKit          2D

 14 14  0  0  0  0  0  0  0  0999 V2000
   -2.1732   -1.6585    0.0000 N   0  0  0  0  0  0  0  0  0  0  0  0
   -1.8487   -0.1940    0.0000 C   0  0  0  0  0  0  0  0  0  0  0  0
   -0.4182    0.2573    0.0000 C   0  0  0  0  0  0  0  0  0  0  0  0
    0.6879   -0.7560    0.0000 C   0  0  0  0  0  0  0  0  0  0  0  0
    2.1184   -0.3047    0.0000 C   0  0  0  0  0  0  0  0  0  0  0  0
    2.4428    1.1598    0.0000 C   0  0  0  0  0  0  0  0  0  0  0  0
    3.8734    1.6110    0.0000 C   0  0  0  0  0  0  0  0  0  0  0  0
    4.9794    0.5978    0.0000 C   0  0  0  0  0  0  0  0  0  0  0  0
    4.6549   -0.8667    0.0000 C   0  0  0  0  0  0  0  0  0  0  0  0
    3.2244   -1.3180    0.0000 C   0  0  0  0  0  0  0  0  0  0  0  0
   -2.9548    0.8193    0.0000 C   0  0  0  0  0  0  0  0  0  0  0  0
   -4.3853    0.3680    0.0000 C   0  0  0  0  0  0  0  0  0  0  0  0
   -4.7097   -1.0965    0.0000 O   0  0  0  0  0  0  0  0  0  0  0  0
   -5.4913    1.3812    0.0000 O   0  0  0  0  0  0  0  0  0  0  0  0
  2  1  1  1
  2  3  1  0
  3  4  1  0
  4  5  1  0
  5  6  1  0
  6  7  1  0
  7  8  1  0
  8  9  1  0
  9 10  1  0
  2 11  1  0
 11 12  1  0
 12 13  2  0
 12 14  1  0
 10  5  1  0
M  END
>  <rName>  (4078) 
bAla_3RcHexEt

>  <PQ_SYMBOL>  (4078) 
bAla_3RcHexEt

>  <FULL_NAME>  (4078) 
bAla(3R-cHexEt)

>  <IUPAC_CONDENSED>  (4078) 
bAla(3R-cHexEt)

>  <IUPAC>  (4078) 
(3R)-3-amino-5-cyclohexylpentanoic acid

>  <TYPE>  (4078) 
Backbone

>  <CLASS>  (4078) 
beta

>  <ANALOG>  (4078) 
Ala

>  <MOL_WT>  (4078) 
199.29399999999998

>  <LOGP>  (4078) 
2.1489

>  <TPSA>  (4078) 
63.32000000000001

>  <POPULARITY>  (4078) 
2.2

>  <PROTECTED>  (4078) 
TRUE

>  <SMILES>  (4078) 
N[C@H](CCC1(CCCCC1))CC(=O)O

>  <INCHIKEY>  (4078) 
ANWIUBCLJDRQEF-SNVBAGLBSA-N

$$$$
bAla_3RcPent
     RDKit          2D

 11 11  0  0  0  0  0  0  0  0999 V2000
   -0.7304   -1.8619    0.0000 N   0  0  0  0  0  0  0  0  0  0  0  0
   -0.2874   -0.4288    0.0000 C   0  0  0  0  0  0  0  0  0  0  0  0
    1.1751   -0.0958    0.0000 C   0  0  0  0  0  0  0  0  0  0  0  0
    2.3042   -1.0834    0.0000 C   0  0  0  0  0  0  0  0  0  0  0  0
    3.5923   -0.3148    0.0000 C   0  0  0  0  0  0  0  0  0  0  0  0
    3.2594    1.1478    0.0000 C   0  0  0  0  0  0  0  0  0  0  0  0
    1.7655    1.2831    0.0000 C   0  0  0  0  0  0  0  0  0  0  0  0
   -1.3071    0.6714    0.0000 C   0  0  0  0  0  0  0  0  0  0  0  0
   -2.7697    0.3385    0.0000 C   0  0  0  0  0  0  0  0  0  0  0  0
   -3.2126   -1.0946    0.0000 O   0  0  0  0  0  0  0  0  0  0  0  0
   -3.7893    1.4386    0.0000 O   0  0  0  0  0  0  0  0  0  0  0  0
  2  1  1  6
  2  3  1  0
  3  4  1  0
  4  5  1  0
  5  6  1  0
  6  7  1  0
  2  8  1  0
  8  9  1  0
  9 10  2  0
  9 11  1  0
  7  3  1  0
M  END
>  <rName>  (4079) 
bAla_3RcPent

>  <PQ_SYMBOL>  (4079) 
bAla_3RcPent

>  <FULL_NAME>  (4079) 
(3R)-3-Amino-3-cyclopentylpropanoic acid

>  <IUPAC_CONDENSED>  (4079) 
bAla(3R-cPent)

>  <IUPAC>  (4079) 
(3R)-3-amino-3-cyclopentylpropanoic acid

>  <TYPE>  (4079) 
Backbone

>  <CLASS>  (4079) 
beta

>  <ANALOG>  (4079) 
X

>  <MOL_WT>  (4079) 
157.21300000000002

>  <LOGP>  (4079) 
0.9785999999999997

>  <TPSA>  (4079) 
63.32000000000001

>  <POPULARITY>  (4079) 
2.2

>  <PROTECTED>  (4079) 
TRUE

>  <SMILES>  (4079) 
N[C@@H](C1(CCCC1))CC(=O)O

>  <INCHIKEY>  (4079) 
SPOIBOUMGDWHCR-SSDOTTSWSA-N

$$$$
bAla_3RcPr
     RDKit          2D

  9  9  0  0  0  0  0  0  0  0999 V2000
    0.0470   -1.7903    0.0000 N   0  0  0  0  0  0  0  0  0  0  0  0
    0.4040   -0.3334    0.0000 C   0  0  0  0  0  0  0  0  0  0  0  0
    1.8442    0.0860    0.0000 C   0  0  0  0  0  0  0  0  0  0  0  0
    3.3011   -0.2709    0.0000 C   0  0  0  0  0  0  0  0  0  0  0  0
    2.8817    1.1693    0.0000 C   0  0  0  0  0  0  0  0  0  0  0  0
   -0.6793    0.7042    0.0000 C   0  0  0  0  0  0  0  0  0  0  0  0
   -2.1195    0.2848    0.0000 C   0  0  0  0  0  0  0  0  0  0  0  0
   -2.4764   -1.1721    0.0000 O   0  0  0  0  0  0  0  0  0  0  0  0
   -3.2028    1.3224    0.0000 O   0  0  0  0  0  0  0  0  0  0  0  0
  2  1  1  6
  2  3  1  0
  3  4  1  0
  4  5  1  0
  2  6  1  0
  6  7  1  0
  7  8  2  0
  7  9  1  0
  5  3  1  0
M  END
>  <rName>  (4080) 
bAla_3RcPr

>  <PQ_SYMBOL>  (4080) 
bAla_3RcPr

>  <FULL_NAME>  (4080) 
(R)-3-amino-3-cyclopropylpropanoic acid

>  <IUPAC_CONDENSED>  (4080) 
bAla(3R-cPr)

>  <IUPAC>  (4080) 
(3R)-3-amino-3-cyclopropylpropanoic acid

>  <TYPE>  (4080) 
Backbone

>  <CLASS>  (4080) 
beta

>  <ANALOG>  (4080) 
X

>  <MOL_WT>  (4080) 
129.15900000000002

>  <LOGP>  (4080) 
0.19839999999999985

>  <TPSA>  (4080) 
63.32000000000001

>  <POPULARITY>  (4080) 
7.9

>  <PROTECTED>  (4080) 
TRUE

>  <SMILES>  (4080) 
N[C@@H](C1(CC1))CC(=O)O

>  <INCHIKEY>  (4080) 
IHWFMMMLMIDKCB-RXMQYKEDSA-N

$$$$
bAla_3Rfur2yl
     RDKit          2D

 11 11  0  0  0  0  0  0  0  0999 V2000
   -0.7304   -1.8619    0.0000 N   0  0  0  0  0  0  0  0  0  0  0  0
   -0.2874   -0.4288    0.0000 C   0  0  0  0  0  0  0  0  0  0  0  0
    1.1751   -0.0958    0.0000 C   0  0  0  0  0  0  0  0  0  0  0  0
    2.3042   -1.0834    0.0000 C   0  0  0  0  0  0  0  0  0  0  0  0
    3.5923   -0.3148    0.0000 C   0  0  0  0  0  0  0  0  0  0  0  0
    3.2594    1.1478    0.0000 C   0  0  0  0  0  0  0  0  0  0  0  0
    1.7655    1.2831    0.0000 O   0  0  0  0  0  0  0  0  0  0  0  0
   -1.3071    0.6714    0.0000 C   0  0  0  0  0  0  0  0  0  0  0  0
   -2.7697    0.3385    0.0000 C   0  0  0  0  0  0  0  0  0  0  0  0
   -3.2126   -1.0946    0.0000 O   0  0  0  0  0  0  0  0  0  0  0  0
   -3.7893    1.4386    0.0000 O   0  0  0  0  0  0  0  0  0  0  0  0
  2  1  1  6
  2  3  1  0
  3  4  2  0
  4  5  1  0
  5  6  2  0
  6  7  1  0
  2  8  1  0
  8  9  1  0
  9 10  2  0
  9 11  1  0
  7  3  1  0
M  END
>  <rName>  (4081) 
bAla_3Rfur2yl

>  <PQ_SYMBOL>  (4081) 
bAla_3Rfur2yl

>  <FULL_NAME>  (4081) 
(R)-3-amino-3-(furan-2-yl)propanoic acid

>  <IUPAC_CONDENSED>  (4081) 
bAla(3R-fur-2-yl)

>  <IUPAC>  (4081) 
(3R)-3-amino-3-(furan-2-yl)propanoic acid

>  <TYPE>  (4081) 
Backbone

>  <CLASS>  (4081) 
beta

>  <ANALOG>  (4081) 
X

>  <MOL_WT>  (4081) 
155.153

>  <LOGP>  (4081) 
0.7541

>  <TPSA>  (4081) 
76.46

>  <POPULARITY>  (4081) 
7.8

>  <PROTECTED>  (4081) 
TRUE

>  <SMILES>  (4081) 
N[C@@H](c1(ccco1))CC(=O)O

>  <INCHIKEY>  (4081) 
YIKVKIOGYSPIMP-RXMQYKEDSA-N

$$$$
bAla_3Rfurfuryl
     RDKit          2D

 12 12  0  0  0  0  0  0  0  0999 V2000
   -0.6782    1.2367    0.0000 N   0  0  0  0  0  0  0  0  0  0  0  0
   -0.8112   -0.2574    0.0000 C   0  0  0  0  0  0  0  0  0  0  0  0
    0.4162   -1.1196    0.0000 C   0  0  0  0  0  0  0  0  0  0  0  0
    1.7766   -0.4878    0.0000 C   0  0  0  0  0  0  0  0  0  0  0  0
    3.0874   -1.2170    0.0000 C   0  0  0  0  0  0  0  0  0  0  0  0
    4.1860   -0.1957    0.0000 C   0  0  0  0  0  0  0  0  0  0  0  0
    3.5542    1.1647    0.0000 C   0  0  0  0  0  0  0  0  0  0  0  0
    2.0651    0.9842    0.0000 O   0  0  0  0  0  0  0  0  0  0  0  0
   -2.1716   -0.8892    0.0000 C   0  0  0  0  0  0  0  0  0  0  0  0
   -3.3991   -0.0270    0.0000 C   0  0  0  0  0  0  0  0  0  0  0  0
   -3.2660    1.4671    0.0000 O   0  0  0  0  0  0  0  0  0  0  0  0
   -4.7595   -0.6589    0.0000 O   0  0  0  0  0  0  0  0  0  0  0  0
  2  1  1  6
  2  3  1  0
  3  4  1  0
  4  5  2  0
  5  6  1  0
  6  7  2  0
  7  8  1  0
  2  9  1  0
  9 10  1  0
 10 11  2  0
 10 12  1  0
  8  4  1  0
M  END
>  <rName>  (4082) 
bAla_3Rfurfuryl

>  <PQ_SYMBOL>  (4082) 
bAla_3Rfurfuryl

>  <FULL_NAME>  (4082) 
(R)-3-amino-4-(furan-2-yl)butanoic acid

>  <IUPAC_CONDENSED>  (4082) 
bAla(3R-furfuryl)

>  <IUPAC>  (4082) 
(3R)-3-amino-4-(furan-2-yl)butanoic acid

>  <TYPE>  (4082) 
Backbone

>  <CLASS>  (4082) 
beta

>  <ANALOG>  (4082) 
Phe

>  <MOL_WT>  (4082) 
169.17999999999998

>  <LOGP>  (4082) 
0.6240999999999999

>  <TPSA>  (4082) 
76.46

>  <POPULARITY>  (4082) 
5.7

>  <PROTECTED>  (4082) 
TRUE

>  <SMILES>  (4082) 
N[C@H](Cc1(ccco1))CC(=O)O

>  <INCHIKEY>  (4082) 
ZIAIKPBTLUWDMG-ZCFIWIBFSA-N

$$$$
bAla_3RiBu
     RDKit          2D

 10  9  0  0  0  0  0  0  0  0999 V2000
   -0.0000   -1.3500    0.0000 N   0  0  0  0  0  0  0  0  0  0  0  0
   -0.0000    0.1500    0.0000 C   0  0  0  0  0  0  0  0  0  0  0  0
   -1.2990    0.9000    0.0000 C   0  0  0  0  0  0  0  0  0  0  0  0
   -2.5981    0.1500    0.0000 C   0  0  0  0  0  0  0  0  0  0  0  0
   -3.8971    0.9000    0.0000 C   0  0  0  0  0  0  0  0  0  0  0  0
   -2.5981   -1.3500    0.0000 C   0  0  0  0  0  0  0  0  0  0  0  0
    1.2990    0.9000    0.0000 C   0  0  0  0  0  0  0  0  0  0  0  0
    2.5981    0.1500    0.0000 C   0  0  0  0  0  0  0  0  0  0  0  0
    2.5981   -1.3500    0.0000 O   0  0  0  0  0  0  0  0  0  0  0  0
    3.8971    0.9000    0.0000 O   0  0  0  0  0  0  0  0  0  0  0  0
  2  1  1  6
  2  3  1  0
  3  4  1  0
  4  5  1  0
  4  6  1  0
  2  7  1  0
  7  8  1  0
  8  9  2  0
  8 10  1  0
M  END
>  <rName>  (4083) 
bAla_3RiBu

>  <PQ_SYMBOL>  (4083) 
bAla_3RiBu

>  <FULL_NAME>  (4083) 
D-Beta3-Homoleucine

>  <IUPAC_CONDENSED>  (4083) 
bAla(3R-iBu)

>  <IUPAC>  (4083) 
(3R)-3-amino-5-methylhexanoic acid

>  <TYPE>  (4083) 
Backbone

>  <CLASS>  (4083) 
beta

>  <ANALOG>  (4083) 
Leu

>  <MOL_WT>  (4083) 
145.202

>  <LOGP>  (4083) 
0.8344999999999998

>  <TPSA>  (4083) 
63.32000000000001

>  <POPULARITY>  (4083) 
10.3

>  <PROTECTED>  (4083) 
TRUE

>  <SMILES>  (4083) 
N[C@H](CC(C)C)CC(=O)O

>  <INCHIKEY>  (4083) 
MLYMSIKVLAPCAK-ZCFIWIBFSA-N

$$$$
bAla_3Risothiazol5yl_3Me
     RDKit          2D

 12 12  0  0  0  0  0  0  0  0999 V2000
   -1.0492   -1.8441    0.0000 N   0  0  0  0  0  0  0  0  0  0  0  0
   -0.6822   -0.3897    0.0000 C   0  0  0  0  0  0  0  0  0  0  0  0
    0.7609    0.0196    0.0000 C   0  0  0  0  0  0  0  0  0  0  0  0
    1.9403   -0.9073    0.0000 C   0  0  0  0  0  0  0  0  0  0  0  0
    3.1862   -0.0721    0.0000 C   0  0  0  0  0  0  0  0  0  0  0  0
    4.5943   -0.5892    0.0000 C   0  0  0  0  0  0  0  0  0  0  0  0
    2.7769    1.3710    0.0000 N   0  0  0  0  0  0  0  0  0  0  0  0
    1.2780    1.4276    0.0000 S   0  0  0  0  0  0  0  0  0  0  0  0
   -1.7582    0.6554    0.0000 C   0  0  0  0  0  0  0  0  0  0  0  0
   -3.2013    0.2460    0.0000 C   0  0  0  0  0  0  0  0  0  0  0  0
   -3.5683   -1.2084    0.0000 O   0  0  0  0  0  0  0  0  0  0  0  0
   -4.2773    1.2911    0.0000 O   0  0  0  0  0  0  0  0  0  0  0  0
  2  1  1  6
  2  3  1  0
  3  4  2  0
  4  5  1  0
  5  6  1  0
  5  7  2  0
  7  8  1  0
  2  9  1  0
  9 10  1  0
 10 11  2  0
 10 12  1  0
  8  3  1  0
M  END
>  <rName>  (4084) 
bAla_3Risothiazol5yl_3Me

>  <PQ_SYMBOL>  (4084) 
bAla_3Risothiazol5yl_3Me

>  <FULL_NAME>  (4084) 
(3R)-3-amino-3-(3-methyl-1,2-thiazol-5-yl)propanoic acid

>  <IUPAC_CONDENSED>  (4084) 
bAla(3R-isothiazol-5-yl(3-Me))

>  <IUPAC>  (4084) 
(3R)-3-amino-3-(3-methylisothiazol-5-yl)propanoic acid

>  <TYPE>  (4084) 
Backbone

>  <CLASS>  (4084) 
beta

>  <ANALOG>  (4084) 
X

>  <MOL_WT>  (4084) 
186.236

>  <LOGP>  (4084) 
0.9260200000000001

>  <TPSA>  (4084) 
76.21

>  <POPULARITY>  (4084) 
2.7

>  <PROTECTED>  (4084) 
TRUE

>  <SMILES>  (4084) 
N[C@@H](c1(cc(C)ns1))CC(=O)O

>  <INCHIKEY>  (4084) 
QMZPZFVFLODXLS-RXMQYKEDSA-N

$$$$
bAla_3Rnaphth1yl
     RDKit          2D

 16 17  0  0  0  0  0  0  0  0999 V2000
   -1.3768    1.6435    0.0000 N   0  0  0  0  0  0  0  0  0  0  0  0
   -1.3799    0.1435    0.0000 C   0  0  0  0  0  0  0  0  0  0  0  0
   -0.0825   -0.6092    0.0000 C   0  0  0  0  0  0  0  0  0  0  0  0
   -0.0856   -2.1092    0.0000 C   0  0  0  0  0  0  0  0  0  0  0  0
    1.2119   -2.8619    0.0000 C   0  0  0  0  0  0  0  0  0  0  0  0
    2.5125   -2.1146    0.0000 C   0  0  0  0  0  0  0  0  0  0  0  0
    2.5156   -0.6146    0.0000 C   0  0  0  0  0  0  0  0  0  0  0  0
    3.8162    0.1327    0.0000 C   0  0  0  0  0  0  0  0  0  0  0  0
    3.8193    1.6327    0.0000 C   0  0  0  0  0  0  0  0  0  0  0  0
    2.5218    2.3854    0.0000 C   0  0  0  0  0  0  0  0  0  0  0  0
    1.2213    1.6381    0.0000 C   0  0  0  0  0  0  0  0  0  0  0  0
    1.2181    0.1381    0.0000 C   0  0  0  0  0  0  0  0  0  0  0  0
   -2.6805   -0.6038    0.0000 C   0  0  0  0  0  0  0  0  0  0  0  0
   -3.9780    0.1489    0.0000 C   0  0  0  0  0  0  0  0  0  0  0  0
   -3.9749    1.6489    0.0000 O   0  0  0  0  0  0  0  0  0  0  0  0
   -5.2786   -0.5984    0.0000 O   0  0  0  0  0  0  0  0  0  0  0  0
  2  1  1  1
  2  3  1  0
  3  4  2  0
  4  5  1  0
  5  6  2  0
  6  7  1  0
  7  8  2  0
  8  9  1  0
  9 10  2  0
 10 11  1  0
 11 12  2  0
  2 13  1  0
 13 14  1  0
 14 15  2  0
 14 16  1  0
 12  7  1  0
 12  3  1  0
M  END
>  <rName>  (4085) 
bAla_3Rnaphth1yl

>  <PQ_SYMBOL>  (4085) 
bAla_3Rnaphth1yl

>  <FULL_NAME>  (4085) 
(R)-3-amino-3-(naphthalen-1-yl)propanoic acid

>  <IUPAC_CONDENSED>  (4085) 
bAla(3R-naphth-1-yl)

>  <IUPAC>  (4085) 
(3R)-3-amino-3-(naphthalen-1-yl)propanoic acid

>  <TYPE>  (4085) 
Backbone

>  <CLASS>  (4085) 
beta

>  <ANALOG>  (4085) 
X

>  <MOL_WT>  (4085) 
215.25199999999995

>  <LOGP>  (4085) 
2.3143000000000002

>  <TPSA>  (4085) 
63.32000000000001

>  <POPULARITY>  (4085) 
8.0

>  <PROTECTED>  (4085) 
TRUE

>  <SMILES>  (4085) 
N[C@@H](c2(cccc1(ccccc12)))CC(=O)O

>  <INCHIKEY>  (4085) 
BIOQBKBTOAMMDG-GFCCVEGCSA-N

$$$$
bAla_3Rnaphth1ylmethyl
     RDKit          2D

 17 18  0  0  0  0  0  0  0  0999 V2000
   -2.3550   -1.3574    0.0000 N   0  0  0  0  0  0  0  0  0  0  0  0
   -2.1431    0.1276    0.0000 C   0  0  0  0  0  0  0  0  0  0  0  0
   -0.7511    0.6865    0.0000 C   0  0  0  0  0  0  0  0  0  0  0  0
    0.4290   -0.2395    0.0000 C   0  0  0  0  0  0  0  0  0  0  0  0
    0.2170   -1.7244    0.0000 C   0  0  0  0  0  0  0  0  0  0  0  0
    1.3971   -2.6504    0.0000 C   0  0  0  0  0  0  0  0  0  0  0  0
    2.7891   -2.0915    0.0000 C   0  0  0  0  0  0  0  0  0  0  0  0
    3.0010   -0.6065    0.0000 C   0  0  0  0  0  0  0  0  0  0  0  0
    4.3929   -0.0476    0.0000 C   0  0  0  0  0  0  0  0  0  0  0  0
    4.6048    1.4374    0.0000 C   0  0  0  0  0  0  0  0  0  0  0  0
    3.4248    2.3634    0.0000 C   0  0  0  0  0  0  0  0  0  0  0  0
    2.0328    1.8044    0.0000 C   0  0  0  0  0  0  0  0  0  0  0  0
    1.8209    0.3195    0.0000 C   0  0  0  0  0  0  0  0  0  0  0  0
   -3.3231    1.0536    0.0000 C   0  0  0  0  0  0  0  0  0  0  0  0
   -4.7151    0.4946    0.0000 C   0  0  0  0  0  0  0  0  0  0  0  0
   -4.9270   -0.9903    0.0000 O   0  0  0  0  0  0  0  0  0  0  0  0
   -5.8951    1.4206    0.0000 O   0  0  0  0  0  0  0  0  0  0  0  0
  2  1  1  1
  2  3  1  0
  3  4  1  0
  4  5  2  0
  5  6  1  0
  6  7  2  0
  7  8  1  0
  8  9  2  0
  9 10  1  0
 10 11  2  0
 11 12  1  0
 12 13  2  0
  2 14  1  0
 14 15  1  0
 15 16  2  0
 15 17  1  0
 13  4  1  0
 13  8  1  0
M  END
>  <rName>  (4086) 
bAla_3Rnaphth1ylmethyl

>  <PQ_SYMBOL>  (4086) 
bAla_3Rnaphth1ylmethyl

>  <FULL_NAME>  (4086) 
(R)-3-amino-4-(naphthalen-1-yl)butanoic acid

>  <IUPAC_CONDENSED>  (4086) 
bAla(3R-naphth-1-ylmethyl)

>  <IUPAC>  (4086) 
(3R)-3-amino-4-(naphthalen-1-yl)butanoic acid

>  <TYPE>  (4086) 
Backbone

>  <CLASS>  (4086) 
beta

>  <ANALOG>  (4086) 
Phe

>  <MOL_WT>  (4086) 
229.27899999999997

>  <LOGP>  (4086) 
2.1843

>  <TPSA>  (4086) 
63.32000000000001

>  <POPULARITY>  (4086) 
5.1

>  <PROTECTED>  (4086) 
TRUE

>  <SMILES>  (4086) 
N[C@H](Cc1(cccc2(ccccc12)))CC(=O)O

>  <INCHIKEY>  (4086) 
VEJIDCKYNSOIIN-GFCCVEGCSA-N

$$$$
bAla_3Rnaphth2yl
     RDKit          2D

 16 17  0  0  0  0  0  0  0  0999 V2000
   -2.7878   -1.8484    0.0000 N   0  0  0  0  0  0  0  0  0  0  0  0
   -1.9911   -0.5775    0.0000 C   0  0  0  0  0  0  0  0  0  0  0  0
   -0.4921   -0.6320    0.0000 C   0  0  0  0  0  0  0  0  0  0  0  0
    0.2102   -1.9575    0.0000 C   0  0  0  0  0  0  0  0  0  0  0  0
    1.7092   -2.0120    0.0000 C   0  0  0  0  0  0  0  0  0  0  0  0
    2.5060   -0.7411    0.0000 C   0  0  0  0  0  0  0  0  0  0  0  0
    4.0050   -0.7956    0.0000 C   0  0  0  0  0  0  0  0  0  0  0  0
    4.8017    0.4753    0.0000 C   0  0  0  0  0  0  0  0  0  0  0  0
    4.0994    1.8007    0.0000 C   0  0  0  0  0  0  0  0  0  0  0  0
    2.6004    1.8552    0.0000 C   0  0  0  0  0  0  0  0  0  0  0  0
    1.8037    0.5843    0.0000 C   0  0  0  0  0  0  0  0  0  0  0  0
    0.3047    0.6389    0.0000 C   0  0  0  0  0  0  0  0  0  0  0  0
   -2.6933    0.7479    0.0000 C   0  0  0  0  0  0  0  0  0  0  0  0
   -4.1923    0.8025    0.0000 C   0  0  0  0  0  0  0  0  0  0  0  0
   -4.9891   -0.4685    0.0000 O   0  0  0  0  0  0  0  0  0  0  0  0
   -4.8946    2.1279    0.0000 O   0  0  0  0  0  0  0  0  0  0  0  0
  2  1  1  6
  2  3  1  0
  3  4  1  0
  4  5  2  0
  5  6  1  0
  6  7  2  0
  7  8  1  0
  8  9  2  0
  9 10  1  0
 10 11  2  0
 11 12  1  0
  2 13  1  0
 13 14  1  0
 14 15  2  0
 14 16  1  0
 11  6  1  0
 12  3  2  0
M  END
>  <rName>  (4087) 
bAla_3Rnaphth2yl

>  <PQ_SYMBOL>  (4087) 
bAla_3Rnaphth2yl

>  <FULL_NAME>  (4087) 
(R)-3-Amino-3-(2-naphthyl)-propionic acid

>  <IUPAC_CONDENSED>  (4087) 
bAla(3R-naphth-2-yl)

>  <IUPAC>  (4087) 
(3R)-3-amino-3-(naphthalen-2-yl)propanoic acid

>  <TYPE>  (4087) 
Backbone

>  <CLASS>  (4087) 
beta

>  <ANALOG>  (4087) 
X

>  <MOL_WT>  (4087) 
215.25199999999995

>  <LOGP>  (4087) 
2.3143000000000002

>  <TPSA>  (4087) 
63.32000000000001

>  <POPULARITY>  (4087) 
7.0

>  <PROTECTED>  (4087) 
TRUE

>  <SMILES>  (4087) 
N[C@@H](c2(ccc1(ccccc1c2)))CC(=O)O

>  <INCHIKEY>  (4087) 
JASNXOXPNZWQRV-GFCCVEGCSA-N

$$$$
bAla_3Rnaphth2ylmethyl
     RDKit          2D

 17 18  0  0  0  0  0  0  0  0999 V2000
   -1.9056    1.0350    0.0000 N   0  0  0  0  0  0  0  0  0  0  0  0
   -2.3974   -0.3821    0.0000 C   0  0  0  0  0  0  0  0  0  0  0  0
   -1.4161   -1.5166    0.0000 C   0  0  0  0  0  0  0  0  0  0  0  0
    0.0570   -1.2340    0.0000 C   0  0  0  0  0  0  0  0  0  0  0  0
    1.0384   -2.3684    0.0000 C   0  0  0  0  0  0  0  0  0  0  0  0
    2.5115   -2.0858    0.0000 C   0  0  0  0  0  0  0  0  0  0  0  0
    3.0033   -0.6688    0.0000 C   0  0  0  0  0  0  0  0  0  0  0  0
    4.4764   -0.3862    0.0000 C   0  0  0  0  0  0  0  0  0  0  0  0
    4.9683    1.0309    0.0000 C   0  0  0  0  0  0  0  0  0  0  0  0
    3.9870    2.1654    0.0000 C   0  0  0  0  0  0  0  0  0  0  0  0
    2.5138    1.8828    0.0000 C   0  0  0  0  0  0  0  0  0  0  0  0
    2.0220    0.4657    0.0000 C   0  0  0  0  0  0  0  0  0  0  0  0
    0.5489    0.1831    0.0000 C   0  0  0  0  0  0  0  0  0  0  0  0
   -3.8705   -0.6647    0.0000 C   0  0  0  0  0  0  0  0  0  0  0  0
   -4.8519    0.4697    0.0000 C   0  0  0  0  0  0  0  0  0  0  0  0
   -4.3600    1.8868    0.0000 O   0  0  0  0  0  0  0  0  0  0  0  0
   -6.3250    0.1871    0.0000 O   0  0  0  0  0  0  0  0  0  0  0  0
  2  1  1  6
  2  3  1  0
  3  4  1  0
  4  5  1  0
  5  6  2  0
  6  7  1  0
  7  8  2  0
  8  9  1  0
  9 10  2  0
 10 11  1  0
 11 12  2  0
 12 13  1  0
  2 14  1  0
 14 15  1  0
 15 16  2  0
 15 17  1  0
 12  7  1  0
 13  4  2  0
M  END
>  <rName>  (4088) 
bAla_3Rnaphth2ylmethyl

>  <PQ_SYMBOL>  (4088) 
bAla_3Rnaphth2ylmethyl

>  <FULL_NAME>  (4088) 
(R)-3-amino-4-(naphthalen-2-yl)butanoic acid

>  <IUPAC_CONDENSED>  (4088) 
bAla(3R-naphth-2-ylmethyl)

>  <IUPAC>  (4088) 
(3R)-3-amino-4-(naphthalen-2-yl)butanoic acid

>  <TYPE>  (4088) 
Backbone

>  <CLASS>  (4088) 
beta

>  <ANALOG>  (4088) 
Phe

>  <MOL_WT>  (4088) 
229.27899999999997

>  <LOGP>  (4088) 
2.1843

>  <TPSA>  (4088) 
63.32000000000001

>  <POPULARITY>  (4088) 
6.4

>  <PROTECTED>  (4088) 
TRUE

>  <SMILES>  (4088) 
N[C@H](Cc2(ccc1(ccccc1c2)))CC(=O)O

>  <INCHIKEY>  (4088) 
WSVMIVFELRCSPA-CYBMUJFWSA-N

$$$$
bAla_3Rpentyl
     RDKit          2D

 11 10  0  0  0  0  0  0  0  0999 V2000
    0.9412    1.5022    0.0000 N   0  0  0  0  0  0  0  0  0  0  0  0
    0.8294    0.0064    0.0000 C   0  0  0  0  0  0  0  0  0  0  0  0
   -0.5219   -0.6447    0.0000 C   0  0  0  0  0  0  0  0  0  0  0  0
   -1.7614    0.2000    0.0000 C   0  0  0  0  0  0  0  0  0  0  0  0
   -3.1127   -0.4511    0.0000 C   0  0  0  0  0  0  0  0  0  0  0  0
   -4.3523    0.3937    0.0000 C   0  0  0  0  0  0  0  0  0  0  0  0
   -5.7036   -0.2574    0.0000 C   0  0  0  0  0  0  0  0  0  0  0  0
    2.0690   -0.8384    0.0000 C   0  0  0  0  0  0  0  0  0  0  0  0
    3.4203   -0.1873    0.0000 C   0  0  0  0  0  0  0  0  0  0  0  0
    3.5321    1.3086    0.0000 O   0  0  0  0  0  0  0  0  0  0  0  0
    4.6598   -1.0320    0.0000 O   0  0  0  0  0  0  0  0  0  0  0  0
  2  1  1  1
  2  3  1  0
  3  4  1  0
  4  5  1  0
  5  6  1  0
  6  7  1  0
  2  8  1  0
  8  9  1  0
  9 10  2  0
  9 11  1  0
M  END
>  <rName>  (4089) 
bAla_3Rpentyl

>  <PQ_SYMBOL>  (4089) 
bAla_3Rpentyl

>  <FULL_NAME>  (4089) 
(R)-3-Aminooctanoic acid

>  <IUPAC_CONDENSED>  (4089) 
bAla(3R-pentyl)

>  <IUPAC>  (4089) 
(3R)-3-aminooctanoic acid

>  <TYPE>  (4089) 
Backbone

>  <CLASS>  (4089) 
beta

>  <ANALOG>  (4089) 
Leu

>  <MOL_WT>  (4089) 
159.229

>  <LOGP>  (4089) 
1.3687

>  <TPSA>  (4089) 
63.32000000000001

>  <POPULARITY>  (4089) 
12.8

>  <PROTECTED>  (4089) 
TRUE

>  <SMILES>  (4089) 
N[C@H](CCCCC)CC(=O)O

>  <INCHIKEY>  (4089) 
FYHHDJRMDOBZJF-SSDOTTSWSA-N

$$$$
bAla_3Rprop2ynyl
     RDKit          2D

  9  8  0  0  0  0  0  0  0  0999 V2000
    0.3560   -1.3170    0.0000 N   0  0  0  0  0  0  0  0  0  0  0  0
    0.2798    0.1811    0.0000 C   0  0  0  0  0  0  0  0  0  0  0  0
    1.5392    0.9961    0.0000 C   0  0  0  0  0  0  0  0  0  0  0  0
    2.8746    0.3129    0.0000 C   0  0  0  0  0  0  0  0  0  0  0  0
    4.2100   -0.3702    0.0000 C   0  0  0  0  0  0  0  0  0  0  0  0
   -1.0556    0.8642    0.0000 C   0  0  0  0  0  0  0  0  0  0  0  0
   -2.3149    0.0493    0.0000 C   0  0  0  0  0  0  0  0  0  0  0  0
   -2.2388   -1.4488    0.0000 O   0  0  0  0  0  0  0  0  0  0  0  0
   -3.6503    0.7324    0.0000 O   0  0  0  0  0  0  0  0  0  0  0  0
  2  1  1  1
  2  3  1  0
  3  4  1  0
  4  5  3  0
  2  6  1  0
  6  7  1  0
  7  8  2  0
  7  9  1  0
M  END
>  <rName>  (4090) 
bAla_3Rprop2ynyl

>  <PQ_SYMBOL>  (4090) 
bAla_3Rprop2ynyl

>  <FULL_NAME>  (4090) 
(3R)-3-aminohex-5-ynoic acid

>  <IUPAC_CONDENSED>  (4090) 
bAla(3R-prop-2-ynyl)

>  <IUPAC>  (4090) 
(3R)-3-aminohex-5-ynoic acid

>  <TYPE>  (4090) 
Backbone

>  <CLASS>  (4090) 
beta

>  <ANALOG>  (4090) 
Val

>  <MOL_WT>  (4090) 
127.14299999999997

>  <LOGP>  (4090) 
-0.18829999999999997

>  <TPSA>  (4090) 
63.32000000000001

>  <POPULARITY>  (4090) 
6.3

>  <PROTECTED>  (4090) 
TRUE

>  <SMILES>  (4090) 
N[C@H](CC#C)CC(=O)O

>  <INCHIKEY>  (4090) 
DWFMCQGMVSIJBN-RXMQYKEDSA-N

$$$$
bAla_3Rpyrazol4yl_1Me_3Br
     RDKit          2D

 13 13  0  0  0  0  0  0  0  0999 V2000
   -1.1142   -2.0332    0.0000 N   0  0  0  0  0  0  0  0  0  0  0  0
   -0.7252   -0.5845    0.0000 C   0  0  0  0  0  0  0  0  0  0  0  0
    0.7239   -0.1971    0.0000 C   0  0  0  0  0  0  0  0  0  0  0  0
    1.8891   -1.1417    0.0000 C   0  0  0  0  0  0  0  0  0  0  0  0
    3.1476   -0.3254    0.0000 N   0  0  0  0  0  0  0  0  0  0  0  0
    4.5477   -0.8637    0.0000 C   0  0  0  0  0  0  0  0  0  0  0  0
    2.7602    1.1237    0.0000 N   0  0  0  0  0  0  0  0  0  0  0  0
    1.2623    1.2030    0.0000 C   0  0  0  0  0  0  0  0  0  0  0  0
    0.4460    2.4615    0.0000 Br  0  0  0  0  0  0  0  0  0  0  0  0
   -1.7852    0.4768    0.0000 C   0  0  0  0  0  0  0  0  0  0  0  0
   -3.2343    0.0893    0.0000 C   0  0  0  0  0  0  0  0  0  0  0  0
   -3.6234   -1.3594    0.0000 O   0  0  0  0  0  0  0  0  0  0  0  0
   -4.2944    1.1506    0.0000 O   0  0  0  0  0  0  0  0  0  0  0  0
  2  1  1  6
  2  3  1  0
  3  4  2  0
  4  5  1  0
  5  6  1  0
  5  7  1  0
  7  8  2  0
  8  9  1  0
  2 10  1  0
 10 11  1  0
 11 12  2  0
 11 13  1  0
  8  3  1  0
M  END
>  <rName>  (4091) 
bAla_3Rpyrazol4yl_1Me_3Br

>  <PQ_SYMBOL>  (4091) 
bAla_3Rpyrazol4yl_1Me_3Br

>  <FULL_NAME>  (4091) 
(3R)-3-amino-3-(3-bromo-1-methyl-1H-pyrazol-4-yl)propanoic acid

>  <IUPAC_CONDENSED>  (4091) 
bAla(3R-pyrazol-4-yl(1-Me,3-Br))

>  <IUPAC>  (4091) 
(3R)-3-amino-3-(3-bromo-1-methyl-1H-pyrazol-4-yl)propanoic acid

>  <TYPE>  (4091) 
Backbone

>  <CLASS>  (4091) 
beta

>  <ANALOG>  (4091) 
X

>  <MOL_WT>  (4091) 
248.07999999999998

>  <LOGP>  (4091) 
0.6570999999999998

>  <TPSA>  (4091) 
81.14

>  <POPULARITY>  (4091) 
2.6

>  <PROTECTED>  (4091) 
TRUE

>  <SMILES>  (4091) 
N[C@@H](c1(cn(C)nc1Br))CC(=O)O

>  <INCHIKEY>  (4091) 
QTPMEZKCDYYJLT-RXMQYKEDSA-N

$$$$
bAla_3Rpyrazol5yl_1Me_3Br
     RDKit          2D

 13 13  0  0  0  0  0  0  0  0999 V2000
   -1.1142   -2.0332    0.0000 N   0  0  0  0  0  0  0  0  0  0  0  0
   -0.7252   -0.5845    0.0000 C   0  0  0  0  0  0  0  0  0  0  0  0
    0.7239   -0.1971    0.0000 C   0  0  0  0  0  0  0  0  0  0  0  0
    1.8891   -1.1417    0.0000 C   0  0  0  0  0  0  0  0  0  0  0  0
    3.1476   -0.3254    0.0000 C   0  0  0  0  0  0  0  0  0  0  0  0
    4.5477   -0.8637    0.0000 Br  0  0  0  0  0  0  0  0  0  0  0  0
    2.7602    1.1237    0.0000 N   0  0  0  0  0  0  0  0  0  0  0  0
    1.2623    1.2030    0.0000 N   0  0  0  0  0  0  0  0  0  0  0  0
    0.4460    2.4615    0.0000 C   0  0  0  0  0  0  0  0  0  0  0  0
   -1.7852    0.4768    0.0000 C   0  0  0  0  0  0  0  0  0  0  0  0
   -3.2343    0.0893    0.0000 C   0  0  0  0  0  0  0  0  0  0  0  0
   -3.6234   -1.3594    0.0000 O   0  0  0  0  0  0  0  0  0  0  0  0
   -4.2944    1.1506    0.0000 O   0  0  0  0  0  0  0  0  0  0  0  0
  2  1  1  6
  2  3  1  0
  3  4  2  0
  4  5  1  0
  5  6  1  0
  5  7  2  0
  7  8  1  0
  8  9  1  0
  2 10  1  0
 10 11  1  0
 11 12  2  0
 11 13  1  0
  8  3  1  0
M  END
>  <rName>  (4092) 
bAla_3Rpyrazol5yl_1Me_3Br

>  <PQ_SYMBOL>  (4092) 
bAla_3Rpyrazol5yl_1Me_3Br

>  <FULL_NAME>  (4092) 
(3R)-3-amino-3-(3-bromo-1-methyl-1H-pyrazol-5-yl)propanoic acid

>  <IUPAC_CONDENSED>  (4092) 
bAla(3R-pyrazol-5-yl(1-Me,3-Br))

>  <IUPAC>  (4092) 
(3R)-3-amino-3-(3-bromo-1-methyl-1H-pyrazol-5-yl)propanoic acid

>  <TYPE>  (4092) 
Backbone

>  <CLASS>  (4092) 
beta

>  <ANALOG>  (4092) 
X

>  <MOL_WT>  (4092) 
248.07999999999998

>  <LOGP>  (4092) 
0.6571

>  <TPSA>  (4092) 
81.14

>  <POPULARITY>  (4092) 
2.7

>  <PROTECTED>  (4092) 
TRUE

>  <SMILES>  (4092) 
N[C@@H](c1(cc(Br)nn1C))CC(=O)O

>  <INCHIKEY>  (4092) 
UKWSVPLSYFXBFJ-SCSAIBSYSA-N

$$$$
bAla_3Rpyrid2yl_5Br
     RDKit          2D

 13 13  0  0  0  0  0  0  0  0999 V2000
   -1.5598   -1.8792    0.0000 N   0  0  0  0  0  0  0  0  0  0  0  0
   -1.0324   -0.4750    0.0000 C   0  0  0  0  0  0  0  0  0  0  0  0
    0.4474   -0.2297    0.0000 C   0  0  0  0  0  0  0  0  0  0  0  0
    0.9749    1.1745    0.0000 C   0  0  0  0  0  0  0  0  0  0  0  0
    2.4547    1.4199    0.0000 C   0  0  0  0  0  0  0  0  0  0  0  0
    3.4070    0.2610    0.0000 C   0  0  0  0  0  0  0  0  0  0  0  0
    4.8868    0.5063    0.0000 Br  0  0  0  0  0  0  0  0  0  0  0  0
    2.8796   -1.1432    0.0000 C   0  0  0  0  0  0  0  0  0  0  0  0
    1.3998   -1.3886    0.0000 N   0  0  0  0  0  0  0  0  0  0  0  0
   -1.9847    0.6838    0.0000 C   0  0  0  0  0  0  0  0  0  0  0  0
   -3.4645    0.4385    0.0000 C   0  0  0  0  0  0  0  0  0  0  0  0
   -3.9920   -0.9657    0.0000 O   0  0  0  0  0  0  0  0  0  0  0  0
   -4.4169    1.5974    0.0000 O   0  0  0  0  0  0  0  0  0  0  0  0
  2  1  1  6
  2  3  1  0
  3  4  1  0
  4  5  2  0
  5  6  1  0
  6  7  1  0
  6  8  2  0
  8  9  1  0
  2 10  1  0
 10 11  1  0
 11 12  2  0
 11 13  1  0
  9  3  2  0
M  END
>  <rName>  (4093) 
bAla_3Rpyrid2yl_5Br

>  <PQ_SYMBOL>  (4093) 
bAla_3Rpyrid2yl_5Br

>  <FULL_NAME>  (4093) 
(3R)-3-amino-3-(5-bromopyridin-2-yl)propanoic acid

>  <IUPAC_CONDENSED>  (4093) 
bAla(3R-pyrid-2-yl(5-Br))

>  <IUPAC>  (4093) 
(3R)-3-amino-3-(5-bromopyridin-2-yl)propanoic acid

>  <TYPE>  (4093) 
Backbone

>  <CLASS>  (4093) 
beta

>  <ANALOG>  (4093) 
X

>  <MOL_WT>  (4093) 
245.07599999999996

>  <LOGP>  (4093) 
1.3186

>  <TPSA>  (4093) 
76.21

>  <POPULARITY>  (4093) 
3.0

>  <PROTECTED>  (4093) 
TRUE

>  <SMILES>  (4093) 
N[C@@H](c1(ccc(Br)cn1))CC(=O)O

>  <INCHIKEY>  (4093) 
FARVNIMLDDARND-ZCFIWIBFSA-N

$$$$
bAla_3Rpyrid3yl
     RDKit          2D

 12 12  0  0  0  0  0  0  0  0999 V2000
   -1.0786   -1.8814    0.0000 N   0  0  0  0  0  0  0  0  0  0  0  0
   -0.6074   -0.4573    0.0000 C   0  0  0  0  0  0  0  0  0  0  0  0
    0.8615   -0.1534    0.0000 C   0  0  0  0  0  0  0  0  0  0  0  0
    1.3327    1.2707    0.0000 C   0  0  0  0  0  0  0  0  0  0  0  0
    2.8016    1.5746    0.0000 C   0  0  0  0  0  0  0  0  0  0  0  0
    3.7992    0.4545    0.0000 C   0  0  0  0  0  0  0  0  0  0  0  0
    3.3280   -0.9696    0.0000 N   0  0  0  0  0  0  0  0  0  0  0  0
    1.8591   -1.2735    0.0000 C   0  0  0  0  0  0  0  0  0  0  0  0
   -1.6051    0.6628    0.0000 C   0  0  0  0  0  0  0  0  0  0  0  0
   -3.0740    0.3588    0.0000 C   0  0  0  0  0  0  0  0  0  0  0  0
   -3.5452   -1.0652    0.0000 O   0  0  0  0  0  0  0  0  0  0  0  0
   -4.0716    1.4790    0.0000 O   0  0  0  0  0  0  0  0  0  0  0  0
  2  1  1  6
  2  3  1  0
  3  4  2  0
  4  5  1  0
  5  6  2  0
  6  7  1  0
  7  8  2  0
  2  9  1  0
  9 10  1  0
 10 11  2  0
 10 12  1  0
  8  3  1  0
M  END
>  <rName>  (4094) 
bAla_3Rpyrid3yl

>  <PQ_SYMBOL>  (4094) 
bAla_3Rpyrid3yl

>  <FULL_NAME>  (4094) 
(R)-3-amino-3-(pyridin-3-yl)propanoic acid

>  <IUPAC_CONDENSED>  (4094) 
bAla(3R-pyrid-3-yl)

>  <IUPAC>  (4094) 
(3R)-3-amino-3-(pyridin-3-yl)propanoic acid

>  <TYPE>  (4094) 
Backbone

>  <CLASS>  (4094) 
beta

>  <ANALOG>  (4094) 
X

>  <MOL_WT>  (4094) 
166.17999999999998

>  <LOGP>  (4094) 
0.5561

>  <TPSA>  (4094) 
76.21

>  <POPULARITY>  (4094) 
8.3

>  <PROTECTED>  (4094) 
TRUE

>  <SMILES>  (4094) 
N[C@@H](c1(cccnc1))CC(=O)O

>  <INCHIKEY>  (4094) 
QOTCEJINJFHMLO-SSDOTTSWSA-N

$$$$
bAla_3Rpyrid3yl_5Br
     RDKit          2D

 13 13  0  0  0  0  0  0  0  0999 V2000
   -1.2291   -1.8553    0.0000 N   0  0  0  0  0  0  0  0  0  0  0  0
   -0.9051   -0.3907    0.0000 C   0  0  0  0  0  0  0  0  0  0  0  0
    0.5252    0.0611    0.0000 C   0  0  0  0  0  0  0  0  0  0  0  0
    0.8491    1.5257    0.0000 C   0  0  0  0  0  0  0  0  0  0  0  0
    2.2795    1.9775    0.0000 N   0  0  0  0  0  0  0  0  0  0  0  0
    3.3859    0.9646    0.0000 C   0  0  0  0  0  0  0  0  0  0  0  0
    3.0620   -0.5000    0.0000 C   0  0  0  0  0  0  0  0  0  0  0  0
    4.1684   -1.5128    0.0000 Br  0  0  0  0  0  0  0  0  0  0  0  0
    1.6316   -0.9517    0.0000 C   0  0  0  0  0  0  0  0  0  0  0  0
   -2.0116    0.6222    0.0000 C   0  0  0  0  0  0  0  0  0  0  0  0
   -3.4419    0.1704    0.0000 C   0  0  0  0  0  0  0  0  0  0  0  0
   -3.7658   -1.2942    0.0000 O   0  0  0  0  0  0  0  0  0  0  0  0
   -4.5483    1.1832    0.0000 O   0  0  0  0  0  0  0  0  0  0  0  0
  2  1  1  6
  2  3  1  0
  3  4  2  0
  4  5  1  0
  5  6  2  0
  6  7  1  0
  7  8  1  0
  7  9  2  0
  2 10  1  0
 10 11  1  0
 11 12  2  0
 11 13  1  0
  9  3  1  0
M  END
>  <rName>  (4095) 
bAla_3Rpyrid3yl_5Br

>  <PQ_SYMBOL>  (4095) 
bAla_3Rpyrid3yl_5Br

>  <FULL_NAME>  (4095) 
(3R)-3-amino-3-(5-bromopyridin-3-yl)propanoic acid

>  <IUPAC_CONDENSED>  (4095) 
bAla(3R-pyrid-3-yl(5-Br))

>  <IUPAC>  (4095) 
(3R)-3-amino-3-(5-bromopyridin-3-yl)propanoic acid

>  <TYPE>  (4095) 
Backbone

>  <CLASS>  (4095) 
beta

>  <ANALOG>  (4095) 
X

>  <MOL_WT>  (4095) 
245.07599999999996

>  <LOGP>  (4095) 
1.3186000000000002

>  <TPSA>  (4095) 
76.21

>  <POPULARITY>  (4095) 
3.0

>  <PROTECTED>  (4095) 
TRUE

>  <SMILES>  (4095) 
N[C@@H](c1(cncc(Br)c1))CC(=O)O

>  <INCHIKEY>  (4095) 
FDBHAXKSSQPQMA-SSDOTTSWSA-N

$$$$
bAla_3Rpyrid3yl_6OMe
     RDKit          2D

 14 14  0  0  0  0  0  0  0  0999 V2000
   -1.9239   -1.8882    0.0000 N   0  0  0  0  0  0  0  0  0  0  0  0
   -1.4367   -0.4695    0.0000 C   0  0  0  0  0  0  0  0  0  0  0  0
    0.0356   -0.1821    0.0000 C   0  0  0  0  0  0  0  0  0  0  0  0
    0.5228    1.2365    0.0000 C   0  0  0  0  0  0  0  0  0  0  0  0
    1.9950    1.5239    0.0000 C   0  0  0  0  0  0  0  0  0  0  0  0
    2.9800    0.3926    0.0000 C   0  0  0  0  0  0  0  0  0  0  0  0
    4.4522    0.6799    0.0000 O   0  0  0  0  0  0  0  0  0  0  0  0
    5.4372   -0.4514    0.0000 C   0  0  0  0  0  0  0  0  0  0  0  0
    2.4927   -1.0261    0.0000 N   0  0  0  0  0  0  0  0  0  0  0  0
    1.0205   -1.3134    0.0000 C   0  0  0  0  0  0  0  0  0  0  0  0
   -2.4216    0.6618    0.0000 C   0  0  0  0  0  0  0  0  0  0  0  0
   -3.8939    0.3744    0.0000 C   0  0  0  0  0  0  0  0  0  0  0  0
   -4.3811   -1.0442    0.0000 O   0  0  0  0  0  0  0  0  0  0  0  0
   -4.8788    1.5057    0.0000 O   0  0  0  0  0  0  0  0  0  0  0  0
  2  1  1  6
  2  3  1  0
  3  4  1  0
  4  5  2  0
  5  6  1  0
  6  7  1  0
  7  8  1  0
  6  9  2  0
  9 10  1  0
  2 11  1  0
 11 12  1  0
 12 13  2  0
 12 14  1  0
 10  3  2  0
M  END
>  <rName>  (4096) 
bAla_3Rpyrid3yl_6OMe

>  <PQ_SYMBOL>  (4096) 
bAla_3Rpyrid3yl_6OMe

>  <FULL_NAME>  (4096) 
(R)-3-amino-3-(6-methoxypyridin-3-yl)propanoic acid

>  <IUPAC_CONDENSED>  (4096) 
bAla(3R-pyrid-3-yl(6-OMe))

>  <IUPAC>  (4096) 
(3R)-3-amino-3-(6-methoxypyridin-3-yl)propanoic acid

>  <TYPE>  (4096) 
Backbone

>  <CLASS>  (4096) 
beta

>  <ANALOG>  (4096) 
X

>  <MOL_WT>  (4096) 
196.206

>  <LOGP>  (4096) 
0.5647

>  <TPSA>  (4096) 
85.44000000000001

>  <POPULARITY>  (4096) 
5.7

>  <PROTECTED>  (4096) 
TRUE

>  <SMILES>  (4096) 
N[C@@H](c1(ccc(OC)nc1))CC(=O)O

>  <INCHIKEY>  (4096) 
JWSDJSZHYFNBEN-SSDOTTSWSA-N

$$$$
bAla_3Rpyrid3ylmethyl
     RDKit          2D

 13 13  0  0  0  0  0  0  0  0999 V2000
   -0.9767    1.2065    0.0000 N   0  0  0  0  0  0  0  0  0  0  0  0
   -1.1358   -0.2850    0.0000 C   0  0  0  0  0  0  0  0  0  0  0  0
    0.0764   -1.1685    0.0000 C   0  0  0  0  0  0  0  0  0  0  0  0
    1.4476   -0.5605    0.0000 C   0  0  0  0  0  0  0  0  0  0  0  0
    1.6067    0.9310    0.0000 C   0  0  0  0  0  0  0  0  0  0  0  0
    2.9779    1.5390    0.0000 C   0  0  0  0  0  0  0  0  0  0  0  0
    4.1901    0.6555    0.0000 C   0  0  0  0  0  0  0  0  0  0  0  0
    4.0310   -0.8361    0.0000 N   0  0  0  0  0  0  0  0  0  0  0  0
    2.6598   -1.4441    0.0000 C   0  0  0  0  0  0  0  0  0  0  0  0
   -2.5071   -0.8930    0.0000 C   0  0  0  0  0  0  0  0  0  0  0  0
   -3.7192   -0.0095    0.0000 C   0  0  0  0  0  0  0  0  0  0  0  0
   -3.5602    1.4821    0.0000 O   0  0  0  0  0  0  0  0  0  0  0  0
   -5.0905   -0.6175    0.0000 O   0  0  0  0  0  0  0  0  0  0  0  0
  2  1  1  6
  2  3  1  0
  3  4  1  0
  4  5  2  0
  5  6  1  0
  6  7  2  0
  7  8  1  0
  8  9  2  0
  2 10  1  0
 10 11  1  0
 11 12  2  0
 11 13  1  0
  9  4  1  0
M  END
>  <rName>  (4097) 
bAla_3Rpyrid3ylmethyl

>  <PQ_SYMBOL>  (4097) 
bAla_3Rpyrid3ylmethyl

>  <FULL_NAME>  (4097) 
(R)-3-amino-4-(pyridin-3-yl)butanoic acid

>  <IUPAC_CONDENSED>  (4097) 
bAla(3R-pyrid-3-ylmethyl)

>  <IUPAC>  (4097) 
(3R)-3-amino-4-(pyridin-3-yl)butanoic acid

>  <TYPE>  (4097) 
Backbone

>  <CLASS>  (4097) 
beta

>  <ANALOG>  (4097) 
Phe

>  <MOL_WT>  (4097) 
180.20699999999997

>  <LOGP>  (4097) 
0.4261000000000001

>  <TPSA>  (4097) 
76.21

>  <POPULARITY>  (4097) 
4.4

>  <PROTECTED>  (4097) 
TRUE

>  <SMILES>  (4097) 
N[C@H](Cc1(cccnc1))CC(=O)O

>  <INCHIKEY>  (4097) 
OODABKPTGCZGHL-MRVPVSSYSA-N

$$$$
bAla_3Rpyrid4ylmethyl
     RDKit          2D

 13 13  0  0  0  0  0  0  0  0999 V2000
   -0.9767    1.2065    0.0000 N   0  0  0  0  0  0  0  0  0  0  0  0
   -1.1358   -0.2850    0.0000 C   0  0  0  0  0  0  0  0  0  0  0  0
    0.0764   -1.1685    0.0000 C   0  0  0  0  0  0  0  0  0  0  0  0
    1.4476   -0.5605    0.0000 C   0  0  0  0  0  0  0  0  0  0  0  0
    1.6067    0.9310    0.0000 C   0  0  0  0  0  0  0  0  0  0  0  0
    2.9779    1.5390    0.0000 C   0  0  0  0  0  0  0  0  0  0  0  0
    4.1901    0.6555    0.0000 N   0  0  0  0  0  0  0  0  0  0  0  0
    4.0310   -0.8361    0.0000 C   0  0  0  0  0  0  0  0  0  0  0  0
    2.6598   -1.4441    0.0000 C   0  0  0  0  0  0  0  0  0  0  0  0
   -2.5071   -0.8930    0.0000 C   0  0  0  0  0  0  0  0  0  0  0  0
   -3.7192   -0.0095    0.0000 C   0  0  0  0  0  0  0  0  0  0  0  0
   -3.5602    1.4821    0.0000 O   0  0  0  0  0  0  0  0  0  0  0  0
   -5.0905   -0.6175    0.0000 O   0  0  0  0  0  0  0  0  0  0  0  0
  2  1  1  6
  2  3  1  0
  3  4  1  0
  4  5  1  0
  5  6  2  0
  6  7  1  0
  7  8  2  0
  8  9  1  0
  2 10  1  0
 10 11  1  0
 11 12  2  0
 11 13  1  0
  9  4  2  0
M  END
>  <rName>  (4098) 
bAla_3Rpyrid4ylmethyl

>  <PQ_SYMBOL>  (4098) 
bAla_3Rpyrid4ylmethyl

>  <FULL_NAME>  (4098) 
(R)-3-amino-4-(pyridin-4-yl)butanoic acid

>  <IUPAC_CONDENSED>  (4098) 
bAla(3R-pyrid-4-ylmethyl)

>  <IUPAC>  (4098) 
(3R)-3-amino-4-(pyridin-4-yl)butanoic acid

>  <TYPE>  (4098) 
Backbone

>  <CLASS>  (4098) 
beta

>  <ANALOG>  (4098) 
Phe

>  <MOL_WT>  (4098) 
180.20699999999997

>  <LOGP>  (4098) 
0.4261000000000001

>  <TPSA>  (4098) 
76.21

>  <POPULARITY>  (4098) 
4.9

>  <PROTECTED>  (4098) 
TRUE

>  <SMILES>  (4098) 
N[C@H](Cc1(ccncc1))CC(=O)O

>  <INCHIKEY>  (4098) 
HPMMXBBRJNNDBV-MRVPVSSYSA-N

$$$$
bAla_3RsBu_R
     RDKit          2D

 10  9  0  0  0  0  0  0  0  0999 V2000
    0.0468    2.0175    0.0000 N   0  0  0  0  0  0  0  0  0  0  0  0
   -0.3729    0.5774    0.0000 C   0  0  0  0  0  0  0  0  0  0  0  0
   -1.8299    0.2209    0.0000 C   0  0  0  0  0  0  0  0  0  0  0  0
   -2.8672    1.3044    0.0000 C   0  0  0  0  0  0  0  0  0  0  0  0
   -2.2497   -1.2192    0.0000 C   0  0  0  0  0  0  0  0  0  0  0  0
   -1.2124   -2.3027    0.0000 C   0  0  0  0  0  0  0  0  0  0  0  0
    0.6643   -0.5061    0.0000 C   0  0  0  0  0  0  0  0  0  0  0  0
    2.1213   -0.1496    0.0000 C   0  0  0  0  0  0  0  0  0  0  0  0
    2.5411    1.2905    0.0000 O   0  0  0  0  0  0  0  0  0  0  0  0
    3.1586   -1.2331    0.0000 O   0  0  0  0  0  0  0  0  0  0  0  0
  2  1  1  6
  2  3  1  0
  3  4  1  1
  3  5  1  0
  5  6  1  0
  2  7  1  0
  7  8  1  0
  8  9  2  0
  8 10  1  0
M  END
>  <rName>  (4099) 
bAla_3RsBu_R

>  <PQ_SYMBOL>  (4099) 
bAla_3RsBu_R

>  <FULL_NAME>  (4099) 
(3R,4R)-3-amino-4-methylhexanoic acid

>  <IUPAC_CONDENSED>  (4099) 
bAla(3R-sBu(R))

>  <IUPAC>  (4099) 
(3R,4R)-3-amino-4-methylhexanoic acid

>  <TYPE>  (4099) 
Backbone

>  <CLASS>  (4099) 
beta

>  <ANALOG>  (4099) 
Ile

>  <MOL_WT>  (4099) 
145.202

>  <LOGP>  (4099) 
0.8344999999999998

>  <TPSA>  (4099) 
63.32000000000001

>  <POPULARITY>  (4099) 
2.2

>  <PROTECTED>  (4099) 
TRUE

>  <SMILES>  (4099) 
N[C@@H]([C@H](C)CC)CC(=O)O

>  <INCHIKEY>  (4099) 
JHEDYGILOIBOTL-PHDIDXHHSA-N

$$$$
bAla_3RsBu_S
     RDKit          2D

 10  9  0  0  0  0  0  0  0  0999 V2000
    0.0468    2.0175    0.0000 N   0  0  0  0  0  0  0  0  0  0  0  0
   -0.3729    0.5774    0.0000 C   0  0  0  0  0  0  0  0  0  0  0  0
   -1.8299    0.2209    0.0000 C   0  0  0  0  0  0  0  0  0  0  0  0
   -2.8672    1.3044    0.0000 C   0  0  0  0  0  0  0  0  0  0  0  0
   -2.2497   -1.2192    0.0000 C   0  0  0  0  0  0  0  0  0  0  0  0
   -1.2124   -2.3027    0.0000 C   0  0  0  0  0  0  0  0  0  0  0  0
    0.6643   -0.5061    0.0000 C   0  0  0  0  0  0  0  0  0  0  0  0
    2.1213   -0.1496    0.0000 C   0  0  0  0  0  0  0  0  0  0  0  0
    2.5411    1.2905    0.0000 O   0  0  0  0  0  0  0  0  0  0  0  0
    3.1586   -1.2331    0.0000 O   0  0  0  0  0  0  0  0  0  0  0  0
  2  1  1  6
  2  3  1  0
  3  4  1  6
  3  5  1  0
  5  6  1  0
  2  7  1  0
  7  8  1  0
  8  9  2  0
  8 10  1  0
M  END
>  <rName>  (4100) 
bAla_3RsBu_S

>  <PQ_SYMBOL>  (4100) 
bAla_3RsBu_S

>  <FULL_NAME>  (4100) 
L-beta-Homoisoleucine

>  <IUPAC_CONDENSED>  (4100) 
bAla(3R-sBu(S))

>  <IUPAC>  (4100) 
(3R,4S)-3-amino-4-methylhexanoic acid

>  <TYPE>  (4100) 
Backbone

>  <CLASS>  (4100) 
beta

>  <ANALOG>  (4100) 
Ile

>  <MOL_WT>  (4100) 
145.202

>  <LOGP>  (4100) 
0.8344999999999998

>  <TPSA>  (4100) 
63.32000000000001

>  <POPULARITY>  (4100) 
24.9

>  <PROTECTED>  (4100) 
TRUE

>  <SMILES>  (4100) 
N[C@@H]([C@@H](C)CC)CC(=O)O

>  <INCHIKEY>  (4100) 
JHEDYGILOIBOTL-NTSWFWBYSA-N

$$$$
bAla_3RtBu
     RDKit          2D

 10  9  0  0  0  0  0  0  0  0999 V2000
   -0.0629    1.7674    0.0000 N   0  0  0  0  0  0  0  0  0  0  0  0
   -0.3412    0.2934    0.0000 C   0  0  0  0  0  0  0  0  0  0  0  0
   -1.7568   -0.2026    0.0000 C   0  0  0  0  0  0  0  0  0  0  0  0
   -2.2528    1.2130    0.0000 C   0  0  0  0  0  0  0  0  0  0  0  0
   -1.2608   -1.6182    0.0000 C   0  0  0  0  0  0  0  0  0  0  0  0
   -3.1725   -0.6986    0.0000 C   0  0  0  0  0  0  0  0  0  0  0  0
    0.7961   -0.6846    0.0000 C   0  0  0  0  0  0  0  0  0  0  0  0
    2.2118   -0.1886    0.0000 C   0  0  0  0  0  0  0  0  0  0  0  0
    2.4900    1.2854    0.0000 O   0  0  0  0  0  0  0  0  0  0  0  0
    3.3491   -1.1666    0.0000 O   0  0  0  0  0  0  0  0  0  0  0  0
  2  1  1  6
  2  3  1  0
  3  4  1  0
  3  5  1  0
  3  6  1  0
  2  7  1  0
  7  8  1  0
  8  9  2  0
  8 10  1  0
M  END
>  <rName>  (4101) 
bAla_3RtBu

>  <PQ_SYMBOL>  (4101) 
bAla_3RtBu

>  <FULL_NAME>  (4101) 
(R)-3-Amino-4,4-dimethylpentanoic acid

>  <IUPAC_CONDENSED>  (4101) 
bAla(3R-tBu)

>  <IUPAC>  (4101) 
(3R)-3-amino-4,4-dimethylpentanoic acid

>  <TYPE>  (4101) 
Backbone

>  <CLASS>  (4101) 
beta

>  <ANALOG>  (4101) 
Val

>  <MOL_WT>  (4101) 
145.202

>  <LOGP>  (4101) 
0.8344999999999998

>  <TPSA>  (4101) 
63.32000000000001

>  <POPULARITY>  (4101) 
7.4

>  <PROTECTED>  (4101) 
TRUE

>  <SMILES>  (4101) 
N[C@@H](C(C)(C)C)CC(=O)O

>  <INCHIKEY>  (4101) 
MIMSUZKTGRXZNZ-RXMQYKEDSA-N

$$$$
bAla_3Rthiazol2yl
     RDKit          2D

 11 11  0  0  0  0  0  0  0  0999 V2000
   -0.7304   -1.8619    0.0000 N   0  0  0  0  0  0  0  0  0  0  0  0
   -0.2874   -0.4288    0.0000 C   0  0  0  0  0  0  0  0  0  0  0  0
    1.1751   -0.0958    0.0000 C   0  0  0  0  0  0  0  0  0  0  0  0
    2.3042   -1.0834    0.0000 N   0  0  0  0  0  0  0  0  0  0  0  0
    3.5923   -0.3148    0.0000 C   0  0  0  0  0  0  0  0  0  0  0  0
    3.2594    1.1478    0.0000 C   0  0  0  0  0  0  0  0  0  0  0  0
    1.7655    1.2831    0.0000 S   0  0  0  0  0  0  0  0  0  0  0  0
   -1.3071    0.6714    0.0000 C   0  0  0  0  0  0  0  0  0  0  0  0
   -2.7697    0.3385    0.0000 C   0  0  0  0  0  0  0  0  0  0  0  0
   -3.2126   -1.0946    0.0000 O   0  0  0  0  0  0  0  0  0  0  0  0
   -3.7893    1.4386    0.0000 O   0  0  0  0  0  0  0  0  0  0  0  0
  2  1  1  6
  2  3  1  0
  3  4  2  0
  4  5  1  0
  5  6  2  0
  6  7  1  0
  2  8  1  0
  8  9  1  0
  9 10  2  0
  9 11  1  0
  7  3  1  0
M  END
>  <rName>  (4102) 
bAla_3Rthiazol2yl

>  <PQ_SYMBOL>  (4102) 
bAla_3Rthiazol2yl

>  <FULL_NAME>  (4102) 
(3R)-3-amino-3-(1,3-thiazol-2-yl)propanoic acid

>  <IUPAC_CONDENSED>  (4102) 
bAla(3R-thiazol-2-yl)

>  <IUPAC>  (4102) 
(3R)-3-amino-3-(thiazol-2-yl)propanoic acid

>  <TYPE>  (4102) 
Backbone

>  <CLASS>  (4102) 
beta

>  <ANALOG>  (4102) 
X

>  <MOL_WT>  (4102) 
172.209

>  <LOGP>  (4102) 
0.6176000000000001

>  <TPSA>  (4102) 
76.21

>  <POPULARITY>  (4102) 
5.6

>  <PROTECTED>  (4102) 
TRUE

>  <SMILES>  (4102) 
N[C@@H](c1(nccs1))CC(=O)O

>  <INCHIKEY>  (4102) 
RYXFYJOVBFTPTP-SCSAIBSYSA-N

$$$$
bAla_3Rthiazol2yl_5Br
     RDKit          2D

 12 12  0  0  0  0  0  0  0  0999 V2000
   -1.3362   -1.8972    0.0000 N   0  0  0  0  0  0  0  0  0  0  0  0
   -0.7147   -0.5320    0.0000 C   0  0  0  0  0  0  0  0  0  0  0  0
    0.7783   -0.3876    0.0000 C   0  0  0  0  0  0  0  0  0  0  0  0
    1.7727   -1.5106    0.0000 N   0  0  0  0  0  0  0  0  0  0  0  0
    3.1480   -0.9119    0.0000 C   0  0  0  0  0  0  0  0  0  0  0  0
    3.0036    0.5811    0.0000 C   0  0  0  0  0  0  0  0  0  0  0  0
    4.1266    1.5755    0.0000 Br  0  0  0  0  0  0  0  0  0  0  0  0
    1.5390    0.9052    0.0000 S   0  0  0  0  0  0  0  0  0  0  0  0
   -1.5863    0.6888    0.0000 C   0  0  0  0  0  0  0  0  0  0  0  0
   -3.0794    0.5444    0.0000 C   0  0  0  0  0  0  0  0  0  0  0  0
   -3.7008   -0.8208    0.0000 O   0  0  0  0  0  0  0  0  0  0  0  0
   -3.9509    1.7652    0.0000 O   0  0  0  0  0  0  0  0  0  0  0  0
  2  1  1  6
  2  3  1  0
  3  4  2  0
  4  5  1  0
  5  6  2  0
  6  7  1  0
  6  8  1  0
  2  9  1  0
  9 10  1  0
 10 11  2  0
 10 12  1  0
  8  3  1  0
M  END
>  <rName>  (4103) 
bAla_3Rthiazol2yl_5Br

>  <PQ_SYMBOL>  (4103) 
bAla_3Rthiazol2yl_5Br

>  <FULL_NAME>  (4103) 
(3R)-3-amino-3-(5-bromo-1,3-thiazol-2-yl)propanoic acid

>  <IUPAC_CONDENSED>  (4103) 
bAla(3R-thiazol-2-yl(5-Br))

>  <IUPAC>  (4103) 
(3R)-3-amino-3-(5-bromothiazol-2-yl)propanoic acid

>  <TYPE>  (4103) 
Backbone

>  <CLASS>  (4103) 
beta

>  <ANALOG>  (4103) 
X

>  <MOL_WT>  (4103) 
251.10499999999996

>  <LOGP>  (4103) 
1.3801000000000003

>  <TPSA>  (4103) 
76.21

>  <POPULARITY>  (4103) 
2.8

>  <PROTECTED>  (4103) 
TRUE

>  <SMILES>  (4103) 
N[C@@H](c1(ncc(Br)s1))CC(=O)O

>  <INCHIKEY>  (4103) 
INHMQMVQKLVSSP-GSVOUGTGSA-N

$$$$
bAla_3Rthiazol4yl
     RDKit          2D

 11 11  0  0  0  0  0  0  0  0999 V2000
   -0.7304   -1.8619    0.0000 N   0  0  0  0  0  0  0  0  0  0  0  0
   -0.2874   -0.4288    0.0000 C   0  0  0  0  0  0  0  0  0  0  0  0
    1.1751   -0.0958    0.0000 C   0  0  0  0  0  0  0  0  0  0  0  0
    2.3042   -1.0834    0.0000 C   0  0  0  0  0  0  0  0  0  0  0  0
    3.5923   -0.3148    0.0000 S   0  0  0  0  0  0  0  0  0  0  0  0
    3.2594    1.1478    0.0000 C   0  0  0  0  0  0  0  0  0  0  0  0
    1.7655    1.2831    0.0000 N   0  0  0  0  0  0  0  0  0  0  0  0
   -1.3071    0.6714    0.0000 C   0  0  0  0  0  0  0  0  0  0  0  0
   -2.7697    0.3385    0.0000 C   0  0  0  0  0  0  0  0  0  0  0  0
   -3.2126   -1.0946    0.0000 O   0  0  0  0  0  0  0  0  0  0  0  0
   -3.7893    1.4386    0.0000 O   0  0  0  0  0  0  0  0  0  0  0  0
  2  1  1  6
  2  3  1  0
  3  4  2  0
  4  5  1  0
  5  6  1  0
  6  7  2  0
  2  8  1  0
  8  9  1  0
  9 10  2  0
  9 11  1  0
  7  3  1  0
M  END
>  <rName>  (4104) 
bAla_3Rthiazol4yl

>  <PQ_SYMBOL>  (4104) 
bAla_3Rthiazol4yl

>  <FULL_NAME>  (4104) 
(3R)-3-amino-3-(1,3-thiazol-4-yl)propanoic acid

>  <IUPAC_CONDENSED>  (4104) 
bAla(3R-thiazol-4-yl)

>  <IUPAC>  (4104) 
(3R)-3-amino-3-(thiazol-4-yl)propanoic acid

>  <TYPE>  (4104) 
Backbone

>  <CLASS>  (4104) 
beta

>  <ANALOG>  (4104) 
X

>  <MOL_WT>  (4104) 
172.209

>  <LOGP>  (4104) 
0.6175999999999999

>  <TPSA>  (4104) 
76.21

>  <POPULARITY>  (4104) 
4.4

>  <PROTECTED>  (4104) 
TRUE

>  <SMILES>  (4104) 
N[C@@H](c1(cscn1))CC(=O)O

>  <INCHIKEY>  (4104) 
KUFBSYVFRLJHQT-SCSAIBSYSA-N

$$$$
bAla_3Rthien2yl
     RDKit          2D

 11 11  0  0  0  0  0  0  0  0999 V2000
   -0.7304   -1.8619    0.0000 N   0  0  0  0  0  0  0  0  0  0  0  0
   -0.2874   -0.4288    0.0000 C   0  0  0  0  0  0  0  0  0  0  0  0
    1.1751   -0.0958    0.0000 C   0  0  0  0  0  0  0  0  0  0  0  0
    2.3042   -1.0834    0.0000 C   0  0  0  0  0  0  0  0  0  0  0  0
    3.5923   -0.3148    0.0000 C   0  0  0  0  0  0  0  0  0  0  0  0
    3.2594    1.1478    0.0000 C   0  0  0  0  0  0  0  0  0  0  0  0
    1.7655    1.2831    0.0000 S   0  0  0  0  0  0  0  0  0  0  0  0
   -1.3071    0.6714    0.0000 C   0  0  0  0  0  0  0  0  0  0  0  0
   -2.7697    0.3385    0.0000 C   0  0  0  0  0  0  0  0  0  0  0  0
   -3.2126   -1.0946    0.0000 O   0  0  0  0  0  0  0  0  0  0  0  0
   -3.7893    1.4386    0.0000 O   0  0  0  0  0  0  0  0  0  0  0  0
  2  1  1  6
  2  3  1  0
  3  4  2  0
  4  5  1  0
  5  6  2  0
  6  7  1  0
  2  8  1  0
  8  9  1  0
  9 10  2  0
  9 11  1  0
  7  3  1  0
M  END
>  <rName>  (4105) 
bAla_3Rthien2yl

>  <PQ_SYMBOL>  (4105) 
bAla_3Rthien2yl

>  <FULL_NAME>  (4105) 
(R)-3-amino-3-(thiophen-2-yl)propanoic acid

>  <IUPAC_CONDENSED>  (4105) 
bAla(3R-thien-2-yl)

>  <IUPAC>  (4105) 
(3R)-3-amino-3-(thiophen-2-yl)propanoic acid

>  <TYPE>  (4105) 
Backbone

>  <CLASS>  (4105) 
beta

>  <ANALOG>  (4105) 
X

>  <MOL_WT>  (4105) 
171.221

>  <LOGP>  (4105) 
1.2226000000000001

>  <TPSA>  (4105) 
63.32000000000001

>  <POPULARITY>  (4105) 
9.6

>  <PROTECTED>  (4105) 
TRUE

>  <SMILES>  (4105) 
N[C@@H](c1(cccs1))CC(=O)O

>  <INCHIKEY>  (4105) 
GYAYLYLPTPXESE-RXMQYKEDSA-N

$$$$
bAla_3Rthien2yl_5Br
     RDKit          2D

 12 12  0  0  0  0  0  0  0  0999 V2000
   -1.3362   -1.8972    0.0000 N   0  0  0  0  0  0  0  0  0  0  0  0
   -0.7147   -0.5320    0.0000 C   0  0  0  0  0  0  0  0  0  0  0  0
    0.7783   -0.3876    0.0000 C   0  0  0  0  0  0  0  0  0  0  0  0
    1.7727   -1.5106    0.0000 C   0  0  0  0  0  0  0  0  0  0  0  0
    3.1480   -0.9119    0.0000 C   0  0  0  0  0  0  0  0  0  0  0  0
    3.0036    0.5811    0.0000 C   0  0  0  0  0  0  0  0  0  0  0  0
    4.1266    1.5755    0.0000 Br  0  0  0  0  0  0  0  0  0  0  0  0
    1.5390    0.9052    0.0000 S   0  0  0  0  0  0  0  0  0  0  0  0
   -1.5863    0.6888    0.0000 C   0  0  0  0  0  0  0  0  0  0  0  0
   -3.0794    0.5444    0.0000 C   0  0  0  0  0  0  0  0  0  0  0  0
   -3.7008   -0.8208    0.0000 O   0  0  0  0  0  0  0  0  0  0  0  0
   -3.9509    1.7652    0.0000 O   0  0  0  0  0  0  0  0  0  0  0  0
  2  1  1  6
  2  3  1  0
  3  4  2  0
  4  5  1  0
  5  6  2  0
  6  7  1  0
  6  8  1  0
  2  9  1  0
  9 10  1  0
 10 11  2  0
 10 12  1  0
  8  3  1  0
M  END
>  <rName>  (4106) 
bAla_3Rthien2yl_5Br

>  <PQ_SYMBOL>  (4106) 
bAla_3Rthien2yl_5Br

>  <FULL_NAME>  (4106) 
(3R)-3-Amino-3-(5-bromothiophen-2-yl)propanoic acid

>  <IUPAC_CONDENSED>  (4106) 
bAla(3R-thien-2-yl(5-Br))

>  <IUPAC>  (4106) 
(3R)-3-amino-3-(5-bromothiophen-2-yl)propanoic acid

>  <TYPE>  (4106) 
Backbone

>  <CLASS>  (4106) 
beta

>  <ANALOG>  (4106) 
X

>  <MOL_WT>  (4106) 
250.11699999999996

>  <LOGP>  (4106) 
1.9851

>  <TPSA>  (4106) 
63.32000000000001

>  <POPULARITY>  (4106) 
3.2

>  <PROTECTED>  (4106) 
TRUE

>  <SMILES>  (4106) 
N[C@@H](c1(ccc(Br)s1))CC(=O)O

>  <INCHIKEY>  (4106) 
ULEZVSZRHZKPRW-SCSAIBSYSA-N

$$$$
bAla_3Rthien2yl_5Me
     RDKit          2D

 12 12  0  0  0  0  0  0  0  0999 V2000
   -1.3362   -1.8972    0.0000 N   0  0  0  0  0  0  0  0  0  0  0  0
   -0.7147   -0.5320    0.0000 C   0  0  0  0  0  0  0  0  0  0  0  0
    0.7783   -0.3876    0.0000 C   0  0  0  0  0  0  0  0  0  0  0  0
    1.7727   -1.5106    0.0000 C   0  0  0  0  0  0  0  0  0  0  0  0
    3.1480   -0.9119    0.0000 C   0  0  0  0  0  0  0  0  0  0  0  0
    3.0036    0.5811    0.0000 C   0  0  0  0  0  0  0  0  0  0  0  0
    4.1266    1.5755    0.0000 C   0  0  0  0  0  0  0  0  0  0  0  0
    1.5390    0.9052    0.0000 S   0  0  0  0  0  0  0  0  0  0  0  0
   -1.5863    0.6888    0.0000 C   0  0  0  0  0  0  0  0  0  0  0  0
   -3.0794    0.5444    0.0000 C   0  0  0  0  0  0  0  0  0  0  0  0
   -3.7008   -0.8208    0.0000 O   0  0  0  0  0  0  0  0  0  0  0  0
   -3.9509    1.7652    0.0000 O   0  0  0  0  0  0  0  0  0  0  0  0
  2  1  1  6
  2  3  1  0
  3  4  2  0
  4  5  1  0
  5  6  2  0
  6  7  1  0
  6  8  1  0
  2  9  1  0
  9 10  1  0
 10 11  2  0
 10 12  1  0
  8  3  1  0
M  END
>  <rName>  (4107) 
bAla_3Rthien2yl_5Me

>  <PQ_SYMBOL>  (4107) 
bAla_3Rthien2yl_5Me

>  <FULL_NAME>  (4107) 
(3R)-3-amino-3-(5-methylthiophen-2-yl)propanoic acid

>  <IUPAC_CONDENSED>  (4107) 
bAla(3R-thien-2-yl(5-Me))

>  <IUPAC>  (4107) 
(3R)-3-amino-3-(5-methylthiophen-2-yl)propanoic acid

>  <TYPE>  (4107) 
Backbone

>  <CLASS>  (4107) 
beta

>  <ANALOG>  (4107) 
X

>  <MOL_WT>  (4107) 
185.24799999999996

>  <LOGP>  (4107) 
1.53102

>  <TPSA>  (4107) 
63.32000000000001

>  <POPULARITY>  (4107) 
4.8

>  <PROTECTED>  (4107) 
TRUE

>  <SMILES>  (4107) 
N[C@@H](c1(ccc(C)s1))CC(=O)O

>  <INCHIKEY>  (4107) 
RQUGFBQKYPDSSM-ZCFIWIBFSA-N

$$$$
bAla_3Rthien2ylmethyl
     RDKit          2D

 12 12  0  0  0  0  0  0  0  0999 V2000
   -0.6782    1.2367    0.0000 N   0  0  0  0  0  0  0  0  0  0  0  0
   -0.8112   -0.2574    0.0000 C   0  0  0  0  0  0  0  0  0  0  0  0
    0.4162   -1.1196    0.0000 C   0  0  0  0  0  0  0  0  0  0  0  0
    1.7766   -0.4878    0.0000 C   0  0  0  0  0  0  0  0  0  0  0  0
    3.0874   -1.2170    0.0000 C   0  0  0  0  0  0  0  0  0  0  0  0
    4.1860   -0.1957    0.0000 C   0  0  0  0  0  0  0  0  0  0  0  0
    3.5542    1.1647    0.0000 C   0  0  0  0  0  0  0  0  0  0  0  0
    2.0651    0.9842    0.0000 S   0  0  0  0  0  0  0  0  0  0  0  0
   -2.1716   -0.8892    0.0000 C   0  0  0  0  0  0  0  0  0  0  0  0
   -3.3991   -0.0270    0.0000 C   0  0  0  0  0  0  0  0  0  0  0  0
   -3.2660    1.4671    0.0000 O   0  0  0  0  0  0  0  0  0  0  0  0
   -4.7595   -0.6589    0.0000 O   0  0  0  0  0  0  0  0  0  0  0  0
  2  1  1  1
  2  3  1  0
  3  4  1  0
  4  5  2  0
  5  6  1  0
  6  7  2  0
  7  8  1  0
  2  9  1  0
  9 10  1  0
 10 11  2  0
 10 12  1  0
  8  4  1  0
M  END
>  <rName>  (4108) 
bAla_3Rthien2ylmethyl

>  <PQ_SYMBOL>  (4108) 
bAla_3Rthien2ylmethyl

>  <FULL_NAME>  (4108) 
(R)-3-amino-4-(thiophen-2-yl)butanoic acid

>  <IUPAC_CONDENSED>  (4108) 
bAla(3R-thien-2-ylmethyl)

>  <IUPAC>  (4108) 
(3R)-3-amino-4-(thiophen-2-yl)butanoic acid

>  <TYPE>  (4108) 
Backbone

>  <CLASS>  (4108) 
beta

>  <ANALOG>  (4108) 
Phe

>  <MOL_WT>  (4108) 
185.24799999999996

>  <LOGP>  (4108) 
1.0926

>  <TPSA>  (4108) 
63.32000000000001

>  <POPULARITY>  (4108) 
5.5

>  <PROTECTED>  (4108) 
TRUE

>  <SMILES>  (4108) 
N[C@@H](Cc1(cccs1))CC(=O)O

>  <INCHIKEY>  (4108) 
LRHQHHDPWZCVTR-LURJTMIESA-N

$$$$
bAla_3Rthien3yl
     RDKit          2D

 11 11  0  0  0  0  0  0  0  0999 V2000
   -0.7304   -1.8619    0.0000 N   0  0  0  0  0  0  0  0  0  0  0  0
   -0.2874   -0.4288    0.0000 C   0  0  0  0  0  0  0  0  0  0  0  0
    1.1751   -0.0958    0.0000 C   0  0  0  0  0  0  0  0  0  0  0  0
    2.3042   -1.0834    0.0000 C   0  0  0  0  0  0  0  0  0  0  0  0
    3.5923   -0.3148    0.0000 C   0  0  0  0  0  0  0  0  0  0  0  0
    3.2594    1.1478    0.0000 S   0  0  0  0  0  0  0  0  0  0  0  0
    1.7655    1.2831    0.0000 C   0  0  0  0  0  0  0  0  0  0  0  0
   -1.3071    0.6714    0.0000 C   0  0  0  0  0  0  0  0  0  0  0  0
   -2.7697    0.3385    0.0000 C   0  0  0  0  0  0  0  0  0  0  0  0
   -3.2126   -1.0946    0.0000 O   0  0  0  0  0  0  0  0  0  0  0  0
   -3.7893    1.4386    0.0000 O   0  0  0  0  0  0  0  0  0  0  0  0
  2  1  1  6
  2  3  1  0
  3  4  1  0
  4  5  2  0
  5  6  1  0
  6  7  1  0
  2  8  1  0
  8  9  1  0
  9 10  2  0
  9 11  1  0
  7  3  2  0
M  END
>  <rName>  (4109) 
bAla_3Rthien3yl

>  <PQ_SYMBOL>  (4109) 
bAla_3Rthien3yl

>  <FULL_NAME>  (4109) 
(R)-3-amino-3-(thiophen-3-yl)propanoic acid

>  <IUPAC_CONDENSED>  (4109) 
bAla(3R-thien-3-yl)

>  <IUPAC>  (4109) 
(3R)-3-amino-3-(thiophen-3-yl)propanoic acid

>  <TYPE>  (4109) 
Backbone

>  <CLASS>  (4109) 
beta

>  <ANALOG>  (4109) 
X

>  <MOL_WT>  (4109) 
171.22099999999998

>  <LOGP>  (4109) 
1.2226000000000001

>  <TPSA>  (4109) 
63.32000000000001

>  <POPULARITY>  (4109) 
7.5

>  <PROTECTED>  (4109) 
TRUE

>  <SMILES>  (4109) 
N[C@@H](c1(ccsc1))CC(=O)O

>  <INCHIKEY>  (4109) 
UPDVATYZQLTZOZ-ZCFIWIBFSA-N

$$$$
bAla_3Rthien3ylmethyl
     RDKit          2D

 12 12  0  0  0  0  0  0  0  0999 V2000
   -0.6782    1.2367    0.0000 N   0  0  0  0  0  0  0  0  0  0  0  0
   -0.8112   -0.2574    0.0000 C   0  0  0  0  0  0  0  0  0  0  0  0
    0.4162   -1.1196    0.0000 C   0  0  0  0  0  0  0  0  0  0  0  0
    1.7766   -0.4878    0.0000 C   0  0  0  0  0  0  0  0  0  0  0  0
    3.0874   -1.2170    0.0000 C   0  0  0  0  0  0  0  0  0  0  0  0
    4.1860   -0.1957    0.0000 C   0  0  0  0  0  0  0  0  0  0  0  0
    3.5542    1.1647    0.0000 S   0  0  0  0  0  0  0  0  0  0  0  0
    2.0651    0.9842    0.0000 C   0  0  0  0  0  0  0  0  0  0  0  0
   -2.1716   -0.8892    0.0000 C   0  0  0  0  0  0  0  0  0  0  0  0
   -3.3991   -0.0270    0.0000 C   0  0  0  0  0  0  0  0  0  0  0  0
   -3.2660    1.4671    0.0000 O   0  0  0  0  0  0  0  0  0  0  0  0
   -4.7595   -0.6589    0.0000 O   0  0  0  0  0  0  0  0  0  0  0  0
  2  1  1  6
  2  3  1  0
  3  4  1  0
  4  5  1  0
  5  6  2  0
  6  7  1  0
  7  8  1  0
  2  9  1  0
  9 10  1  0
 10 11  2  0
 10 12  1  0
  8  4  2  0
M  END
>  <rName>  (4110) 
bAla_3Rthien3ylmethyl

>  <PQ_SYMBOL>  (4110) 
bAla_3Rthien3ylmethyl

>  <FULL_NAME>  (4110) 
(R)-3-amino-4-(thiophen-3-yl)butanoic acid

>  <IUPAC_CONDENSED>  (4110) 
bAla(3R-thien-3-ylmethyl)

>  <IUPAC>  (4110) 
(3R)-3-amino-4-(thiophen-3-yl)butanoic acid

>  <TYPE>  (4110) 
Backbone

>  <CLASS>  (4110) 
beta

>  <ANALOG>  (4110) 
Phe

>  <MOL_WT>  (4110) 
185.24799999999996

>  <LOGP>  (4110) 
1.0926

>  <TPSA>  (4110) 
63.32000000000001

>  <POPULARITY>  (4110) 
5.1

>  <PROTECTED>  (4110) 
TRUE

>  <SMILES>  (4110) 
N[C@H](Cc1(ccsc1))CC(=O)O

>  <INCHIKEY>  (4110) 
AZWUDBISUBOQFK-SSDOTTSWSA-N

$$$$
bAla_3S1_3benzodioxol5yl
     RDKit          2D

 15 16  0  0  0  0  0  0  0  0999 V2000
    1.9903    1.8680    0.0000 N   0  0  0  0  0  0  0  0  0  0  0  0
    1.6215    0.4140    0.0000 C   0  0  0  0  0  0  0  0  0  0  0  0
    0.1779    0.0064    0.0000 C   0  0  0  0  0  0  0  0  0  0  0  0
   -0.1909   -1.4475    0.0000 C   0  0  0  0  0  0  0  0  0  0  0  0
   -1.6344   -1.8551    0.0000 C   0  0  0  0  0  0  0  0  0  0  0  0
   -2.7092   -0.8087    0.0000 C   0  0  0  0  0  0  0  0  0  0  0  0
   -4.2059   -0.9073    0.0000 O   0  0  0  0  0  0  0  0  0  0  0  0
   -4.7622    0.4858    0.0000 C   0  0  0  0  0  0  0  0  0  0  0  0
   -3.6092    1.4453    0.0000 O   0  0  0  0  0  0  0  0  0  0  0  0
   -2.3404    0.6452    0.0000 C   0  0  0  0  0  0  0  0  0  0  0  0
   -0.8968    1.0528    0.0000 C   0  0  0  0  0  0  0  0  0  0  0  0
    2.6963   -0.6323    0.0000 C   0  0  0  0  0  0  0  0  0  0  0  0
    4.1398   -0.2247    0.0000 C   0  0  0  0  0  0  0  0  0  0  0  0
    4.5086    1.2292    0.0000 O   0  0  0  0  0  0  0  0  0  0  0  0
    5.2146   -1.2711    0.0000 O   0  0  0  0  0  0  0  0  0  0  0  0
  2  1  1  1
  2  3  1  0
  3  4  1  0
  4  5  2  0
  5  6  1  0
  6  7  1  0
  7  8  1  0
  8  9  1  0
  9 10  1  0
 10 11  1  0
  2 12  1  0
 12 13  1  0
 13 14  2  0
 13 15  1  0
 10  6  2  0
 11  3  2  0
M  END
>  <rName>  (4111) 
bAla_3S1_3benzodioxol5yl

>  <PQ_SYMBOL>  (4111) 
bAla_3S1_3benzodioxol5yl

>  <FULL_NAME>  (4111) 
(S)-3-Amino-3-benzo[1,3]dioxol-5-yl-propionic acid

>  <IUPAC_CONDENSED>  (4111) 
bAla(3S-1,3-benzodioxol-5-yl)

>  <IUPAC>  (4111) 
(3S)-3-amino-3-(7,9-dioxabicyclo[4.3.0]nona-1,3,5-trien-3-yl)propanoic acid

>  <TYPE>  (4111) 
Backbone

>  <CLASS>  (4111) 
beta

>  <ANALOG>  (4111) 
X

>  <MOL_WT>  (4111) 
209.20099999999996

>  <LOGP>  (4111) 
0.8898000000000001

>  <TPSA>  (4111) 
81.78

>  <POPULARITY>  (4111) 
7.5

>  <PROTECTED>  (4111) 
TRUE

>  <SMILES>  (4111) 
N[C@H](c2(ccc1(OCOc1c2)))CC(=O)O

>  <INCHIKEY>  (4111) 
DJWMFJZOSZPAHI-ZETCQYMHSA-N

$$$$
bAla_3SBn
     RDKit          2D

 13 13  0  0  0  0  0  0  0  0999 V2000
   -0.9767    1.2065    0.0000 N   0  0  0  0  0  0  0  0  0  0  0  0
   -1.1358   -0.2850    0.0000 C   0  0  0  0  0  0  0  0  0  0  0  0
    0.0764   -1.1685    0.0000 C   0  0  0  0  0  0  0  0  0  0  0  0
    1.4476   -0.5605    0.0000 C   0  0  0  0  0  0  0  0  0  0  0  0
    1.6067    0.9310    0.0000 C   0  0  0  0  0  0  0  0  0  0  0  0
    2.9779    1.5390    0.0000 C   0  0  0  0  0  0  0  0  0  0  0  0
    4.1901    0.6555    0.0000 C   0  0  0  0  0  0  0  0  0  0  0  0
    4.0310   -0.8361    0.0000 C   0  0  0  0  0  0  0  0  0  0  0  0
    2.6598   -1.4441    0.0000 C   0  0  0  0  0  0  0  0  0  0  0  0
   -2.5071   -0.8930    0.0000 C   0  0  0  0  0  0  0  0  0  0  0  0
   -3.7192   -0.0095    0.0000 C   0  0  0  0  0  0  0  0  0  0  0  0
   -3.5602    1.4821    0.0000 O   0  0  0  0  0  0  0  0  0  0  0  0
   -5.0905   -0.6175    0.0000 O   0  0  0  0  0  0  0  0  0  0  0  0
  2  1  1  1
  2  3  1  0
  3  4  1  0
  4  5  2  0
  5  6  1  0
  6  7  2  0
  7  8  1  0
  8  9  2  0
  2 10  1  0
 10 11  1  0
 11 12  2  0
 11 13  1  0
  9  4  1  0
M  END
>  <rName>  (4112) 
bAla_3SBn

>  <PQ_SYMBOL>  (4112) 
bAla_3SBn

>  <FULL_NAME>  (4112) 
L-beta-Homophenylalanine

>  <IUPAC_CONDENSED>  (4112) 
bAla(3S-Bn)

>  <IUPAC>  (4112) 
(3S)-3-amino-4-phenylbutanoic acid

>  <TYPE>  (4112) 
Backbone

>  <CLASS>  (4112) 
beta

>  <ANALOG>  (4112) 
Phe

>  <MOL_WT>  (4112) 
179.21899999999994

>  <LOGP>  (4112) 
1.0311000000000001

>  <TPSA>  (4112) 
63.32000000000001

>  <POPULARITY>  (4112) 
11.7

>  <PROTECTED>  (4112) 
TRUE

>  <SMILES>  (4112) 
N[C@@H](Cc1(ccccc1))CC(=O)O

>  <INCHIKEY>  (4112) 
OFVBLKINTLPEGH-VIFPVBQESA-N

$$$$
bAla_3SBn_23_45_6pentaF
     RDKit          2D

 18 18  0  0  0  0  0  0  0  0999 V2000
   -1.9160    1.1192    0.0000 N   0  0  0  0  0  0  0  0  0  0  0  0
   -2.0699   -0.3729    0.0000 C   0  0  0  0  0  0  0  0  0  0  0  0
   -0.8547   -1.2522    0.0000 C   0  0  0  0  0  0  0  0  0  0  0  0
    0.5144   -0.6395    0.0000 C   0  0  0  0  0  0  0  0  0  0  0  0
    0.6684    0.8526    0.0000 C   0  0  0  0  0  0  0  0  0  0  0  0
   -0.5468    1.7319    0.0000 F   0  0  0  0  0  0  0  0  0  0  0  0
    2.0375    1.4653    0.0000 C   0  0  0  0  0  0  0  0  0  0  0  0
    2.1915    2.9574    0.0000 F   0  0  0  0  0  0  0  0  0  0  0  0
    3.2527    0.5859    0.0000 C   0  0  0  0  0  0  0  0  0  0  0  0
    4.6219    1.1987    0.0000 F   0  0  0  0  0  0  0  0  0  0  0  0
    3.0988   -0.9061    0.0000 C   0  0  0  0  0  0  0  0  0  0  0  0
    4.3140   -1.7855    0.0000 F   0  0  0  0  0  0  0  0  0  0  0  0
    1.7296   -1.5189    0.0000 C   0  0  0  0  0  0  0  0  0  0  0  0
    1.5757   -3.0109    0.0000 F   0  0  0  0  0  0  0  0  0  0  0  0
   -3.4391   -0.9856    0.0000 C   0  0  0  0  0  0  0  0  0  0  0  0
   -4.6543   -0.1062    0.0000 C   0  0  0  0  0  0  0  0  0  0  0  0
   -4.5003    1.3858    0.0000 O   0  0  0  0  0  0  0  0  0  0  0  0
   -6.0234   -0.7190    0.0000 O   0  0  0  0  0  0  0  0  0  0  0  0
  2  1  1  1
  2  3  1  0
  3  4  1  0
  4  5  2  0
  5  6  1  0
  5  7  1  0
  7  8  1  0
  7  9  2  0
  9 10  1  0
  9 11  1  0
 11 12  1  0
 11 13  2  0
 13 14  1  0
  2 15  1  0
 15 16  1  0
 16 17  2  0
 16 18  1  0
 13  4  1  0
M  END
>  <rName>  (4113) 
bAla_3SBn_23_45_6pentaF

>  <PQ_SYMBOL>  (4113) 
bAla_3SBn_23_45_6pentaF

>  <FULL_NAME>  (4113) 
(S)-3-amino-4-(perfluorophenyl)butanoic acid

>  <IUPAC_CONDENSED>  (4113) 
bAla(3S-Bn(2,3,4,5,6-pentaF))

>  <IUPAC>  (4113) 
(3S)-3-amino-4-(2,3,4,5,6-pentafluorophenyl)butanoic acid

>  <TYPE>  (4113) 
Backbone

>  <CLASS>  (4113) 
beta

>  <ANALOG>  (4113) 
Phe

>  <MOL_WT>  (4113) 
269.1689999999999

>  <LOGP>  (4113) 
1.7266000000000001

>  <TPSA>  (4113) 
63.32000000000001

>  <POPULARITY>  (4113) 
4.2

>  <PROTECTED>  (4113) 
TRUE

>  <SMILES>  (4113) 
N[C@@H](Cc1(c(F)c(F)c(F)c(F)c1F))CC(=O)O

>  <INCHIKEY>  (4113) 
IBSVXBXKRWGCRU-VKHMYHEASA-N

$$$$
bAla_3SBn_24_5triF
     RDKit          2D

 16 16  0  0  0  0  0  0  0  0999 V2000
   -1.5978    1.2314    0.0000 N   0  0  0  0  0  0  0  0  0  0  0  0
   -1.8564   -0.2461    0.0000 C   0  0  0  0  0  0  0  0  0  0  0  0
   -0.7061   -1.2089    0.0000 C   0  0  0  0  0  0  0  0  0  0  0  0
    0.7028   -0.6941    0.0000 C   0  0  0  0  0  0  0  0  0  0  0  0
    0.9614    0.7835    0.0000 C   0  0  0  0  0  0  0  0  0  0  0  0
    2.3703    1.2983    0.0000 C   0  0  0  0  0  0  0  0  0  0  0  0
    2.6289    2.7758    0.0000 F   0  0  0  0  0  0  0  0  0  0  0  0
    3.5205    0.3356    0.0000 C   0  0  0  0  0  0  0  0  0  0  0  0
    4.9294    0.8504    0.0000 F   0  0  0  0  0  0  0  0  0  0  0  0
    3.2619   -1.1420    0.0000 C   0  0  0  0  0  0  0  0  0  0  0  0
    1.8531   -1.6568    0.0000 C   0  0  0  0  0  0  0  0  0  0  0  0
    1.5944   -3.1343    0.0000 F   0  0  0  0  0  0  0  0  0  0  0  0
   -3.2653   -0.7610    0.0000 C   0  0  0  0  0  0  0  0  0  0  0  0
   -4.4156    0.2018    0.0000 C   0  0  0  0  0  0  0  0  0  0  0  0
   -4.1570    1.6793    0.0000 O   0  0  0  0  0  0  0  0  0  0  0  0
   -5.8245   -0.3130    0.0000 O   0  0  0  0  0  0  0  0  0  0  0  0
  2  1  1  1
  2  3  1  0
  3  4  1  0
  4  5  1  0
  5  6  2  0
  6  7  1  0
  6  8  1  0
  8  9  1  0
  8 10  2  0
 10 11  1  0
 11 12  1  0
  2 13  1  0
 13 14  1  0
 14 15  2  0
 14 16  1  0
 11  4  2  0
M  END
>  <rName>  (4114) 
bAla_3SBn_24_5triF

>  <PQ_SYMBOL>  (4114) 
bAla_3SBn_24_5triF

>  <FULL_NAME>  (4114) 
(S)-3-amino-4-(2,4,5-trifluorophenyl)butanoic acid

>  <IUPAC_CONDENSED>  (4114) 
bAla(3S-Bn(2,4,5-triF))

>  <IUPAC>  (4114) 
(3S)-3-amino-4-(2,4,5-trifluorophenyl)butanoic acid

>  <TYPE>  (4114) 
Backbone

>  <CLASS>  (4114) 
beta

>  <ANALOG>  (4114) 
Phe

>  <MOL_WT>  (4114) 
233.18899999999996

>  <LOGP>  (4114) 
1.4484000000000001

>  <TPSA>  (4114) 
63.32000000000001

>  <POPULARITY>  (4114) 
5.5

>  <PROTECTED>  (4114) 
TRUE

>  <SMILES>  (4114) 
N[C@@H](Cc1(cc(F)c(F)cc1F))CC(=O)O

>  <INCHIKEY>  (4114) 
KEFQQJVYCWLKPL-LURJTMIESA-N

$$$$
bAla_3SBn_24diCl
     RDKit          2D

 15 15  0  0  0  0  0  0  0  0999 V2000
   -1.5080    1.3251    0.0000 N   0  0  0  0  0  0  0  0  0  0  0  0
   -1.6741   -0.1657    0.0000 C   0  0  0  0  0  0  0  0  0  0  0  0
   -0.4660   -1.0549    0.0000 C   0  0  0  0  0  0  0  0  0  0  0  0
    0.9080   -0.4533    0.0000 C   0  0  0  0  0  0  0  0  0  0  0  0
    1.0741    1.0375    0.0000 C   0  0  0  0  0  0  0  0  0  0  0  0
    2.4481    1.6391    0.0000 C   0  0  0  0  0  0  0  0  0  0  0  0
    3.6562    0.7499    0.0000 C   0  0  0  0  0  0  0  0  0  0  0  0
    5.0303    1.3515    0.0000 Cl  0  0  0  0  0  0  0  0  0  0  0  0
    3.4901   -0.7409    0.0000 C   0  0  0  0  0  0  0  0  0  0  0  0
    2.1161   -1.3425    0.0000 C   0  0  0  0  0  0  0  0  0  0  0  0
    1.9500   -2.8333    0.0000 Cl  0  0  0  0  0  0  0  0  0  0  0  0
   -3.0482   -0.7673    0.0000 C   0  0  0  0  0  0  0  0  0  0  0  0
   -4.2562    0.1219    0.0000 C   0  0  0  0  0  0  0  0  0  0  0  0
   -4.0902    1.6127    0.0000 O   0  0  0  0  0  0  0  0  0  0  0  0
   -5.6303   -0.4797    0.0000 O   0  0  0  0  0  0  0  0  0  0  0  0
  2  1  1  1
  2  3  1  0
  3  4  1  0
  4  5  1  0
  5  6  2  0
  6  7  1  0
  7  8  1  0
  7  9  2  0
  9 10  1  0
 10 11  1  0
  2 12  1  0
 12 13  1  0
 13 14  2  0
 13 15  1  0
 10  4  2  0
M  END
>  <rName>  (4115) 
bAla_3SBn_24diCl

>  <PQ_SYMBOL>  (4115) 
bAla_3SBn_24diCl

>  <FULL_NAME>  (4115) 
(S)-3-amino-4-(2,4-dichlorophenyl)butanoic acid

>  <IUPAC_CONDENSED>  (4115) 
bAla(3S-Bn(2,4-diCl))

>  <IUPAC>  (4115) 
(3S)-3-amino-4-(2,4-dichlorophenyl)butanoic acid

>  <TYPE>  (4115) 
Backbone

>  <CLASS>  (4115) 
beta

>  <ANALOG>  (4115) 
Phe

>  <MOL_WT>  (4115) 
248.10899999999998

>  <LOGP>  (4115) 
2.3379000000000003

>  <TPSA>  (4115) 
63.32000000000001

>  <POPULARITY>  (4115) 
4.9

>  <PROTECTED>  (4115) 
TRUE

>  <SMILES>  (4115) 
N[C@@H](Cc1(ccc(Cl)cc1Cl))CC(=O)O

>  <INCHIKEY>  (4115) 
TYJLKWUTGBOOBY-QMMMGPOBSA-N

$$$$
bAla_3SBn_24diF
     RDKit          2D

 15 15  0  0  0  0  0  0  0  0999 V2000
   -1.5080    1.3251    0.0000 N   0  0  0  0  0  0  0  0  0  0  0  0
   -1.6741   -0.1657    0.0000 C   0  0  0  0  0  0  0  0  0  0  0  0
   -0.4660   -1.0549    0.0000 C   0  0  0  0  0  0  0  0  0  0  0  0
    0.9080   -0.4533    0.0000 C   0  0  0  0  0  0  0  0  0  0  0  0
    1.0741    1.0375    0.0000 C   0  0  0  0  0  0  0  0  0  0  0  0
    2.4481    1.6391    0.0000 C   0  0  0  0  0  0  0  0  0  0  0  0
    3.6562    0.7499    0.0000 C   0  0  0  0  0  0  0  0  0  0  0  0
    5.0303    1.3515    0.0000 F   0  0  0  0  0  0  0  0  0  0  0  0
    3.4901   -0.7409    0.0000 C   0  0  0  0  0  0  0  0  0  0  0  0
    2.1161   -1.3425    0.0000 C   0  0  0  0  0  0  0  0  0  0  0  0
    1.9500   -2.8333    0.0000 F   0  0  0  0  0  0  0  0  0  0  0  0
   -3.0482   -0.7673    0.0000 C   0  0  0  0  0  0  0  0  0  0  0  0
   -4.2562    0.1219    0.0000 C   0  0  0  0  0  0  0  0  0  0  0  0
   -4.0902    1.6127    0.0000 O   0  0  0  0  0  0  0  0  0  0  0  0
   -5.6303   -0.4797    0.0000 O   0  0  0  0  0  0  0  0  0  0  0  0
  2  1  1  1
  2  3  1  0
  3  4  1  0
  4  5  1  0
  5  6  2  0
  6  7  1  0
  7  8  1  0
  7  9  2  0
  9 10  1  0
 10 11  1  0
  2 12  1  0
 12 13  1  0
 13 14  2  0
 13 15  1  0
 10  4  2  0
M  END
>  <rName>  (4116) 
bAla_3SBn_24diF

>  <PQ_SYMBOL>  (4116) 
bAla_3SBn_24diF

>  <FULL_NAME>  (4116) 
(S)-3-Amino-4-(2,4-difluorophenyl)butanoic acid

>  <IUPAC_CONDENSED>  (4116) 
bAla(3S-Bn(2,4-diF))

>  <IUPAC>  (4116) 
(3S)-3-amino-4-(2,4-difluorophenyl)butanoic acid

>  <TYPE>  (4116) 
Backbone

>  <CLASS>  (4116) 
beta

>  <ANALOG>  (4116) 
Phe

>  <MOL_WT>  (4116) 
215.19899999999996

>  <LOGP>  (4116) 
1.3093000000000001

>  <TPSA>  (4116) 
63.32000000000001

>  <POPULARITY>  (4116) 
2.2

>  <PROTECTED>  (4116) 
TRUE

>  <SMILES>  (4116) 
N[C@@H](Cc1(ccc(F)cc1F))CC(=O)O

>  <INCHIKEY>  (4116) 
UJSFLDYTZWFWMS-QMMMGPOBSA-N

$$$$
bAla_3SBn_2Br
     RDKit          2D

 14 14  0  0  0  0  0  0  0  0999 V2000
   -1.2485    1.3349    0.0000 N   0  0  0  0  0  0  0  0  0  0  0  0
   -1.3063   -0.1640    0.0000 C   0  0  0  0  0  0  0  0  0  0  0  0
   -0.0372   -0.9636    0.0000 C   0  0  0  0  0  0  0  0  0  0  0  0
    1.2898   -0.2643    0.0000 C   0  0  0  0  0  0  0  0  0  0  0  0
    1.3477    1.2346    0.0000 C   0  0  0  0  0  0  0  0  0  0  0  0
    2.6747    1.9339    0.0000 C   0  0  0  0  0  0  0  0  0  0  0  0
    3.9438    1.1344    0.0000 C   0  0  0  0  0  0  0  0  0  0  0  0
    3.8859   -0.3645    0.0000 C   0  0  0  0  0  0  0  0  0  0  0  0
    2.5589   -1.0638    0.0000 C   0  0  0  0  0  0  0  0  0  0  0  0
    2.5010   -2.5627    0.0000 Br  0  0  0  0  0  0  0  0  0  0  0  0
   -2.6334   -0.8633    0.0000 C   0  0  0  0  0  0  0  0  0  0  0  0
   -3.9025   -0.0637    0.0000 C   0  0  0  0  0  0  0  0  0  0  0  0
   -3.8446    1.4351    0.0000 O   0  0  0  0  0  0  0  0  0  0  0  0
   -5.2295   -0.7631    0.0000 O   0  0  0  0  0  0  0  0  0  0  0  0
  2  1  1  1
  2  3  1  0
  3  4  1  0
  4  5  2  0
  5  6  1  0
  6  7  2  0
  7  8  1  0
  8  9  2  0
  9 10  1  0
  2 11  1  0
 11 12  1  0
 12 13  2  0
 12 14  1  0
  9  4  1  0
M  END
>  <rName>  (4117) 
bAla_3SBn_2Br

>  <PQ_SYMBOL>  (4117) 
bAla_3SBn_2Br

>  <FULL_NAME>  (4117) 
(3S)-3-amino-4-(2-bromophenyl)butanoic Acid

>  <IUPAC_CONDENSED>  (4117) 
bAla(3S-Bn(2-Br))

>  <IUPAC>  (4117) 
(3S)-3-amino-4-(2-bromophenyl)butanoic acid

>  <TYPE>  (4117) 
Backbone

>  <CLASS>  (4117) 
beta

>  <ANALOG>  (4117) 
Phe

>  <MOL_WT>  (4117) 
258.11499999999995

>  <LOGP>  (4117) 
1.7936000000000003

>  <TPSA>  (4117) 
63.32000000000001

>  <POPULARITY>  (4117) 
5.4

>  <PROTECTED>  (4117) 
TRUE

>  <SMILES>  (4117) 
N[C@@H](Cc1(ccccc1Br))CC(=O)O

>  <INCHIKEY>  (4117) 
GKIOKKDLKBJXIS-QMMMGPOBSA-N

$$$$
bAla_3SBn_2CF3
     RDKit          2D

 17 17  0  0  0  0  0  0  0  0999 V2000
   -2.0061    1.5285    0.0000 N   0  0  0  0  0  0  0  0  0  0  0  0
   -1.7839    0.0450    0.0000 C   0  0  0  0  0  0  0  0  0  0  0  0
   -0.3881   -0.5042    0.0000 C   0  0  0  0  0  0  0  0  0  0  0  0
    0.7855    0.4299    0.0000 C   0  0  0  0  0  0  0  0  0  0  0  0
    0.5633    1.9134    0.0000 C   0  0  0  0  0  0  0  0  0  0  0  0
    1.7369    2.8476    0.0000 C   0  0  0  0  0  0  0  0  0  0  0  0
    3.1327    2.2983    0.0000 C   0  0  0  0  0  0  0  0  0  0  0  0
    3.3549    0.8148    0.0000 C   0  0  0  0  0  0  0  0  0  0  0  0
    2.1813   -0.1193    0.0000 C   0  0  0  0  0  0  0  0  0  0  0  0
    2.4036   -1.6028    0.0000 C   0  0  0  0  0  0  0  0  0  0  0  0
    2.6258   -3.0862    0.0000 F   0  0  0  0  0  0  0  0  0  0  0  0
    3.8870   -1.3806    0.0000 F   0  0  0  0  0  0  0  0  0  0  0  0
    0.9201   -1.8250    0.0000 F   0  0  0  0  0  0  0  0  0  0  0  0
   -2.9575   -0.8891    0.0000 C   0  0  0  0  0  0  0  0  0  0  0  0
   -4.3533   -0.3398    0.0000 C   0  0  0  0  0  0  0  0  0  0  0  0
   -4.5755    1.1436    0.0000 O   0  0  0  0  0  0  0  0  0  0  0  0
   -5.5269   -1.2740    0.0000 O   0  0  0  0  0  0  0  0  0  0  0  0
  2  1  1  1
  2  3  1  0
  3  4  1  0
  4  5  2  0
  5  6  1  0
  6  7  2  0
  7  8  1  0
  8  9  2  0
  9 10  1  0
 10 11  1  0
 10 12  1  0
 10 13  1  0
  2 14  1  0
 14 15  1  0
 15 16  2  0
 15 17  1  0
  9  4  1  0
M  END
>  <rName>  (4118) 
bAla_3SBn_2CF3

>  <PQ_SYMBOL>  (4118) 
bAla_3SBn_2CF3

>  <FULL_NAME>  (4118) 
(S)-3-amino-4-(2-(trifluoromethyl)phenyl)butanoic acid

>  <IUPAC_CONDENSED>  (4118) 
bAla(3S-Bn(2-CF3))

>  <IUPAC>  (4118) 
(3S)-3-amino-4-(2-(trifluoromethyl)phenyl)butanoic acid

>  <TYPE>  (4118) 
Backbone

>  <CLASS>  (4118) 
beta

>  <ANALOG>  (4118) 
Phe

>  <MOL_WT>  (4118) 
247.21599999999992

>  <LOGP>  (4118) 
2.0499

>  <TPSA>  (4118) 
63.32000000000001

>  <POPULARITY>  (4118) 
4.3

>  <PROTECTED>  (4118) 
TRUE

>  <SMILES>  (4118) 
N[C@@H](Cc1(ccccc1C(F)(F)F))CC(=O)O

>  <INCHIKEY>  (4118) 
VPYQIUMVXMMGSD-QMMMGPOBSA-N

$$$$
bAla_3SBn_2CN
     RDKit          2D

 15 15  0  0  0  0  0  0  0  0999 V2000
   -1.5648    1.4565    0.0000 N   0  0  0  0  0  0  0  0  0  0  0  0
   -1.4725   -0.0406    0.0000 C   0  0  0  0  0  0  0  0  0  0  0  0
   -0.1298   -0.7093    0.0000 C   0  0  0  0  0  0  0  0  0  0  0  0
    1.1206    0.1192    0.0000 C   0  0  0  0  0  0  0  0  0  0  0  0
    1.0284    1.6163    0.0000 C   0  0  0  0  0  0  0  0  0  0  0  0
    2.2788    2.4448    0.0000 C   0  0  0  0  0  0  0  0  0  0  0  0
    3.6215    1.7761    0.0000 C   0  0  0  0  0  0  0  0  0  0  0  0
    3.7138    0.2790    0.0000 C   0  0  0  0  0  0  0  0  0  0  0  0
    2.4633   -0.5495    0.0000 C   0  0  0  0  0  0  0  0  0  0  0  0
    2.5556   -2.0467    0.0000 C   0  0  0  0  0  0  0  0  0  0  0  0
    2.6479   -3.5438    0.0000 N   0  0  0  0  0  0  0  0  0  0  0  0
   -2.7230   -0.8691    0.0000 C   0  0  0  0  0  0  0  0  0  0  0  0
   -4.0657   -0.2004    0.0000 C   0  0  0  0  0  0  0  0  0  0  0  0
   -4.1579    1.2967    0.0000 O   0  0  0  0  0  0  0  0  0  0  0  0
   -5.3161   -1.0289    0.0000 O   0  0  0  0  0  0  0  0  0  0  0  0
  2  1  1  1
  2  3  1  0
  3  4  1  0
  4  5  2  0
  5  6  1  0
  6  7  2  0
  7  8  1  0
  8  9  2  0
  9 10  1  0
 10 11  3  0
  2 12  1  0
 12 13  1  0
 13 14  2  0
 13 15  1  0
  9  4  1  0
M  END
>  <rName>  (4119) 
bAla_3SBn_2CN

>  <PQ_SYMBOL>  (4119) 
bAla_3SBn_2CN

>  <FULL_NAME>  (4119) 
(S)-3-amino-4-(2-cyanophenyl)butanoic acid

>  <IUPAC_CONDENSED>  (4119) 
bAla(3S-Bn(2-CN))

>  <IUPAC>  (4119) 
(3S)-3-amino-4-(2-(nitrilomethyl)phenyl)butanoic acid

>  <TYPE>  (4119) 
Backbone

>  <CLASS>  (4119) 
beta

>  <ANALOG>  (4119) 
Phe

>  <MOL_WT>  (4119) 
204.22899999999996

>  <LOGP>  (4119) 
0.9027800000000001

>  <TPSA>  (4119) 
87.11

>  <POPULARITY>  (4119) 
2.9

>  <PROTECTED>  (4119) 
TRUE

>  <SMILES>  (4119) 
N[C@@H](Cc1(ccccc1C#N))CC(=O)O

>  <INCHIKEY>  (4119) 
VAIQDFORVKLNPH-JTQLQIEISA-N

$$$$
bAla_3SBn_2Cl
     RDKit          2D

 14 14  0  0  0  0  0  0  0  0999 V2000
   -1.2485    1.3349    0.0000 N   0  0  0  0  0  0  0  0  0  0  0  0
   -1.3063   -0.1640    0.0000 C   0  0  0  0  0  0  0  0  0  0  0  0
   -0.0372   -0.9636    0.0000 C   0  0  0  0  0  0  0  0  0  0  0  0
    1.2898   -0.2643    0.0000 C   0  0  0  0  0  0  0  0  0  0  0  0
    1.3477    1.2346    0.0000 C   0  0  0  0  0  0  0  0  0  0  0  0
    2.6747    1.9339    0.0000 C   0  0  0  0  0  0  0  0  0  0  0  0
    3.9438    1.1344    0.0000 C   0  0  0  0  0  0  0  0  0  0  0  0
    3.8859   -0.3645    0.0000 C   0  0  0  0  0  0  0  0  0  0  0  0
    2.5589   -1.0638    0.0000 C   0  0  0  0  0  0  0  0  0  0  0  0
    2.5010   -2.5627    0.0000 Cl  0  0  0  0  0  0  0  0  0  0  0  0
   -2.6334   -0.8633    0.0000 C   0  0  0  0  0  0  0  0  0  0  0  0
   -3.9025   -0.0637    0.0000 C   0  0  0  0  0  0  0  0  0  0  0  0
   -3.8446    1.4351    0.0000 O   0  0  0  0  0  0  0  0  0  0  0  0
   -5.2295   -0.7631    0.0000 O   0  0  0  0  0  0  0  0  0  0  0  0
  2  1  1  1
  2  3  1  0
  3  4  1  0
  4  5  2  0
  5  6  1  0
  6  7  2  0
  7  8  1  0
  8  9  2  0
  9 10  1  0
  2 11  1  0
 11 12  1  0
 12 13  2  0
 12 14  1  0
  9  4  1  0
M  END
>  <rName>  (4120) 
bAla_3SBn_2Cl

>  <PQ_SYMBOL>  (4120) 
bAla_3SBn_2Cl

>  <FULL_NAME>  (4120) 
(S)-3-amino-4-(2-chlorophenyl)butanoic acid

>  <IUPAC_CONDENSED>  (4120) 
bAla(3S-Bn(2-Cl))

>  <IUPAC>  (4120) 
(3S)-3-amino-4-(2-chlorophenyl)butanoic acid

>  <TYPE>  (4120) 
Backbone

>  <CLASS>  (4120) 
beta

>  <ANALOG>  (4120) 
Phe

>  <MOL_WT>  (4120) 
213.66399999999993

>  <LOGP>  (4120) 
1.6845

>  <TPSA>  (4120) 
63.32000000000001

>  <POPULARITY>  (4120) 
5.1

>  <PROTECTED>  (4120) 
TRUE

>  <SMILES>  (4120) 
N[C@@H](Cc1(ccccc1Cl))CC(=O)O

>  <INCHIKEY>  (4120) 
URIOIHMVAXZFMB-QMMMGPOBSA-N

$$$$
bAla_3SBn_2F
     RDKit          2D

 14 14  0  0  0  0  0  0  0  0999 V2000
   -1.2485    1.3349    0.0000 N   0  0  0  0  0  0  0  0  0  0  0  0
   -1.3063   -0.1640    0.0000 C   0  0  0  0  0  0  0  0  0  0  0  0
   -0.0372   -0.9636    0.0000 C   0  0  0  0  0  0  0  0  0  0  0  0
    1.2898   -0.2643    0.0000 C   0  0  0  0  0  0  0  0  0  0  0  0
    1.3477    1.2346    0.0000 C   0  0  0  0  0  0  0  0  0  0  0  0
    2.6747    1.9339    0.0000 C   0  0  0  0  0  0  0  0  0  0  0  0
    3.9438    1.1344    0.0000 C   0  0  0  0  0  0  0  0  0  0  0  0
    3.8859   -0.3645    0.0000 C   0  0  0  0  0  0  0  0  0  0  0  0
    2.5589   -1.0638    0.0000 C   0  0  0  0  0  0  0  0  0  0  0  0
    2.5010   -2.5627    0.0000 F   0  0  0  0  0  0  0  0  0  0  0  0
   -2.6334   -0.8633    0.0000 C   0  0  0  0  0  0  0  0  0  0  0  0
   -3.9025   -0.0637    0.0000 C   0  0  0  0  0  0  0  0  0  0  0  0
   -3.8446    1.4351    0.0000 O   0  0  0  0  0  0  0  0  0  0  0  0
   -5.2295   -0.7631    0.0000 O   0  0  0  0  0  0  0  0  0  0  0  0
  2  1  1  1
  2  3  1  0
  3  4  1  0
  4  5  2  0
  5  6  1  0
  6  7  2  0
  7  8  1  0
  8  9  2  0
  9 10  1  0
  2 11  1  0
 11 12  1  0
 12 13  2  0
 12 14  1  0
  9  4  1  0
M  END
>  <rName>  (4121) 
bAla_3SBn_2F

>  <PQ_SYMBOL>  (4121) 
bAla_3SBn_2F

>  <FULL_NAME>  (4121) 
(S)-3-amino-4-(2-fluorophenyl)butanoic acid

>  <IUPAC_CONDENSED>  (4121) 
bAla(3S-Bn(2-F))

>  <IUPAC>  (4121) 
(3S)-3-amino-4-(2-fluorophenyl)butanoic acid

>  <TYPE>  (4121) 
Backbone

>  <CLASS>  (4121) 
beta

>  <ANALOG>  (4121) 
Phe

>  <MOL_WT>  (4121) 
197.20899999999995

>  <LOGP>  (4121) 
1.1702000000000001

>  <TPSA>  (4121) 
63.32000000000001

>  <POPULARITY>  (4121) 
5.7

>  <PROTECTED>  (4121) 
TRUE

>  <SMILES>  (4121) 
N[C@@H](Cc1(ccccc1F))CC(=O)O

>  <INCHIKEY>  (4121) 
CTZJKXPNBFSWAK-QMMMGPOBSA-N

$$$$
bAla_3SBn_2Me
     RDKit          2D

 14 14  0  0  0  0  0  0  0  0999 V2000
   -1.2485    1.3349    0.0000 N   0  0  0  0  0  0  0  0  0  0  0  0
   -1.3063   -0.1640    0.0000 C   0  0  0  0  0  0  0  0  0  0  0  0
   -0.0372   -0.9636    0.0000 C   0  0  0  0  0  0  0  0  0  0  0  0
    1.2898   -0.2643    0.0000 C   0  0  0  0  0  0  0  0  0  0  0  0
    1.3477    1.2346    0.0000 C   0  0  0  0  0  0  0  0  0  0  0  0
    2.6747    1.9339    0.0000 C   0  0  0  0  0  0  0  0  0  0  0  0
    3.9438    1.1344    0.0000 C   0  0  0  0  0  0  0  0  0  0  0  0
    3.8859   -0.3645    0.0000 C   0  0  0  0  0  0  0  0  0  0  0  0
    2.5589   -1.0638    0.0000 C   0  0  0  0  0  0  0  0  0  0  0  0
    2.5010   -2.5627    0.0000 C   0  0  0  0  0  0  0  0  0  0  0  0
   -2.6334   -0.8633    0.0000 C   0  0  0  0  0  0  0  0  0  0  0  0
   -3.9025   -0.0637    0.0000 C   0  0  0  0  0  0  0  0  0  0  0  0
   -3.8446    1.4351    0.0000 O   0  0  0  0  0  0  0  0  0  0  0  0
   -5.2295   -0.7631    0.0000 O   0  0  0  0  0  0  0  0  0  0  0  0
  2  1  1  1
  2  3  1  0
  3  4  1  0
  4  5  2  0
  5  6  1  0
  6  7  2  0
  7  8  1  0
  8  9  2  0
  9 10  1  0
  2 11  1  0
 11 12  1  0
 12 13  2  0
 12 14  1  0
  9  4  1  0
M  END
>  <rName>  (4122) 
bAla_3SBn_2Me

>  <PQ_SYMBOL>  (4122) 
bAla_3SBn_2Me

>  <FULL_NAME>  (4122) 
(S)-3-Amino-4-(o-tolyl)butanoic acid

>  <IUPAC_CONDENSED>  (4122) 
bAla(3S-Bn(2-Me))

>  <IUPAC>  (4122) 
(3S)-3-amino-4-(2-methylphenyl)butanoic acid

>  <TYPE>  (4122) 
Backbone

>  <CLASS>  (4122) 
beta

>  <ANALOG>  (4122) 
Phe

>  <MOL_WT>  (4122) 
193.24599999999995

>  <LOGP>  (4122) 
1.33952

>  <TPSA>  (4122) 
63.32000000000001

>  <POPULARITY>  (4122) 
2.2

>  <PROTECTED>  (4122) 
TRUE

>  <SMILES>  (4122) 
N[C@@H](Cc1(ccccc1C))CC(=O)O

>  <INCHIKEY>  (4122) 
PBGLTHUKEHCADU-JTQLQIEISA-N

$$$$
bAla_3SBn_34diCl
     RDKit          2D

 15 15  0  0  0  0  0  0  0  0999 V2000
   -1.7108    1.2179    0.0000 N   0  0  0  0  0  0  0  0  0  0  0  0
   -1.8532   -0.2753    0.0000 C   0  0  0  0  0  0  0  0  0  0  0  0
   -0.6312   -1.1453    0.0000 C   0  0  0  0  0  0  0  0  0  0  0  0
    0.7332   -0.5220    0.0000 C   0  0  0  0  0  0  0  0  0  0  0  0
    0.8756    0.9713    0.0000 C   0  0  0  0  0  0  0  0  0  0  0  0
    2.2399    1.5946    0.0000 C   0  0  0  0  0  0  0  0  0  0  0  0
    3.4619    0.7247    0.0000 C   0  0  0  0  0  0  0  0  0  0  0  0
    4.8263    1.3480    0.0000 Cl  0  0  0  0  0  0  0  0  0  0  0  0
    3.3195   -0.7686    0.0000 C   0  0  0  0  0  0  0  0  0  0  0  0
    4.5415   -1.6385    0.0000 Cl  0  0  0  0  0  0  0  0  0  0  0  0
    1.9552   -1.3919    0.0000 C   0  0  0  0  0  0  0  0  0  0  0  0
   -3.2175   -0.8987    0.0000 C   0  0  0  0  0  0  0  0  0  0  0  0
   -4.4395   -0.0287    0.0000 C   0  0  0  0  0  0  0  0  0  0  0  0
   -4.2971    1.4645    0.0000 O   0  0  0  0  0  0  0  0  0  0  0  0
   -5.8039   -0.6520    0.0000 O   0  0  0  0  0  0  0  0  0  0  0  0
  2  1  1  1
  2  3  1  0
  3  4  1  0
  4  5  1  0
  5  6  2  0
  6  7  1  0
  7  8  1  0
  7  9  2  0
  9 10  1  0
  9 11  1  0
  2 12  1  0
 12 13  1  0
 13 14  2  0
 13 15  1  0
 11  4  2  0
M  END
>  <rName>  (4123) 
bAla_3SBn_34diCl

>  <PQ_SYMBOL>  (4123) 
bAla_3SBn_34diCl

>  <FULL_NAME>  (4123) 
(S)-3-amino-4-(3,4-dichlorophenyl)butanoic acid

>  <IUPAC_CONDENSED>  (4123) 
bAla(3S-Bn(3,4-diCl))

>  <IUPAC>  (4123) 
(3S)-3-amino-4-(3,4-dichlorophenyl)butanoic acid

>  <TYPE>  (4123) 
Backbone

>  <CLASS>  (4123) 
beta

>  <ANALOG>  (4123) 
Phe

>  <MOL_WT>  (4123) 
248.10899999999998

>  <LOGP>  (4123) 
2.3379000000000003

>  <TPSA>  (4123) 
63.32000000000001

>  <POPULARITY>  (4123) 
5.0

>  <PROTECTED>  (4123) 
TRUE

>  <SMILES>  (4123) 
N[C@@H](Cc1(ccc(Cl)c(Cl)c1))CC(=O)O

>  <INCHIKEY>  (4123) 
MVUQWYZNNRALPX-ZETCQYMHSA-N

$$$$
bAla_3SBn_34diF
     RDKit          2D

 15 15  0  0  0  0  0  0  0  0999 V2000
   -1.7108    1.2179    0.0000 N   0  0  0  0  0  0  0  0  0  0  0  0
   -1.8532   -0.2753    0.0000 C   0  0  0  0  0  0  0  0  0  0  0  0
   -0.6312   -1.1453    0.0000 C   0  0  0  0  0  0  0  0  0  0  0  0
    0.7332   -0.5220    0.0000 C   0  0  0  0  0  0  0  0  0  0  0  0
    0.8756    0.9713    0.0000 C   0  0  0  0  0  0  0  0  0  0  0  0
    2.2399    1.5946    0.0000 C   0  0  0  0  0  0  0  0  0  0  0  0
    3.4619    0.7247    0.0000 C   0  0  0  0  0  0  0  0  0  0  0  0
    4.8263    1.3480    0.0000 F   0  0  0  0  0  0  0  0  0  0  0  0
    3.3195   -0.7686    0.0000 C   0  0  0  0  0  0  0  0  0  0  0  0
    4.5415   -1.6385    0.0000 F   0  0  0  0  0  0  0  0  0  0  0  0
    1.9552   -1.3919    0.0000 C   0  0  0  0  0  0  0  0  0  0  0  0
   -3.2175   -0.8987    0.0000 C   0  0  0  0  0  0  0  0  0  0  0  0
   -4.4395   -0.0287    0.0000 C   0  0  0  0  0  0  0  0  0  0  0  0
   -4.2971    1.4645    0.0000 O   0  0  0  0  0  0  0  0  0  0  0  0
   -5.8039   -0.6520    0.0000 O   0  0  0  0  0  0  0  0  0  0  0  0
  2  1  1  1
  2  3  1  0
  3  4  1  0
  4  5  1  0
  5  6  2  0
  6  7  1  0
  7  8  1  0
  7  9  2  0
  9 10  1  0
  9 11  1  0
  2 12  1  0
 12 13  1  0
 13 14  2  0
 13 15  1  0
 11  4  2  0
M  END
>  <rName>  (4124) 
bAla_3SBn_34diF

>  <PQ_SYMBOL>  (4124) 
bAla_3SBn_34diF

>  <FULL_NAME>  (4124) 
(S)-3-amino-4-(3,4-difluorophenyl)butanoic acid

>  <IUPAC_CONDENSED>  (4124) 
bAla(3S-Bn(3,4-diF))

>  <IUPAC>  (4124) 
(3S)-3-amino-4-(3,4-difluorophenyl)butanoic acid

>  <TYPE>  (4124) 
Backbone

>  <CLASS>  (4124) 
beta

>  <ANALOG>  (4124) 
Phe

>  <MOL_WT>  (4124) 
215.19899999999996

>  <LOGP>  (4124) 
1.3093000000000001

>  <TPSA>  (4124) 
63.32000000000001

>  <POPULARITY>  (4124) 
6.7

>  <PROTECTED>  (4124) 
TRUE

>  <SMILES>  (4124) 
N[C@@H](Cc1(ccc(F)c(F)c1))CC(=O)O

>  <INCHIKEY>  (4124) 
LYHJWUKHUZUWDC-ZETCQYMHSA-N

$$$$
bAla_3SBn_35diF
     RDKit          2D

 15 15  0  0  0  0  0  0  0  0999 V2000
   -1.5376    1.1161    0.0000 N   0  0  0  0  0  0  0  0  0  0  0  0
   -1.6938   -0.3757    0.0000 C   0  0  0  0  0  0  0  0  0  0  0  0
   -0.4799   -1.2569    0.0000 C   0  0  0  0  0  0  0  0  0  0  0  0
    0.8902   -0.6462    0.0000 C   0  0  0  0  0  0  0  0  0  0  0  0
    1.0463    0.8457    0.0000 C   0  0  0  0  0  0  0  0  0  0  0  0
    2.4164    1.4564    0.0000 C   0  0  0  0  0  0  0  0  0  0  0  0
    2.5725    2.9482    0.0000 F   0  0  0  0  0  0  0  0  0  0  0  0
    3.6303    0.5752    0.0000 C   0  0  0  0  0  0  0  0  0  0  0  0
    3.4742   -0.9166    0.0000 C   0  0  0  0  0  0  0  0  0  0  0  0
    4.6881   -1.7978    0.0000 F   0  0  0  0  0  0  0  0  0  0  0  0
    2.1041   -1.5273    0.0000 C   0  0  0  0  0  0  0  0  0  0  0  0
   -3.0638   -0.9864    0.0000 C   0  0  0  0  0  0  0  0  0  0  0  0
   -4.2777   -0.1053    0.0000 C   0  0  0  0  0  0  0  0  0  0  0  0
   -4.1216    1.3866    0.0000 O   0  0  0  0  0  0  0  0  0  0  0  0
   -5.6478   -0.7160    0.0000 O   0  0  0  0  0  0  0  0  0  0  0  0
  2  1  1  1
  2  3  1  0
  3  4  1  0
  4  5  2  0
  5  6  1  0
  6  7  1  0
  6  8  2  0
  8  9  1  0
  9 10  1  0
  9 11  2  0
  2 12  1  0
 12 13  1  0
 13 14  2  0
 13 15  1  0
 11  4  1  0
M  END
>  <rName>  (4125) 
bAla_3SBn_35diF

>  <PQ_SYMBOL>  (4125) 
bAla_3SBn_35diF

>  <FULL_NAME>  (4125) 
(S)-3-Amino-4-(3,5-difluorophenyl)butanoic acid

>  <IUPAC_CONDENSED>  (4125) 
bAla(3S-Bn(3,5-diF))

>  <IUPAC>  (4125) 
(3S)-3-amino-4-(3,5-difluorophenyl)butanoic acid

>  <TYPE>  (4125) 
Backbone

>  <CLASS>  (4125) 
beta

>  <ANALOG>  (4125) 
Phe

>  <MOL_WT>  (4125) 
215.19899999999996

>  <LOGP>  (4125) 
1.3093000000000001

>  <TPSA>  (4125) 
63.32000000000001

>  <POPULARITY>  (4125) 
2.2

>  <PROTECTED>  (4125) 
TRUE

>  <SMILES>  (4125) 
N[C@@H](Cc1(cc(F)cc(F)c1))CC(=O)O

>  <INCHIKEY>  (4125) 
JUZLHHFRXMTMCJ-VIFPVBQESA-N

$$$$
bAla_3SBn_3Br
     RDKit          2D

 14 14  0  0  0  0  0  0  0  0999 V2000
   -1.4366    1.2366    0.0000 N   0  0  0  0  0  0  0  0  0  0  0  0
   -1.4962   -0.2622    0.0000 C   0  0  0  0  0  0  0  0  0  0  0  0
   -0.2280   -1.0632    0.0000 C   0  0  0  0  0  0  0  0  0  0  0  0
    1.0998   -0.3654    0.0000 C   0  0  0  0  0  0  0  0  0  0  0  0
    1.1594    1.1334    0.0000 C   0  0  0  0  0  0  0  0  0  0  0  0
    2.4872    1.8312    0.0000 C   0  0  0  0  0  0  0  0  0  0  0  0
    3.7554    1.0302    0.0000 C   0  0  0  0  0  0  0  0  0  0  0  0
    3.6958   -0.4686    0.0000 C   0  0  0  0  0  0  0  0  0  0  0  0
    4.9641   -1.2696    0.0000 Br  0  0  0  0  0  0  0  0  0  0  0  0
    2.3680   -1.1664    0.0000 C   0  0  0  0  0  0  0  0  0  0  0  0
   -2.8240   -0.9600    0.0000 C   0  0  0  0  0  0  0  0  0  0  0  0
   -4.0922   -0.1590    0.0000 C   0  0  0  0  0  0  0  0  0  0  0  0
   -4.0327    1.3398    0.0000 O   0  0  0  0  0  0  0  0  0  0  0  0
   -5.4200   -0.8568    0.0000 O   0  0  0  0  0  0  0  0  0  0  0  0
  2  1  1  1
  2  3  1  0
  3  4  1  0
  4  5  2  0
  5  6  1  0
  6  7  2  0
  7  8  1  0
  8  9  1  0
  8 10  2  0
  2 11  1  0
 11 12  1  0
 12 13  2  0
 12 14  1  0
 10  4  1  0
M  END
>  <rName>  (4126) 
bAla_3SBn_3Br

>  <PQ_SYMBOL>  (4126) 
bAla_3SBn_3Br

>  <FULL_NAME>  (4126) 
(S)-3-amino-4-(3-bromophenyl)butanoic acid

>  <IUPAC_CONDENSED>  (4126) 
bAla(3S-Bn(3-Br))

>  <IUPAC>  (4126) 
(3S)-3-amino-4-(3-bromophenyl)butanoic acid

>  <TYPE>  (4126) 
Backbone

>  <CLASS>  (4126) 
beta

>  <ANALOG>  (4126) 
Phe

>  <MOL_WT>  (4126) 
258.11499999999995

>  <LOGP>  (4126) 
1.7936

>  <TPSA>  (4126) 
63.32000000000001

>  <POPULARITY>  (4126) 
4.7

>  <PROTECTED>  (4126) 
TRUE

>  <SMILES>  (4126) 
N[C@@H](Cc1(cccc(Br)c1))CC(=O)O

>  <INCHIKEY>  (4126) 
RAIGQDRULUGHDH-VIFPVBQESA-N

$$$$
bAla_3SBn_3CF3
     RDKit          2D

 17 17  0  0  0  0  0  0  0  0999 V2000
   -2.5243    1.2650    0.0000 N   0  0  0  0  0  0  0  0  0  0  0  0
   -2.4358   -0.2324    0.0000 C   0  0  0  0  0  0  0  0  0  0  0  0
   -1.0948   -0.9044    0.0000 C   0  0  0  0  0  0  0  0  0  0  0  0
    0.1578   -0.0791    0.0000 C   0  0  0  0  0  0  0  0  0  0  0  0
    0.0693    1.4183    0.0000 C   0  0  0  0  0  0  0  0  0  0  0  0
    1.3218    2.2437    0.0000 C   0  0  0  0  0  0  0  0  0  0  0  0
    2.6628    1.5716    0.0000 C   0  0  0  0  0  0  0  0  0  0  0  0
    2.7513    0.0742    0.0000 C   0  0  0  0  0  0  0  0  0  0  0  0
    1.4988   -0.7511    0.0000 C   0  0  0  0  0  0  0  0  0  0  0  0
    4.0923   -0.5978    0.0000 C   0  0  0  0  0  0  0  0  0  0  0  0
    5.4334   -1.2698    0.0000 F   0  0  0  0  0  0  0  0  0  0  0  0
    3.4203   -1.9388    0.0000 F   0  0  0  0  0  0  0  0  0  0  0  0
    4.7644    0.7432    0.0000 F   0  0  0  0  0  0  0  0  0  0  0  0
   -3.6883   -1.0577    0.0000 C   0  0  0  0  0  0  0  0  0  0  0  0
   -5.0293   -0.3857    0.0000 C   0  0  0  0  0  0  0  0  0  0  0  0
   -5.1178    1.1117    0.0000 O   0  0  0  0  0  0  0  0  0  0  0  0
   -6.2819   -1.2110    0.0000 O   0  0  0  0  0  0  0  0  0  0  0  0
  2  1  1  1
  2  3  1  0
  3  4  1  0
  4  5  1  0
  5  6  2  0
  6  7  1  0
  7  8  2  0
  8  9  1  0
  8 10  1  0
 10 11  1  0
 10 12  1  0
 10 13  1  0
  2 14  1  0
 14 15  1  0
 15 16  2  0
 15 17  1  0
  9  4  2  0
M  END
>  <rName>  (4127) 
bAla_3SBn_3CF3

>  <PQ_SYMBOL>  (4127) 
bAla_3SBn_3CF3

>  <FULL_NAME>  (4127) 
(S)-3-amino-4-(3-(trifluoromethyl)phenyl)butanoic acid

>  <IUPAC_CONDENSED>  (4127) 
bAla(3S-Bn(3-CF3))

>  <IUPAC>  (4127) 
(3S)-3-amino-4-(3-(trifluoromethyl)phenyl)butanoic acid

>  <TYPE>  (4127) 
Backbone

>  <CLASS>  (4127) 
beta

>  <ANALOG>  (4127) 
Phe

>  <MOL_WT>  (4127) 
247.21599999999992

>  <LOGP>  (4127) 
2.0499

>  <TPSA>  (4127) 
63.32000000000001

>  <POPULARITY>  (4127) 
6.3

>  <PROTECTED>  (4127) 
TRUE

>  <SMILES>  (4127) 
N[C@@H](Cc1(cccc(c1)C(F)(F)F))CC(=O)O

>  <INCHIKEY>  (4127) 
UUVNRBNPVFBPTH-VIFPVBQESA-N

$$$$
bAla_3SBn_3CN
     RDKit          2D

 15 15  0  0  0  0  0  0  0  0999 V2000
   -1.9504    1.2312    0.0000 N   0  0  0  0  0  0  0  0  0  0  0  0
   -1.8969   -0.2678    0.0000 C   0  0  0  0  0  0  0  0  0  0  0  0
   -0.5719   -0.9710    0.0000 C   0  0  0  0  0  0  0  0  0  0  0  0
    0.6995   -0.1752    0.0000 C   0  0  0  0  0  0  0  0  0  0  0  0
    0.6460    1.3239    0.0000 C   0  0  0  0  0  0  0  0  0  0  0  0
    1.9175    2.1198    0.0000 C   0  0  0  0  0  0  0  0  0  0  0  0
    3.2424    1.4166    0.0000 C   0  0  0  0  0  0  0  0  0  0  0  0
    3.2959   -0.0825    0.0000 C   0  0  0  0  0  0  0  0  0  0  0  0
    4.6209   -0.7856    0.0000 C   0  0  0  0  0  0  0  0  0  0  0  0
    5.9459   -1.4888    0.0000 N   0  0  0  0  0  0  0  0  0  0  0  0
    2.0245   -0.8783    0.0000 C   0  0  0  0  0  0  0  0  0  0  0  0
   -3.1684   -1.0637    0.0000 C   0  0  0  0  0  0  0  0  0  0  0  0
   -4.4933   -0.3605    0.0000 C   0  0  0  0  0  0  0  0  0  0  0  0
   -4.5468    1.1385    0.0000 O   0  0  0  0  0  0  0  0  0  0  0  0
   -5.7648   -1.1564    0.0000 O   0  0  0  0  0  0  0  0  0  0  0  0
  2  1  1  1
  2  3  1  0
  3  4  1  0
  4  5  2  0
  5  6  1  0
  6  7  2  0
  7  8  1  0
  8  9  1  0
  9 10  3  0
  8 11  2  0
  2 12  1  0
 12 13  1  0
 13 14  2  0
 13 15  1  0
 11  4  1  0
M  END
>  <rName>  (4128) 
bAla_3SBn_3CN

>  <PQ_SYMBOL>  (4128) 
bAla_3SBn_3CN

>  <FULL_NAME>  (4128) 
(3S)-3-amino-4-(3-cyanophenyl)butanoic Acid

>  <IUPAC_CONDENSED>  (4128) 
bAla(3S-Bn(3-CN))

>  <IUPAC>  (4128) 
(3S)-3-amino-4-(3-cyanophenyl)butanoic acid

>  <TYPE>  (4128) 
Backbone

>  <CLASS>  (4128) 
beta

>  <ANALOG>  (4128) 
Phe

>  <MOL_WT>  (4128) 
204.22899999999996

>  <LOGP>  (4128) 
0.9027800000000001

>  <TPSA>  (4128) 
87.11

>  <POPULARITY>  (4128) 
2.2

>  <PROTECTED>  (4128) 
TRUE

>  <SMILES>  (4128) 
N[C@@H](Cc1(cccc(C#N)c1))CC(=O)O

>  <INCHIKEY>  (4128) 
CSBSIUBNUHRWDO-JTQLQIEISA-N

$$$$
bAla_3SBn_3Cl
     RDKit          2D

 14 14  0  0  0  0  0  0  0  0999 V2000
   -1.4366    1.2366    0.0000 N   0  0  0  0  0  0  0  0  0  0  0  0
   -1.4962   -0.2622    0.0000 C   0  0  0  0  0  0  0  0  0  0  0  0
   -0.2280   -1.0632    0.0000 C   0  0  0  0  0  0  0  0  0  0  0  0
    1.0998   -0.3654    0.0000 C   0  0  0  0  0  0  0  0  0  0  0  0
    1.1594    1.1334    0.0000 C   0  0  0  0  0  0  0  0  0  0  0  0
    2.4872    1.8312    0.0000 C   0  0  0  0  0  0  0  0  0  0  0  0
    3.7554    1.0302    0.0000 C   0  0  0  0  0  0  0  0  0  0  0  0
    3.6958   -0.4686    0.0000 C   0  0  0  0  0  0  0  0  0  0  0  0
    4.9641   -1.2696    0.0000 Cl  0  0  0  0  0  0  0  0  0  0  0  0
    2.3680   -1.1664    0.0000 C   0  0  0  0  0  0  0  0  0  0  0  0
   -2.8240   -0.9600    0.0000 C   0  0  0  0  0  0  0  0  0  0  0  0
   -4.0922   -0.1590    0.0000 C   0  0  0  0  0  0  0  0  0  0  0  0
   -4.0327    1.3398    0.0000 O   0  0  0  0  0  0  0  0  0  0  0  0
   -5.4200   -0.8568    0.0000 O   0  0  0  0  0  0  0  0  0  0  0  0
  2  1  1  1
  2  3  1  0
  3  4  1  0
  4  5  2  0
  5  6  1  0
  6  7  2  0
  7  8  1  0
  8  9  1  0
  8 10  2  0
  2 11  1  0
 11 12  1  0
 12 13  2  0
 12 14  1  0
 10  4  1  0
M  END
>  <rName>  (4129) 
bAla_3SBn_3Cl

>  <PQ_SYMBOL>  (4129) 
bAla_3SBn_3Cl

>  <FULL_NAME>  (4129) 
(S)-3-Amino-4-(3-chlorophenyl)butanoic acid

>  <IUPAC_CONDENSED>  (4129) 
bAla(3S-Bn(3-Cl))

>  <IUPAC>  (4129) 
(3S)-3-amino-4-(3-chlorophenyl)butanoic acid

>  <TYPE>  (4129) 
Backbone

>  <CLASS>  (4129) 
beta

>  <ANALOG>  (4129) 
Phe

>  <MOL_WT>  (4129) 
213.66399999999996

>  <LOGP>  (4129) 
1.6845

>  <TPSA>  (4129) 
63.32000000000001

>  <POPULARITY>  (4129) 
5.3

>  <PROTECTED>  (4129) 
TRUE

>  <SMILES>  (4129) 
N[C@@H](Cc1(cccc(Cl)c1))CC(=O)O

>  <INCHIKEY>  (4129) 
IWIJTZNQNXPKGN-VIFPVBQESA-N

$$$$
bAla_3SBn_3F
     RDKit          2D

 14 14  0  0  0  0  0  0  0  0999 V2000
   -1.4366    1.2366    0.0000 N   0  0  0  0  0  0  0  0  0  0  0  0
   -1.4962   -0.2622    0.0000 C   0  0  0  0  0  0  0  0  0  0  0  0
   -0.2280   -1.0632    0.0000 C   0  0  0  0  0  0  0  0  0  0  0  0
    1.0998   -0.3654    0.0000 C   0  0  0  0  0  0  0  0  0  0  0  0
    1.1594    1.1334    0.0000 C   0  0  0  0  0  0  0  0  0  0  0  0
    2.4872    1.8312    0.0000 C   0  0  0  0  0  0  0  0  0  0  0  0
    3.7554    1.0302    0.0000 C   0  0  0  0  0  0  0  0  0  0  0  0
    3.6958   -0.4686    0.0000 C   0  0  0  0  0  0  0  0  0  0  0  0
    4.9641   -1.2696    0.0000 F   0  0  0  0  0  0  0  0  0  0  0  0
    2.3680   -1.1664    0.0000 C   0  0  0  0  0  0  0  0  0  0  0  0
   -2.8240   -0.9600    0.0000 C   0  0  0  0  0  0  0  0  0  0  0  0
   -4.0922   -0.1590    0.0000 C   0  0  0  0  0  0  0  0  0  0  0  0
   -4.0327    1.3398    0.0000 O   0  0  0  0  0  0  0  0  0  0  0  0
   -5.4200   -0.8568    0.0000 O   0  0  0  0  0  0  0  0  0  0  0  0
  2  1  1  1
  2  3  1  0
  3  4  1  0
  4  5  2  0
  5  6  1  0
  6  7  2  0
  7  8  1  0
  8  9  1  0
  8 10  2  0
  2 11  1  0
 11 12  1  0
 12 13  2  0
 12 14  1  0
 10  4  1  0
M  END
>  <rName>  (4130) 
bAla_3SBn_3F

>  <PQ_SYMBOL>  (4130) 
bAla_3SBn_3F

>  <FULL_NAME>  (4130) 
(S)-3-amino-4-(3-fluorophenyl)butanoic acid

>  <IUPAC_CONDENSED>  (4130) 
bAla(3S-Bn(3-F))

>  <IUPAC>  (4130) 
(3S)-3-amino-4-(3-fluorophenyl)butanoic acid

>  <TYPE>  (4130) 
Backbone

>  <CLASS>  (4130) 
beta

>  <ANALOG>  (4130) 
Phe

>  <MOL_WT>  (4130) 
197.20899999999997

>  <LOGP>  (4130) 
1.1702000000000001

>  <TPSA>  (4130) 
63.32000000000001

>  <POPULARITY>  (4130) 
5.9

>  <PROTECTED>  (4130) 
TRUE

>  <SMILES>  (4130) 
N[C@@H](Cc1(cccc(F)c1))CC(=O)O

>  <INCHIKEY>  (4130) 
UVEHSQZQGJXLEV-VIFPVBQESA-N

$$$$
bAla_3SBn_3Me
     RDKit          2D

 14 14  0  0  0  0  0  0  0  0999 V2000
   -1.4366    1.2366    0.0000 N   0  0  0  0  0  0  0  0  0  0  0  0
   -1.4962   -0.2622    0.0000 C   0  0  0  0  0  0  0  0  0  0  0  0
   -0.2280   -1.0632    0.0000 C   0  0  0  0  0  0  0  0  0  0  0  0
    1.0998   -0.3654    0.0000 C   0  0  0  0  0  0  0  0  0  0  0  0
    1.1594    1.1334    0.0000 C   0  0  0  0  0  0  0  0  0  0  0  0
    2.4872    1.8312    0.0000 C   0  0  0  0  0  0  0  0  0  0  0  0
    3.7554    1.0302    0.0000 C   0  0  0  0  0  0  0  0  0  0  0  0
    3.6958   -0.4686    0.0000 C   0  0  0  0  0  0  0  0  0  0  0  0
    4.9641   -1.2696    0.0000 C   0  0  0  0  0  0  0  0  0  0  0  0
    2.3680   -1.1664    0.0000 C   0  0  0  0  0  0  0  0  0  0  0  0
   -2.8240   -0.9600    0.0000 C   0  0  0  0  0  0  0  0  0  0  0  0
   -4.0922   -0.1590    0.0000 C   0  0  0  0  0  0  0  0  0  0  0  0
   -4.0327    1.3398    0.0000 O   0  0  0  0  0  0  0  0  0  0  0  0
   -5.4200   -0.8568    0.0000 O   0  0  0  0  0  0  0  0  0  0  0  0
  2  1  1  1
  2  3  1  0
  3  4  1  0
  4  5  2  0
  5  6  1  0
  6  7  2  0
  7  8  1  0
  8  9  1  0
  8 10  2  0
  2 11  1  0
 11 12  1  0
 12 13  2  0
 12 14  1  0
 10  4  1  0
M  END
>  <rName>  (4131) 
bAla_3SBn_3Me

>  <PQ_SYMBOL>  (4131) 
bAla_3SBn_3Me

>  <FULL_NAME>  (4131) 
(S)-3-amino-4-(m-tolyl)butanoic acid

>  <IUPAC_CONDENSED>  (4131) 
bAla(3S-Bn(3-Me))

>  <IUPAC>  (4131) 
(3S)-3-amino-4-(3-methylphenyl)butanoic acid

>  <TYPE>  (4131) 
Backbone

>  <CLASS>  (4131) 
beta

>  <ANALOG>  (4131) 
Phe

>  <MOL_WT>  (4131) 
193.24599999999995

>  <LOGP>  (4131) 
1.33952

>  <TPSA>  (4131) 
63.32000000000001

>  <POPULARITY>  (4131) 
6.7

>  <PROTECTED>  (4131) 
TRUE

>  <SMILES>  (4131) 
N[C@@H](Cc1(cccc(C)c1))CC(=O)O

>  <INCHIKEY>  (4131) 
SMOOMZALOMCYEF-JTQLQIEISA-N

$$$$
bAla_3SBn_4Br
     RDKit          2D

 14 14  0  0  0  0  0  0  0  0999 V2000
   -1.3163    1.1838    0.0000 N   0  0  0  0  0  0  0  0  0  0  0  0
   -1.5499   -0.2979    0.0000 C   0  0  0  0  0  0  0  0  0  0  0  0
   -0.3836   -1.2411    0.0000 C   0  0  0  0  0  0  0  0  0  0  0  0
    1.0164   -0.7026    0.0000 C   0  0  0  0  0  0  0  0  0  0  0  0
    1.2501    0.7790    0.0000 C   0  0  0  0  0  0  0  0  0  0  0  0
    2.6501    1.3175    0.0000 C   0  0  0  0  0  0  0  0  0  0  0  0
    3.8164    0.3743    0.0000 C   0  0  0  0  0  0  0  0  0  0  0  0
    5.2165    0.9127    0.0000 Br  0  0  0  0  0  0  0  0  0  0  0  0
    3.5828   -1.1074    0.0000 C   0  0  0  0  0  0  0  0  0  0  0  0
    2.1827   -1.6459    0.0000 C   0  0  0  0  0  0  0  0  0  0  0  0
   -2.9500   -0.8363    0.0000 C   0  0  0  0  0  0  0  0  0  0  0  0
   -4.1163    0.1069    0.0000 C   0  0  0  0  0  0  0  0  0  0  0  0
   -3.8826    1.5886    0.0000 O   0  0  0  0  0  0  0  0  0  0  0  0
   -5.5163   -0.4316    0.0000 O   0  0  0  0  0  0  0  0  0  0  0  0
  2  1  1  1
  2  3  1  0
  3  4  1  0
  4  5  1  0
  5  6  2  0
  6  7  1  0
  7  8  1  0
  7  9  2  0
  9 10  1  0
  2 11  1  0
 11 12  1  0
 12 13  2  0
 12 14  1  0
 10  4  2  0
M  END
>  <rName>  (4132) 
bAla_3SBn_4Br

>  <PQ_SYMBOL>  (4132) 
bAla_3SBn_4Br

>  <FULL_NAME>  (4132) 
(S)-3-amino-4-(4-bromophenyl)butanoic acid

>  <IUPAC_CONDENSED>  (4132) 
bAla(3S-Bn(4-Br))

>  <IUPAC>  (4132) 
(3S)-3-amino-4-(4-bromophenyl)butanoic acid

>  <TYPE>  (4132) 
Backbone

>  <CLASS>  (4132) 
beta

>  <ANALOG>  (4132) 
Phe

>  <MOL_WT>  (4132) 
258.11499999999995

>  <LOGP>  (4132) 
1.7936

>  <TPSA>  (4132) 
63.32000000000001

>  <POPULARITY>  (4132) 
6.7

>  <PROTECTED>  (4132) 
TRUE

>  <SMILES>  (4132) 
N[C@@H](Cc1(ccc(Br)cc1))CC(=O)O

>  <INCHIKEY>  (4132) 
DAUFDZAPQZNOGC-VIFPVBQESA-N

$$$$
bAla_3SBn_4CF3
     RDKit          2D

 17 17  0  0  0  0  0  0  0  0999 V2000
   -2.2447    1.1497    0.0000 N   0  0  0  0  0  0  0  0  0  0  0  0
   -2.5808   -0.3121    0.0000 C   0  0  0  0  0  0  0  0  0  0  0  0
   -1.4828   -1.3341    0.0000 C   0  0  0  0  0  0  0  0  0  0  0  0
   -0.0487   -0.8942    0.0000 C   0  0  0  0  0  0  0  0  0  0  0  0
    0.2873    0.5677    0.0000 C   0  0  0  0  0  0  0  0  0  0  0  0
    1.7213    1.0076    0.0000 C   0  0  0  0  0  0  0  0  0  0  0  0
    2.8194   -0.0143    0.0000 C   0  0  0  0  0  0  0  0  0  0  0  0
    2.4833   -1.4762    0.0000 C   0  0  0  0  0  0  0  0  0  0  0  0
    1.0493   -1.9161    0.0000 C   0  0  0  0  0  0  0  0  0  0  0  0
    4.2534    0.4256    0.0000 C   0  0  0  0  0  0  0  0  0  0  0  0
    5.6874    0.8655    0.0000 F   0  0  0  0  0  0  0  0  0  0  0  0
    4.6933   -1.0084    0.0000 F   0  0  0  0  0  0  0  0  0  0  0  0
    3.8135    1.8597    0.0000 F   0  0  0  0  0  0  0  0  0  0  0  0
   -4.0148   -0.7521    0.0000 C   0  0  0  0  0  0  0  0  0  0  0  0
   -5.1128    0.2699    0.0000 C   0  0  0  0  0  0  0  0  0  0  0  0
   -4.7768    1.7318    0.0000 O   0  0  0  0  0  0  0  0  0  0  0  0
   -6.5468   -0.1701    0.0000 O   0  0  0  0  0  0  0  0  0  0  0  0
  2  1  1  1
  2  3  1  0
  3  4  1  0
  4  5  1  0
  5  6  2  0
  6  7  1  0
  7  8  2  0
  8  9  1  0
  7 10  1  0
 10 11  1  0
 10 12  1  0
 10 13  1  0
  2 14  1  0
 14 15  1  0
 15 16  2  0
 15 17  1  0
  9  4  2  0
M  END
>  <rName>  (4133) 
bAla_3SBn_4CF3

>  <PQ_SYMBOL>  (4133) 
bAla_3SBn_4CF3

>  <FULL_NAME>  (4133) 
(S)-3-amino-4-(4-(trifluoromethyl)phenyl)butanoic acid

>  <IUPAC_CONDENSED>  (4133) 
bAla(3S-Bn(4-CF3))

>  <IUPAC>  (4133) 
(3S)-3-amino-4-(4-(trifluoromethyl)phenyl)butanoic acid

>  <TYPE>  (4133) 
Backbone

>  <CLASS>  (4133) 
beta

>  <ANALOG>  (4133) 
Phe

>  <MOL_WT>  (4133) 
247.21599999999992

>  <LOGP>  (4133) 
2.0499

>  <TPSA>  (4133) 
63.32000000000001

>  <POPULARITY>  (4133) 
6.2

>  <PROTECTED>  (4133) 
TRUE

>  <SMILES>  (4133) 
N[C@@H](Cc1(ccc(cc1)C(F)(F)F))CC(=O)O

>  <INCHIKEY>  (4133) 
RCVBUWYXFGWFHR-VIFPVBQESA-N

$$$$
bAla_3SBn_4CN
     RDKit          2D

 15 15  0  0  0  0  0  0  0  0999 V2000
   -1.6975    1.1783    0.0000 N   0  0  0  0  0  0  0  0  0  0  0  0
   -2.0091   -0.2890    0.0000 C   0  0  0  0  0  0  0  0  0  0  0  0
   -0.8942   -1.2925    0.0000 C   0  0  0  0  0  0  0  0  0  0  0  0
    0.5323   -0.8286    0.0000 C   0  0  0  0  0  0  0  0  0  0  0  0
    0.8439    0.6387    0.0000 C   0  0  0  0  0  0  0  0  0  0  0  0
    2.2704    1.1025    0.0000 C   0  0  0  0  0  0  0  0  0  0  0  0
    3.3853    0.0990    0.0000 C   0  0  0  0  0  0  0  0  0  0  0  0
    4.8118    0.5629    0.0000 C   0  0  0  0  0  0  0  0  0  0  0  0
    6.2383    1.0267    0.0000 N   0  0  0  0  0  0  0  0  0  0  0  0
    3.0737   -1.3683    0.0000 C   0  0  0  0  0  0  0  0  0  0  0  0
    1.6473   -1.8321    0.0000 C   0  0  0  0  0  0  0  0  0  0  0  0
   -3.4356   -0.7528    0.0000 C   0  0  0  0  0  0  0  0  0  0  0  0
   -4.5505    0.2506    0.0000 C   0  0  0  0  0  0  0  0  0  0  0  0
   -4.2390    1.7179    0.0000 O   0  0  0  0  0  0  0  0  0  0  0  0
   -5.9770   -0.2132    0.0000 O   0  0  0  0  0  0  0  0  0  0  0  0
  2  1  1  1
  2  3  1  0
  3  4  1  0
  4  5  1  0
  5  6  2  0
  6  7  1  0
  7  8  1  0
  8  9  3  0
  7 10  2  0
 10 11  1  0
  2 12  1  0
 12 13  1  0
 13 14  2  0
 13 15  1  0
 11  4  2  0
M  END
>  <rName>  (4134) 
bAla_3SBn_4CN

>  <PQ_SYMBOL>  (4134) 
bAla_3SBn_4CN

>  <FULL_NAME>  (4134) 
(S)-3-amino-4-(4-cyanophenyl)butanoic acid

>  <IUPAC_CONDENSED>  (4134) 
bAla(3S-Bn(4-CN))

>  <IUPAC>  (4134) 
(3S)-3-amino-4-(4-(nitrilomethyl)phenyl)butanoic acid

>  <TYPE>  (4134) 
Backbone

>  <CLASS>  (4134) 
beta

>  <ANALOG>  (4134) 
Phe

>  <MOL_WT>  (4134) 
204.22899999999998

>  <LOGP>  (4134) 
0.9027800000000001

>  <TPSA>  (4134) 
87.11

>  <POPULARITY>  (4134) 
4.8

>  <PROTECTED>  (4134) 
TRUE

>  <SMILES>  (4134) 
N[C@@H](Cc1(ccc(C#N)cc1))CC(=O)O

>  <INCHIKEY>  (4134) 
YXRYZOCXTPVLRS-JTQLQIEISA-N

$$$$
bAla_3SBn_4Cl
     RDKit          2D

 14 14  0  0  0  0  0  0  0  0999 V2000
   -1.3163    1.1838    0.0000 N   0  0  0  0  0  0  0  0  0  0  0  0
   -1.5499   -0.2979    0.0000 C   0  0  0  0  0  0  0  0  0  0  0  0
   -0.3836   -1.2411    0.0000 C   0  0  0  0  0  0  0  0  0  0  0  0
    1.0164   -0.7026    0.0000 C   0  0  0  0  0  0  0  0  0  0  0  0
    1.2501    0.7790    0.0000 C   0  0  0  0  0  0  0  0  0  0  0  0
    2.6501    1.3175    0.0000 C   0  0  0  0  0  0  0  0  0  0  0  0
    3.8164    0.3743    0.0000 C   0  0  0  0  0  0  0  0  0  0  0  0
    5.2165    0.9127    0.0000 Cl  0  0  0  0  0  0  0  0  0  0  0  0
    3.5828   -1.1074    0.0000 C   0  0  0  0  0  0  0  0  0  0  0  0
    2.1827   -1.6459    0.0000 C   0  0  0  0  0  0  0  0  0  0  0  0
   -2.9500   -0.8363    0.0000 C   0  0  0  0  0  0  0  0  0  0  0  0
   -4.1163    0.1069    0.0000 C   0  0  0  0  0  0  0  0  0  0  0  0
   -3.8826    1.5886    0.0000 O   0  0  0  0  0  0  0  0  0  0  0  0
   -5.5163   -0.4316    0.0000 O   0  0  0  0  0  0  0  0  0  0  0  0
  2  1  1  1
  2  3  1  0
  3  4  1  0
  4  5  1  0
  5  6  2  0
  6  7  1  0
  7  8  1  0
  7  9  2  0
  9 10  1  0
  2 11  1  0
 11 12  1  0
 12 13  2  0
 12 14  1  0
 10  4  2  0
M  END
>  <rName>  (4135) 
bAla_3SBn_4Cl

>  <PQ_SYMBOL>  (4135) 
bAla_3SBn_4Cl

>  <FULL_NAME>  (4135) 
(S)-3-amino-4-(4-chlorophenyl)butanoic acid

>  <IUPAC_CONDENSED>  (4135) 
bAla(3S-Bn(4-Cl))

>  <IUPAC>  (4135) 
(3S)-3-amino-4-(4-chlorophenyl)butanoic acid

>  <TYPE>  (4135) 
Backbone

>  <CLASS>  (4135) 
beta

>  <ANALOG>  (4135) 
Phe

>  <MOL_WT>  (4135) 
213.664

>  <LOGP>  (4135) 
1.6845

>  <TPSA>  (4135) 
63.32000000000001

>  <POPULARITY>  (4135) 
7.0

>  <PROTECTED>  (4135) 
TRUE

>  <SMILES>  (4135) 
N[C@@H](Cc1(ccc(Cl)cc1))CC(=O)O

>  <INCHIKEY>  (4135) 
LCYHDQUYYVDIPY-VIFPVBQESA-N

$$$$
bAla_3SBn_4F
     RDKit          2D

 14 14  0  0  0  0  0  0  0  0999 V2000
   -1.3163    1.1838    0.0000 N   0  0  0  0  0  0  0  0  0  0  0  0
   -1.5499   -0.2979    0.0000 C   0  0  0  0  0  0  0  0  0  0  0  0
   -0.3836   -1.2411    0.0000 C   0  0  0  0  0  0  0  0  0  0  0  0
    1.0164   -0.7026    0.0000 C   0  0  0  0  0  0  0  0  0  0  0  0
    1.2501    0.7790    0.0000 C   0  0  0  0  0  0  0  0  0  0  0  0
    2.6501    1.3175    0.0000 C   0  0  0  0  0  0  0  0  0  0  0  0
    3.8164    0.3743    0.0000 C   0  0  0  0  0  0  0  0  0  0  0  0
    5.2165    0.9127    0.0000 F   0  0  0  0  0  0  0  0  0  0  0  0
    3.5828   -1.1074    0.0000 C   0  0  0  0  0  0  0  0  0  0  0  0
    2.1827   -1.6459    0.0000 C   0  0  0  0  0  0  0  0  0  0  0  0
   -2.9500   -0.8363    0.0000 C   0  0  0  0  0  0  0  0  0  0  0  0
   -4.1163    0.1069    0.0000 C   0  0  0  0  0  0  0  0  0  0  0  0
   -3.8826    1.5886    0.0000 O   0  0  0  0  0  0  0  0  0  0  0  0
   -5.5163   -0.4316    0.0000 O   0  0  0  0  0  0  0  0  0  0  0  0
  2  1  1  1
  2  3  1  0
  3  4  1  0
  4  5  1  0
  5  6  2  0
  6  7  1  0
  7  8  1  0
  7  9  2  0
  9 10  1  0
  2 11  1  0
 11 12  1  0
 12 13  2  0
 12 14  1  0
 10  4  2  0
M  END
>  <rName>  (4136) 
bAla_3SBn_4F

>  <PQ_SYMBOL>  (4136) 
bAla_3SBn_4F

>  <FULL_NAME>  (4136) 
(S)-3-amino-4-(4-fluorophenyl)butanoic acid

>  <IUPAC_CONDENSED>  (4136) 
bAla(3S-Bn(4-F))

>  <IUPAC>  (4136) 
(3S)-3-amino-4-(4-fluorophenyl)butanoic acid

>  <TYPE>  (4136) 
Backbone

>  <CLASS>  (4136) 
beta

>  <ANALOG>  (4136) 
Phe

>  <MOL_WT>  (4136) 
197.20899999999997

>  <LOGP>  (4136) 
1.1702000000000001

>  <TPSA>  (4136) 
63.32000000000001

>  <POPULARITY>  (4136) 
7.6

>  <PROTECTED>  (4136) 
TRUE

>  <SMILES>  (4136) 
N[C@@H](Cc1(ccc(F)cc1))CC(=O)O

>  <INCHIKEY>  (4136) 
MWAZHPYPJNEKID-VIFPVBQESA-N

$$$$
bAla_3SBn_4I
     RDKit          2D

 14 14  0  0  0  0  0  0  0  0999 V2000
   -1.3163    1.1838    0.0000 N   0  0  0  0  0  0  0  0  0  0  0  0
   -1.5499   -0.2979    0.0000 C   0  0  0  0  0  0  0  0  0  0  0  0
   -0.3836   -1.2411    0.0000 C   0  0  0  0  0  0  0  0  0  0  0  0
    1.0164   -0.7026    0.0000 C   0  0  0  0  0  0  0  0  0  0  0  0
    1.2501    0.7790    0.0000 C   0  0  0  0  0  0  0  0  0  0  0  0
    2.6501    1.3175    0.0000 C   0  0  0  0  0  0  0  0  0  0  0  0
    3.8164    0.3743    0.0000 C   0  0  0  0  0  0  0  0  0  0  0  0
    5.2165    0.9127    0.0000 I   0  0  0  0  0  0  0  0  0  0  0  0
    3.5828   -1.1074    0.0000 C   0  0  0  0  0  0  0  0  0  0  0  0
    2.1827   -1.6459    0.0000 C   0  0  0  0  0  0  0  0  0  0  0  0
   -2.9500   -0.8363    0.0000 C   0  0  0  0  0  0  0  0  0  0  0  0
   -4.1163    0.1069    0.0000 C   0  0  0  0  0  0  0  0  0  0  0  0
   -3.8826    1.5886    0.0000 O   0  0  0  0  0  0  0  0  0  0  0  0
   -5.5163   -0.4316    0.0000 O   0  0  0  0  0  0  0  0  0  0  0  0
  2  1  1  1
  2  3  1  0
  3  4  1  0
  4  5  1  0
  5  6  2  0
  6  7  1  0
  7  8  1  0
  7  9  2  0
  9 10  1  0
  2 11  1  0
 11 12  1  0
 12 13  2  0
 12 14  1  0
 10  4  2  0
M  END
>  <rName>  (4137) 
bAla_3SBn_4I

>  <PQ_SYMBOL>  (4137) 
bAla_3SBn_4I

>  <FULL_NAME>  (4137) 
(S)-3-amino-4-(4-iodophenyl)butanoic acid

>  <IUPAC_CONDENSED>  (4137) 
bAla(3S-Bn(4-I))

>  <IUPAC>  (4137) 
(3S)-3-amino-4-(4-iodophenyl)butanoic acid

>  <TYPE>  (4137) 
Backbone

>  <CLASS>  (4137) 
beta

>  <ANALOG>  (4137) 
Phe

>  <MOL_WT>  (4137) 
305.11500000000007

>  <LOGP>  (4137) 
1.6357000000000002

>  <TPSA>  (4137) 
63.32000000000001

>  <POPULARITY>  (4137) 
4.3

>  <PROTECTED>  (4137) 
TRUE

>  <SMILES>  (4137) 
N[C@@H](Cc1(ccc(I)cc1))CC(=O)O

>  <INCHIKEY>  (4137) 
JZJBJZHUZJDMMU-VIFPVBQESA-N

$$$$
bAla_3SBn_4NO2
     RDKit          2D

 16 16  0  0  0  0  0  0  0  0999 V2000
   -1.9908    1.1560    0.0000 N   0  0  0  0  0  0  0  0  0  0  0  0
   -2.3119   -0.3092    0.0000 C   0  0  0  0  0  0  0  0  0  0  0  0
   -1.2035   -1.3199    0.0000 C   0  0  0  0  0  0  0  0  0  0  0  0
    0.2260   -0.8653    0.0000 C   0  0  0  0  0  0  0  0  0  0  0  0
    0.5470    0.5999    0.0000 C   0  0  0  0  0  0  0  0  0  0  0  0
    1.9765    1.0545    0.0000 C   0  0  0  0  0  0  0  0  0  0  0  0
    3.0849    0.0439    0.0000 C   0  0  0  0  0  0  0  0  0  0  0  0
    2.7639   -1.4214    0.0000 C   0  0  0  0  0  0  0  0  0  0  0  0
    1.3344   -1.8759    0.0000 C   0  0  0  0  0  0  0  0  0  0  0  0
    4.5144    0.4985    0.0000 N   0  0  0  0  0  0  0  0  0  0  0  0
    4.8354    1.9637    0.0000 O   0  0  0  0  0  0  0  0  0  0  0  0
    5.6228   -0.5122    0.0000 O   0  0  0  0  0  0  0  0  0  0  0  0
   -3.7413   -0.7638    0.0000 C   0  0  0  0  0  0  0  0  0  0  0  0
   -4.8498    0.2468    0.0000 C   0  0  0  0  0  0  0  0  0  0  0  0
   -4.5287    1.7121    0.0000 O   0  0  0  0  0  0  0  0  0  0  0  0
   -6.2792   -0.2078    0.0000 O   0  0  0  0  0  0  0  0  0  0  0  0
  2  1  1  1
  2  3  1  0
  3  4  1  0
  4  5  1  0
  5  6  2  0
  6  7  1  0
  7  8  2  0
  8  9  1  0
  7 10  1  0
 10 11  2  0
 10 12  1  0
  2 13  1  0
 13 14  1  0
 14 15  2  0
 14 16  1  0
  9  4  2  0
M  CHG  2  10   1  12  -1
M  END
>  <rName>  (4138) 
bAla_3SBn_4NO2

>  <PQ_SYMBOL>  (4138) 
bAla_3SBn_4NO2

>  <FULL_NAME>  (4138) 
(S)-3-amino-4-(4-nitrophenyl)butanoic acid

>  <IUPAC_CONDENSED>  (4138) 
bAla(3S-Bn(4-NO2))

>  <IUPAC>  (4138) 
(3S)-3-amino-4-(4-nitrophenyl)butanoic acid

>  <TYPE>  (4138) 
Backbone

>  <CLASS>  (4138) 
beta

>  <ANALOG>  (4138) 
Phe

>  <MOL_WT>  (4138) 
224.21599999999992

>  <LOGP>  (4138) 
0.9393

>  <TPSA>  (4138) 
106.46

>  <POPULARITY>  (4138) 
4.5

>  <PROTECTED>  (4138) 
TRUE

>  <SMILES>  (4138) 
N[C@@H](Cc1(ccc(cc1)[N+](=O)[O-]))CC(=O)O

>  <INCHIKEY>  (4138) 
SMTCEKUITUZDPM-QMMMGPOBSA-N

$$$$
bAla_3SBn_4OH
     RDKit          2D

 14 14  0  0  0  0  0  0  0  0999 V2000
   -1.3163    1.1838    0.0000 N   0  0  0  0  0  0  0  0  0  0  0  0
   -1.5499   -0.2979    0.0000 C   0  0  0  0  0  0  0  0  0  0  0  0
   -0.3836   -1.2411    0.0000 C   0  0  0  0  0  0  0  0  0  0  0  0
    1.0164   -0.7026    0.0000 C   0  0  0  0  0  0  0  0  0  0  0  0
    1.2501    0.7790    0.0000 C   0  0  0  0  0  0  0  0  0  0  0  0
    2.6501    1.3175    0.0000 C   0  0  0  0  0  0  0  0  0  0  0  0
    3.8164    0.3743    0.0000 C   0  0  0  0  0  0  0  0  0  0  0  0
    5.2165    0.9127    0.0000 O   0  0  0  0  0  0  0  0  0  0  0  0
    3.5828   -1.1074    0.0000 C   0  0  0  0  0  0  0  0  0  0  0  0
    2.1827   -1.6459    0.0000 C   0  0  0  0  0  0  0  0  0  0  0  0
   -2.9500   -0.8363    0.0000 C   0  0  0  0  0  0  0  0  0  0  0  0
   -4.1163    0.1069    0.0000 C   0  0  0  0  0  0  0  0  0  0  0  0
   -3.8826    1.5886    0.0000 O   0  0  0  0  0  0  0  0  0  0  0  0
   -5.5163   -0.4316    0.0000 O   0  0  0  0  0  0  0  0  0  0  0  0
  2  1  1  1
  2  3  1  0
  3  4  1  0
  4  5  1  0
  5  6  2  0
  6  7  1  0
  7  8  1  0
  7  9  2  0
  9 10  1  0
  2 11  1  0
 11 12  1  0
 12 13  2  0
 12 14  1  0
 10  4  2  0
M  END
>  <rName>  (4139) 
bAla_3SBn_4OH

>  <PQ_SYMBOL>  (4139) 
bAla_3SBn_4OH

>  <FULL_NAME>  (4139) 
L-Beta-Homotyrosine

>  <IUPAC_CONDENSED>  (4139) 
bAla(3S-Bn(4-OH))

>  <IUPAC>  (4139) 
(3S)-3-amino-4-(4-hydroxyphenyl)butanoic acid

>  <TYPE>  (4139) 
Backbone

>  <CLASS>  (4139) 
beta

>  <ANALOG>  (4139) 
Tyr

>  <MOL_WT>  (4139) 
195.21799999999996

>  <LOGP>  (4139) 
0.7367000000000001

>  <TPSA>  (4139) 
83.55

>  <POPULARITY>  (4139) 
16.6

>  <PROTECTED>  (4139) 
TRUE

>  <SMILES>  (4139) 
N[C@@H](Cc1(ccc(O)cc1))CC(=O)O

>  <INCHIKEY>  (4139) 
VUNPIAMEJXBAFP-QMMMGPOBSA-N

$$$$
bAla_3SBn_4Ph
     RDKit          2D

 19 20  0  0  0  0  0  0  0  0999 V2000
   -3.0062    1.1685    0.0000 N   0  0  0  0  0  0  0  0  0  0  0  0
   -3.4278   -0.2710    0.0000 C   0  0  0  0  0  0  0  0  0  0  0  0
   -2.3920   -1.3560    0.0000 C   0  0  0  0  0  0  0  0  0  0  0  0
   -0.9345   -1.0014    0.0000 C   0  0  0  0  0  0  0  0  0  0  0  0
   -0.5128    0.4381    0.0000 C   0  0  0  0  0  0  0  0  0  0  0  0
    0.9446    0.7927    0.0000 C   0  0  0  0  0  0  0  0  0  0  0  0
    1.9805   -0.2922    0.0000 C   0  0  0  0  0  0  0  0  0  0  0  0
    1.5588   -1.7317    0.0000 C   0  0  0  0  0  0  0  0  0  0  0  0
    0.1013   -2.0863    0.0000 C   0  0  0  0  0  0  0  0  0  0  0  0
    3.4380    0.0624    0.0000 C   0  0  0  0  0  0  0  0  0  0  0  0
    4.4738   -1.0225    0.0000 C   0  0  0  0  0  0  0  0  0  0  0  0
    5.9313   -0.6679    0.0000 C   0  0  0  0  0  0  0  0  0  0  0  0
    6.3529    0.7716    0.0000 C   0  0  0  0  0  0  0  0  0  0  0  0
    5.3171    1.8565    0.0000 C   0  0  0  0  0  0  0  0  0  0  0  0
    3.8596    1.5019    0.0000 C   0  0  0  0  0  0  0  0  0  0  0  0
   -4.8853   -0.6256    0.0000 C   0  0  0  0  0  0  0  0  0  0  0  0
   -5.9211    0.4593    0.0000 C   0  0  0  0  0  0  0  0  0  0  0  0
   -5.4995    1.8988    0.0000 O   0  0  0  0  0  0  0  0  0  0  0  0
   -7.3786    0.1047    0.0000 O   0  0  0  0  0  0  0  0  0  0  0  0
  2  1  1  1
  2  3  1  0
  3  4  1  0
  4  5  1  0
  5  6  2  0
  6  7  1  0
  7  8  2  0
  8  9  1  0
  7 10  1  0
 10 11  2  0
 11 12  1  0
 12 13  2  0
 13 14  1  0
 14 15  2  0
  2 16  1  0
 16 17  1  0
 17 18  2  0
 17 19  1  0
  9  4  2  0
 15 10  1  0
M  END
>  <rName>  (4140) 
bAla_3SBn_4Ph

>  <PQ_SYMBOL>  (4140) 
bAla_3SBn_4Ph

>  <FULL_NAME>  (4140) 
(S)-4-([1,1'-Biphenyl]-4-yl)-3-aminobutanoicacid

>  <IUPAC_CONDENSED>  (4140) 
bAla(3S-Bn(4-Ph))

>  <IUPAC>  (4140) 
(3S)-3-amino-4-(4-phenylphenyl)butanoic acid

>  <TYPE>  (4140) 
Backbone

>  <CLASS>  (4140) 
beta

>  <ANALOG>  (4140) 
Phe

>  <MOL_WT>  (4140) 
255.31699999999998

>  <LOGP>  (4140) 
2.698100000000001

>  <TPSA>  (4140) 
63.32000000000001

>  <POPULARITY>  (4140) 
2.2

>  <PROTECTED>  (4140) 
TRUE

>  <SMILES>  (4140) 
N[C@@H](Cc1(ccc(cc1)c2(ccccc2)))CC(=O)O

>  <INCHIKEY>  (4140) 
IHXITIQUZBCIHA-HNNXBMFYSA-N

$$$$
bAla_3SBn_4tBu
     RDKit          2D

 17 17  0  0  0  0  0  0  0  0999 V2000
   -2.2447    1.1497    0.0000 N   0  0  0  0  0  0  0  0  0  0  0  0
   -2.5808   -0.3121    0.0000 C   0  0  0  0  0  0  0  0  0  0  0  0
   -1.4828   -1.3341    0.0000 C   0  0  0  0  0  0  0  0  0  0  0  0
   -0.0487   -0.8942    0.0000 C   0  0  0  0  0  0  0  0  0  0  0  0
    0.2873    0.5677    0.0000 C   0  0  0  0  0  0  0  0  0  0  0  0
    1.7213    1.0076    0.0000 C   0  0  0  0  0  0  0  0  0  0  0  0
    2.8194   -0.0143    0.0000 C   0  0  0  0  0  0  0  0  0  0  0  0
    2.4833   -1.4762    0.0000 C   0  0  0  0  0  0  0  0  0  0  0  0
    1.0493   -1.9161    0.0000 C   0  0  0  0  0  0  0  0  0  0  0  0
    4.2534    0.4256    0.0000 C   0  0  0  0  0  0  0  0  0  0  0  0
    4.6933   -1.0084    0.0000 C   0  0  0  0  0  0  0  0  0  0  0  0
    3.8135    1.8597    0.0000 C   0  0  0  0  0  0  0  0  0  0  0  0
    5.6874    0.8655    0.0000 C   0  0  0  0  0  0  0  0  0  0  0  0
   -4.0148   -0.7521    0.0000 C   0  0  0  0  0  0  0  0  0  0  0  0
   -5.1128    0.2699    0.0000 C   0  0  0  0  0  0  0  0  0  0  0  0
   -4.7768    1.7318    0.0000 O   0  0  0  0  0  0  0  0  0  0  0  0
   -6.5468   -0.1701    0.0000 O   0  0  0  0  0  0  0  0  0  0  0  0
  2  1  1  1
  2  3  1  0
  3  4  1  0
  4  5  1  0
  5  6  2  0
  6  7  1  0
  7  8  2  0
  8  9  1  0
  7 10  1  0
 10 11  1  0
 10 12  1  0
 10 13  1  0
  2 14  1  0
 14 15  1  0
 15 16  2  0
 15 17  1  0
  9  4  2  0
M  END
>  <rName>  (4141) 
bAla_3SBn_4tBu

>  <PQ_SYMBOL>  (4141) 
bAla_3SBn_4tBu

>  <FULL_NAME>  (4141) 
(3S)-3-amino-4-(4-tert-butylphenyl)butanoic acid

>  <IUPAC_CONDENSED>  (4141) 
bAla(3S-Bn(4-tBu))

>  <IUPAC>  (4141) 
(3S)-3-amino-4-(4-tert-butylphenyl)butanoic acid

>  <TYPE>  (4141) 
Backbone

>  <CLASS>  (4141) 
beta

>  <ANALOG>  (4141) 
Phe

>  <MOL_WT>  (4141) 
235.32699999999994

>  <LOGP>  (4141) 
2.3286000000000002

>  <TPSA>  (4141) 
63.32000000000001

>  <POPULARITY>  (4141) 
2.2

>  <PROTECTED>  (4141) 
TRUE

>  <SMILES>  (4141) 
N[C@@H](Cc1(ccc(cc1)C(C)(C)C))CC(=O)O

>  <INCHIKEY>  (4141) 
KDMFJTJDCJZSGE-LBPRGKRZSA-N

$$$$
bAla_3SBu
     RDKit          2D

 10  9  0  0  0  0  0  0  0  0999 V2000
   -0.3386    1.4842    0.0000 N   0  0  0  0  0  0  0  0  0  0  0  0
   -0.2594   -0.0137    0.0000 C   0  0  0  0  0  0  0  0  0  0  0  0
    1.0773   -0.6941    0.0000 C   0  0  0  0  0  0  0  0  0  0  0  0
    2.3350    0.1233    0.0000 C   0  0  0  0  0  0  0  0  0  0  0  0
    3.6718   -0.5571    0.0000 C   0  0  0  0  0  0  0  0  0  0  0  0
    4.9295    0.2604    0.0000 C   0  0  0  0  0  0  0  0  0  0  0  0
   -1.5171   -0.8312    0.0000 C   0  0  0  0  0  0  0  0  0  0  0  0
   -2.8539   -0.1507    0.0000 C   0  0  0  0  0  0  0  0  0  0  0  0
   -2.9330    1.3472    0.0000 O   0  0  0  0  0  0  0  0  0  0  0  0
   -4.1116   -0.9682    0.0000 O   0  0  0  0  0  0  0  0  0  0  0  0
  2  1  1  1
  2  3  1  0
  3  4  1  0
  4  5  1  0
  5  6  1  0
  2  7  1  0
  7  8  1  0
  8  9  2  0
  8 10  1  0
M  END
>  <rName>  (4142) 
bAla_3SBu

>  <PQ_SYMBOL>  (4142) 
bAla_3SBu

>  <FULL_NAME>  (4142) 
L-Beta3-Homo-Norleucine

>  <IUPAC_CONDENSED>  (4142) 
bAla(3S-Bu)

>  <IUPAC>  (4142) 
(3S)-3-aminoheptanoic acid

>  <TYPE>  (4142) 
Backbone

>  <CLASS>  (4142) 
beta

>  <ANALOG>  (4142) 
Leu

>  <MOL_WT>  (4142) 
145.202

>  <LOGP>  (4142) 
0.9785999999999997

>  <TPSA>  (4142) 
63.32000000000001

>  <POPULARITY>  (4142) 
11.7

>  <PROTECTED>  (4142) 
TRUE

>  <SMILES>  (4142) 
N[C@@H](CCCC)CC(=O)O

>  <INCHIKEY>  (4142) 
FUENJGFCFZKXBX-LURJTMIESA-N

$$$$
bAla_3SBuNH2
     RDKit          2D

 11 10  0  0  0  0  0  0  0  0999 V2000
    0.9412   -1.5022    0.0000 N   0  0  0  0  0  0  0  0  0  0  0  0
    0.8294   -0.0064    0.0000 C   0  0  0  0  0  0  0  0  0  0  0  0
   -0.5219    0.6447    0.0000 C   0  0  0  0  0  0  0  0  0  0  0  0
   -1.7614   -0.2000    0.0000 C   0  0  0  0  0  0  0  0  0  0  0  0
   -3.1127    0.4511    0.0000 C   0  0  0  0  0  0  0  0  0  0  0  0
   -4.3523   -0.3937    0.0000 C   0  0  0  0  0  0  0  0  0  0  0  0
   -5.7036    0.2574    0.0000 N   0  0  0  0  0  0  0  0  0  0  0  0
    2.0690    0.8384    0.0000 C   0  0  0  0  0  0  0  0  0  0  0  0
    3.4203    0.1873    0.0000 C   0  0  0  0  0  0  0  0  0  0  0  0
    3.5321   -1.3086    0.0000 O   0  0  0  0  0  0  0  0  0  0  0  0
    4.6598    1.0320    0.0000 O   0  0  0  0  0  0  0  0  0  0  0  0
  2  1  1  1
  2  3  1  0
  3  4  1  0
  4  5  1  0
  5  6  1  0
  6  7  1  0
  2  8  1  0
  8  9  1  0
  9 10  2  0
  9 11  1  0
M  END
>  <rName>  (4143) 
bAla_3SBuNH2

>  <PQ_SYMBOL>  (4143) 
bAla_3SBuNH2

>  <FULL_NAME>  (4143) 
L-beta-homolysine

>  <IUPAC_CONDENSED>  (4143) 
bAla(3S-BuNH2)

>  <IUPAC>  (4143) 
(3S)-3,7-diaminoheptanoic acid

>  <TYPE>  (4143) 
Backbone

>  <CLASS>  (4143) 
beta

>  <ANALOG>  (4143) 
Lys

>  <MOL_WT>  (4143) 
160.217

>  <LOGP>  (4143) 
-0.08260000000000073

>  <TPSA>  (4143) 
89.34

>  <POPULARITY>  (4143) 
25.2

>  <PROTECTED>  (4143) 
TRUE

>  <SMILES>  (4143) 
N[C@@H](CCCCN)CC(=O)O

>  <INCHIKEY>  (4143) 
PJDINCOFOROBQW-LURJTMIESA-N

$$$$
bAla_3SCF3
     RDKit          2D

 10  9  0  0  0  0  0  0  0  0999 V2000
   -0.0629   -1.7674    0.0000 N   0  0  0  0  0  0  0  0  0  0  0  0
   -0.3412   -0.2934    0.0000 C   0  0  0  0  0  0  0  0  0  0  0  0
   -1.7568    0.2026    0.0000 C   0  0  0  0  0  0  0  0  0  0  0  0
   -3.1725    0.6986    0.0000 F   0  0  0  0  0  0  0  0  0  0  0  0
   -2.2528   -1.2130    0.0000 F   0  0  0  0  0  0  0  0  0  0  0  0
   -1.2608    1.6182    0.0000 F   0  0  0  0  0  0  0  0  0  0  0  0
    0.7961    0.6846    0.0000 C   0  0  0  0  0  0  0  0  0  0  0  0
    2.2118    0.1886    0.0000 C   0  0  0  0  0  0  0  0  0  0  0  0
    2.4900   -1.2854    0.0000 O   0  0  0  0  0  0  0  0  0  0  0  0
    3.3491    1.1666    0.0000 O   0  0  0  0  0  0  0  0  0  0  0  0
  2  1  1  6
  2  3  1  0
  3  4  1  0
  3  5  1  0
  3  6  1  0
  2  7  1  0
  7  8  1  0
  8  9  2  0
  8 10  1  0
M  END
>  <rName>  (4144) 
bAla_3SCF3

>  <PQ_SYMBOL>  (4144) 
bAla_3SCF3

>  <FULL_NAME>  (4144) 
(3S)-3-amino-4,4,4-trifluorobutanoic acid

>  <IUPAC_CONDENSED>  (4144) 
bAla(3S-CF3)

>  <IUPAC>  (4144) 
(3S)-3-amino-4,4,4-trifluorobutanoic acid

>  <TYPE>  (4144) 
Backbone

>  <CLASS>  (4144) 
beta

>  <ANALOG>  (4144) 
X

>  <MOL_WT>  (4144) 
157.091

>  <LOGP>  (4144) 
0.3507

>  <TPSA>  (4144) 
63.32000000000001

>  <POPULARITY>  (4144) 
7.4

>  <PROTECTED>  (4144) 
TRUE

>  <SMILES>  (4144) 
N[C@H](C(F)(F)F)CC(=O)O

>  <INCHIKEY>  (4144) 
XRXQOEWWPPJVII-REOHCLBHSA-N

$$$$
bAla_3SCH2CF3
     RDKit          2D

 11 10  0  0  0  0  0  0  0  0999 V2000
    0.2445    1.3622    0.0000 N   0  0  0  0  0  0  0  0  0  0  0  0
    0.2354   -0.1378    0.0000 C   0  0  0  0  0  0  0  0  0  0  0  0
   -1.0682   -0.8799    0.0000 C   0  0  0  0  0  0  0  0  0  0  0  0
   -2.3627   -0.1220    0.0000 C   0  0  0  0  0  0  0  0  0  0  0  0
   -3.6571    0.6360    0.0000 F   0  0  0  0  0  0  0  0  0  0  0  0
   -3.1206   -1.4164    0.0000 F   0  0  0  0  0  0  0  0  0  0  0  0
   -1.6048    1.1725    0.0000 F   0  0  0  0  0  0  0  0  0  0  0  0
    1.5298   -0.8957    0.0000 C   0  0  0  0  0  0  0  0  0  0  0  0
    2.8334   -0.1536    0.0000 C   0  0  0  0  0  0  0  0  0  0  0  0
    2.8425    1.3463    0.0000 O   0  0  0  0  0  0  0  0  0  0  0  0
    4.1278   -0.9116    0.0000 O   0  0  0  0  0  0  0  0  0  0  0  0
  2  1  1  1
  2  3  1  0
  3  4  1  0
  4  5  1  0
  4  6  1  0
  4  7  1  0
  2  8  1  0
  8  9  1  0
  9 10  2  0
  9 11  1  0
M  END
>  <rName>  (4145) 
bAla_3SCH2CF3

>  <PQ_SYMBOL>  (4145) 
bAla_3SCH2CF3

>  <FULL_NAME>  (4145) 
(3S)-3-amino-5,5,5-trifluoropentanoic acid

>  <IUPAC_CONDENSED>  (4145) 
bAla(3S-CH2CF3)

>  <IUPAC>  (4145) 
(3S)-3-amino-5,5,5-trifluoropentanoic acid

>  <TYPE>  (4145) 
Backbone

>  <CLASS>  (4145) 
beta

>  <ANALOG>  (4145) 
X

>  <MOL_WT>  (4145) 
171.11800000000002

>  <LOGP>  (4145) 
0.7407999999999999

>  <TPSA>  (4145) 
63.32000000000001

>  <POPULARITY>  (4145) 
2.2

>  <PROTECTED>  (4145) 
TRUE

>  <SMILES>  (4145) 
N[C@H](CC(F)(F)F)CC(=O)O

>  <INCHIKEY>  (4145) 
SXFPMOPIZZBIRI-VKHMYHEASA-N

$$$$
bAla_3SCH2CONH2
     RDKit          2D

 10  9  0  0  0  0  0  0  0  0999 V2000
   -0.0000    1.3500    0.0000 N   0  0  0  0  0  0  0  0  0  0  0  0
   -0.0000   -0.1500    0.0000 C   0  0  0  0  0  0  0  0  0  0  0  0
   -1.2990   -0.9000    0.0000 C   0  0  0  0  0  0  0  0  0  0  0  0
   -2.5981   -0.1500    0.0000 C   0  0  0  0  0  0  0  0  0  0  0  0
   -2.5981    1.3500    0.0000 O   0  0  0  0  0  0  0  0  0  0  0  0
   -3.8971   -0.9000    0.0000 N   0  0  0  0  0  0  0  0  0  0  0  0
    1.2990   -0.9000    0.0000 C   0  0  0  0  0  0  0  0  0  0  0  0
    2.5981   -0.1500    0.0000 C   0  0  0  0  0  0  0  0  0  0  0  0
    2.5981    1.3500    0.0000 O   0  0  0  0  0  0  0  0  0  0  0  0
    3.8971   -0.9000    0.0000 O   0  0  0  0  0  0  0  0  0  0  0  0
  2  1  1  6
  2  3  1  0
  3  4  1  0
  4  5  2  0
  4  6  1  0
  2  7  1  0
  7  8  1  0
  8  9  2  0
  8 10  1  0
M  END
>  <rName>  (4146) 
bAla_3SCH2CONH2

>  <PQ_SYMBOL>  (4146) 
bAla_3SCH2CONH2

>  <FULL_NAME>  (4146) 
Beta-L-Glutamine, Beta-L-Homoasparagine

>  <IUPAC_CONDENSED>  (4146) 
bAla(3S-CH2CONH2)

>  <IUPAC>  (4146) 
(3S)-3-amino-4-carbamoylbutanoic acid

>  <TYPE>  (4146) 
Backbone

>  <CLASS>  (4146) 
beta

>  <ANALOG>  (4146) 
Asn

>  <MOL_WT>  (4146) 
146.14600000000002

>  <LOGP>  (4146) 
-1.3362000000000003

>  <TPSA>  (4146) 
106.41000000000001

>  <POPULARITY>  (4146) 
18.1

>  <PROTECTED>  (4146) 
TRUE

>  <SMILES>  (4146) 
N[C@@H](CC(=O)N)CC(=O)O

>  <INCHIKEY>  (4146) 
XOYSDPUJMJWCBH-VKHMYHEASA-N

$$$$
bAla_3SCH2F
     RDKit          2D

  8  7  0  0  0  0  0  0  0  0999 V2000
   -0.7931    1.4169    0.0000 N   0  0  0  0  0  0  0  0  0  0  0  0
   -0.8131   -0.0829    0.0000 C   0  0  0  0  0  0  0  0  0  0  0  0
   -2.1220   -0.8156    0.0000 C   0  0  0  0  0  0  0  0  0  0  0  0
   -3.4109   -0.0483    0.0000 F   0  0  0  0  0  0  0  0  0  0  0  0
    0.4759   -0.8502    0.0000 C   0  0  0  0  0  0  0  0  0  0  0  0
    1.7848   -0.1175    0.0000 C   0  0  0  0  0  0  0  0  0  0  0  0
    1.8048    1.3823    0.0000 O   0  0  0  0  0  0  0  0  0  0  0  0
    3.0737   -0.8848    0.0000 O   0  0  0  0  0  0  0  0  0  0  0  0
  2  1  1  1
  2  3  1  0
  3  4  1  0
  2  5  1  0
  5  6  1  0
  6  7  2  0
  6  8  1  0
M  END
>  <rName>  (4147) 
bAla_3SCH2F

>  <PQ_SYMBOL>  (4147) 
bAla_3SCH2F

>  <FULL_NAME>  (4147) 
(3S)-3-amino-4-fluorobutanoic acid

>  <IUPAC_CONDENSED>  (4147) 
bAla(3S-CH2F)

>  <IUPAC>  (4147) 
(3S)-3-amino-4-fluorobutanoic acid

>  <TYPE>  (4147) 
Backbone

>  <CLASS>  (4147) 
beta

>  <ANALOG>  (4147) 
X

>  <MOL_WT>  (4147) 
121.11099999999998

>  <LOGP>  (4147) 
-0.24210000000000004

>  <TPSA>  (4147) 
63.32000000000001

>  <POPULARITY>  (4147) 
2.2

>  <PROTECTED>  (4147) 
TRUE

>  <SMILES>  (4147) 
N[C@H](CF)CC(=O)O

>  <INCHIKEY>  (4147) 
HKFNXEFUGVQTNQ-VKHMYHEASA-N

$$$$
bAla_3SCH2N3
     RDKit          2D

 10  9  0  0  0  0  0  0  0  0999 V2000
    0.5082    1.5911    0.0000 N   0  0  0  0  0  0  0  0  0  0  0  0
    0.2796    0.1087    0.0000 C   0  0  0  0  0  0  0  0  0  0  0  0
   -1.1185   -0.4346    0.0000 C   0  0  0  0  0  0  0  0  0  0  0  0
   -2.2881    0.5046    0.0000 N   0  0  0  0  0  0  0  0  0  0  0  0
   -3.6863   -0.0387    0.0000 N   0  0  0  0  0  0  0  0  0  0  0  0
   -5.0844   -0.5819    0.0000 N   0  0  0  0  0  0  0  0  0  0  0  0
    1.4492   -0.8306    0.0000 C   0  0  0  0  0  0  0  0  0  0  0  0
    2.8474   -0.2873    0.0000 C   0  0  0  0  0  0  0  0  0  0  0  0
    3.0760    1.1952    0.0000 O   0  0  0  0  0  0  0  0  0  0  0  0
    4.0169   -1.2265    0.0000 O   0  0  0  0  0  0  0  0  0  0  0  0
  2  1  1  1
  2  3  1  0
  3  4  1  0
  4  5  2  0
  5  6  2  0
  2  7  1  0
  7  8  1  0
  8  9  2  0
  8 10  1  0
M  CHG  2   5   1   6  -1
M  END
>  <rName>  (4148) 
bAla_3SCH2N3

>  <PQ_SYMBOL>  (4148) 
bAla_3SCH2N3

>  <FULL_NAME>  (4148) 
H-L-Dbu(N3)-OH

>  <IUPAC_CONDENSED>  (4148) 
bAla(3S-CH2N3)

>  <IUPAC>  (4148) 
(3S)-3-amino-4-azidobutanoic acid

>  <TYPE>  (4148) 
Backbone

>  <CLASS>  (4148) 
beta

>  <ANALOG>  (4148) 
X

>  <MOL_WT>  (4148) 
144.13400000000001

>  <LOGP>  (4148) 
0.09869999999999973

>  <TPSA>  (4148) 
112.08

>  <POPULARITY>  (4148) 
3.5

>  <PROTECTED>  (4148) 
TRUE

>  <SMILES>  (4148) 
N[C@H](CN=[N+]=[N-])CC(=O)O

>  <INCHIKEY>  (4148) 
JRKNECXMMGNWMM-VKHMYHEASA-N

$$$$
bAla_3SCH2NHMe
     RDKit          2D

  9  9  0  0  0  0  0  0  0  0999 V2000
   -0.5115   -2.3139    0.0000 N   0  0  0  0  0  0  0  0  0  0  0  0
   -0.8624   -0.8555    0.0000 C   0  0  0  0  0  0  0  0  0  0  0  0
    0.1113    0.2855    0.0000 C   0  0  0  0  0  0  0  0  0  0  0  0
   -0.6730    1.5641    0.0000 C   0  0  0  0  0  0  0  0  0  0  0  0
   -2.1314    1.2133    0.0000 N   0  0  0  0  0  0  0  0  0  0  0  0
   -2.2485   -0.2821    0.0000 C   0  0  0  0  0  0  0  0  0  0  0  0
    1.6067    0.1685    0.0000 C   0  0  0  0  0  0  0  0  0  0  0  0
    2.4558    1.4051    0.0000 O   0  0  0  0  0  0  0  0  0  0  0  0
    2.2531   -1.1851    0.0000 O   0  0  0  0  0  0  0  0  0  0  0  0
  2  1  1  6
  2  3  1  0
  3  4  1  0
  4  5  1  0
  5  6  1  0
  3  7  1  1
  7  8  2  0
  7  9  1  0
  6  2  1  0
M  END
>  <rName>  (4149) 
bAla_3SCH2NHMe

>  <PQ_SYMBOL>  (4149) 
bAla_3SCH2NHMe

>  <FULL_NAME>  (4149) 
trans-3-aminopyrrolidine-4-carboxylic acid

>  <IUPAC_CONDENSED>  (4149) 
bAla(3S-CH2NHMe)

>  <IUPAC>  (4149) 
(3R,4S)-4-aminopyrrolidine-3-carboxylic acid

>  <TYPE>  (4149) 
Backbone

>  <CLASS>  (4149) 
beta

>  <ANALOG>  (4149) 
X

>  <MOL_WT>  (4149) 
130.147

>  <LOGP>  (4149) 
-1.3822999999999994

>  <TPSA>  (4149) 
75.35

>  <POPULARITY>  (4149) 
5.4

>  <PROTECTED>  (4149) 
TRUE

>  <SMILES>  (4149) 
N[C@H]1[C@@H](CNC1)C(=O)O

>  <INCHIKEY>  (4149) 
RMNHPXDNGOBDOT-QWWZWVQMSA-N

$$$$
bAla_3SCH2OH
     RDKit          2D

  8  7  0  0  0  0  0  0  0  0999 V2000
   -0.7931    1.4169    0.0000 N   0  0  0  0  0  0  0  0  0  0  0  0
   -0.8131   -0.0829    0.0000 C   0  0  0  0  0  0  0  0  0  0  0  0
   -2.1220   -0.8156    0.0000 C   0  0  0  0  0  0  0  0  0  0  0  0
   -3.4109   -0.0483    0.0000 O   0  0  0  0  0  0  0  0  0  0  0  0
    0.4759   -0.8502    0.0000 C   0  0  0  0  0  0  0  0  0  0  0  0
    1.7848   -0.1175    0.0000 C   0  0  0  0  0  0  0  0  0  0  0  0
    1.8048    1.3823    0.0000 O   0  0  0  0  0  0  0  0  0  0  0  0
    3.0737   -0.8848    0.0000 O   0  0  0  0  0  0  0  0  0  0  0  0
  2  1  1  1
  2  3  1  0
  3  4  1  0
  2  5  1  0
  5  6  1  0
  6  7  2  0
  6  8  1  0
M  END
>  <rName>  (4150) 
bAla_3SCH2OH

>  <PQ_SYMBOL>  (4150) 
bAla_3SCH2OH

>  <FULL_NAME>  (4150) 
D-beta-Homoserine

>  <IUPAC_CONDENSED>  (4150) 
bAla(3S-CH2OH)

>  <IUPAC>  (4150) 
(3S)-3-amino-4-hydroxybutanoic acid

>  <TYPE>  (4150) 
Backbone

>  <CLASS>  (4150) 
beta

>  <ANALOG>  (4150) 
Ser

>  <MOL_WT>  (4150) 
119.11999999999999

>  <LOGP>  (4150) 
-1.2192999999999998

>  <TPSA>  (4150) 
83.55

>  <POPULARITY>  (4150) 
14.9

>  <PROTECTED>  (4150) 
TRUE

>  <SMILES>  (4150) 
N[C@H](CO)CC(=O)O

>  <INCHIKEY>  (4150) 
BUZICZZQJDLXJN-VKHMYHEASA-N

$$$$
bAla_3SCH2cHex
     RDKit          2D

 13 13  0  0  0  0  0  0  0  0999 V2000
   -0.9767    1.2065    0.0000 N   0  0  0  0  0  0  0  0  0  0  0  0
   -1.1358   -0.2850    0.0000 C   0  0  0  0  0  0  0  0  0  0  0  0
    0.0764   -1.1685    0.0000 C   0  0  0  0  0  0  0  0  0  0  0  0
    1.4476   -0.5605    0.0000 C   0  0  0  0  0  0  0  0  0  0  0  0
    1.6067    0.9310    0.0000 C   0  0  0  0  0  0  0  0  0  0  0  0
    2.9779    1.5390    0.0000 C   0  0  0  0  0  0  0  0  0  0  0  0
    4.1901    0.6555    0.0000 C   0  0  0  0  0  0  0  0  0  0  0  0
    4.0310   -0.8361    0.0000 C   0  0  0  0  0  0  0  0  0  0  0  0
    2.6598   -1.4441    0.0000 C   0  0  0  0  0  0  0  0  0  0  0  0
   -2.5071   -0.8930    0.0000 C   0  0  0  0  0  0  0  0  0  0  0  0
   -3.7192   -0.0095    0.0000 C   0  0  0  0  0  0  0  0  0  0  0  0
   -3.5602    1.4821    0.0000 O   0  0  0  0  0  0  0  0  0  0  0  0
   -5.0905   -0.6175    0.0000 O   0  0  0  0  0  0  0  0  0  0  0  0
  2  1  1  1
  2  3  1  0
  3  4  1  0
  4  5  1  0
  5  6  1  0
  6  7  1  0
  7  8  1  0
  8  9  1  0
  2 10  1  0
 10 11  1  0
 11 12  2  0
 11 13  1  0
  9  4  1  0
M  END
>  <rName>  (4151) 
bAla_3SCH2cHex

>  <PQ_SYMBOL>  (4151) 
bAla_3SCH2cHex

>  <FULL_NAME>  (4151) 
(S)-3-Amino-4-cyclohexylbutanoic acid

>  <IUPAC_CONDENSED>  (4151) 
bAla(3S-CH2cHex)

>  <IUPAC>  (4151) 
(3S)-3-amino-4-cyclohexylbutanoic acid

>  <TYPE>  (4151) 
Backbone

>  <CLASS>  (4151) 
beta

>  <ANALOG>  (4151) 
Ala

>  <MOL_WT>  (4151) 
185.267

>  <LOGP>  (4151) 
1.7588

>  <TPSA>  (4151) 
63.32000000000001

>  <POPULARITY>  (4151) 
10.0

>  <PROTECTED>  (4151) 
TRUE

>  <SMILES>  (4151) 
N[C@@H](CC1(CCCCC1))CC(=O)O

>  <INCHIKEY>  (4151) 
KFJPIMWRYYGPGM-VIFPVBQESA-N

$$$$
bAla_3SCH2cPent
     RDKit          2D

 12 12  0  0  0  0  0  0  0  0999 V2000
   -0.6782    1.2367    0.0000 N   0  0  0  0  0  0  0  0  0  0  0  0
   -0.8112   -0.2574    0.0000 C   0  0  0  0  0  0  0  0  0  0  0  0
    0.4162   -1.1196    0.0000 C   0  0  0  0  0  0  0  0  0  0  0  0
    1.7766   -0.4878    0.0000 C   0  0  0  0  0  0  0  0  0  0  0  0
    3.0874   -1.2170    0.0000 C   0  0  0  0  0  0  0  0  0  0  0  0
    4.1860   -0.1957    0.0000 C   0  0  0  0  0  0  0  0  0  0  0  0
    3.5542    1.1647    0.0000 C   0  0  0  0  0  0  0  0  0  0  0  0
    2.0651    0.9842    0.0000 C   0  0  0  0  0  0  0  0  0  0  0  0
   -2.1716   -0.8892    0.0000 C   0  0  0  0  0  0  0  0  0  0  0  0
   -3.3991   -0.0270    0.0000 C   0  0  0  0  0  0  0  0  0  0  0  0
   -3.2660    1.4671    0.0000 O   0  0  0  0  0  0  0  0  0  0  0  0
   -4.7595   -0.6589    0.0000 O   0  0  0  0  0  0  0  0  0  0  0  0
  2  1  1  1
  2  3  1  0
  3  4  1  0
  4  5  1  0
  5  6  1  0
  6  7  1  0
  7  8  1  0
  2  9  1  0
  9 10  1  0
 10 11  2  0
 10 12  1  0
  8  4  1  0
M  END
>  <rName>  (4152) 
bAla_3SCH2cPent

>  <PQ_SYMBOL>  (4152) 
bAla_3SCH2cPent

>  <FULL_NAME>  (4152) 
(3S)-3-amino-4-cyclopentylbutanoic acid

>  <IUPAC_CONDENSED>  (4152) 
bAla(3S-CH2cPent)

>  <IUPAC>  (4152) 
(3S)-3-amino-4-cyclopentylbutanoic acid

>  <TYPE>  (4152) 
Backbone

>  <CLASS>  (4152) 
beta

>  <ANALOG>  (4152) 
Ala

>  <MOL_WT>  (4152) 
171.24

>  <LOGP>  (4152) 
1.3687

>  <TPSA>  (4152) 
63.32000000000001

>  <POPULARITY>  (4152) 
2.2

>  <PROTECTED>  (4152) 
TRUE

>  <SMILES>  (4152) 
N[C@@H](CC1(CCCC1))CC(=O)O

>  <INCHIKEY>  (4152) 
LREMTHPUZSUFPH-QMMMGPOBSA-N

$$$$
bAla_3SCH2cPr
     RDKit          2D

 10 10  0  0  0  0  0  0  0  0999 V2000
   -0.0258    1.2983    0.0000 N   0  0  0  0  0  0  0  0  0  0  0  0
   -0.1059   -0.1995    0.0000 C   0  0  0  0  0  0  0  0  0  0  0  0
    1.1512   -1.0179    0.0000 C   0  0  0  0  0  0  0  0  0  0  0  0
    2.4885   -0.3383    0.0000 C   0  0  0  0  0  0  0  0  0  0  0  0
    3.9863   -0.4185    0.0000 C   0  0  0  0  0  0  0  0  0  0  0  0
    3.3068    0.9188    0.0000 C   0  0  0  0  0  0  0  0  0  0  0  0
   -1.4432   -0.8791    0.0000 C   0  0  0  0  0  0  0  0  0  0  0  0
   -2.7003   -0.0607    0.0000 C   0  0  0  0  0  0  0  0  0  0  0  0
   -2.6201    1.4371    0.0000 O   0  0  0  0  0  0  0  0  0  0  0  0
   -4.0375   -0.7403    0.0000 O   0  0  0  0  0  0  0  0  0  0  0  0
  2  1  1  1
  2  3  1  0
  3  4  1  0
  4  5  1  0
  5  6  1  0
  2  7  1  0
  7  8  1  0
  8  9  2  0
  8 10  1  0
  6  4  1  0
M  END
>  <rName>  (4153) 
bAla_3SCH2cPr

>  <PQ_SYMBOL>  (4153) 
bAla_3SCH2cPr

>  <FULL_NAME>  (4153) 
(3S)-3-amino-4-cyclopropylbutanoic acid

>  <IUPAC_CONDENSED>  (4153) 
bAla(3S-CH2cPr)

>  <IUPAC>  (4153) 
(3S)-3-amino-4-cyclopropylbutanoic acid

>  <TYPE>  (4153) 
Backbone

>  <CLASS>  (4153) 
beta

>  <ANALOG>  (4153) 
Ala

>  <MOL_WT>  (4153) 
143.186

>  <LOGP>  (4153) 
0.5884999999999998

>  <TPSA>  (4153) 
63.32000000000001

>  <POPULARITY>  (4153) 
2.2

>  <PROTECTED>  (4153) 
TRUE

>  <SMILES>  (4153) 
N[C@@H](CC1(CC1))CC(=O)O

>  <INCHIKEY>  (4153) 
VJGFNPLMAVQRCF-LURJTMIESA-N

$$$$
bAla_3SCHF2
     RDKit          2D

  9  8  0  0  0  0  0  0  0  0999 V2000
   -0.2826   -1.7410    0.0000 N   0  0  0  0  0  0  0  0  0  0  0  0
   -0.5402   -0.2633    0.0000 C   0  0  0  0  0  0  0  0  0  0  0  0
   -1.9487    0.2525    0.0000 C   0  0  0  0  0  0  0  0  0  0  0  0
   -3.0997   -0.7094    0.0000 F   0  0  0  0  0  0  0  0  0  0  0  0
   -2.2062    1.7302    0.0000 F   0  0  0  0  0  0  0  0  0  0  0  0
    0.6108    0.6986    0.0000 C   0  0  0  0  0  0  0  0  0  0  0  0
    2.0193    0.1828    0.0000 C   0  0  0  0  0  0  0  0  0  0  0  0
    2.2769   -1.2950    0.0000 O   0  0  0  0  0  0  0  0  0  0  0  0
    3.1703    1.1447    0.0000 O   0  0  0  0  0  0  0  0  0  0  0  0
  2  1  1  6
  2  3  1  0
  3  4  1  0
  3  5  1  0
  2  6  1  0
  6  7  1  0
  7  8  2  0
  7  9  1  0
M  END
>  <rName>  (4154) 
bAla_3SCHF2

>  <PQ_SYMBOL>  (4154) 
bAla_3SCHF2

>  <FULL_NAME>  (4154) 
(S)-3-amino-4,4-difluorobutanoic acid

>  <IUPAC_CONDENSED>  (4154) 
bAla(3S-CHF2)

>  <IUPAC>  (4154) 
(3S)-3-amino-4,4-difluorobutanoic acid

>  <TYPE>  (4154) 
Backbone

>  <CLASS>  (4154) 
beta

>  <ANALOG>  (4154) 
X

>  <MOL_WT>  (4154) 
139.101

>  <LOGP>  (4154) 
0.05350000000000005

>  <TPSA>  (4154) 
63.32000000000001

>  <POPULARITY>  (4154) 
5.3

>  <PROTECTED>  (4154) 
TRUE

>  <SMILES>  (4154) 
N[C@H](C(F)F)CC(=O)O

>  <INCHIKEY>  (4154) 
OLFYIMZVBDNOOK-REOHCLBHSA-N

$$$$
bAla_3SCbz
     RDKit          2D

 32 33  0  0  0  0  0  0  0  0999 V2000
   -7.1629    1.7639    0.0000 N   0  0  0  0  0  0  0  0  0  0  0  0
   -7.4360    0.2890    0.0000 C   0  0  0  0  0  0  0  0  0  0  0  0
   -6.2953   -0.6851    0.0000 C   0  0  0  0  0  0  0  0  0  0  0  0
   -6.5685   -2.1600    0.0000 O   0  0  0  0  0  0  0  0  0  0  0  0
   -4.8814   -0.1842    0.0000 O   0  0  0  0  0  0  0  0  0  0  0  0
   -3.7407   -1.1582    0.0000 C   0  0  0  0  0  0  0  0  0  0  0  0
   -2.3268   -0.6573    0.0000 C   0  0  0  0  0  0  0  0  0  0  0  0
   -2.0536    0.8176    0.0000 C   0  0  0  0  0  0  0  0  0  0  0  0
   -0.6397    1.3185    0.0000 C   0  0  0  0  0  0  0  0  0  0  0  0
    0.5010    0.3445    0.0000 C   0  0  0  0  0  0  0  0  0  0  0  0
    1.9149    0.8454    0.0000 N   0  0  0  0  0  0  0  0  0  0  0  0
    3.0557   -0.1286    0.0000 C   0  0  0  0  0  0  0  0  0  0  0  0
    2.7825   -1.6036    0.0000 C   0  0  0  0  0  0  0  0  0  0  0  0
    3.9232   -2.5776    0.0000 C   0  0  0  0  0  0  0  0  0  0  0  0
    3.6501   -4.0525    0.0000 C   0  0  0  0  0  0  0  0  0  0  0  0
    4.9908   -2.3408    0.0000 C   0  0  0  0  0  0  0  0  0  0  0  0
    4.4696    0.3722    0.0000 C   0  0  0  0  0  0  0  0  0  0  0  0
    4.7427    1.8472    0.0000 C   0  0  0  0  0  0  0  0  0  0  0  0
    3.6020    2.8212    0.0000 O   0  0  0  0  0  0  0  0  0  0  0  0
    6.1566    2.3481    0.0000 C   0  0  0  0  0  0  0  0  0  0  0  0
    7.2974    1.3740    0.0000 C   0  0  0  0  0  0  0  0  0  0  0  0
    8.7024    0.8489    0.0000 C   0  0  0  0  0  0  0  0  0  0  0  0
    8.0585    2.6666    0.0000 C   0  0  0  0  0  0  0  0  0  0  0  0
    7.0242   -0.1009    0.0000 C   0  0  0  0  0  0  0  0  0  0  0  0
    5.6103   -0.6018    0.0000 C   0  0  0  0  0  0  0  0  0  0  0  0
    5.5437   -1.6932    0.0000 O   0  0  0  0  0  0  0  0  0  0  0  0
    0.2279   -1.1304    0.0000 C   0  0  0  0  0  0  0  0  0  0  0  0
   -1.1860   -1.6313    0.0000 C   0  0  0  0  0  0  0  0  0  0  0  0
   -8.8499   -0.2119    0.0000 C   0  0  0  0  0  0  0  0  0  0  0  0
   -9.9907    0.7621    0.0000 C   0  0  0  0  0  0  0  0  0  0  0  0
   -9.7175    2.2370    0.0000 O   0  0  0  0  0  0  0  0  0  0  0  0
  -11.4046    0.2612    0.0000 O   0  0  0  0  0  0  0  0  0  0  0  0
  2  1  1  6
  2  3  1  0
  3  4  2  0
  3  5  1  0
  5  6  1  0
  6  7  1  0
  7  8  1  0
  8  9  2  0
  9 10  1  0
 10 11  1  0
 11 12  2  0
 12 13  1  0
 13 14  1  0
 14 15  1  0
 14 16  1  0
 12 17  1  0
 17 18  2  0
 18 19  1  0
 18 20  1  0
 20 21  1  0
 21 22  1  0
 21 23  1  0
 21 24  1  0
 24 25  1  0
 25 26  2  0
 10 27  2  0
 27 28  1  0
  2 29  1  0
 29 30  1  0
 30 31  2  0
 30 32  1  0
 28  7  2  0
 25 17  1  0
M  END
>  <rName>  (4155) 
bAla_3SCbz

>  <PQ_SYMBOL>  (4155) 
bAla_3SCbz

>  <FULL_NAME>  (4155) 
(S,E)-3-amino-4-((4-((1-(2-hydroxy-4,4-dimethyl-6-oxocyclohex-1-en-1-yl)-3-methylbutylidene)amino)benzyl)oxy)-4-oxobutanoic acid

>  <IUPAC_CONDENSED>  (4155) 
bAla(3S-Cbz)

>  <IUPAC>  (4155) 
(3S)-3-amino-3-(((4-(((1E)-1-(2-hydroxy-4,4-dimethyl-6-oxocyclohex-1-en-1-yl)-3-methylbutylidene)amino)phenyl)methoxy)carbonyl)propanoic acid

>  <TYPE>  (4155) 
Backbone

>  <CLASS>  (4155) 
beta

>  <ANALOG>  (4155) 
X

>  <MOL_WT>  (4155) 
444.52800000000025

>  <LOGP>  (4155) 
3.851600000000002

>  <TPSA>  (4155) 
139.28

>  <POPULARITY>  (4155) 
2.5

>  <PROTECTED>  (4155) 
TRUE

>  <SMILES>  (4155) 
N[C@H](C(=O)OCc1ccc(/N=C(\CC(C)C)C2=C(O)CC(C)(C)CC2=O)cc1)CC(=O)O

>  <INCHIKEY>  (4155) 
HDLKFNYRIVDCAL-DXMZOVICSA-N

$$$$
bAla_3SEt
     RDKit          2D

  8  7  0  0  0  0  0  0  0  0999 V2000
    0.7931    1.4169    0.0000 N   0  0  0  0  0  0  0  0  0  0  0  0
    0.8131   -0.0829    0.0000 C   0  0  0  0  0  0  0  0  0  0  0  0
    2.1220   -0.8156    0.0000 C   0  0  0  0  0  0  0  0  0  0  0  0
    3.4109   -0.0483    0.0000 C   0  0  0  0  0  0  0  0  0  0  0  0
   -0.4759   -0.8502    0.0000 C   0  0  0  0  0  0  0  0  0  0  0  0
   -1.7848   -0.1175    0.0000 C   0  0  0  0  0  0  0  0  0  0  0  0
   -1.8048    1.3823    0.0000 O   0  0  0  0  0  0  0  0  0  0  0  0
   -3.0737   -0.8848    0.0000 O   0  0  0  0  0  0  0  0  0  0  0  0
  2  1  1  1
  2  3  1  0
  3  4  1  0
  2  5  1  0
  5  6  1  0
  6  7  2  0
  6  8  1  0
M  END
>  <rName>  (4156) 
bAla_3SEt

>  <PQ_SYMBOL>  (4156) 
bAla_3SEt

>  <FULL_NAME>  (4156) 
(S)-3-Aminopentanoic acid

>  <IUPAC_CONDENSED>  (4156) 
bAla(3S-Et)

>  <IUPAC>  (4156) 
(3S)-3-aminopentanoic acid

>  <TYPE>  (4156) 
Backbone

>  <CLASS>  (4156) 
beta

>  <ANALOG>  (4156) 
Ala

>  <MOL_WT>  (4156) 
117.14799999999998

>  <LOGP>  (4156) 
0.19839999999999985

>  <TPSA>  (4156) 
63.32000000000001

>  <POPULARITY>  (4156) 
14.4

>  <PROTECTED>  (4156) 
TRUE

>  <SMILES>  (4156) 
N[C@@H](CC)CC(=O)O

>  <INCHIKEY>  (4156) 
QFRURJKLPJVRQY-BYPYZUCNSA-N

$$$$
bAla_3SEtCONH2
     RDKit          2D

 11 10  0  0  0  0  0  0  0  0999 V2000
    0.8169   -1.6084    0.0000 N   0  0  0  0  0  0  0  0  0  0  0  0
    0.6128   -0.1223    0.0000 C   0  0  0  0  0  0  0  0  0  0  0  0
   -0.7762    0.4440    0.0000 C   0  0  0  0  0  0  0  0  0  0  0  0
   -1.9611   -0.4758    0.0000 C   0  0  0  0  0  0  0  0  0  0  0  0
   -3.3501    0.0905    0.0000 C   0  0  0  0  0  0  0  0  0  0  0  0
   -3.5542    1.5766    0.0000 O   0  0  0  0  0  0  0  0  0  0  0  0
   -4.5350   -0.8292    0.0000 N   0  0  0  0  0  0  0  0  0  0  0  0
    1.7977    0.7974    0.0000 C   0  0  0  0  0  0  0  0  0  0  0  0
    3.1867    0.2312    0.0000 C   0  0  0  0  0  0  0  0  0  0  0  0
    3.3908   -1.2549    0.0000 O   0  0  0  0  0  0  0  0  0  0  0  0
    4.3717    1.1509    0.0000 O   0  0  0  0  0  0  0  0  0  0  0  0
  2  1  1  1
  2  3  1  0
  3  4  1  0
  4  5  1  0
  5  6  2  0
  5  7  1  0
  2  8  1  0
  8  9  1  0
  9 10  2  0
  9 11  1  0
M  END
>  <rName>  (4157) 
bAla_3SEtCONH2

>  <PQ_SYMBOL>  (4157) 
bAla_3SEtCONH2

>  <FULL_NAME>  (4157) 
Beta-L-Homoglutamine

>  <IUPAC_CONDENSED>  (4157) 
bAla(3S-EtCONH2)

>  <IUPAC>  (4157) 
(3S)-3-amino-5-carbamoylpentanoic acid

>  <TYPE>  (4157) 
Backbone

>  <CLASS>  (4157) 
beta

>  <ANALOG>  (4157) 
Gln

>  <MOL_WT>  (4157) 
160.173

>  <LOGP>  (4157) 
-0.9460999999999993

>  <TPSA>  (4157) 
106.41000000000001

>  <POPULARITY>  (4157) 
21.4

>  <PROTECTED>  (4157) 
TRUE

>  <SMILES>  (4157) 
N[C@@H](CCC(=O)N)CC(=O)O

>  <INCHIKEY>  (4157) 
IDNSGZOFDGAHTI-BYPYZUCNSA-N

$$$$
bAla_3SEtNH2
     RDKit          2D

  9  8  0  0  0  0  0  0  0  0999 V2000
   -0.1633   -1.5188    0.0000 N   0  0  0  0  0  0  0  0  0  0  0  0
   -0.2877   -0.0239    0.0000 C   0  0  0  0  0  0  0  0  0  0  0  0
   -1.6444    0.6157    0.0000 C   0  0  0  0  0  0  0  0  0  0  0  0
   -2.8768   -0.2394    0.0000 C   0  0  0  0  0  0  0  0  0  0  0  0
   -4.2336    0.4002    0.0000 N   0  0  0  0  0  0  0  0  0  0  0  0
    0.9447    0.8312    0.0000 C   0  0  0  0  0  0  0  0  0  0  0  0
    2.3014    0.1915    0.0000 C   0  0  0  0  0  0  0  0  0  0  0  0
    2.4259   -1.3033    0.0000 O   0  0  0  0  0  0  0  0  0  0  0  0
    3.5338    1.0467    0.0000 O   0  0  0  0  0  0  0  0  0  0  0  0
  2  1  1  1
  2  3  1  0
  3  4  1  0
  4  5  1  0
  2  6  1  0
  6  7  1  0
  7  8  2  0
  7  9  1  0
M  END
>  <rName>  (4158) 
bAla_3SEtNH2

>  <PQ_SYMBOL>  (4158) 
bAla_3SEtNH2

>  <FULL_NAME>  (4158) 
(S)-3,5-diaminopentanoic acid

>  <IUPAC_CONDENSED>  (4158) 
bAla(3S-EtNH2)

>  <IUPAC>  (4158) 
(3S)-3,5-diaminopentanoic acid

>  <TYPE>  (4158) 
Backbone

>  <CLASS>  (4158) 
beta

>  <ANALOG>  (4158) 
X

>  <MOL_WT>  (4158) 
132.163

>  <LOGP>  (4158) 
-0.8628

>  <TPSA>  (4158) 
89.34

>  <POPULARITY>  (4158) 
8.1

>  <PROTECTED>  (4158) 
TRUE

>  <SMILES>  (4158) 
N[C@@H](CCN)CC(=O)O

>  <INCHIKEY>  (4158) 
UOYNFMVJDVKLNJ-BYPYZUCNSA-N

$$$$
bAla_3SEtO2H
     RDKit          2D

 10  9  0  0  0  0  0  0  0  0999 V2000
   -0.0000    1.3500    0.0000 N   0  0  0  0  0  0  0  0  0  0  0  0
   -0.0000   -0.1500    0.0000 C   0  0  0  0  0  0  0  0  0  0  0  0
   -1.2990   -0.9000    0.0000 C   0  0  0  0  0  0  0  0  0  0  0  0
   -2.5981   -0.1500    0.0000 C   0  0  0  0  0  0  0  0  0  0  0  0
   -2.5981    1.3500    0.0000 O   0  0  0  0  0  0  0  0  0  0  0  0
   -3.8971   -0.9000    0.0000 O   0  0  0  0  0  0  0  0  0  0  0  0
    1.2990   -0.9000    0.0000 C   0  0  0  0  0  0  0  0  0  0  0  0
    2.5981   -0.1500    0.0000 C   0  0  0  0  0  0  0  0  0  0  0  0
    2.5981    1.3500    0.0000 O   0  0  0  0  0  0  0  0  0  0  0  0
    3.8971   -0.9000    0.0000 O   0  0  0  0  0  0  0  0  0  0  0  0
  1  2  1  0
  2  3  1  0
  3  4  1  0
  4  5  2  0
  4  6  1  0
  2  7  1  0
  7  8  1  0
  8  9  2  0
  8 10  1  0
M  END
>  <rName>  (4159) 
bAla_3SEtO2H

>  <PQ_SYMBOL>  (4159) 
bAla_3SEtO2H

>  <FULL_NAME>  (4159) 
D-beta-Glutamic acid

>  <IUPAC_CONDENSED>  (4159) 
bAla(3S-EtO2H)

>  <IUPAC>  (4159) 
3-aminopentanedioic acid

>  <TYPE>  (4159) 
Backbone

>  <CLASS>  (4159) 
beta

>  <ANALOG>  (4159) 
Asp

>  <MOL_WT>  (4159) 
147.13

>  <LOGP>  (4159) 
-0.7369000000000001

>  <TPSA>  (4159) 
100.62000000000002

>  <POPULARITY>  (4159) 
8.7

>  <PROTECTED>  (4159) 
TRUE

>  <SMILES>  (4159) 
NC(CC(=O)O)CC(=O)O

>  <INCHIKEY>  (4159) 
BBJIPMIXTXKYLZ-UHFFFAOYSA-N

$$$$
bAla_3SEtPh
     RDKit          2D

 14 14  0  0  0  0  0  0  0  0999 V2000
   -2.1732   -1.6585    0.0000 N   0  0  0  0  0  0  0  0  0  0  0  0
   -1.8487   -0.1940    0.0000 C   0  0  0  0  0  0  0  0  0  0  0  0
   -0.4182    0.2573    0.0000 C   0  0  0  0  0  0  0  0  0  0  0  0
    0.6879   -0.7560    0.0000 C   0  0  0  0  0  0  0  0  0  0  0  0
    2.1184   -0.3047    0.0000 C   0  0  0  0  0  0  0  0  0  0  0  0
    2.4428    1.1598    0.0000 C   0  0  0  0  0  0  0  0  0  0  0  0
    3.8734    1.6110    0.0000 C   0  0  0  0  0  0  0  0  0  0  0  0
    4.9794    0.5978    0.0000 C   0  0  0  0  0  0  0  0  0  0  0  0
    4.6549   -0.8667    0.0000 C   0  0  0  0  0  0  0  0  0  0  0  0
    3.2244   -1.3180    0.0000 C   0  0  0  0  0  0  0  0  0  0  0  0
   -2.9548    0.8193    0.0000 C   0  0  0  0  0  0  0  0  0  0  0  0
   -4.3853    0.3680    0.0000 C   0  0  0  0  0  0  0  0  0  0  0  0
   -4.7097   -1.0965    0.0000 O   0  0  0  0  0  0  0  0  0  0  0  0
   -5.4913    1.3812    0.0000 O   0  0  0  0  0  0  0  0  0  0  0  0
  2  1  1  6
  2  3  1  0
  3  4  1  0
  4  5  1  0
  5  6  2  0
  6  7  1  0
  7  8  2  0
  8  9  1  0
  9 10  2  0
  2 11  1  0
 11 12  1  0
 12 13  2  0
 12 14  1  0
 10  5  1  0
M  END
>  <rName>  (4160) 
bAla_3SEtPh

>  <PQ_SYMBOL>  (4160) 
bAla_3SEtPh

>  <FULL_NAME>  (4160) 
(S)-3-amino-5-phenylpentanoic acid

>  <IUPAC_CONDENSED>  (4160) 
bAla(3S-EtPh)

>  <IUPAC>  (4160) 
(3S)-3-amino-5-phenylpentanoic acid

>  <TYPE>  (4160) 
Backbone

>  <CLASS>  (4160) 
beta

>  <ANALOG>  (4160) 
Phe

>  <MOL_WT>  (4160) 
193.24599999999995

>  <LOGP>  (4160) 
1.4211999999999998

>  <TPSA>  (4160) 
63.32000000000001

>  <POPULARITY>  (4160) 
9.9

>  <PROTECTED>  (4160) 
TRUE

>  <SMILES>  (4160) 
N[C@@H](CCc1(ccccc1))CC(=O)O

>  <INCHIKEY>  (4160) 
CJJYCYZKUNRKFP-JTQLQIEISA-N

$$$$
bAla_3SMbzl
     RDKit          2D

 14 14  0  0  0  0  0  0  0  0999 V2000
   -1.3163    1.1838    0.0000 N   0  0  0  0  0  0  0  0  0  0  0  0
   -1.5499   -0.2979    0.0000 C   0  0  0  0  0  0  0  0  0  0  0  0
   -0.3836   -1.2411    0.0000 C   0  0  0  0  0  0  0  0  0  0  0  0
    1.0164   -0.7026    0.0000 C   0  0  0  0  0  0  0  0  0  0  0  0
    1.2501    0.7790    0.0000 C   0  0  0  0  0  0  0  0  0  0  0  0
    2.6501    1.3175    0.0000 C   0  0  0  0  0  0  0  0  0  0  0  0
    3.8164    0.3743    0.0000 C   0  0  0  0  0  0  0  0  0  0  0  0
    5.2165    0.9127    0.0000 C   0  0  0  0  0  0  0  0  0  0  0  0
    3.5828   -1.1074    0.0000 C   0  0  0  0  0  0  0  0  0  0  0  0
    2.1827   -1.6459    0.0000 C   0  0  0  0  0  0  0  0  0  0  0  0
   -2.9500   -0.8363    0.0000 C   0  0  0  0  0  0  0  0  0  0  0  0
   -4.1163    0.1069    0.0000 C   0  0  0  0  0  0  0  0  0  0  0  0
   -3.8826    1.5886    0.0000 O   0  0  0  0  0  0  0  0  0  0  0  0
   -5.5163   -0.4316    0.0000 O   0  0  0  0  0  0  0  0  0  0  0  0
  2  1  1  1
  2  3  1  0
  3  4  1  0
  4  5  1  0
  5  6  2  0
  6  7  1  0
  7  8  1  0
  7  9  2  0
  9 10  1  0
  2 11  1  0
 11 12  1  0
 12 13  2  0
 12 14  1  0
 10  4  2  0
M  END
>  <rName>  (4161) 
bAla_3SMbzl

>  <PQ_SYMBOL>  (4161) 
bAla_3SMbzl

>  <FULL_NAME>  (4161) 
(3S)-3-amino-4-(4-methylphenyl)butanoic Acid

>  <IUPAC_CONDENSED>  (4161) 
bAla(3S-Mbzl)

>  <IUPAC>  (4161) 
(3S)-3-amino-4-(4-methylphenyl)butanoic acid

>  <TYPE>  (4161) 
Backbone

>  <CLASS>  (4161) 
beta

>  <ANALOG>  (4161) 
Phe

>  <MOL_WT>  (4161) 
193.24599999999995

>  <LOGP>  (4161) 
1.3395200000000003

>  <TPSA>  (4161) 
63.32000000000001

>  <POPULARITY>  (4161) 
8.1

>  <PROTECTED>  (4161) 
TRUE

>  <SMILES>  (4161) 
N[C@@H](Cc1(ccc(C)cc1))CC(=O)O

>  <INCHIKEY>  (4161) 
OCNPVFDANAYUCR-JTQLQIEISA-N

$$$$
bAla_3SMe
     RDKit          2D

  7  6  0  0  0  0  0  0  0  0999 V2000
   -1.2990    1.3929    0.0000 N   0  0  0  0  0  0  0  0  0  0  0  0
   -1.2990   -0.1071    0.0000 C   0  0  0  0  0  0  0  0  0  0  0  0
   -2.5981   -0.8571    0.0000 C   0  0  0  0  0  0  0  0  0  0  0  0
    0.0000   -0.8571    0.0000 C   0  0  0  0  0  0  0  0  0  0  0  0
    1.2990   -0.1071    0.0000 C   0  0  0  0  0  0  0  0  0  0  0  0
    1.2990    1.3929    0.0000 O   0  0  0  0  0  0  0  0  0  0  0  0
    2.5981   -0.8571    0.0000 O   0  0  0  0  0  0  0  0  0  0  0  0
  1  2  1  0
  2  3  1  6
  2  4  1  0
  4  5  1  0
  5  6  2  0
  5  7  1  0
M  END
>  <rName>  (4162) 
bAla_3SMe

>  <PQ_SYMBOL>  (4162) 
bAla_3SMe

>  <FULL_NAME>  (4162) 
L-Beta-Homo-Alanine

>  <IUPAC_CONDENSED>  (4162) 
bAla(3S-Me)

>  <IUPAC>  (4162) 
(3S)-3-aminobutanoic acid

>  <TYPE>  (4162) 
Backbone

>  <CLASS>  (4162) 
beta

>  <ANALOG>  (4162) 
Ala

>  <MOL_WT>  (4162) 
103.12099999999998

>  <LOGP>  (4162) 
-0.19170000000000004

>  <TPSA>  (4162) 
63.32000000000001

>  <POPULARITY>  (4162) 
30.7

>  <PROTECTED>  (4162) 
TRUE

>  <SMILES>  (4162) 
N[C@@H](C)CC(=O)O

>  <INCHIKEY>  (4162) 
OQEBBZSWEGYTPG-VKHMYHEASA-N

$$$$
bAla_3SMeNH2
     RDKit          2D

  8  7  0  0  0  0  0  0  0  0999 V2000
   -0.7931    1.4169    0.0000 N   0  0  0  0  0  0  0  0  0  0  0  0
   -0.8131   -0.0829    0.0000 C   0  0  0  0  0  0  0  0  0  0  0  0
   -2.1220   -0.8156    0.0000 C   0  0  0  0  0  0  0  0  0  0  0  0
   -3.4109   -0.0483    0.0000 N   0  0  0  0  0  0  0  0  0  0  0  0
    0.4759   -0.8502    0.0000 C   0  0  0  0  0  0  0  0  0  0  0  0
    1.7848   -0.1175    0.0000 C   0  0  0  0  0  0  0  0  0  0  0  0
    1.8048    1.3823    0.0000 O   0  0  0  0  0  0  0  0  0  0  0  0
    3.0737   -0.8848    0.0000 O   0  0  0  0  0  0  0  0  0  0  0  0
  2  1  1  1
  2  3  1  0
  3  4  1  0
  2  5  1  0
  5  6  1  0
  6  7  2  0
  6  8  1  0
M  END
>  <rName>  (4163) 
bAla_3SMeNH2

>  <PQ_SYMBOL>  (4163) 
bAla_3SMeNH2

>  <FULL_NAME>  (4163) 
(S)-3,4-diaminobutanoic acid

>  <IUPAC_CONDENSED>  (4163) 
bAla(3S-MeNH2)

>  <IUPAC>  (4163) 
(3S)-3,4-diaminobutanoic acid

>  <TYPE>  (4163) 
Backbone

>  <CLASS>  (4163) 
beta

>  <ANALOG>  (4163) 
X

>  <MOL_WT>  (4163) 
118.13599999999998

>  <LOGP>  (4163) 
-1.2529

>  <TPSA>  (4163) 
89.34

>  <POPULARITY>  (4163) 
17.0

>  <PROTECTED>  (4163) 
TRUE

>  <SMILES>  (4163) 
N[C@H](CN)CC(=O)O

>  <INCHIKEY>  (4163) 
XQKAYTBBWLDCBB-VKHMYHEASA-N

$$$$
bAla_3SMeSH
     RDKit          2D

  8  7  0  0  0  0  0  0  0  0999 V2000
   -0.7931    1.4169    0.0000 N   0  0  0  0  0  0  0  0  0  0  0  0
   -0.8131   -0.0829    0.0000 C   0  0  0  0  0  0  0  0  0  0  0  0
   -2.1220   -0.8156    0.0000 C   0  0  0  0  0  0  0  0  0  0  0  0
   -3.4109   -0.0483    0.0000 S   0  0  0  0  0  0  0  0  0  0  0  0
    0.4759   -0.8502    0.0000 C   0  0  0  0  0  0  0  0  0  0  0  0
    1.7848   -0.1175    0.0000 C   0  0  0  0  0  0  0  0  0  0  0  0
    1.8048    1.3823    0.0000 O   0  0  0  0  0  0  0  0  0  0  0  0
    3.0737   -0.8848    0.0000 O   0  0  0  0  0  0  0  0  0  0  0  0
  2  1  1  1
  2  3  1  0
  3  4  1  0
  2  5  1  0
  5  6  1  0
  6  7  2  0
  6  8  1  0
M  END
>  <rName>  (4164) 
bAla_3SMeSH

>  <PQ_SYMBOL>  (4164) 
bAla_3SMeSH

>  <FULL_NAME>  (4164) 
(3S)-3-amino-4-sulfanylbutanoic acid

>  <IUPAC_CONDENSED>  (4164) 
bAla(3S-MeSH)

>  <IUPAC>  (4164) 
(3S)-3-amino-4-sulfanylbutanoic acid

>  <TYPE>  (4164) 
Backbone

>  <CLASS>  (4164) 
beta

>  <ANALOG>  (4164) 
Cys

>  <MOL_WT>  (4164) 
135.188

>  <LOGP>  (4164) 
-0.28180000000000033

>  <TPSA>  (4164) 
63.32000000000001

>  <POPULARITY>  (4164) 
6.6

>  <PROTECTED>  (4164) 
TRUE

>  <SMILES>  (4164) 
N[C@H](CS)CC(=O)O

>  <INCHIKEY>  (4164) 
UGPZHAXXEJECMI-VKHMYHEASA-N

$$$$
bAla_3SMe_PhEt
     RDKit          2D

 15 15  0  0  0  0  0  0  0  0999 V2000
   -2.3375    1.3624    0.0000 N   0  0  0  0  0  0  0  0  0  0  0  0
   -2.4397   -0.1341    0.0000 C   0  0  0  0  0  0  0  0  0  0  0  0
   -1.1948   -0.9709    0.0000 C   0  0  0  0  0  0  0  0  0  0  0  0
    0.1524   -0.3111    0.0000 C   0  0  0  0  0  0  0  0  0  0  0  0
    1.3973   -1.1479    0.0000 C   0  0  0  0  0  0  0  0  0  0  0  0
    2.7444   -0.4881    0.0000 C   0  0  0  0  0  0  0  0  0  0  0  0
    2.8466    1.0084    0.0000 C   0  0  0  0  0  0  0  0  0  0  0  0
    4.1937    1.6681    0.0000 C   0  0  0  0  0  0  0  0  0  0  0  0
    5.4386    0.8314    0.0000 C   0  0  0  0  0  0  0  0  0  0  0  0
    5.3364   -0.6651    0.0000 C   0  0  0  0  0  0  0  0  0  0  0  0
    3.9893   -1.3249    0.0000 C   0  0  0  0  0  0  0  0  0  0  0  0
   -3.7868   -0.7938    0.0000 C   0  0  0  0  0  0  0  0  0  0  0  0
   -5.0317    0.0429    0.0000 C   0  0  0  0  0  0  0  0  0  0  0  0
   -4.9295    1.5395    0.0000 O   0  0  0  0  0  0  0  0  0  0  0  0
   -6.3788   -0.6168    0.0000 O   0  0  0  0  0  0  0  0  0  0  0  0
  2  1  1  1
  2  3  1  0
  3  4  1  0
  4  5  2  0
  5  6  1  0
  6  7  2  0
  7  8  1  0
  8  9  2  0
  9 10  1  0
 10 11  2  0
  2 12  1  0
 12 13  1  0
 13 14  2  0
 13 15  1  0
 11  6  1  0
M  END
>  <rName>  (4165) 
bAla_3SMe_PhEt

>  <PQ_SYMBOL>  (4165) 
bAla_3SMe_PhEt

>  <FULL_NAME>  (4165) 
(S,E)-3-amino-6-phenylhex-5-enoic acid

>  <IUPAC_CONDENSED>  (4165) 
bAla(3S-Me,PhEt)

>  <IUPAC>  (4165) 
(3S,5E)-3-amino-6-phenylhex-5-enoic acid

>  <TYPE>  (4165) 
Backbone

>  <CLASS>  (4165) 
beta

>  <ANALOG>  (4165) 
X

>  <MOL_WT>  (4165) 
205.25699999999998

>  <LOGP>  (4165) 
1.8919

>  <TPSA>  (4165) 
63.32000000000001

>  <POPULARITY>  (4165) 
5.0

>  <PROTECTED>  (4165) 
TRUE

>  <SMILES>  (4165) 
N[C@@H](C/C=C/c1ccccc1)CC(=O)O

>  <INCHIKEY>  (4165) 
BYMYELCZQGMMKN-ZPMKCOPCSA-N

$$$$
bAla_3SMe_bCH2cHex_2ROH
     RDKit          2D

 15 15  0  0  0  0  0  0  0  0999 V2000
   -1.9328   -1.8800    0.0000 N   0  0  0  0  0  0  0  0  0  0  0  0
   -1.6601   -0.4050    0.0000 C   0  0  0  0  0  0  0  0  0  0  0  0
   -0.2464    0.0964    0.0000 C   0  0  0  0  0  0  0  0  0  0  0  0
    0.8947   -0.8772    0.0000 C   0  0  0  0  0  0  0  0  0  0  0  0
    2.3084   -0.3758    0.0000 C   0  0  0  0  0  0  0  0  0  0  0  0
    2.5811    1.0992    0.0000 C   0  0  0  0  0  0  0  0  0  0  0  0
    3.9948    1.6006    0.0000 C   0  0  0  0  0  0  0  0  0  0  0  0
    5.1359    0.6269    0.0000 C   0  0  0  0  0  0  0  0  0  0  0  0
    4.8632   -0.8481    0.0000 C   0  0  0  0  0  0  0  0  0  0  0  0
    3.4495   -1.3495    0.0000 C   0  0  0  0  0  0  0  0  0  0  0  0
   -2.8012    0.5686    0.0000 C   0  0  0  0  0  0  0  0  0  0  0  0
   -2.5285    2.0436    0.0000 O   0  0  0  0  0  0  0  0  0  0  0  0
   -4.2149    0.0672    0.0000 C   0  0  0  0  0  0  0  0  0  0  0  0
   -4.4876   -1.4078    0.0000 O   0  0  0  0  0  0  0  0  0  0  0  0
   -5.3560    1.0409    0.0000 O   0  0  0  0  0  0  0  0  0  0  0  0
  2  1  1  6
  2  3  1  0
  3  4  1  0
  4  5  1  0
  5  6  1  0
  6  7  1  0
  7  8  1  0
  8  9  1  0
  9 10  1  0
  2 11  1  0
 11 12  1  6
 11 13  1  0
 13 14  2  0
 13 15  1  0
 10  5  1  0
M  END
>  <rName>  (4166) 
bAla_3SMe_bCH2cHex_2ROH

>  <PQ_SYMBOL>  (4166) 
bAla_3SMe_bCH2cHex_2ROH

>  <FULL_NAME>  (4166) 
(2R,3S)-3-amino-5-cyclohexyl-2-hydroxypentanoic acid

>  <IUPAC_CONDENSED>  (4166) 
bAla(3S-Me,b-CH2cHex,2R-OH)

>  <IUPAC>  (4166) 
(2R,3S)-3-amino-5-cyclohexyl-2-hydroxypentanoic acid

>  <TYPE>  (4166) 
Backbone

>  <CLASS>  (4166) 
beta

>  <ANALOG>  (4166) 
Ala

>  <MOL_WT>  (4166) 
215.293

>  <LOGP>  (4166) 
1.1196999999999997

>  <TPSA>  (4166) 
83.55

>  <POPULARITY>  (4166) 
1.7

>  <PROTECTED>  (4166) 
FALSE

>  <SMILES>  (4166) 
N[C@@H](CCC1(CCCCC1))[C@@H](O)C(=O)O

>  <INCHIKEY>  (4166) 
GLZAAGIGXRDUJQ-VHSXEESVSA-N

$$$$
bAla_3SMe_biPr_2SOH
     RDKit          2D

 11 10  0  0  0  0  0  0  0  0999 V2000
   -0.2095   -1.5586    0.0000 N   0  0  0  0  0  0  0  0  0  0  0  0
   -0.1219   -0.0612    0.0000 C   0  0  0  0  0  0  0  0  0  0  0  0
   -1.3749    0.7634    0.0000 C   0  0  0  0  0  0  0  0  0  0  0  0
   -2.7155    0.0906    0.0000 C   0  0  0  0  0  0  0  0  0  0  0  0
   -3.9685    0.9152    0.0000 C   0  0  0  0  0  0  0  0  0  0  0  0
   -2.8031   -1.4068    0.0000 C   0  0  0  0  0  0  0  0  0  0  0  0
    1.2188    0.6117    0.0000 C   0  0  0  0  0  0  0  0  0  0  0  0
    1.3064    2.1091    0.0000 O   0  0  0  0  0  0  0  0  0  0  0  0
    2.4718   -0.2129    0.0000 C   0  0  0  0  0  0  0  0  0  0  0  0
    2.3841   -1.7104    0.0000 O   0  0  0  0  0  0  0  0  0  0  0  0
    3.8124    0.4599    0.0000 O   0  0  0  0  0  0  0  0  0  0  0  0
  2  1  1  1
  2  3  1  0
  3  4  1  0
  4  5  1  0
  4  6  1  0
  2  7  1  0
  7  8  1  6
  7  9  1  0
  9 10  2  0
  9 11  1  0
M  END
>  <rName>  (4167) 
bAla_3SMe_biPr_2SOH

>  <PQ_SYMBOL>  (4167) 
bAla_3SMe_biPr_2SOH

>  <FULL_NAME>  (4167) 
(2S,3S)-3-amino-2-hydroxy-5-methylhexanoic acid

>  <IUPAC_CONDENSED>  (4167) 
bAla(3S-Me,b-iPr,2S-OH)

>  <IUPAC>  (4167) 
(2S,3S)-3-amino-2-hydroxy-5-methylhexanoic acid

>  <TYPE>  (4167) 
Backbone

>  <CLASS>  (4167) 
beta

>  <ANALOG>  (4167) 
Leu

>  <MOL_WT>  (4167) 
161.201

>  <LOGP>  (4167) 
-0.19470000000000032

>  <TPSA>  (4167) 
83.55

>  <POPULARITY>  (4167) 
10.4

>  <PROTECTED>  (4167) 
TRUE

>  <SMILES>  (4167) 
N[C@@H](CC(C)C)[C@H](O)C(=O)O

>  <INCHIKEY>  (4167) 
GZLMFCWSEKVVGO-WDSKDSINSA-N

$$$$
bAla_3SMob
     RDKit          2D

 15 15  0  0  0  0  0  0  0  0999 V2000
   -1.7431    1.1840    0.0000 N   0  0  0  0  0  0  0  0  0  0  0  0
   -1.9751   -0.2980    0.0000 C   0  0  0  0  0  0  0  0  0  0  0  0
   -0.8078   -1.2399    0.0000 C   0  0  0  0  0  0  0  0  0  0  0  0
    0.5916   -0.7000    0.0000 C   0  0  0  0  0  0  0  0  0  0  0  0
    0.8237    0.7820    0.0000 C   0  0  0  0  0  0  0  0  0  0  0  0
    2.2232    1.3219    0.0000 C   0  0  0  0  0  0  0  0  0  0  0  0
    3.3905    0.3800    0.0000 C   0  0  0  0  0  0  0  0  0  0  0  0
    4.7900    0.9199    0.0000 O   0  0  0  0  0  0  0  0  0  0  0  0
    5.9573   -0.0220    0.0000 C   0  0  0  0  0  0  0  0  0  0  0  0
    3.1584   -1.1020    0.0000 C   0  0  0  0  0  0  0  0  0  0  0  0
    1.7590   -1.6419    0.0000 C   0  0  0  0  0  0  0  0  0  0  0  0
   -3.3746   -0.8379    0.0000 C   0  0  0  0  0  0  0  0  0  0  0  0
   -4.5419    0.1040    0.0000 C   0  0  0  0  0  0  0  0  0  0  0  0
   -4.3098    1.5860    0.0000 O   0  0  0  0  0  0  0  0  0  0  0  0
   -5.9414   -0.4359    0.0000 O   0  0  0  0  0  0  0  0  0  0  0  0
  2  1  1  1
  2  3  1  0
  3  4  1  0
  4  5  1  0
  5  6  2  0
  6  7  1  0
  7  8  1  0
  8  9  1  0
  7 10  2  0
 10 11  1  0
  2 12  1  0
 12 13  1  0
 13 14  2  0
 13 15  1  0
 11  4  2  0
M  END
>  <rName>  (4168) 
bAla_3SMob

>  <PQ_SYMBOL>  (4168) 
bAla_3SMob

>  <FULL_NAME>  (4168) 
(S)-3-amino-4-(4-methoxyphenyl)butanoic acid

>  <IUPAC_CONDENSED>  (4168) 
bAla(3S-Mob)

>  <IUPAC>  (4168) 
(3S)-3-amino-4-(4-methoxyphenyl)butanoic acid

>  <TYPE>  (4168) 
Backbone

>  <CLASS>  (4168) 
beta

>  <ANALOG>  (4168) 
Tyr

>  <MOL_WT>  (4168) 
209.24499999999998

>  <LOGP>  (4168) 
1.0396999999999998

>  <TPSA>  (4168) 
72.55

>  <POPULARITY>  (4168) 
7.3

>  <PROTECTED>  (4168) 
TRUE

>  <SMILES>  (4168) 
N[C@@H](Cc1(ccc(OC)cc1))CC(=O)O

>  <INCHIKEY>  (4168) 
GQFFGGKZIKRIFE-VIFPVBQESA-N

$$$$
bAla_3SPh_23diCl
     RDKit          2D

 14 14  0  0  0  0  0  0  0  0999 V2000
   -1.2589   -1.7308    0.0000 N   0  0  0  0  0  0  0  0  0  0  0  0
   -0.9897   -0.2551    0.0000 C   0  0  0  0  0  0  0  0  0  0  0  0
    0.4228    0.2496    0.0000 C   0  0  0  0  0  0  0  0  0  0  0  0
    0.6920    1.7253    0.0000 C   0  0  0  0  0  0  0  0  0  0  0  0
    2.1045    2.2300    0.0000 C   0  0  0  0  0  0  0  0  0  0  0  0
    3.2479    1.2591    0.0000 C   0  0  0  0  0  0  0  0  0  0  0  0
    2.9787   -0.2166    0.0000 C   0  0  0  0  0  0  0  0  0  0  0  0
    4.1221   -1.1875    0.0000 Cl  0  0  0  0  0  0  0  0  0  0  0  0
    1.5662   -0.7213    0.0000 C   0  0  0  0  0  0  0  0  0  0  0  0
    1.2970   -2.1970    0.0000 Cl  0  0  0  0  0  0  0  0  0  0  0  0
   -2.1331    0.7158    0.0000 C   0  0  0  0  0  0  0  0  0  0  0  0
   -3.5456    0.2111    0.0000 C   0  0  0  0  0  0  0  0  0  0  0  0
   -3.8148   -1.2646    0.0000 O   0  0  0  0  0  0  0  0  0  0  0  0
   -4.6890    1.1820    0.0000 O   0  0  0  0  0  0  0  0  0  0  0  0
  2  1  1  1
  2  3  1  0
  3  4  2  0
  4  5  1  0
  5  6  2  0
  6  7  1  0
  7  8  1  0
  7  9  2  0
  9 10  1  0
  2 11  1  0
 11 12  1  0
 12 13  2  0
 12 14  1  0
  9  3  1  0
M  END
>  <rName>  (4169) 
bAla_3SPh_23diCl

>  <PQ_SYMBOL>  (4169) 
bAla_3SPh_23diCl

>  <FULL_NAME>  (4169) 
(S)-3-amino-3-(2,3-dichlorophenyl)propanoic acid

>  <IUPAC_CONDENSED>  (4169) 
bAla(3S-Ph(2,3-diCl))

>  <IUPAC>  (4169) 
(3S)-3-amino-3-(2,3-dichlorophenyl)propanoic acid

>  <TYPE>  (4169) 
Backbone

>  <CLASS>  (4169) 
beta

>  <ANALOG>  (4169) 
X

>  <MOL_WT>  (4169) 
234.08199999999997

>  <LOGP>  (4169) 
2.4679

>  <TPSA>  (4169) 
63.32000000000001

>  <POPULARITY>  (4169) 
6.7

>  <PROTECTED>  (4169) 
TRUE

>  <SMILES>  (4169) 
N[C@H](c1(cccc(Cl)c1Cl))CC(=O)O

>  <INCHIKEY>  (4169) 
GQKLESLYMHWBOP-ZETCQYMHSA-N

$$$$
bAla_3SPh_23diOMe
     RDKit          2D

 16 16  0  0  0  0  0  0  0  0999 V2000
   -1.3353   -1.5465    0.0000 N   0  0  0  0  0  0  0  0  0  0  0  0
   -1.2249   -0.0506    0.0000 C   0  0  0  0  0  0  0  0  0  0  0  0
    0.1258    0.6017    0.0000 C   0  0  0  0  0  0  0  0  0  0  0  0
    0.2363    2.0977    0.0000 C   0  0  0  0  0  0  0  0  0  0  0  0
    1.5870    2.7500    0.0000 C   0  0  0  0  0  0  0  0  0  0  0  0
    2.8273    1.9064    0.0000 C   0  0  0  0  0  0  0  0  0  0  0  0
    2.7169    0.4105    0.0000 C   0  0  0  0  0  0  0  0  0  0  0  0
    3.9572   -0.4331    0.0000 O   0  0  0  0  0  0  0  0  0  0  0  0
    3.8467   -1.9291    0.0000 C   0  0  0  0  0  0  0  0  0  0  0  0
    1.3661   -0.2419    0.0000 C   0  0  0  0  0  0  0  0  0  0  0  0
    1.2557   -1.7378    0.0000 O   0  0  0  0  0  0  0  0  0  0  0  0
   -0.0950   -2.3901    0.0000 C   0  0  0  0  0  0  0  0  0  0  0  0
   -2.4652    0.7930    0.0000 C   0  0  0  0  0  0  0  0  0  0  0  0
   -3.8159    0.1407    0.0000 C   0  0  0  0  0  0  0  0  0  0  0  0
   -3.9264   -1.3552    0.0000 O   0  0  0  0  0  0  0  0  0  0  0  0
   -5.0562    0.9843    0.0000 O   0  0  0  0  0  0  0  0  0  0  0  0
  2  1  1  1
  2  3  1  0
  3  4  2  0
  4  5  1  0
  5  6  2  0
  6  7  1  0
  7  8  1  0
  8  9  1  0
  7 10  2  0
 10 11  1  0
 11 12  1  0
  2 13  1  0
 13 14  1  0
 14 15  2  0
 14 16  1  0
 10  3  1  0
M  END
>  <rName>  (4170) 
bAla_3SPh_23diOMe

>  <PQ_SYMBOL>  (4170) 
bAla_3SPh_23diOMe

>  <FULL_NAME>  (4170) 
(S)-3-amino-3-(2,3-dimethoxyphenyl)propanoic acid

>  <IUPAC_CONDENSED>  (4170) 
bAla(3S-Ph(2,3-diOMe))

>  <IUPAC>  (4170) 
(3S)-3-amino-3-(2,3-dimethoxyphenyl)propanoic acid

>  <TYPE>  (4170) 
Backbone

>  <CLASS>  (4170) 
beta

>  <ANALOG>  (4170) 
X

>  <MOL_WT>  (4170) 
225.24399999999994

>  <LOGP>  (4170) 
1.1783000000000001

>  <TPSA>  (4170) 
81.78

>  <POPULARITY>  (4170) 
7.2

>  <PROTECTED>  (4170) 
TRUE

>  <SMILES>  (4170) 
N[C@H](c1(cccc(OC)c1OC))CC(=O)O

>  <INCHIKEY>  (4170) 
XZFWLSJPXJTSMZ-QMMMGPOBSA-N

$$$$
bAla_3SPh_24diCl
     RDKit          2D

 14 14  0  0  0  0  0  0  0  0999 V2000
   -1.5776   -1.7216    0.0000 N   0  0  0  0  0  0  0  0  0  0  0  0
   -1.0871   -0.3041    0.0000 C   0  0  0  0  0  0  0  0  0  0  0  0
    0.3858   -0.0201    0.0000 C   0  0  0  0  0  0  0  0  0  0  0  0
    0.8763    1.3974    0.0000 C   0  0  0  0  0  0  0  0  0  0  0  0
    2.3492    1.6814    0.0000 C   0  0  0  0  0  0  0  0  0  0  0  0
    3.3315    0.5478    0.0000 C   0  0  0  0  0  0  0  0  0  0  0  0
    4.8044    0.8318    0.0000 Cl  0  0  0  0  0  0  0  0  0  0  0  0
    2.8410   -0.8697    0.0000 C   0  0  0  0  0  0  0  0  0  0  0  0
    1.3682   -1.1537    0.0000 C   0  0  0  0  0  0  0  0  0  0  0  0
    0.8777   -2.5712    0.0000 Cl  0  0  0  0  0  0  0  0  0  0  0  0
   -2.0695    0.8295    0.0000 C   0  0  0  0  0  0  0  0  0  0  0  0
   -3.5423    0.5455    0.0000 C   0  0  0  0  0  0  0  0  0  0  0  0
   -4.0328   -0.8721    0.0000 O   0  0  0  0  0  0  0  0  0  0  0  0
   -4.5247    1.6790    0.0000 O   0  0  0  0  0  0  0  0  0  0  0  0
  2  1  1  1
  2  3  1  0
  3  4  1  0
  4  5  2  0
  5  6  1  0
  6  7  1  0
  6  8  2  0
  8  9  1  0
  9 10  1  0
  2 11  1  0
 11 12  1  0
 12 13  2  0
 12 14  1  0
  9  3  2  0
M  END
>  <rName>  (4171) 
bAla_3SPh_24diCl

>  <PQ_SYMBOL>  (4171) 
bAla_3SPh_24diCl

>  <FULL_NAME>  (4171) 
(S)-3-amino-3-(2,4-dichlorophenyl)propanoic acid

>  <IUPAC_CONDENSED>  (4171) 
bAla(3S-Ph(2,4-diCl))

>  <IUPAC>  (4171) 
(3S)-3-amino-3-(2,4-dichlorophenyl)propanoic acid

>  <TYPE>  (4171) 
Backbone

>  <CLASS>  (4171) 
beta

>  <ANALOG>  (4171) 
X

>  <MOL_WT>  (4171) 
234.08199999999997

>  <LOGP>  (4171) 
2.4679

>  <TPSA>  (4171) 
63.32000000000001

>  <POPULARITY>  (4171) 
7.3

>  <PROTECTED>  (4171) 
TRUE

>  <SMILES>  (4171) 
N[C@H](c1(ccc(Cl)cc1Cl))CC(=O)O

>  <INCHIKEY>  (4171) 
QGHQDRDWQIHGKZ-QMMMGPOBSA-N

$$$$
bAla_3SPh_24diF
     RDKit          2D

 14 14  0  0  0  0  0  0  0  0999 V2000
   -1.5776   -1.7216    0.0000 N   0  0  0  0  0  0  0  0  0  0  0  0
   -1.0871   -0.3041    0.0000 C   0  0  0  0  0  0  0  0  0  0  0  0
    0.3858   -0.0201    0.0000 C   0  0  0  0  0  0  0  0  0  0  0  0
    0.8763    1.3974    0.0000 C   0  0  0  0  0  0  0  0  0  0  0  0
    2.3492    1.6814    0.0000 C   0  0  0  0  0  0  0  0  0  0  0  0
    3.3315    0.5478    0.0000 C   0  0  0  0  0  0  0  0  0  0  0  0
    4.8044    0.8318    0.0000 F   0  0  0  0  0  0  0  0  0  0  0  0
    2.8410   -0.8697    0.0000 C   0  0  0  0  0  0  0  0  0  0  0  0
    1.3682   -1.1537    0.0000 C   0  0  0  0  0  0  0  0  0  0  0  0
    0.8777   -2.5712    0.0000 F   0  0  0  0  0  0  0  0  0  0  0  0
   -2.0695    0.8295    0.0000 C   0  0  0  0  0  0  0  0  0  0  0  0
   -3.5423    0.5455    0.0000 C   0  0  0  0  0  0  0  0  0  0  0  0
   -4.0328   -0.8721    0.0000 O   0  0  0  0  0  0  0  0  0  0  0  0
   -4.5247    1.6790    0.0000 O   0  0  0  0  0  0  0  0  0  0  0  0
  2  1  1  1
  2  3  1  0
  3  4  1  0
  4  5  2  0
  5  6  1  0
  6  7  1  0
  6  8  2  0
  8  9  1  0
  9 10  1  0
  2 11  1  0
 11 12  1  0
 12 13  2  0
 12 14  1  0
  9  3  2  0
M  END
>  <rName>  (4172) 
bAla_3SPh_24diF

>  <PQ_SYMBOL>  (4172) 
bAla_3SPh_24diF

>  <FULL_NAME>  (4172) 
(3S)-3-Amino-3-(2,4-difluorophenyl)propanoic acid

>  <IUPAC_CONDENSED>  (4172) 
bAla(3S-Ph(2,4-diF))

>  <IUPAC>  (4172) 
(3S)-3-amino-3-(2,4-difluorophenyl)propanoic acid

>  <TYPE>  (4172) 
Backbone

>  <CLASS>  (4172) 
beta

>  <ANALOG>  (4172) 
X

>  <MOL_WT>  (4172) 
201.17199999999997

>  <LOGP>  (4172) 
1.4393000000000002

>  <TPSA>  (4172) 
63.32000000000001

>  <POPULARITY>  (4172) 
5.3

>  <PROTECTED>  (4172) 
TRUE

>  <SMILES>  (4172) 
N[C@H](c1(ccc(F)cc1F))CC(=O)O

>  <INCHIKEY>  (4172) 
RXNSEGYWKJUNMR-QMMMGPOBSA-N

$$$$
bAla_3SPh_25diF
     RDKit          2D

 14 14  0  0  0  0  0  0  0  0999 V2000
   -1.5850   -1.7610    0.0000 N   0  0  0  0  0  0  0  0  0  0  0  0
   -0.9814   -0.3879    0.0000 C   0  0  0  0  0  0  0  0  0  0  0  0
    0.5097   -0.2240    0.0000 C   0  0  0  0  0  0  0  0  0  0  0  0
    1.1133    1.1491    0.0000 C   0  0  0  0  0  0  0  0  0  0  0  0
    2.6043    1.3129    0.0000 C   0  0  0  0  0  0  0  0  0  0  0  0
    3.2080    2.6861    0.0000 F   0  0  0  0  0  0  0  0  0  0  0  0
    3.4917    0.1036    0.0000 C   0  0  0  0  0  0  0  0  0  0  0  0
    2.8881   -1.2696    0.0000 C   0  0  0  0  0  0  0  0  0  0  0  0
    1.3970   -1.4334    0.0000 C   0  0  0  0  0  0  0  0  0  0  0  0
    0.7934   -2.8066    0.0000 F   0  0  0  0  0  0  0  0  0  0  0  0
   -1.8687    0.8215    0.0000 C   0  0  0  0  0  0  0  0  0  0  0  0
   -3.3598    0.6577    0.0000 C   0  0  0  0  0  0  0  0  0  0  0  0
   -3.9634   -0.7155    0.0000 O   0  0  0  0  0  0  0  0  0  0  0  0
   -4.2471    1.8671    0.0000 O   0  0  0  0  0  0  0  0  0  0  0  0
  2  1  1  1
  2  3  1  0
  3  4  1  0
  4  5  2  0
  5  6  1  0
  5  7  1  0
  7  8  2  0
  8  9  1  0
  9 10  1  0
  2 11  1  0
 11 12  1  0
 12 13  2  0
 12 14  1  0
  9  3  2  0
M  END
>  <rName>  (4173) 
bAla_3SPh_25diF

>  <PQ_SYMBOL>  (4173) 
bAla_3SPh_25diF

>  <FULL_NAME>  (4173) 
(3S)-3-amino-3-(2,5-difluorophenyl)propanoic Acid

>  <IUPAC_CONDENSED>  (4173) 
bAla(3S-Ph(2,5-diF))

>  <IUPAC>  (4173) 
(3S)-3-amino-3-(2,5-difluorophenyl)propanoic acid

>  <TYPE>  (4173) 
Backbone

>  <CLASS>  (4173) 
beta

>  <ANALOG>  (4173) 
X

>  <MOL_WT>  (4173) 
201.17199999999997

>  <LOGP>  (4173) 
1.4393000000000002

>  <TPSA>  (4173) 
63.32000000000001

>  <POPULARITY>  (4173) 
4.8

>  <PROTECTED>  (4173) 
TRUE

>  <SMILES>  (4173) 
N[C@H](c1(cc(F)ccc1F))CC(=O)O

>  <INCHIKEY>  (4173) 
AXIFQWRTBOFNKU-QMMMGPOBSA-N

$$$$
bAla_3SPh_26diF
     RDKit          2D

 14 14  0  0  0  0  0  0  0  0999 V2000
   -1.1046   -1.9187    0.0000 N   0  0  0  0  0  0  0  0  0  0  0  0
   -0.7072   -0.4724    0.0000 C   0  0  0  0  0  0  0  0  0  0  0  0
    0.7442   -0.0934    0.0000 C   0  0  0  0  0  0  0  0  0  0  0  0
    1.1416    1.3530    0.0000 C   0  0  0  0  0  0  0  0  0  0  0  0
    0.0878    2.4204    0.0000 F   0  0  0  0  0  0  0  0  0  0  0  0
    2.5930    1.7320    0.0000 C   0  0  0  0  0  0  0  0  0  0  0  0
    3.6468    0.6646    0.0000 C   0  0  0  0  0  0  0  0  0  0  0  0
    3.2494   -0.7818    0.0000 C   0  0  0  0  0  0  0  0  0  0  0  0
    1.7980   -1.1608    0.0000 C   0  0  0  0  0  0  0  0  0  0  0  0
    1.4006   -2.6072    0.0000 F   0  0  0  0  0  0  0  0  0  0  0  0
   -1.7610    0.5951    0.0000 C   0  0  0  0  0  0  0  0  0  0  0  0
   -3.2124    0.2161    0.0000 C   0  0  0  0  0  0  0  0  0  0  0  0
   -3.6098   -1.2303    0.0000 O   0  0  0  0  0  0  0  0  0  0  0  0
   -4.2662    1.2835    0.0000 O   0  0  0  0  0  0  0  0  0  0  0  0
  2  1  1  1
  2  3  1  0
  3  4  2  0
  4  5  1  0
  4  6  1  0
  6  7  2  0
  7  8  1  0
  8  9  2  0
  9 10  1  0
  2 11  1  0
 11 12  1  0
 12 13  2  0
 12 14  1  0
  9  3  1  0
M  END
>  <rName>  (4174) 
bAla_3SPh_26diF

>  <PQ_SYMBOL>  (4174) 
bAla_3SPh_26diF

>  <FULL_NAME>  (4174) 
(3S)-3-amino-3-(2,6-difluorophenyl)propanoic acid

>  <IUPAC_CONDENSED>  (4174) 
bAla(3S-Ph(2,6-diF))

>  <IUPAC>  (4174) 
(3S)-3-amino-3-(2,6-difluorophenyl)propanoic acid

>  <TYPE>  (4174) 
Backbone

>  <CLASS>  (4174) 
beta

>  <ANALOG>  (4174) 
X

>  <MOL_WT>  (4174) 
201.17199999999994

>  <LOGP>  (4174) 
1.4393

>  <TPSA>  (4174) 
63.32000000000001

>  <POPULARITY>  (4174) 
5.8

>  <PROTECTED>  (4174) 
TRUE

>  <SMILES>  (4174) 
N[C@H](c1(c(F)cccc1F))CC(=O)O

>  <INCHIKEY>  (4174) 
AGYPPOKFXIOJTJ-ZETCQYMHSA-N

$$$$
bAla_3SPh_2Br
     RDKit          2D

 13 13  0  0  0  0  0  0  0  0999 V2000
   -1.0916   -1.7365    0.0000 N   0  0  0  0  0  0  0  0  0  0  0  0
   -0.6994   -0.2887    0.0000 C   0  0  0  0  0  0  0  0  0  0  0  0
    0.7506    0.0955    0.0000 C   0  0  0  0  0  0  0  0  0  0  0  0
    1.1428    1.5433    0.0000 C   0  0  0  0  0  0  0  0  0  0  0  0
    2.5927    1.9276    0.0000 C   0  0  0  0  0  0  0  0  0  0  0  0
    3.6505    0.8640    0.0000 C   0  0  0  0  0  0  0  0  0  0  0  0
    3.2583   -0.5838    0.0000 C   0  0  0  0  0  0  0  0  0  0  0  0
    1.8083   -0.9680    0.0000 C   0  0  0  0  0  0  0  0  0  0  0  0
    1.4161   -2.4159    0.0000 Br  0  0  0  0  0  0  0  0  0  0  0  0
   -1.7571    0.7749    0.0000 C   0  0  0  0  0  0  0  0  0  0  0  0
   -3.2071    0.3906    0.0000 C   0  0  0  0  0  0  0  0  0  0  0  0
   -3.5993   -1.0572    0.0000 O   0  0  0  0  0  0  0  0  0  0  0  0
   -4.2648    1.4542    0.0000 O   0  0  0  0  0  0  0  0  0  0  0  0
  2  1  1  1
  2  3  1  0
  3  4  2  0
  4  5  1  0
  5  6  2  0
  6  7  1  0
  7  8  2  0
  8  9  1  0
  2 10  1  0
 10 11  1  0
 11 12  2  0
 11 13  1  0
  8  3  1  0
M  END
>  <rName>  (4175) 
bAla_3SPh_2Br

>  <PQ_SYMBOL>  (4175) 
bAla_3SPh_2Br

>  <FULL_NAME>  (4175) 
(S)-3-amino-3-(2-bromophenyl)propanoic acid

>  <IUPAC_CONDENSED>  (4175) 
bAla(3S-Ph(2-Br))

>  <IUPAC>  (4175) 
(3S)-3-amino-3-(2-bromophenyl)propanoic acid

>  <TYPE>  (4175) 
Backbone

>  <CLASS>  (4175) 
beta

>  <ANALOG>  (4175) 
X

>  <MOL_WT>  (4175) 
244.08799999999997

>  <LOGP>  (4175) 
1.9236

>  <TPSA>  (4175) 
63.32000000000001

>  <POPULARITY>  (4175) 
7.6

>  <PROTECTED>  (4175) 
TRUE

>  <SMILES>  (4175) 
N[C@H](c1(ccccc1Br))CC(=O)O

>  <INCHIKEY>  (4175) 
OETRFEPZCAGEMK-QMMMGPOBSA-N

$$$$
bAla_3SPh_2CF3
     RDKit          2D

 16 16  0  0  0  0  0  0  0  0999 V2000
   -1.0824   -1.4239    0.0000 N   0  0  0  0  0  0  0  0  0  0  0  0
   -0.9716    0.0720    0.0000 C   0  0  0  0  0  0  0  0  0  0  0  0
    0.3793    0.7240    0.0000 C   0  0  0  0  0  0  0  0  0  0  0  0
    0.4901    2.2199    0.0000 C   0  0  0  0  0  0  0  0  0  0  0  0
    1.8410    2.8718    0.0000 C   0  0  0  0  0  0  0  0  0  0  0  0
    3.0811    2.0279    0.0000 C   0  0  0  0  0  0  0  0  0  0  0  0
    2.9703    0.5320    0.0000 C   0  0  0  0  0  0  0  0  0  0  0  0
    1.6194   -0.1200    0.0000 C   0  0  0  0  0  0  0  0  0  0  0  0
    1.5085   -1.6159    0.0000 C   0  0  0  0  0  0  0  0  0  0  0  0
    1.3977   -3.1118    0.0000 F   0  0  0  0  0  0  0  0  0  0  0  0
    3.0044   -1.7267    0.0000 F   0  0  0  0  0  0  0  0  0  0  0  0
    0.0126   -1.5050    0.0000 F   0  0  0  0  0  0  0  0  0  0  0  0
   -2.2117    0.9159    0.0000 C   0  0  0  0  0  0  0  0  0  0  0  0
   -3.5626    0.2639    0.0000 C   0  0  0  0  0  0  0  0  0  0  0  0
   -3.6734   -1.2320    0.0000 O   0  0  0  0  0  0  0  0  0  0  0  0
   -4.8027    1.1079    0.0000 O   0  0  0  0  0  0  0  0  0  0  0  0
  2  1  1  1
  2  3  1  0
  3  4  2  0
  4  5  1  0
  5  6  2  0
  6  7  1  0
  7  8  2  0
  8  9  1  0
  9 10  1  0
  9 11  1  0
  9 12  1  0
  2 13  1  0
 13 14  1  0
 14 15  2  0
 14 16  1  0
  8  3  1  0
M  END
>  <rName>  (4176) 
bAla_3SPh_2CF3

>  <PQ_SYMBOL>  (4176) 
bAla_3SPh_2CF3

>  <FULL_NAME>  (4176) 
(S)-3-amino-3-(2-(trifluoromethyl)phenyl)propanoic acid

>  <IUPAC_CONDENSED>  (4176) 
bAla(3S-Ph(2-CF3))

>  <IUPAC>  (4176) 
(3S)-3-amino-3-(2-(trifluoromethyl)phenyl)propanoic acid

>  <TYPE>  (4176) 
Backbone

>  <CLASS>  (4176) 
beta

>  <ANALOG>  (4176) 
X

>  <MOL_WT>  (4176) 
233.18899999999994

>  <LOGP>  (4176) 
2.1799

>  <TPSA>  (4176) 
63.32000000000001

>  <POPULARITY>  (4176) 
6.8

>  <PROTECTED>  (4176) 
TRUE

>  <SMILES>  (4176) 
N[C@H](c1(ccccc1C(F)(F)F))CC(=O)O

>  <INCHIKEY>  (4176) 
MXKROQQTKYAUJB-QMMMGPOBSA-N

$$$$
bAla_3SPh_2Cl
     RDKit          2D

 13 13  0  0  0  0  0  0  0  0999 V2000
   -1.0916   -1.7365    0.0000 N   0  0  0  0  0  0  0  0  0  0  0  0
   -0.6994   -0.2887    0.0000 C   0  0  0  0  0  0  0  0  0  0  0  0
    0.7506    0.0955    0.0000 C   0  0  0  0  0  0  0  0  0  0  0  0
    1.1428    1.5433    0.0000 C   0  0  0  0  0  0  0  0  0  0  0  0
    2.5927    1.9276    0.0000 C   0  0  0  0  0  0  0  0  0  0  0  0
    3.6505    0.8640    0.0000 C   0  0  0  0  0  0  0  0  0  0  0  0
    3.2583   -0.5838    0.0000 C   0  0  0  0  0  0  0  0  0  0  0  0
    1.8083   -0.9680    0.0000 C   0  0  0  0  0  0  0  0  0  0  0  0
    1.4161   -2.4159    0.0000 Cl  0  0  0  0  0  0  0  0  0  0  0  0
   -1.7571    0.7749    0.0000 C   0  0  0  0  0  0  0  0  0  0  0  0
   -3.2071    0.3906    0.0000 C   0  0  0  0  0  0  0  0  0  0  0  0
   -3.5993   -1.0572    0.0000 O   0  0  0  0  0  0  0  0  0  0  0  0
   -4.2648    1.4542    0.0000 O   0  0  0  0  0  0  0  0  0  0  0  0
  2  1  1  1
  2  3  1  0
  3  4  2  0
  4  5  1  0
  5  6  2  0
  6  7  1  0
  7  8  2  0
  8  9  1  0
  2 10  1  0
 10 11  1  0
 11 12  2  0
 11 13  1  0
  8  3  1  0
M  END
>  <rName>  (4177) 
bAla_3SPh_2Cl

>  <PQ_SYMBOL>  (4177) 
bAla_3SPh_2Cl

>  <FULL_NAME>  (4177) 
(S)-3-amino-3-(2-chlorophenyl)propanoic acid

>  <IUPAC_CONDENSED>  (4177) 
bAla(3S-Ph(2-Cl))

>  <IUPAC>  (4177) 
(3S)-3-amino-3-(2-chlorophenyl)propanoic acid

>  <TYPE>  (4177) 
Backbone

>  <CLASS>  (4177) 
beta

>  <ANALOG>  (4177) 
X

>  <MOL_WT>  (4177) 
199.63699999999994

>  <LOGP>  (4177) 
1.8145000000000002

>  <TPSA>  (4177) 
63.32000000000001

>  <POPULARITY>  (4177) 
9.0

>  <PROTECTED>  (4177) 
TRUE

>  <SMILES>  (4177) 
N[C@H](c1(ccccc1Cl))CC(=O)O

>  <INCHIKEY>  (4177) 
NXXFYRJVRISCCP-QMMMGPOBSA-N

$$$$
bAla_3SPh_2F
     RDKit          2D

 13 13  0  0  0  0  0  0  0  0999 V2000
   -1.0916   -1.7365    0.0000 N   0  0  0  0  0  0  0  0  0  0  0  0
   -0.6994   -0.2887    0.0000 C   0  0  0  0  0  0  0  0  0  0  0  0
    0.7506    0.0955    0.0000 C   0  0  0  0  0  0  0  0  0  0  0  0
    1.1428    1.5433    0.0000 C   0  0  0  0  0  0  0  0  0  0  0  0
    2.5927    1.9276    0.0000 C   0  0  0  0  0  0  0  0  0  0  0  0
    3.6505    0.8640    0.0000 C   0  0  0  0  0  0  0  0  0  0  0  0
    3.2583   -0.5838    0.0000 C   0  0  0  0  0  0  0  0  0  0  0  0
    1.8083   -0.9680    0.0000 C   0  0  0  0  0  0  0  0  0  0  0  0
    1.4161   -2.4159    0.0000 F   0  0  0  0  0  0  0  0  0  0  0  0
   -1.7571    0.7749    0.0000 C   0  0  0  0  0  0  0  0  0  0  0  0
   -3.2071    0.3906    0.0000 C   0  0  0  0  0  0  0  0  0  0  0  0
   -3.5993   -1.0572    0.0000 O   0  0  0  0  0  0  0  0  0  0  0  0
   -4.2648    1.4542    0.0000 O   0  0  0  0  0  0  0  0  0  0  0  0
  2  1  1  1
  2  3  1  0
  3  4  2  0
  4  5  1  0
  5  6  2  0
  6  7  1  0
  7  8  2  0
  8  9  1  0
  2 10  1  0
 10 11  1  0
 11 12  2  0
 11 13  1  0
  8  3  1  0
M  END
>  <rName>  (4178) 
bAla_3SPh_2F

>  <PQ_SYMBOL>  (4178) 
bAla_3SPh_2F

>  <FULL_NAME>  (4178) 
(S)-3-amino-3-(2-fluorophenyl)propanoic acid

>  <IUPAC_CONDENSED>  (4178) 
bAla(3S-Ph(2-F))

>  <IUPAC>  (4178) 
(3S)-3-amino-3-(2-fluorophenyl)propanoic acid

>  <TYPE>  (4178) 
Backbone

>  <CLASS>  (4178) 
beta

>  <ANALOG>  (4178) 
X

>  <MOL_WT>  (4178) 
183.18199999999996

>  <LOGP>  (4178) 
1.3002000000000002

>  <TPSA>  (4178) 
63.32000000000001

>  <POPULARITY>  (4178) 
9.4

>  <PROTECTED>  (4178) 
TRUE

>  <SMILES>  (4178) 
N[C@H](c1(ccccc1F))CC(=O)O

>  <INCHIKEY>  (4178) 
RSCLTSJQAQBNCE-QMMMGPOBSA-N

$$$$
bAla_3SPh_2F_5Br
     RDKit          2D

 14 14  0  0  0  0  0  0  0  0999 V2000
   -1.5850   -1.7610    0.0000 N   0  0  0  0  0  0  0  0  0  0  0  0
   -0.9814   -0.3879    0.0000 C   0  0  0  0  0  0  0  0  0  0  0  0
    0.5097   -0.2240    0.0000 C   0  0  0  0  0  0  0  0  0  0  0  0
    1.1133    1.1491    0.0000 C   0  0  0  0  0  0  0  0  0  0  0  0
    2.6043    1.3129    0.0000 C   0  0  0  0  0  0  0  0  0  0  0  0
    3.2080    2.6861    0.0000 Br  0  0  0  0  0  0  0  0  0  0  0  0
    3.4917    0.1036    0.0000 C   0  0  0  0  0  0  0  0  0  0  0  0
    2.8881   -1.2696    0.0000 C   0  0  0  0  0  0  0  0  0  0  0  0
    1.3970   -1.4334    0.0000 C   0  0  0  0  0  0  0  0  0  0  0  0
    0.7934   -2.8066    0.0000 F   0  0  0  0  0  0  0  0  0  0  0  0
   -1.8687    0.8215    0.0000 C   0  0  0  0  0  0  0  0  0  0  0  0
   -3.3598    0.6577    0.0000 C   0  0  0  0  0  0  0  0  0  0  0  0
   -3.9634   -0.7155    0.0000 O   0  0  0  0  0  0  0  0  0  0  0  0
   -4.2471    1.8671    0.0000 O   0  0  0  0  0  0  0  0  0  0  0  0
  2  1  1  1
  2  3  1  0
  3  4  1  0
  4  5  2  0
  5  6  1  0
  5  7  1  0
  7  8  2  0
  8  9  1  0
  9 10  1  0
  2 11  1  0
 11 12  1  0
 12 13  2  0
 12 14  1  0
  9  3  2  0
M  END
>  <rName>  (4179) 
bAla_3SPh_2F_5Br

>  <PQ_SYMBOL>  (4179) 
bAla_3SPh_2F_5Br

>  <FULL_NAME>  (4179) 
(S)-3-Amino-3-(5-bromo-2-fluorophenyl)propanoicacidhcl

>  <IUPAC_CONDENSED>  (4179) 
bAla(3S-Ph(2-F,5-Br))

>  <IUPAC>  (4179) 
(3S)-3-amino-3-(5-bromo-2-fluorophenyl)propanoic acid

>  <TYPE>  (4179) 
Backbone

>  <CLASS>  (4179) 
beta

>  <ANALOG>  (4179) 
X

>  <MOL_WT>  (4179) 
262.078

>  <LOGP>  (4179) 
2.0627

>  <TPSA>  (4179) 
63.32000000000001

>  <POPULARITY>  (4179) 
4.2

>  <PROTECTED>  (4179) 
TRUE

>  <SMILES>  (4179) 
N[C@H](c1(cc(Br)ccc1F))CC(=O)O

>  <INCHIKEY>  (4179) 
QHKWNVXSQJZRJG-QMMMGPOBSA-N

$$$$
bAla_3SPh_2Me
     RDKit          2D

 13 13  0  0  0  0  0  0  0  0999 V2000
   -1.0916   -1.7365    0.0000 N   0  0  0  0  0  0  0  0  0  0  0  0
   -0.6994   -0.2887    0.0000 C   0  0  0  0  0  0  0  0  0  0  0  0
    0.7506    0.0955    0.0000 C   0  0  0  0  0  0  0  0  0  0  0  0
    1.1428    1.5433    0.0000 C   0  0  0  0  0  0  0  0  0  0  0  0
    2.5927    1.9276    0.0000 C   0  0  0  0  0  0  0  0  0  0  0  0
    3.6505    0.8640    0.0000 C   0  0  0  0  0  0  0  0  0  0  0  0
    3.2583   -0.5838    0.0000 C   0  0  0  0  0  0  0  0  0  0  0  0
    1.8083   -0.9680    0.0000 C   0  0  0  0  0  0  0  0  0  0  0  0
    1.4161   -2.4159    0.0000 C   0  0  0  0  0  0  0  0  0  0  0  0
   -1.7571    0.7749    0.0000 C   0  0  0  0  0  0  0  0  0  0  0  0
   -3.2071    0.3906    0.0000 C   0  0  0  0  0  0  0  0  0  0  0  0
   -3.5993   -1.0572    0.0000 O   0  0  0  0  0  0  0  0  0  0  0  0
   -4.2648    1.4542    0.0000 O   0  0  0  0  0  0  0  0  0  0  0  0
  2  1  1  1
  2  3  1  0
  3  4  2  0
  4  5  1  0
  5  6  2  0
  6  7  1  0
  7  8  2  0
  8  9  1  0
  2 10  1  0
 10 11  1  0
 11 12  2  0
 11 13  1  0
  8  3  1  0
M  END
>  <rName>  (4180) 
bAla_3SPh_2Me

>  <PQ_SYMBOL>  (4180) 
bAla_3SPh_2Me

>  <FULL_NAME>  (4180) 
(S)-3-amino-3-(o-tolyl)propanoic acid

>  <IUPAC_CONDENSED>  (4180) 
bAla(3S-Ph(2-Me))

>  <IUPAC>  (4180) 
(3S)-3-amino-3-(2-methylphenyl)propanoic acid

>  <TYPE>  (4180) 
Backbone

>  <CLASS>  (4180) 
beta

>  <ANALOG>  (4180) 
X

>  <MOL_WT>  (4180) 
179.21899999999997

>  <LOGP>  (4180) 
1.4695200000000002

>  <TPSA>  (4180) 
63.32000000000001

>  <POPULARITY>  (4180) 
9.8

>  <PROTECTED>  (4180) 
TRUE

>  <SMILES>  (4180) 
N[C@H](c1(ccccc1C))CC(=O)O

>  <INCHIKEY>  (4180) 
GORGZFRGYDIRJA-VIFPVBQESA-N

$$$$
bAla_3SPh_2Me_4OMe
     RDKit          2D

 15 15  0  0  0  0  0  0  0  0999 V2000
   -1.9396   -1.7285    0.0000 N   0  0  0  0  0  0  0  0  0  0  0  0
   -1.4688   -0.3044    0.0000 C   0  0  0  0  0  0  0  0  0  0  0  0
   -0.0000    0.0000    0.0000 C   0  0  0  0  0  0  0  0  0  0  0  0
    0.4708    1.4242    0.0000 C   0  0  0  0  0  0  0  0  0  0  0  0
    1.9396    1.7285    0.0000 C   0  0  0  0  0  0  0  0  0  0  0  0
    2.9376    0.6087    0.0000 C   0  0  0  0  0  0  0  0  0  0  0  0
    4.4064    0.9131    0.0000 O   0  0  0  0  0  0  0  0  0  0  0  0
    5.4044   -0.2068    0.0000 C   0  0  0  0  0  0  0  0  0  0  0  0
    2.4668   -0.8155    0.0000 C   0  0  0  0  0  0  0  0  0  0  0  0
    0.9980   -1.1198    0.0000 C   0  0  0  0  0  0  0  0  0  0  0  0
    0.5272   -2.5440    0.0000 C   0  0  0  0  0  0  0  0  0  0  0  0
   -2.4668    0.8155    0.0000 C   0  0  0  0  0  0  0  0  0  0  0  0
   -3.9356    0.5111    0.0000 C   0  0  0  0  0  0  0  0  0  0  0  0
   -4.4064   -0.9131    0.0000 O   0  0  0  0  0  0  0  0  0  0  0  0
   -4.9335    1.6310    0.0000 O   0  0  0  0  0  0  0  0  0  0  0  0
  2  1  1  1
  2  3  1  0
  3  4  1  0
  4  5  2  0
  5  6  1  0
  6  7  1  0
  7  8  1  0
  6  9  2  0
  9 10  1  0
 10 11  1  0
  2 12  1  0
 12 13  1  0
 13 14  2  0
 13 15  1  0
 10  3  2  0
M  END
>  <rName>  (4181) 
bAla_3SPh_2Me_4OMe

>  <PQ_SYMBOL>  (4181) 
bAla_3SPh_2Me_4OMe

>  <FULL_NAME>  (4181) 
COc1ccc([C@@H](N)CC(=O)O)c(C)c1

>  <IUPAC_CONDENSED>  (4181) 
bAla(3S-Ph(2-Me,4-OMe))

>  <IUPAC>  (4181) 
(3S)-3-amino-3-(4-methoxy-2-methylphenyl)propanoic acid

>  <TYPE>  (4181) 
Backbone

>  <CLASS>  (4181) 
beta

>  <ANALOG>  (4181) 
X

>  <MOL_WT>  (4181) 
209.24499999999995

>  <LOGP>  (4181) 
1.47812

>  <TPSA>  (4181) 
72.55

>  <POPULARITY>  (4181) 
6.0

>  <PROTECTED>  (4181) 
TRUE

>  <SMILES>  (4181) 
N[C@H](c1(ccc(OC)cc1C))CC(=O)O

>  <INCHIKEY>  (4181) 
YJSKHELDOTYOGG-JTQLQIEISA-N

$$$$
bAla_3SPh_2NO2
     RDKit          2D

 15 15  0  0  0  0  0  0  0  0999 V2000
   -1.0552   -1.4821    0.0000 N   0  0  0  0  0  0  0  0  0  0  0  0
   -0.8718    0.0067    0.0000 C   0  0  0  0  0  0  0  0  0  0  0  0
    0.5093    0.5922    0.0000 C   0  0  0  0  0  0  0  0  0  0  0  0
    0.6928    2.0809    0.0000 C   0  0  0  0  0  0  0  0  0  0  0  0
    2.0738    2.6664    0.0000 C   0  0  0  0  0  0  0  0  0  0  0  0
    3.2713    1.7631    0.0000 C   0  0  0  0  0  0  0  0  0  0  0  0
    3.0878    0.2744    0.0000 C   0  0  0  0  0  0  0  0  0  0  0  0
    1.7068   -0.3111    0.0000 C   0  0  0  0  0  0  0  0  0  0  0  0
    1.5233   -1.7999    0.0000 N   0  0  0  0  0  0  0  0  0  0  0  0
    0.1423   -2.3853    0.0000 O   0  0  0  0  0  0  0  0  0  0  0  0
    2.7209   -2.7031    0.0000 O   0  0  0  0  0  0  0  0  0  0  0  0
   -2.0693    0.9100    0.0000 C   0  0  0  0  0  0  0  0  0  0  0  0
   -3.4503    0.3245    0.0000 C   0  0  0  0  0  0  0  0  0  0  0  0
   -3.6338   -1.1643    0.0000 O   0  0  0  0  0  0  0  0  0  0  0  0
   -4.6479    1.2278    0.0000 O   0  0  0  0  0  0  0  0  0  0  0  0
  2  1  1  1
  2  3  1  0
  3  4  2  0
  4  5  1  0
  5  6  2  0
  6  7  1  0
  7  8  2  0
  8  9  1  0
  9 10  2  0
  9 11  1  0
  2 12  1  0
 12 13  1  0
 13 14  2  0
 13 15  1  0
  8  3  1  0
M  CHG  2   9   1  11  -1
M  END
>  <rName>  (4182) 
bAla_3SPh_2NO2

>  <PQ_SYMBOL>  (4182) 
bAla_3SPh_2NO2

>  <FULL_NAME>  (4182) 
(S)-3-amino-3-(2-nitrophenyl)propanoic acid

>  <IUPAC_CONDENSED>  (4182) 
bAla(3S-Ph(2-NO2))

>  <IUPAC>  (4182) 
(3S)-3-amino-3-(2-nitrophenyl)propanoic acid

>  <TYPE>  (4182) 
Backbone

>  <CLASS>  (4182) 
beta

>  <ANALOG>  (4182) 
X

>  <MOL_WT>  (4182) 
210.18899999999996

>  <LOGP>  (4182) 
1.0693000000000001

>  <TPSA>  (4182) 
106.46

>  <POPULARITY>  (4182) 
7.2

>  <PROTECTED>  (4182) 
TRUE

>  <SMILES>  (4182) 
N[C@H](c1(ccccc1[N+](=O)[O-]))CC(=O)O

>  <INCHIKEY>  (4182) 
XXBOYULKNZTOMN-ZETCQYMHSA-N

$$$$
bAla_3SPh_2OH
     RDKit          2D

 13 13  0  0  0  0  0  0  0  0999 V2000
   -1.0916   -1.7365    0.0000 N   0  0  0  0  0  0  0  0  0  0  0  0
   -0.6994   -0.2887    0.0000 C   0  0  0  0  0  0  0  0  0  0  0  0
    0.7506    0.0955    0.0000 C   0  0  0  0  0  0  0  0  0  0  0  0
    1.1428    1.5433    0.0000 C   0  0  0  0  0  0  0  0  0  0  0  0
    2.5927    1.9276    0.0000 C   0  0  0  0  0  0  0  0  0  0  0  0
    3.6505    0.8640    0.0000 C   0  0  0  0  0  0  0  0  0  0  0  0
    3.2583   -0.5838    0.0000 C   0  0  0  0  0  0  0  0  0  0  0  0
    1.8083   -0.9680    0.0000 C   0  0  0  0  0  0  0  0  0  0  0  0
    1.4161   -2.4159    0.0000 O   0  0  0  0  0  0  0  0  0  0  0  0
   -1.7571    0.7749    0.0000 C   0  0  0  0  0  0  0  0  0  0  0  0
   -3.2071    0.3906    0.0000 C   0  0  0  0  0  0  0  0  0  0  0  0
   -3.5993   -1.0572    0.0000 O   0  0  0  0  0  0  0  0  0  0  0  0
   -4.2648    1.4542    0.0000 O   0  0  0  0  0  0  0  0  0  0  0  0
  2  1  1  1
  2  3  1  0
  3  4  2  0
  4  5  1  0
  5  6  2  0
  6  7  1  0
  7  8  2  0
  8  9  1  0
  2 10  1  0
 10 11  1  0
 11 12  2  0
 11 13  1  0
  8  3  1  0
M  END
>  <rName>  (4183) 
bAla_3SPh_2OH

>  <PQ_SYMBOL>  (4183) 
bAla_3SPh_2OH

>  <FULL_NAME>  (4183) 
(S)-3-amino-3-(2-hydroxyphenyl)propanoic acid

>  <IUPAC_CONDENSED>  (4183) 
bAla(3S-Ph(2-OH))

>  <IUPAC>  (4183) 
(3S)-3-amino-3-(2-hydroxyphenyl)propanoic acid

>  <TYPE>  (4183) 
Backbone

>  <CLASS>  (4183) 
beta

>  <ANALOG>  (4183) 
X

>  <MOL_WT>  (4183) 
181.19099999999995

>  <LOGP>  (4183) 
0.8667

>  <TPSA>  (4183) 
83.55

>  <POPULARITY>  (4183) 
9.0

>  <PROTECTED>  (4183) 
TRUE

>  <SMILES>  (4183) 
N[C@H](c1(ccccc1O))CC(=O)O

>  <INCHIKEY>  (4183) 
BMUFWTKVAWBABX-ZETCQYMHSA-N

$$$$
bAla_3SPh_2OMe
     RDKit          2D

 14 14  0  0  0  0  0  0  0  0999 V2000
   -1.0551   -1.6460    0.0000 N   0  0  0  0  0  0  0  0  0  0  0  0
   -0.8626   -0.1584    0.0000 C   0  0  0  0  0  0  0  0  0  0  0  0
    0.5220    0.4186    0.0000 C   0  0  0  0  0  0  0  0  0  0  0  0
    0.7146    1.9062    0.0000 C   0  0  0  0  0  0  0  0  0  0  0  0
    2.0991    2.4832    0.0000 C   0  0  0  0  0  0  0  0  0  0  0  0
    3.2911    1.5726    0.0000 C   0  0  0  0  0  0  0  0  0  0  0  0
    3.0986    0.0851    0.0000 C   0  0  0  0  0  0  0  0  0  0  0  0
    1.7140   -0.4920    0.0000 C   0  0  0  0  0  0  0  0  0  0  0  0
    1.5214   -1.9796    0.0000 O   0  0  0  0  0  0  0  0  0  0  0  0
    2.7134   -2.8901    0.0000 C   0  0  0  0  0  0  0  0  0  0  0  0
   -2.0546    0.7521    0.0000 C   0  0  0  0  0  0  0  0  0  0  0  0
   -3.4392    0.1751    0.0000 C   0  0  0  0  0  0  0  0  0  0  0  0
   -3.6317   -1.3125    0.0000 O   0  0  0  0  0  0  0  0  0  0  0  0
   -4.6312    1.0857    0.0000 O   0  0  0  0  0  0  0  0  0  0  0  0
  2  1  1  1
  2  3  1  0
  3  4  2  0
  4  5  1  0
  5  6  2  0
  6  7  1  0
  7  8  2  0
  8  9  1  0
  9 10  1  0
  2 11  1  0
 11 12  1  0
 12 13  2  0
 12 14  1  0
  8  3  1  0
M  END
>  <rName>  (4184) 
bAla_3SPh_2OMe

>  <PQ_SYMBOL>  (4184) 
bAla_3SPh_2OMe

>  <FULL_NAME>  (4184) 
(S)-3-amino-3-(2-methoxyphenyl)propanoic acid

>  <IUPAC_CONDENSED>  (4184) 
bAla(3S-Ph(2-OMe))

>  <IUPAC>  (4184) 
(3S)-3-amino-3-(2-methoxyphenyl)propanoic acid

>  <TYPE>  (4184) 
Backbone

>  <CLASS>  (4184) 
beta

>  <ANALOG>  (4184) 
X

>  <MOL_WT>  (4184) 
195.21799999999996

>  <LOGP>  (4184) 
1.1697

>  <TPSA>  (4184) 
72.55

>  <POPULARITY>  (4184) 
8.6

>  <PROTECTED>  (4184) 
TRUE

>  <SMILES>  (4184) 
N[C@H](c1(ccccc1OC))CC(=O)O

>  <INCHIKEY>  (4184) 
UAZGIQATDPCZHH-QMMMGPOBSA-N

$$$$
bAla_3SPh_34diCl
     RDKit          2D

 14 14  0  0  0  0  0  0  0  0999 V2000
   -1.6907   -1.8557    0.0000 N   0  0  0  0  0  0  0  0  0  0  0  0
   -1.2771   -0.4139    0.0000 C   0  0  0  0  0  0  0  0  0  0  0  0
    0.1784   -0.0512    0.0000 C   0  0  0  0  0  0  0  0  0  0  0  0
    0.5920    1.3907    0.0000 C   0  0  0  0  0  0  0  0  0  0  0  0
    2.0475    1.7534    0.0000 C   0  0  0  0  0  0  0  0  0  0  0  0
    3.0894    0.6742    0.0000 C   0  0  0  0  0  0  0  0  0  0  0  0
    4.5448    1.0370    0.0000 Cl  0  0  0  0  0  0  0  0  0  0  0  0
    2.6757   -0.7676    0.0000 C   0  0  0  0  0  0  0  0  0  0  0  0
    3.7176   -1.8467    0.0000 Cl  0  0  0  0  0  0  0  0  0  0  0  0
    1.2202   -1.1303    0.0000 C   0  0  0  0  0  0  0  0  0  0  0  0
   -2.3190    0.6652    0.0000 C   0  0  0  0  0  0  0  0  0  0  0  0
   -3.7745    0.3025    0.0000 C   0  0  0  0  0  0  0  0  0  0  0  0
   -4.1881   -1.1393    0.0000 O   0  0  0  0  0  0  0  0  0  0  0  0
   -4.8163    1.3817    0.0000 O   0  0  0  0  0  0  0  0  0  0  0  0
  2  1  1  1
  2  3  1  0
  3  4  1  0
  4  5  2  0
  5  6  1  0
  6  7  1  0
  6  8  2  0
  8  9  1  0
  8 10  1  0
  2 11  1  0
 11 12  1  0
 12 13  2  0
 12 14  1  0
 10  3  2  0
M  END
>  <rName>  (4185) 
bAla_3SPh_34diCl

>  <PQ_SYMBOL>  (4185) 
bAla_3SPh_34diCl

>  <FULL_NAME>  (4185) 
(3S)-3-amino-3-(3,4-dichlorophenyl)propanoic acid

>  <IUPAC_CONDENSED>  (4185) 
bAla(3S-Ph(3,4-diCl))

>  <IUPAC>  (4185) 
(3S)-3-amino-3-(3,4-dichlorophenyl)propanoic acid

>  <TYPE>  (4185) 
Backbone

>  <CLASS>  (4185) 
beta

>  <ANALOG>  (4185) 
X

>  <MOL_WT>  (4185) 
234.082

>  <LOGP>  (4185) 
2.4679

>  <TPSA>  (4185) 
63.32000000000001

>  <POPULARITY>  (4185) 
2.2

>  <PROTECTED>  (4185) 
TRUE

>  <SMILES>  (4185) 
N[C@H](c1(ccc(Cl)c(Cl)c1))CC(=O)O

>  <INCHIKEY>  (4185) 
ACJWNKAQMZQVBW-QMMMGPOBSA-N

$$$$
bAla_3SPh_34diOMe
     RDKit          2D

 16 16  0  0  0  0  0  0  0  0999 V2000
   -2.1244   -1.8021    0.0000 N   0  0  0  0  0  0  0  0  0  0  0  0
   -1.8137   -0.3346    0.0000 C   0  0  0  0  0  0  0  0  0  0  0  0
   -0.3874    0.1300    0.0000 C   0  0  0  0  0  0  0  0  0  0  0  0
   -0.0767    1.5974    0.0000 C   0  0  0  0  0  0  0  0  0  0  0  0
    1.3496    2.0620    0.0000 C   0  0  0  0  0  0  0  0  0  0  0  0
    2.4650    1.0592    0.0000 C   0  0  0  0  0  0  0  0  0  0  0  0
    3.8913    1.5238    0.0000 O   0  0  0  0  0  0  0  0  0  0  0  0
    5.0067    0.5209    0.0000 C   0  0  0  0  0  0  0  0  0  0  0  0
    2.1543   -0.4083    0.0000 C   0  0  0  0  0  0  0  0  0  0  0  0
    3.2698   -1.4111    0.0000 O   0  0  0  0  0  0  0  0  0  0  0  0
    2.9590   -2.8786    0.0000 C   0  0  0  0  0  0  0  0  0  0  0  0
    0.7280   -0.8729    0.0000 C   0  0  0  0  0  0  0  0  0  0  0  0
   -2.9291    0.6682    0.0000 C   0  0  0  0  0  0  0  0  0  0  0  0
   -4.3554    0.2036    0.0000 C   0  0  0  0  0  0  0  0  0  0  0  0
   -4.6661   -1.2639    0.0000 O   0  0  0  0  0  0  0  0  0  0  0  0
   -5.4709    1.2064    0.0000 O   0  0  0  0  0  0  0  0  0  0  0  0
  2  1  1  1
  2  3  1  0
  3  4  1  0
  4  5  2  0
  5  6  1  0
  6  7  1  0
  7  8  1  0
  6  9  2  0
  9 10  1  0
 10 11  1  0
  9 12  1  0
  2 13  1  0
 13 14  1  0
 14 15  2  0
 14 16  1  0
 12  3  2  0
M  END
>  <rName>  (4186) 
bAla_3SPh_34diOMe

>  <PQ_SYMBOL>  (4186) 
bAla_3SPh_34diOMe

>  <FULL_NAME>  (4186) 
(S)-3-amino-3-(3,4-dimethoxyphenyl)propanoic acid

>  <IUPAC_CONDENSED>  (4186) 
bAla(3S-Ph(3,4-diOMe))

>  <IUPAC>  (4186) 
(3S)-3-amino-3-(3,4-dimethoxyphenyl)propanoic acid

>  <TYPE>  (4186) 
Backbone

>  <CLASS>  (4186) 
beta

>  <ANALOG>  (4186) 
X

>  <MOL_WT>  (4186) 
225.24399999999997

>  <LOGP>  (4186) 
1.1783000000000001

>  <TPSA>  (4186) 
81.78

>  <POPULARITY>  (4186) 
8.1

>  <PROTECTED>  (4186) 
TRUE

>  <SMILES>  (4186) 
N[C@H](c1(ccc(OC)c(OC)c1))CC(=O)O

>  <INCHIKEY>  (4186) 
FGCXSFRGPCUBPW-QMMMGPOBSA-N

$$$$
bAla_3SPh_35diOMe
     RDKit          2D

 16 16  0  0  0  0  0  0  0  0999 V2000
   -2.1417   -1.8682    0.0000 N   0  0  0  0  0  0  0  0  0  0  0  0
   -1.6325   -0.4573    0.0000 C   0  0  0  0  0  0  0  0  0  0  0  0
   -0.1559   -0.1929    0.0000 C   0  0  0  0  0  0  0  0  0  0  0  0
    0.3533    1.2180    0.0000 C   0  0  0  0  0  0  0  0  0  0  0  0
    1.8298    1.4824    0.0000 C   0  0  0  0  0  0  0  0  0  0  0  0
    2.3391    2.8933    0.0000 O   0  0  0  0  0  0  0  0  0  0  0  0
    3.8156    3.1577    0.0000 C   0  0  0  0  0  0  0  0  0  0  0  0
    2.7971    0.3359    0.0000 C   0  0  0  0  0  0  0  0  0  0  0  0
    2.2878   -1.0750    0.0000 C   0  0  0  0  0  0  0  0  0  0  0  0
    3.2550   -2.2215    0.0000 O   0  0  0  0  0  0  0  0  0  0  0  0
    2.7458   -3.6324    0.0000 C   0  0  0  0  0  0  0  0  0  0  0  0
    0.8113   -1.3394    0.0000 C   0  0  0  0  0  0  0  0  0  0  0  0
   -2.5997    0.6892    0.0000 C   0  0  0  0  0  0  0  0  0  0  0  0
   -4.0762    0.4248    0.0000 C   0  0  0  0  0  0  0  0  0  0  0  0
   -4.5855   -0.9861    0.0000 O   0  0  0  0  0  0  0  0  0  0  0  0
   -5.0434    1.5713    0.0000 O   0  0  0  0  0  0  0  0  0  0  0  0
  2  1  1  1
  2  3  1  0
  3  4  2  0
  4  5  1  0
  5  6  1  0
  6  7  1  0
  5  8  2  0
  8  9  1  0
  9 10  1  0
 10 11  1  0
  9 12  2  0
  2 13  1  0
 13 14  1  0
 14 15  2  0
 14 16  1  0
 12  3  1  0
M  END
>  <rName>  (4187) 
bAla_3SPh_35diOMe

>  <PQ_SYMBOL>  (4187) 
bAla_3SPh_35diOMe

>  <FULL_NAME>  (4187) 
(S)-3-amino-3-(3,5-dimethoxyphenyl)propanoic acid

>  <IUPAC_CONDENSED>  (4187) 
bAla(3S-Ph(3,5-diOMe))

>  <IUPAC>  (4187) 
(3S)-3-amino-3-(3,5-dimethoxyphenyl)propanoic acid

>  <TYPE>  (4187) 
Backbone

>  <CLASS>  (4187) 
beta

>  <ANALOG>  (4187) 
X

>  <MOL_WT>  (4187) 
225.24399999999997

>  <LOGP>  (4187) 
1.1783000000000001

>  <TPSA>  (4187) 
81.78

>  <POPULARITY>  (4187) 
7.9

>  <PROTECTED>  (4187) 
TRUE

>  <SMILES>  (4187) 
N[C@H](c1(cc(OC)cc(OC)c1))CC(=O)O

>  <INCHIKEY>  (4187) 
HUPNLRFWWQFWCS-JTQLQIEISA-N

$$$$
bAla_3SPh_3Br
     RDKit          2D

 13 13  0  0  0  0  0  0  0  0999 V2000
   -1.2291   -1.8553    0.0000 N   0  0  0  0  0  0  0  0  0  0  0  0
   -0.9051   -0.3907    0.0000 C   0  0  0  0  0  0  0  0  0  0  0  0
    0.5252    0.0611    0.0000 C   0  0  0  0  0  0  0  0  0  0  0  0
    0.8491    1.5257    0.0000 C   0  0  0  0  0  0  0  0  0  0  0  0
    2.2795    1.9775    0.0000 C   0  0  0  0  0  0  0  0  0  0  0  0
    3.3859    0.9646    0.0000 C   0  0  0  0  0  0  0  0  0  0  0  0
    3.0620   -0.5000    0.0000 C   0  0  0  0  0  0  0  0  0  0  0  0
    4.1684   -1.5128    0.0000 Br  0  0  0  0  0  0  0  0  0  0  0  0
    1.6316   -0.9517    0.0000 C   0  0  0  0  0  0  0  0  0  0  0  0
   -2.0116    0.6222    0.0000 C   0  0  0  0  0  0  0  0  0  0  0  0
   -3.4419    0.1704    0.0000 C   0  0  0  0  0  0  0  0  0  0  0  0
   -3.7658   -1.2942    0.0000 O   0  0  0  0  0  0  0  0  0  0  0  0
   -4.5483    1.1832    0.0000 O   0  0  0  0  0  0  0  0  0  0  0  0
  2  1  1  1
  2  3  1  0
  3  4  2  0
  4  5  1  0
  5  6  2  0
  6  7  1  0
  7  8  1  0
  7  9  2  0
  2 10  1  0
 10 11  1  0
 11 12  2  0
 11 13  1  0
  9  3  1  0
M  END
>  <rName>  (4188) 
bAla_3SPh_3Br

>  <PQ_SYMBOL>  (4188) 
bAla_3SPh_3Br

>  <FULL_NAME>  (4188) 
3-bromo-S-beta-phenylalanine

>  <IUPAC_CONDENSED>  (4188) 
bAla(3S-Ph(3-Br))

>  <IUPAC>  (4188) 
(3S)-3-amino-3-(3-bromophenyl)propanoic acid

>  <TYPE>  (4188) 
Backbone

>  <CLASS>  (4188) 
beta

>  <ANALOG>  (4188) 
X

>  <MOL_WT>  (4188) 
244.08799999999997

>  <LOGP>  (4188) 
1.9236000000000002

>  <TPSA>  (4188) 
63.32000000000001

>  <POPULARITY>  (4188) 
11.6

>  <PROTECTED>  (4188) 
TRUE

>  <SMILES>  (4188) 
N[C@H](c1(cccc(Br)c1))CC(=O)O

>  <INCHIKEY>  (4188) 
RLYAXKJHJUXZOT-QMMMGPOBSA-N

$$$$
bAla_3SPh_3Br_4F
     RDKit          2D

 14 14  0  0  0  0  0  0  0  0999 V2000
   -1.6907   -1.8557    0.0000 N   0  0  0  0  0  0  0  0  0  0  0  0
   -1.2771   -0.4139    0.0000 C   0  0  0  0  0  0  0  0  0  0  0  0
    0.1784   -0.0512    0.0000 C   0  0  0  0  0  0  0  0  0  0  0  0
    0.5920    1.3907    0.0000 C   0  0  0  0  0  0  0  0  0  0  0  0
    2.0475    1.7534    0.0000 C   0  0  0  0  0  0  0  0  0  0  0  0
    3.0894    0.6742    0.0000 C   0  0  0  0  0  0  0  0  0  0  0  0
    4.5448    1.0370    0.0000 F   0  0  0  0  0  0  0  0  0  0  0  0
    2.6757   -0.7676    0.0000 C   0  0  0  0  0  0  0  0  0  0  0  0
    3.7176   -1.8467    0.0000 Br  0  0  0  0  0  0  0  0  0  0  0  0
    1.2202   -1.1303    0.0000 C   0  0  0  0  0  0  0  0  0  0  0  0
   -2.3190    0.6652    0.0000 C   0  0  0  0  0  0  0  0  0  0  0  0
   -3.7745    0.3025    0.0000 C   0  0  0  0  0  0  0  0  0  0  0  0
   -4.1881   -1.1393    0.0000 O   0  0  0  0  0  0  0  0  0  0  0  0
   -4.8163    1.3817    0.0000 O   0  0  0  0  0  0  0  0  0  0  0  0
  2  1  1  1
  2  3  1  0
  3  4  1  0
  4  5  2  0
  5  6  1  0
  6  7  1  0
  6  8  2  0
  8  9  1  0
  8 10  1  0
  2 11  1  0
 11 12  1  0
 12 13  2  0
 12 14  1  0
 10  3  2  0
M  END
>  <rName>  (4189) 
bAla_3SPh_3Br_4F

>  <PQ_SYMBOL>  (4189) 
bAla_3SPh_3Br_4F

>  <FULL_NAME>  (4189) 
(S)-3-Amino-3-(3-bromo-4-fluorophenyl)propanoic acid

>  <IUPAC_CONDENSED>  (4189) 
bAla(3S-Ph(3-Br,4-F))

>  <IUPAC>  (4189) 
(3S)-3-amino-3-(3-bromo-4-fluorophenyl)propanoic acid

>  <TYPE>  (4189) 
Backbone

>  <CLASS>  (4189) 
beta

>  <ANALOG>  (4189) 
X

>  <MOL_WT>  (4189) 
262.078

>  <LOGP>  (4189) 
2.0627

>  <TPSA>  (4189) 
63.32000000000001

>  <POPULARITY>  (4189) 
3.6

>  <PROTECTED>  (4189) 
TRUE

>  <SMILES>  (4189) 
N[C@H](c1(ccc(F)c(Br)c1))CC(=O)O

>  <INCHIKEY>  (4189) 
HTXYECRYAFLCAS-QMMMGPOBSA-N

$$$$
bAla_3SPh_3Br_5F
     RDKit          2D

 14 14  0  0  0  0  0  0  0  0999 V2000
   -1.6283   -1.9406    0.0000 N   0  0  0  0  0  0  0  0  0  0  0  0
   -1.1520   -0.5182    0.0000 C   0  0  0  0  0  0  0  0  0  0  0  0
    0.3179   -0.2194    0.0000 C   0  0  0  0  0  0  0  0  0  0  0  0
    0.7942    1.2029    0.0000 C   0  0  0  0  0  0  0  0  0  0  0  0
    2.2641    1.5017    0.0000 C   0  0  0  0  0  0  0  0  0  0  0  0
    2.7404    2.9241    0.0000 F   0  0  0  0  0  0  0  0  0  0  0  0
    3.2578    0.3780    0.0000 C   0  0  0  0  0  0  0  0  0  0  0  0
    2.7816   -1.0443    0.0000 C   0  0  0  0  0  0  0  0  0  0  0  0
    3.7753   -2.1680    0.0000 Br  0  0  0  0  0  0  0  0  0  0  0  0
    1.3116   -1.3431    0.0000 C   0  0  0  0  0  0  0  0  0  0  0  0
   -2.1457    0.6055    0.0000 C   0  0  0  0  0  0  0  0  0  0  0  0
   -3.6157    0.3067    0.0000 C   0  0  0  0  0  0  0  0  0  0  0  0
   -4.0919   -1.1157    0.0000 O   0  0  0  0  0  0  0  0  0  0  0  0
   -4.6094    1.4304    0.0000 O   0  0  0  0  0  0  0  0  0  0  0  0
  2  1  1  1
  2  3  1  0
  3  4  2  0
  4  5  1  0
  5  6  1  0
  5  7  2  0
  7  8  1  0
  8  9  1  0
  8 10  2  0
  2 11  1  0
 11 12  1  0
 12 13  2  0
 12 14  1  0
 10  3  1  0
M  END
>  <rName>  (4190) 
bAla_3SPh_3Br_5F

>  <PQ_SYMBOL>  (4190) 
bAla_3SPh_3Br_5F

>  <FULL_NAME>  (4190) 
(3S)-3-amino-3-(3-bromo-5-fluorophenyl)propanoic acid

>  <IUPAC_CONDENSED>  (4190) 
bAla(3S-Ph(3-Br,5-F))

>  <IUPAC>  (4190) 
(3S)-3-amino-3-(3-bromo-5-fluorophenyl)propanoic acid

>  <TYPE>  (4190) 
Backbone

>  <CLASS>  (4190) 
beta

>  <ANALOG>  (4190) 
X

>  <MOL_WT>  (4190) 
262.078

>  <LOGP>  (4190) 
2.0627

>  <TPSA>  (4190) 
63.32000000000001

>  <POPULARITY>  (4190) 
3.4

>  <PROTECTED>  (4190) 
TRUE

>  <SMILES>  (4190) 
N[C@H](c1(cc(F)cc(Br)c1))CC(=O)O

>  <INCHIKEY>  (4190) 
NLQSIYYNYUJEFN-QMMMGPOBSA-N

$$$$
bAla_3SPh_3CF3
     RDKit          2D

 16 16  0  0  0  0  0  0  0  0999 V2000
   -1.8339   -1.7993    0.0000 N   0  0  0  0  0  0  0  0  0  0  0  0
   -1.7301   -0.3029    0.0000 C   0  0  0  0  0  0  0  0  0  0  0  0
   -0.3823    0.3554    0.0000 C   0  0  0  0  0  0  0  0  0  0  0  0
   -0.2785    1.8518    0.0000 C   0  0  0  0  0  0  0  0  0  0  0  0
    1.0693    2.5102    0.0000 C   0  0  0  0  0  0  0  0  0  0  0  0
    2.3133    1.6721    0.0000 C   0  0  0  0  0  0  0  0  0  0  0  0
    2.2096    0.1757    0.0000 C   0  0  0  0  0  0  0  0  0  0  0  0
    0.8618   -0.4826    0.0000 C   0  0  0  0  0  0  0  0  0  0  0  0
    3.4536   -0.6624    0.0000 C   0  0  0  0  0  0  0  0  0  0  0  0
    4.6977   -1.5004    0.0000 F   0  0  0  0  0  0  0  0  0  0  0  0
    2.6155   -1.9064    0.0000 F   0  0  0  0  0  0  0  0  0  0  0  0
    4.2917    0.5817    0.0000 F   0  0  0  0  0  0  0  0  0  0  0  0
   -2.9741    0.5352    0.0000 C   0  0  0  0  0  0  0  0  0  0  0  0
   -4.3219   -0.1232    0.0000 C   0  0  0  0  0  0  0  0  0  0  0  0
   -4.4257   -1.6196    0.0000 O   0  0  0  0  0  0  0  0  0  0  0  0
   -5.5660    0.7149    0.0000 O   0  0  0  0  0  0  0  0  0  0  0  0
  2  1  1  1
  2  3  1  0
  3  4  1  0
  4  5  2  0
  5  6  1  0
  6  7  2  0
  7  8  1  0
  7  9  1  0
  9 10  1  0
  9 11  1  0
  9 12  1  0
  2 13  1  0
 13 14  1  0
 14 15  2  0
 14 16  1  0
  8  3  2  0
M  END
>  <rName>  (4191) 
bAla_3SPh_3CF3

>  <PQ_SYMBOL>  (4191) 
bAla_3SPh_3CF3

>  <FULL_NAME>  (4191) 
(S)-3-amino-3-(3-(trifluoromethyl)phenyl)propanoic acid

>  <IUPAC_CONDENSED>  (4191) 
bAla(3S-Ph(3-CF3))

>  <IUPAC>  (4191) 
(3S)-3-amino-3-(3-(trifluoromethyl)phenyl)propanoic acid

>  <TYPE>  (4191) 
Backbone

>  <CLASS>  (4191) 
beta

>  <ANALOG>  (4191) 
X

>  <MOL_WT>  (4191) 
233.18899999999994

>  <LOGP>  (4191) 
2.1799

>  <TPSA>  (4191) 
63.32000000000001

>  <POPULARITY>  (4191) 
8.2

>  <PROTECTED>  (4191) 
TRUE

>  <SMILES>  (4191) 
N[C@H](c1(cccc(c1)C(F)(F)F))CC(=O)O

>  <INCHIKEY>  (4191) 
WZXBASRNQXYUIP-QMMMGPOBSA-N

$$$$
bAla_3SPh_3CN
     RDKit          2D

 14 14  0  0  0  0  0  0  0  0999 V2000
   -1.3964   -1.8531    0.0000 N   0  0  0  0  0  0  0  0  0  0  0  0
   -1.2480   -0.3604    0.0000 C   0  0  0  0  0  0  0  0  0  0  0  0
    0.1188    0.2574    0.0000 C   0  0  0  0  0  0  0  0  0  0  0  0
    0.2672    1.7500    0.0000 C   0  0  0  0  0  0  0  0  0  0  0  0
    1.6341    2.3678    0.0000 C   0  0  0  0  0  0  0  0  0  0  0  0
    2.8526    1.4930    0.0000 C   0  0  0  0  0  0  0  0  0  0  0  0
    2.7042    0.0003    0.0000 C   0  0  0  0  0  0  0  0  0  0  0  0
    3.9226   -0.8745    0.0000 C   0  0  0  0  0  0  0  0  0  0  0  0
    5.1411   -1.7494    0.0000 N   0  0  0  0  0  0  0  0  0  0  0  0
    1.3373   -0.6175    0.0000 C   0  0  0  0  0  0  0  0  0  0  0  0
   -2.4665    0.5144    0.0000 C   0  0  0  0  0  0  0  0  0  0  0  0
   -3.8334   -0.1034    0.0000 C   0  0  0  0  0  0  0  0  0  0  0  0
   -3.9818   -1.5960    0.0000 O   0  0  0  0  0  0  0  0  0  0  0  0
   -5.0518    0.7715    0.0000 O   0  0  0  0  0  0  0  0  0  0  0  0
  2  1  1  1
  2  3  1  0
  3  4  2  0
  4  5  1  0
  5  6  2  0
  6  7  1  0
  7  8  1  0
  8  9  3  0
  7 10  2  0
  2 11  1  0
 11 12  1  0
 12 13  2  0
 12 14  1  0
 10  3  1  0
M  END
>  <rName>  (4192) 
bAla_3SPh_3CN

>  <PQ_SYMBOL>  (4192) 
bAla_3SPh_3CN

>  <FULL_NAME>  (4192) 
(S)-3-amino-3-(3-cyanophenyl)propanoic acid

>  <IUPAC_CONDENSED>  (4192) 
bAla(3S-Ph(3-CN))

>  <IUPAC>  (4192) 
(3S)-3-amino-3-(3-(nitrilomethyl)phenyl)propanoic acid

>  <TYPE>  (4192) 
Backbone

>  <CLASS>  (4192) 
beta

>  <ANALOG>  (4192) 
Lys

>  <MOL_WT>  (4192) 
190.20199999999997

>  <LOGP>  (4192) 
1.03278

>  <TPSA>  (4192) 
87.11

>  <POPULARITY>  (4192) 
6.4

>  <PROTECTED>  (4192) 
TRUE

>  <SMILES>  (4192) 
N[C@H](c1(cccc(C#N)c1))CC(=O)O

>  <INCHIKEY>  (4192) 
RRUDIPCLABXNDE-VIFPVBQESA-N

$$$$
bAla_3SPh_3Cl
     RDKit          2D

 13 13  0  0  0  0  0  0  0  0999 V2000
   -1.2291   -1.8553    0.0000 N   0  0  0  0  0  0  0  0  0  0  0  0
   -0.9051   -0.3907    0.0000 C   0  0  0  0  0  0  0  0  0  0  0  0
    0.5252    0.0611    0.0000 C   0  0  0  0  0  0  0  0  0  0  0  0
    0.8491    1.5257    0.0000 C   0  0  0  0  0  0  0  0  0  0  0  0
    2.2795    1.9775    0.0000 C   0  0  0  0  0  0  0  0  0  0  0  0
    3.3859    0.9646    0.0000 C   0  0  0  0  0  0  0  0  0  0  0  0
    3.0620   -0.5000    0.0000 C   0  0  0  0  0  0  0  0  0  0  0  0
    4.1684   -1.5128    0.0000 Cl  0  0  0  0  0  0  0  0  0  0  0  0
    1.6316   -0.9517    0.0000 C   0  0  0  0  0  0  0  0  0  0  0  0
   -2.0116    0.6222    0.0000 C   0  0  0  0  0  0  0  0  0  0  0  0
   -3.4419    0.1704    0.0000 C   0  0  0  0  0  0  0  0  0  0  0  0
   -3.7658   -1.2942    0.0000 O   0  0  0  0  0  0  0  0  0  0  0  0
   -4.5483    1.1832    0.0000 O   0  0  0  0  0  0  0  0  0  0  0  0
  2  1  1  1
  2  3  1  0
  3  4  2  0
  4  5  1  0
  5  6  2  0
  6  7  1  0
  7  8  1  0
  7  9  2  0
  2 10  1  0
 10 11  1  0
 11 12  2  0
 11 13  1  0
  9  3  1  0
M  END
>  <rName>  (4193) 
bAla_3SPh_3Cl

>  <PQ_SYMBOL>  (4193) 
bAla_3SPh_3Cl

>  <FULL_NAME>  (4193) 
(S)-3-amino-3-(3-chlorophenyl)propanoic acid

>  <IUPAC_CONDENSED>  (4193) 
bAla(3S-Ph(3-Cl))

>  <IUPAC>  (4193) 
(3S)-3-amino-3-(3-chlorophenyl)propanoic acid

>  <TYPE>  (4193) 
Backbone

>  <CLASS>  (4193) 
beta

>  <ANALOG>  (4193) 
X

>  <MOL_WT>  (4193) 
199.63699999999997

>  <LOGP>  (4193) 
1.8145000000000002

>  <TPSA>  (4193) 
63.32000000000001

>  <POPULARITY>  (4193) 
9.1

>  <PROTECTED>  (4193) 
TRUE

>  <SMILES>  (4193) 
N[C@H](c1(cccc(Cl)c1))CC(=O)O

>  <INCHIKEY>  (4193) 
LIDRHPCWOYOBIZ-QMMMGPOBSA-N

$$$$
bAla_3SPh_3Cl_4OMe
     RDKit          2D

 15 15  0  0  0  0  0  0  0  0999 V2000
   -2.0601   -1.8563    0.0000 N   0  0  0  0  0  0  0  0  0  0  0  0
   -1.6489   -0.4138    0.0000 C   0  0  0  0  0  0  0  0  0  0  0  0
   -0.1940   -0.0487    0.0000 C   0  0  0  0  0  0  0  0  0  0  0  0
    0.2172    1.3938    0.0000 C   0  0  0  0  0  0  0  0  0  0  0  0
    1.6721    1.7590    0.0000 C   0  0  0  0  0  0  0  0  0  0  0  0
    2.7158    0.6816    0.0000 C   0  0  0  0  0  0  0  0  0  0  0  0
    4.1707    1.0467    0.0000 O   0  0  0  0  0  0  0  0  0  0  0  0
    5.2143   -0.0307    0.0000 C   0  0  0  0  0  0  0  0  0  0  0  0
    2.3046   -0.7609    0.0000 C   0  0  0  0  0  0  0  0  0  0  0  0
    3.3482   -1.8383    0.0000 Cl  0  0  0  0  0  0  0  0  0  0  0  0
    0.8497   -1.1261    0.0000 C   0  0  0  0  0  0  0  0  0  0  0  0
   -2.6925    0.6636    0.0000 C   0  0  0  0  0  0  0  0  0  0  0  0
   -4.1474    0.2984    0.0000 C   0  0  0  0  0  0  0  0  0  0  0  0
   -4.5586   -1.1441    0.0000 O   0  0  0  0  0  0  0  0  0  0  0  0
   -5.1911    1.3758    0.0000 O   0  0  0  0  0  0  0  0  0  0  0  0
  2  1  1  1
  2  3  1  0
  3  4  1  0
  4  5  2  0
  5  6  1  0
  6  7  1  0
  7  8  1  0
  6  9  2  0
  9 10  1  0
  9 11  1  0
  2 12  1  0
 12 13  1  0
 13 14  2  0
 13 15  1  0
 11  3  2  0
M  END
>  <rName>  (4194) 
bAla_3SPh_3Cl_4OMe

>  <PQ_SYMBOL>  (4194) 
bAla_3SPh_3Cl_4OMe

>  <FULL_NAME>  (4194) 
(S)-3-Amino-3-(3-chloro-4-methoxyphenyl)propanoic acid

>  <IUPAC_CONDENSED>  (4194) 
bAla(3S-Ph(3-Cl,4-OMe))

>  <IUPAC>  (4194) 
(3S)-3-amino-3-(3-chloro-4-methoxyphenyl)propanoic acid

>  <TYPE>  (4194) 
Backbone

>  <CLASS>  (4194) 
beta

>  <ANALOG>  (4194) 
X

>  <MOL_WT>  (4194) 
229.66299999999995

>  <LOGP>  (4194) 
1.8231000000000002

>  <TPSA>  (4194) 
72.55

>  <POPULARITY>  (4194) 
4.4

>  <PROTECTED>  (4194) 
TRUE

>  <SMILES>  (4194) 
N[C@H](c1(ccc(OC)c(Cl)c1))CC(=O)O

>  <INCHIKEY>  (4194) 
JTMCTXSKEUTZNI-QMMMGPOBSA-N

$$$$
bAla_3SPh_3F
     RDKit          2D

 13 13  0  0  0  0  0  0  0  0999 V2000
   -1.2291   -1.8553    0.0000 N   0  0  0  0  0  0  0  0  0  0  0  0
   -0.9051   -0.3907    0.0000 C   0  0  0  0  0  0  0  0  0  0  0  0
    0.5252    0.0611    0.0000 C   0  0  0  0  0  0  0  0  0  0  0  0
    0.8491    1.5257    0.0000 C   0  0  0  0  0  0  0  0  0  0  0  0
    2.2795    1.9775    0.0000 C   0  0  0  0  0  0  0  0  0  0  0  0
    3.3859    0.9646    0.0000 C   0  0  0  0  0  0  0  0  0  0  0  0
    3.0620   -0.5000    0.0000 C   0  0  0  0  0  0  0  0  0  0  0  0
    4.1684   -1.5128    0.0000 F   0  0  0  0  0  0  0  0  0  0  0  0
    1.6316   -0.9517    0.0000 C   0  0  0  0  0  0  0  0  0  0  0  0
   -2.0116    0.6222    0.0000 C   0  0  0  0  0  0  0  0  0  0  0  0
   -3.4419    0.1704    0.0000 C   0  0  0  0  0  0  0  0  0  0  0  0
   -3.7658   -1.2942    0.0000 O   0  0  0  0  0  0  0  0  0  0  0  0
   -4.5483    1.1832    0.0000 O   0  0  0  0  0  0  0  0  0  0  0  0
  2  1  1  1
  2  3  1  0
  3  4  2  0
  4  5  1  0
  5  6  2  0
  6  7  1  0
  7  8  1  0
  7  9  2  0
  2 10  1  0
 10 11  1  0
 11 12  2  0
 11 13  1  0
  9  3  1  0
M  END
>  <rName>  (4195) 
bAla_3SPh_3F

>  <PQ_SYMBOL>  (4195) 
bAla_3SPh_3F

>  <FULL_NAME>  (4195) 
(S)-3-amino-3-(3-fluorophenyl)propanoic acid

>  <IUPAC_CONDENSED>  (4195) 
bAla(3S-Ph(3-F))

>  <IUPAC>  (4195) 
(3S)-3-amino-3-(3-fluorophenyl)propanoic acid

>  <TYPE>  (4195) 
Backbone

>  <CLASS>  (4195) 
beta

>  <ANALOG>  (4195) 
X

>  <MOL_WT>  (4195) 
183.18199999999996

>  <LOGP>  (4195) 
1.3002000000000002

>  <TPSA>  (4195) 
63.32000000000001

>  <POPULARITY>  (4195) 
10.0

>  <PROTECTED>  (4195) 
TRUE

>  <SMILES>  (4195) 
N[C@H](c1(cccc(F)c1))CC(=O)O

>  <INCHIKEY>  (4195) 
GZNJUJNKZBHINS-QMMMGPOBSA-N

$$$$
bAla_3SPh_3F_4Cl
     RDKit          2D

 14 14  0  0  0  0  0  0  0  0999 V2000
   -1.6907   -1.8557    0.0000 N   0  0  0  0  0  0  0  0  0  0  0  0
   -1.2771   -0.4139    0.0000 C   0  0  0  0  0  0  0  0  0  0  0  0
    0.1784   -0.0512    0.0000 C   0  0  0  0  0  0  0  0  0  0  0  0
    0.5920    1.3907    0.0000 C   0  0  0  0  0  0  0  0  0  0  0  0
    2.0475    1.7534    0.0000 C   0  0  0  0  0  0  0  0  0  0  0  0
    3.0894    0.6742    0.0000 C   0  0  0  0  0  0  0  0  0  0  0  0
    4.5448    1.0370    0.0000 Cl  0  0  0  0  0  0  0  0  0  0  0  0
    2.6757   -0.7676    0.0000 C   0  0  0  0  0  0  0  0  0  0  0  0
    3.7176   -1.8467    0.0000 F   0  0  0  0  0  0  0  0  0  0  0  0
    1.2202   -1.1303    0.0000 C   0  0  0  0  0  0  0  0  0  0  0  0
   -2.3190    0.6652    0.0000 C   0  0  0  0  0  0  0  0  0  0  0  0
   -3.7745    0.3025    0.0000 C   0  0  0  0  0  0  0  0  0  0  0  0
   -4.1881   -1.1393    0.0000 O   0  0  0  0  0  0  0  0  0  0  0  0
   -4.8163    1.3817    0.0000 O   0  0  0  0  0  0  0  0  0  0  0  0
  2  1  1  1
  2  3  1  0
  3  4  1  0
  4  5  2  0
  5  6  1  0
  6  7  1  0
  6  8  2  0
  8  9  1  0
  8 10  1  0
  2 11  1  0
 11 12  1  0
 12 13  2  0
 12 14  1  0
 10  3  2  0
M  END
>  <rName>  (4196) 
bAla_3SPh_3F_4Cl

>  <PQ_SYMBOL>  (4196) 
bAla_3SPh_3F_4Cl

>  <FULL_NAME>  (4196) 
(S)-3-Amino-3-(4-chloro-3-fluorophenyl)propanoic acid

>  <IUPAC_CONDENSED>  (4196) 
bAla(3S-Ph(3-F,4-Cl))

>  <IUPAC>  (4196) 
(3S)-3-amino-3-(4-chloro-3-fluorophenyl)propanoic acid

>  <TYPE>  (4196) 
Backbone

>  <CLASS>  (4196) 
beta

>  <ANALOG>  (4196) 
X

>  <MOL_WT>  (4196) 
217.62699999999998

>  <LOGP>  (4196) 
1.9536

>  <TPSA>  (4196) 
63.32000000000001

>  <POPULARITY>  (4196) 
5.0

>  <PROTECTED>  (4196) 
TRUE

>  <SMILES>  (4196) 
N[C@H](c1(ccc(Cl)c(F)c1))CC(=O)O

>  <INCHIKEY>  (4196) 
TZAGNQQSZQQODK-QMMMGPOBSA-N

$$$$
bAla_3SPh_3I
     RDKit          2D

 13 13  0  0  0  0  0  0  0  0999 V2000
   -1.2291   -1.8553    0.0000 N   0  0  0  0  0  0  0  0  0  0  0  0
   -0.9051   -0.3907    0.0000 C   0  0  0  0  0  0  0  0  0  0  0  0
    0.5252    0.0611    0.0000 C   0  0  0  0  0  0  0  0  0  0  0  0
    0.8491    1.5257    0.0000 C   0  0  0  0  0  0  0  0  0  0  0  0
    2.2795    1.9775    0.0000 C   0  0  0  0  0  0  0  0  0  0  0  0
    3.3859    0.9646    0.0000 C   0  0  0  0  0  0  0  0  0  0  0  0
    3.0620   -0.5000    0.0000 C   0  0  0  0  0  0  0  0  0  0  0  0
    4.1684   -1.5128    0.0000 I   0  0  0  0  0  0  0  0  0  0  0  0
    1.6316   -0.9517    0.0000 C   0  0  0  0  0  0  0  0  0  0  0  0
   -2.0116    0.6222    0.0000 C   0  0  0  0  0  0  0  0  0  0  0  0
   -3.4419    0.1704    0.0000 C   0  0  0  0  0  0  0  0  0  0  0  0
   -3.7658   -1.2942    0.0000 O   0  0  0  0  0  0  0  0  0  0  0  0
   -4.5483    1.1832    0.0000 O   0  0  0  0  0  0  0  0  0  0  0  0
  2  1  1  1
  2  3  1  0
  3  4  2  0
  4  5  1  0
  5  6  2  0
  6  7  1  0
  7  8  1  0
  7  9  2  0
  2 10  1  0
 10 11  1  0
 11 12  2  0
 11 13  1  0
  9  3  1  0
M  END
>  <rName>  (4197) 
bAla_3SPh_3I

>  <PQ_SYMBOL>  (4197) 
bAla_3SPh_3I

>  <FULL_NAME>  (4197) 
(3S)-3-amino-3-(3-iodophenyl)propanoic acid

>  <IUPAC_CONDENSED>  (4197) 
bAla(3S-Ph(3-I))

>  <IUPAC>  (4197) 
(3S)-3-amino-3-(3-iodophenyl)propanoic acid

>  <TYPE>  (4197) 
Backbone

>  <CLASS>  (4197) 
beta

>  <ANALOG>  (4197) 
X

>  <MOL_WT>  (4197) 
291.088

>  <LOGP>  (4197) 
1.7657000000000003

>  <TPSA>  (4197) 
63.32000000000001

>  <POPULARITY>  (4197) 
3.9

>  <PROTECTED>  (4197) 
TRUE

>  <SMILES>  (4197) 
N[C@H](c1(cccc(I)c1))CC(=O)O

>  <INCHIKEY>  (4197) 
ZBOWULRIADNEHR-QMMMGPOBSA-N

$$$$
bAla_3SPh_3Me
     RDKit          2D

 13 13  0  0  0  0  0  0  0  0999 V2000
   -1.2291   -1.8553    0.0000 N   0  0  0  0  0  0  0  0  0  0  0  0
   -0.9051   -0.3907    0.0000 C   0  0  0  0  0  0  0  0  0  0  0  0
    0.5252    0.0611    0.0000 C   0  0  0  0  0  0  0  0  0  0  0  0
    0.8491    1.5257    0.0000 C   0  0  0  0  0  0  0  0  0  0  0  0
    2.2795    1.9775    0.0000 C   0  0  0  0  0  0  0  0  0  0  0  0
    3.3859    0.9646    0.0000 C   0  0  0  0  0  0  0  0  0  0  0  0
    3.0620   -0.5000    0.0000 C   0  0  0  0  0  0  0  0  0  0  0  0
    4.1684   -1.5128    0.0000 C   0  0  0  0  0  0  0  0  0  0  0  0
    1.6316   -0.9517    0.0000 C   0  0  0  0  0  0  0  0  0  0  0  0
   -2.0116    0.6222    0.0000 C   0  0  0  0  0  0  0  0  0  0  0  0
   -3.4419    0.1704    0.0000 C   0  0  0  0  0  0  0  0  0  0  0  0
   -3.7658   -1.2942    0.0000 O   0  0  0  0  0  0  0  0  0  0  0  0
   -4.5483    1.1832    0.0000 O   0  0  0  0  0  0  0  0  0  0  0  0
  2  1  1  1
  2  3  1  0
  3  4  2  0
  4  5  1  0
  5  6  2  0
  6  7  1  0
  7  8  1  0
  7  9  2  0
  2 10  1  0
 10 11  1  0
 11 12  2  0
 11 13  1  0
  9  3  1  0
M  END
>  <rName>  (4198) 
bAla_3SPh_3Me

>  <PQ_SYMBOL>  (4198) 
bAla_3SPh_3Me

>  <FULL_NAME>  (4198) 
(S)-3-amino-3-(m-tolyl)propanoic acid

>  <IUPAC_CONDENSED>  (4198) 
bAla(3S-Ph(3-Me))

>  <IUPAC>  (4198) 
(3S)-3-amino-3-(3-methylphenyl)propanoic acid

>  <TYPE>  (4198) 
Backbone

>  <CLASS>  (4198) 
beta

>  <ANALOG>  (4198) 
X

>  <MOL_WT>  (4198) 
179.21899999999997

>  <LOGP>  (4198) 
1.4695200000000002

>  <TPSA>  (4198) 
63.32000000000001

>  <POPULARITY>  (4198) 
9.2

>  <PROTECTED>  (4198) 
TRUE

>  <SMILES>  (4198) 
N[C@H](c1(cccc(C)c1))CC(=O)O

>  <INCHIKEY>  (4198) 
HMLYKNGYKKJNLC-VIFPVBQESA-N

$$$$
bAla_3SPh_3NO2
     RDKit          2D

 15 15  0  0  0  0  0  0  0  0999 V2000
   -1.6415   -1.8098    0.0000 N   0  0  0  0  0  0  0  0  0  0  0  0
   -1.5067   -0.3159    0.0000 C   0  0  0  0  0  0  0  0  0  0  0  0
   -0.1455    0.3144    0.0000 C   0  0  0  0  0  0  0  0  0  0  0  0
   -0.0107    1.8083    0.0000 C   0  0  0  0  0  0  0  0  0  0  0  0
    1.3505    2.4385    0.0000 C   0  0  0  0  0  0  0  0  0  0  0  0
    2.5768    1.5748    0.0000 C   0  0  0  0  0  0  0  0  0  0  0  0
    2.4420    0.0808    0.0000 C   0  0  0  0  0  0  0  0  0  0  0  0
    1.0808   -0.5494    0.0000 C   0  0  0  0  0  0  0  0  0  0  0  0
    3.6684   -0.7829    0.0000 N   0  0  0  0  0  0  0  0  0  0  0  0
    5.0296   -0.1527    0.0000 O   0  0  0  0  0  0  0  0  0  0  0  0
    3.5336   -2.2768    0.0000 O   0  0  0  0  0  0  0  0  0  0  0  0
   -2.7331    0.5479    0.0000 C   0  0  0  0  0  0  0  0  0  0  0  0
   -4.0943   -0.0824    0.0000 C   0  0  0  0  0  0  0  0  0  0  0  0
   -4.2291   -1.5763    0.0000 O   0  0  0  0  0  0  0  0  0  0  0  0
   -5.3207    0.7814    0.0000 O   0  0  0  0  0  0  0  0  0  0  0  0
  2  1  1  1
  2  3  1  0
  3  4  1  0
  4  5  2  0
  5  6  1  0
  6  7  2  0
  7  8  1  0
  7  9  1  0
  9 10  2  0
  9 11  1  0
  2 12  1  0
 12 13  1  0
 13 14  2  0
 13 15  1  0
  8  3  2  0
M  CHG  2   9   1  11  -1
M  END
>  <rName>  (4199) 
bAla_3SPh_3NO2

>  <PQ_SYMBOL>  (4199) 
bAla_3SPh_3NO2

>  <FULL_NAME>  (4199) 
(S)-3-amino-3-(3-nitrophenyl)propanoic acid

>  <IUPAC_CONDENSED>  (4199) 
bAla(3S-Ph(3-NO2))

>  <IUPAC>  (4199) 
(3S)-3-amino-3-(3-nitrophenyl)propanoic acid

>  <TYPE>  (4199) 
Backbone

>  <CLASS>  (4199) 
beta

>  <ANALOG>  (4199) 
Lys

>  <MOL_WT>  (4199) 
210.18899999999996

>  <LOGP>  (4199) 
1.0693000000000001

>  <TPSA>  (4199) 
106.46

>  <POPULARITY>  (4199) 
8.4

>  <PROTECTED>  (4199) 
TRUE

>  <SMILES>  (4199) 
N[C@H](c1(cccc(c1)[N+](=O)[O-]))CC(=O)O

>  <INCHIKEY>  (4199) 
SJBFILRQMRECCK-QMMMGPOBSA-N

$$$$
bAla_3SPh_3OH
     RDKit          2D

 13 13  0  0  0  0  0  0  0  0999 V2000
   -1.2291   -1.8553    0.0000 N   0  0  0  0  0  0  0  0  0  0  0  0
   -0.9051   -0.3907    0.0000 C   0  0  0  0  0  0  0  0  0  0  0  0
    0.5252    0.0611    0.0000 C   0  0  0  0  0  0  0  0  0  0  0  0
    0.8491    1.5257    0.0000 C   0  0  0  0  0  0  0  0  0  0  0  0
    2.2795    1.9775    0.0000 C   0  0  0  0  0  0  0  0  0  0  0  0
    3.3859    0.9646    0.0000 C   0  0  0  0  0  0  0  0  0  0  0  0
    3.0620   -0.5000    0.0000 C   0  0  0  0  0  0  0  0  0  0  0  0
    4.1684   -1.5128    0.0000 O   0  0  0  0  0  0  0  0  0  0  0  0
    1.6316   -0.9517    0.0000 C   0  0  0  0  0  0  0  0  0  0  0  0
   -2.0116    0.6222    0.0000 C   0  0  0  0  0  0  0  0  0  0  0  0
   -3.4419    0.1704    0.0000 C   0  0  0  0  0  0  0  0  0  0  0  0
   -3.7658   -1.2942    0.0000 O   0  0  0  0  0  0  0  0  0  0  0  0
   -4.5483    1.1832    0.0000 O   0  0  0  0  0  0  0  0  0  0  0  0
  2  1  1  1
  2  3  1  0
  3  4  2  0
  4  5  1  0
  5  6  2  0
  6  7  1  0
  7  8  1  0
  7  9  2  0
  2 10  1  0
 10 11  1  0
 11 12  2  0
 11 13  1  0
  9  3  1  0
M  END
>  <rName>  (4200) 
bAla_3SPh_3OH

>  <PQ_SYMBOL>  (4200) 
bAla_3SPh_3OH

>  <FULL_NAME>  (4200) 
(S)-3-amino-3-(3-hydroxyphenyl)propanoic acid

>  <IUPAC_CONDENSED>  (4200) 
bAla(3S-Ph(3-OH))

>  <IUPAC>  (4200) 
(3S)-3-amino-3-(3-hydroxyphenyl)propanoic acid

>  <TYPE>  (4200) 
Backbone

>  <CLASS>  (4200) 
beta

>  <ANALOG>  (4200) 
X

>  <MOL_WT>  (4200) 
181.19099999999995

>  <LOGP>  (4200) 
0.8667

>  <TPSA>  (4200) 
83.55

>  <POPULARITY>  (4200) 
10.0

>  <PROTECTED>  (4200) 
TRUE

>  <SMILES>  (4200) 
N[C@H](c1(cccc(O)c1))CC(=O)O

>  <INCHIKEY>  (4200) 
NYHNEKBZZXSUNO-QMMMGPOBSA-N

$$$$
bAla_3SPh_3OMe
     RDKit          2D

 14 14  0  0  0  0  0  0  0  0999 V2000
   -1.2988   -1.8090    0.0000 N   0  0  0  0  0  0  0  0  0  0  0  0
   -1.1504   -0.3163    0.0000 C   0  0  0  0  0  0  0  0  0  0  0  0
    0.2165    0.3015    0.0000 C   0  0  0  0  0  0  0  0  0  0  0  0
    0.3649    1.7941    0.0000 C   0  0  0  0  0  0  0  0  0  0  0  0
    1.7317    2.4119    0.0000 C   0  0  0  0  0  0  0  0  0  0  0  0
    2.9502    1.5371    0.0000 C   0  0  0  0  0  0  0  0  0  0  0  0
    2.8018    0.0445    0.0000 C   0  0  0  0  0  0  0  0  0  0  0  0
    4.0203   -0.8304    0.0000 O   0  0  0  0  0  0  0  0  0  0  0  0
    3.8719   -2.3230    0.0000 C   0  0  0  0  0  0  0  0  0  0  0  0
    1.4349   -0.5733    0.0000 C   0  0  0  0  0  0  0  0  0  0  0  0
   -2.3689    0.5585    0.0000 C   0  0  0  0  0  0  0  0  0  0  0  0
   -3.7357   -0.0593    0.0000 C   0  0  0  0  0  0  0  0  0  0  0  0
   -3.8841   -1.5519    0.0000 O   0  0  0  0  0  0  0  0  0  0  0  0
   -4.9542    0.8155    0.0000 O   0  0  0  0  0  0  0  0  0  0  0  0
  2  1  1  1
  2  3  1  0
  3  4  2  0
  4  5  1  0
  5  6  2  0
  6  7  1  0
  7  8  1  0
  8  9  1  0
  7 10  2  0
  2 11  1  0
 11 12  1  0
 12 13  2  0
 12 14  1  0
 10  3  1  0
M  END
>  <rName>  (4201) 
bAla_3SPh_3OMe

>  <PQ_SYMBOL>  (4201) 
bAla_3SPh_3OMe

>  <FULL_NAME>  (4201) 
(S)-3-amino-3-(3-methoxyphenyl)propanoic acid

>  <IUPAC_CONDENSED>  (4201) 
bAla(3S-Ph(3-OMe))

>  <IUPAC>  (4201) 
(3S)-3-amino-3-(3-methoxyphenyl)propanoic acid

>  <TYPE>  (4201) 
Backbone

>  <CLASS>  (4201) 
beta

>  <ANALOG>  (4201) 
X

>  <MOL_WT>  (4201) 
195.21799999999996

>  <LOGP>  (4201) 
1.1697

>  <TPSA>  (4201) 
72.55

>  <POPULARITY>  (4201) 
10.1

>  <PROTECTED>  (4201) 
TRUE

>  <SMILES>  (4201) 
N[C@H](c1(cccc(OC)c1))CC(=O)O

>  <INCHIKEY>  (4201) 
FGMPGCPZEOXEES-VIFPVBQESA-N

$$$$
bAla_3SPh_3OPh
     RDKit          2D

 19 20  0  0  0  0  0  0  0  0999 V2000
   -1.6902   -1.6815    0.0000 N   0  0  0  0  0  0  0  0  0  0  0  0
   -2.2385   -0.2853    0.0000 C   0  0  0  0  0  0  0  0  0  0  0  0
   -1.3035    0.8876    0.0000 C   0  0  0  0  0  0  0  0  0  0  0  0
   -1.8517    2.2838    0.0000 C   0  0  0  0  0  0  0  0  0  0  0  0
   -0.9167    3.4567    0.0000 C   0  0  0  0  0  0  0  0  0  0  0  0
    0.5665    3.2335    0.0000 C   0  0  0  0  0  0  0  0  0  0  0  0
    1.1148    1.8373    0.0000 C   0  0  0  0  0  0  0  0  0  0  0  0
    2.5981    1.6140    0.0000 O   0  0  0  0  0  0  0  0  0  0  0  0
    3.1464    0.2178    0.0000 C   0  0  0  0  0  0  0  0  0  0  0  0
    2.2114   -0.9551    0.0000 C   0  0  0  0  0  0  0  0  0  0  0  0
    2.7597   -2.3513    0.0000 C   0  0  0  0  0  0  0  0  0  0  0  0
    4.2430   -2.5746    0.0000 C   0  0  0  0  0  0  0  0  0  0  0  0
    5.1780   -1.4017    0.0000 C   0  0  0  0  0  0  0  0  0  0  0  0
    4.6297   -0.0055    0.0000 C   0  0  0  0  0  0  0  0  0  0  0  0
    0.1798    0.6643    0.0000 C   0  0  0  0  0  0  0  0  0  0  0  0
   -3.7217   -0.0621    0.0000 C   0  0  0  0  0  0  0  0  0  0  0  0
   -4.6567   -1.2350    0.0000 C   0  0  0  0  0  0  0  0  0  0  0  0
   -4.1085   -2.6312    0.0000 O   0  0  0  0  0  0  0  0  0  0  0  0
   -6.1400   -1.0117    0.0000 O   0  0  0  0  0  0  0  0  0  0  0  0
  2  1  1  1
  2  3  1  0
  3  4  2  0
  4  5  1  0
  5  6  2  0
  6  7  1  0
  7  8  1  0
  8  9  1  0
  9 10  2  0
 10 11  1  0
 11 12  2  0
 12 13  1  0
 13 14  2  0
  7 15  2  0
  2 16  1  0
 16 17  1  0
 17 18  2  0
 17 19  1  0
 14  9  1  0
 15  3  1  0
M  END
>  <rName>  (4202) 
bAla_3SPh_3OPh

>  <PQ_SYMBOL>  (4202) 
bAla_3SPh_3OPh

>  <FULL_NAME>  (4202) 
(3S)-3-amino-3-(3-phenoxyphenyl)propanoic acid

>  <IUPAC_CONDENSED>  (4202) 
bAla(3S-Ph(3-OPh))

>  <IUPAC>  (4202) 
(3S)-3-amino-3-(3-phenoxyphenyl)propanoic acid

>  <TYPE>  (4202) 
Backbone

>  <CLASS>  (4202) 
beta

>  <ANALOG>  (4202) 
X

>  <MOL_WT>  (4202) 
257.289

>  <LOGP>  (4202) 
2.953400000000001

>  <TPSA>  (4202) 
72.55

>  <POPULARITY>  (4202) 
5.3

>  <PROTECTED>  (4202) 
TRUE

>  <SMILES>  (4202) 
N[C@H](c2(cccc(Oc1(ccccc1))c2))CC(=O)O

>  <INCHIKEY>  (4202) 
DOHHGYXZPWMNKT-AWEZNQCLSA-N

$$$$
bAla_3SPh_4Br
     RDKit          2D

 13 13  0  0  0  0  0  0  0  0999 V2000
   -1.5598   -1.8792    0.0000 N   0  0  0  0  0  0  0  0  0  0  0  0
   -1.0324   -0.4750    0.0000 C   0  0  0  0  0  0  0  0  0  0  0  0
    0.4474   -0.2297    0.0000 C   0  0  0  0  0  0  0  0  0  0  0  0
    0.9749    1.1745    0.0000 C   0  0  0  0  0  0  0  0  0  0  0  0
    2.4547    1.4199    0.0000 C   0  0  0  0  0  0  0  0  0  0  0  0
    3.4070    0.2610    0.0000 C   0  0  0  0  0  0  0  0  0  0  0  0
    4.8868    0.5063    0.0000 Br  0  0  0  0  0  0  0  0  0  0  0  0
    2.8796   -1.1432    0.0000 C   0  0  0  0  0  0  0  0  0  0  0  0
    1.3998   -1.3886    0.0000 C   0  0  0  0  0  0  0  0  0  0  0  0
   -1.9847    0.6838    0.0000 C   0  0  0  0  0  0  0  0  0  0  0  0
   -3.4645    0.4385    0.0000 C   0  0  0  0  0  0  0  0  0  0  0  0
   -3.9920   -0.9657    0.0000 O   0  0  0  0  0  0  0  0  0  0  0  0
   -4.4169    1.5974    0.0000 O   0  0  0  0  0  0  0  0  0  0  0  0
  2  1  1  1
  2  3  1  0
  3  4  1  0
  4  5  2  0
  5  6  1  0
  6  7  1  0
  6  8  2  0
  8  9  1  0
  2 10  1  0
 10 11  1  0
 11 12  2  0
 11 13  1  0
  9  3  2  0
M  END
>  <rName>  (4203) 
bAla_3SPh_4Br

>  <PQ_SYMBOL>  (4203) 
bAla_3SPh_4Br

>  <FULL_NAME>  (4203) 
(S)-3-amino-3-(4-bromophenyl)propanoic acid

>  <IUPAC_CONDENSED>  (4203) 
bAla(3S-Ph(4-Br))

>  <IUPAC>  (4203) 
(3S)-3-amino-3-(4-bromophenyl)propanoic acid

>  <TYPE>  (4203) 
Backbone

>  <CLASS>  (4203) 
beta

>  <ANALOG>  (4203) 
X

>  <MOL_WT>  (4203) 
244.08799999999997

>  <LOGP>  (4203) 
1.9236

>  <TPSA>  (4203) 
63.32000000000001

>  <POPULARITY>  (4203) 
8.3

>  <PROTECTED>  (4203) 
TRUE

>  <SMILES>  (4203) 
N[C@H](c1(ccc(Br)cc1))CC(=O)O

>  <INCHIKEY>  (4203) 
RBOUYDUXPMAYMJ-QMMMGPOBSA-N

$$$$
bAla_3SPh_4CF3
     RDKit          2D

 16 16  0  0  0  0  0  0  0  0999 V2000
   -2.6557   -1.8716    0.0000 N   0  0  0  0  0  0  0  0  0  0  0  0
   -2.0655   -0.4926    0.0000 C   0  0  0  0  0  0  0  0  0  0  0  0
   -0.5761   -0.3143    0.0000 C   0  0  0  0  0  0  0  0  0  0  0  0
    0.0141    1.0647    0.0000 C   0  0  0  0  0  0  0  0  0  0  0  0
    1.5035    1.2430    0.0000 C   0  0  0  0  0  0  0  0  0  0  0  0
    2.4026    0.0424    0.0000 C   0  0  0  0  0  0  0  0  0  0  0  0
    1.8124   -1.3366    0.0000 C   0  0  0  0  0  0  0  0  0  0  0  0
    0.3230   -1.5149    0.0000 C   0  0  0  0  0  0  0  0  0  0  0  0
    3.8920    0.2207    0.0000 C   0  0  0  0  0  0  0  0  0  0  0  0
    5.3813    0.3991    0.0000 F   0  0  0  0  0  0  0  0  0  0  0  0
    4.0703   -1.2686    0.0000 F   0  0  0  0  0  0  0  0  0  0  0  0
    3.7136    1.7101    0.0000 F   0  0  0  0  0  0  0  0  0  0  0  0
   -2.9646    0.7080    0.0000 C   0  0  0  0  0  0  0  0  0  0  0  0
   -4.4539    0.5297    0.0000 C   0  0  0  0  0  0  0  0  0  0  0  0
   -5.0442   -0.8493    0.0000 O   0  0  0  0  0  0  0  0  0  0  0  0
   -5.3531    1.7303    0.0000 O   0  0  0  0  0  0  0  0  0  0  0  0
  2  1  1  1
  2  3  1  0
  3  4  1  0
  4  5  2  0
  5  6  1  0
  6  7  2  0
  7  8  1  0
  6  9  1  0
  9 10  1  0
  9 11  1  0
  9 12  1  0
  2 13  1  0
 13 14  1  0
 14 15  2  0
 14 16  1  0
  8  3  2  0
M  END
>  <rName>  (4204) 
bAla_3SPh_4CF3

>  <PQ_SYMBOL>  (4204) 
bAla_3SPh_4CF3

>  <FULL_NAME>  (4204) 
(S)-3-amino-3-(4-(trifluoromethyl)phenyl)propanoic acid

>  <IUPAC_CONDENSED>  (4204) 
bAla(3S-Ph(4-CF3))

>  <IUPAC>  (4204) 
(3S)-3-amino-3-(4-(trifluoromethyl)phenyl)propanoic acid

>  <TYPE>  (4204) 
Backbone

>  <CLASS>  (4204) 
beta

>  <ANALOG>  (4204) 
X

>  <MOL_WT>  (4204) 
233.18899999999994

>  <LOGP>  (4204) 
2.1799

>  <TPSA>  (4204) 
63.32000000000001

>  <POPULARITY>  (4204) 
8.4

>  <PROTECTED>  (4204) 
TRUE

>  <SMILES>  (4204) 
N[C@H](c1(ccc(cc1)C(F)(F)F))CC(=O)O

>  <INCHIKEY>  (4204) 
ABDRZHVLIRZFQO-QMMMGPOBSA-N

$$$$
bAla_3SPh_4CN
     RDKit          2D

 14 14  0  0  0  0  0  0  0  0999 V2000
   -2.0793   -1.8631    0.0000 N   0  0  0  0  0  0  0  0  0  0  0  0
   -1.5043   -0.4777    0.0000 C   0  0  0  0  0  0  0  0  0  0  0  0
   -0.0170   -0.2830    0.0000 C   0  0  0  0  0  0  0  0  0  0  0  0
    0.5581    1.1024    0.0000 C   0  0  0  0  0  0  0  0  0  0  0  0
    2.0454    1.2971    0.0000 C   0  0  0  0  0  0  0  0  0  0  0  0
    2.9576    0.1064    0.0000 C   0  0  0  0  0  0  0  0  0  0  0  0
    4.4449    0.3011    0.0000 C   0  0  0  0  0  0  0  0  0  0  0  0
    5.9323    0.4958    0.0000 N   0  0  0  0  0  0  0  0  0  0  0  0
    2.3826   -1.2790    0.0000 C   0  0  0  0  0  0  0  0  0  0  0  0
    0.8953   -1.4737    0.0000 C   0  0  0  0  0  0  0  0  0  0  0  0
   -2.4166    0.7130    0.0000 C   0  0  0  0  0  0  0  0  0  0  0  0
   -3.9039    0.5183    0.0000 C   0  0  0  0  0  0  0  0  0  0  0  0
   -4.4789   -0.8671    0.0000 O   0  0  0  0  0  0  0  0  0  0  0  0
   -4.8162    1.7090    0.0000 O   0  0  0  0  0  0  0  0  0  0  0  0
  2  1  1  1
  2  3  1  0
  3  4  1  0
  4  5  2  0
  5  6  1  0
  6  7  1  0
  7  8  3  0
  6  9  2  0
  9 10  1  0
  2 11  1  0
 11 12  1  0
 12 13  2  0
 12 14  1  0
 10  3  2  0
M  END
>  <rName>  (4205) 
bAla_3SPh_4CN

>  <PQ_SYMBOL>  (4205) 
bAla_3SPh_4CN

>  <FULL_NAME>  (4205) 
(S)-3-amino-3-(4-cyanophenyl)propanoic acid

>  <IUPAC_CONDENSED>  (4205) 
bAla(3S-Ph(4-CN))

>  <IUPAC>  (4205) 
(3S)-3-amino-3-(4-(nitrilomethyl)phenyl)propanoic acid

>  <TYPE>  (4205) 
Backbone

>  <CLASS>  (4205) 
beta

>  <ANALOG>  (4205) 
Lys

>  <MOL_WT>  (4205) 
190.20199999999997

>  <LOGP>  (4205) 
1.03278

>  <TPSA>  (4205) 
87.11

>  <POPULARITY>  (4205) 
8.5

>  <PROTECTED>  (4205) 
TRUE

>  <SMILES>  (4205) 
N[C@H](c1(ccc(C#N)cc1))CC(=O)O

>  <INCHIKEY>  (4205) 
JFPLLJRLBHIJPS-VIFPVBQESA-N

$$$$
bAla_3SPh_4Cl
     RDKit          2D

 13 13  0  0  0  0  0  0  0  0999 V2000
   -1.5598   -1.8792    0.0000 N   0  0  0  0  0  0  0  0  0  0  0  0
   -1.0324   -0.4750    0.0000 C   0  0  0  0  0  0  0  0  0  0  0  0
    0.4474   -0.2297    0.0000 C   0  0  0  0  0  0  0  0  0  0  0  0
    0.9749    1.1745    0.0000 C   0  0  0  0  0  0  0  0  0  0  0  0
    2.4547    1.4199    0.0000 C   0  0  0  0  0  0  0  0  0  0  0  0
    3.4070    0.2610    0.0000 C   0  0  0  0  0  0  0  0  0  0  0  0
    4.8868    0.5063    0.0000 Cl  0  0  0  0  0  0  0  0  0  0  0  0
    2.8796   -1.1432    0.0000 C   0  0  0  0  0  0  0  0  0  0  0  0
    1.3998   -1.3886    0.0000 C   0  0  0  0  0  0  0  0  0  0  0  0
   -1.9847    0.6838    0.0000 C   0  0  0  0  0  0  0  0  0  0  0  0
   -3.4645    0.4385    0.0000 C   0  0  0  0  0  0  0  0  0  0  0  0
   -3.9920   -0.9657    0.0000 O   0  0  0  0  0  0  0  0  0  0  0  0
   -4.4169    1.5974    0.0000 O   0  0  0  0  0  0  0  0  0  0  0  0
  2  1  1  1
  2  3  1  0
  3  4  1  0
  4  5  2  0
  5  6  1  0
  6  7  1  0
  6  8  2  0
  8  9  1  0
  2 10  1  0
 10 11  1  0
 11 12  2  0
 11 13  1  0
  9  3  2  0
M  END
>  <rName>  (4206) 
bAla_3SPh_4Cl

>  <PQ_SYMBOL>  (4206) 
bAla_3SPh_4Cl

>  <FULL_NAME>  (4206) 
(S)-3-amino-3-(4-chlorophenyl)propanoic acid

>  <IUPAC_CONDENSED>  (4206) 
bAla(3S-Ph(4-Cl))

>  <IUPAC>  (4206) 
(3S)-3-amino-3-(4-chlorophenyl)propanoic acid

>  <TYPE>  (4206) 
Backbone

>  <CLASS>  (4206) 
beta

>  <ANALOG>  (4206) 
X

>  <MOL_WT>  (4206) 
199.63699999999997

>  <LOGP>  (4206) 
1.8145000000000002

>  <TPSA>  (4206) 
63.32000000000001

>  <POPULARITY>  (4206) 
9.5

>  <PROTECTED>  (4206) 
TRUE

>  <SMILES>  (4206) 
N[C@H](c1(ccc(Cl)cc1))CC(=O)O

>  <INCHIKEY>  (4206) 
BXGDBHAMTMMNTO-QMMMGPOBSA-N

$$$$
bAla_3SPh_4F
     RDKit          2D

 13 13  0  0  0  0  0  0  0  0999 V2000
   -1.5598   -1.8792    0.0000 N   0  0  0  0  0  0  0  0  0  0  0  0
   -1.0324   -0.4750    0.0000 C   0  0  0  0  0  0  0  0  0  0  0  0
    0.4474   -0.2297    0.0000 C   0  0  0  0  0  0  0  0  0  0  0  0
    0.9749    1.1745    0.0000 C   0  0  0  0  0  0  0  0  0  0  0  0
    2.4547    1.4199    0.0000 C   0  0  0  0  0  0  0  0  0  0  0  0
    3.4070    0.2610    0.0000 C   0  0  0  0  0  0  0  0  0  0  0  0
    4.8868    0.5063    0.0000 F   0  0  0  0  0  0  0  0  0  0  0  0
    2.8796   -1.1432    0.0000 C   0  0  0  0  0  0  0  0  0  0  0  0
    1.3998   -1.3886    0.0000 C   0  0  0  0  0  0  0  0  0  0  0  0
   -1.9847    0.6838    0.0000 C   0  0  0  0  0  0  0  0  0  0  0  0
   -3.4645    0.4385    0.0000 C   0  0  0  0  0  0  0  0  0  0  0  0
   -3.9920   -0.9657    0.0000 O   0  0  0  0  0  0  0  0  0  0  0  0
   -4.4169    1.5974    0.0000 O   0  0  0  0  0  0  0  0  0  0  0  0
  2  1  1  1
  2  3  1  0
  3  4  1  0
  4  5  2  0
  5  6  1  0
  6  7  1  0
  6  8  2  0
  8  9  1  0
  2 10  1  0
 10 11  1  0
 11 12  2  0
 11 13  1  0
  9  3  2  0
M  END
>  <rName>  (4207) 
bAla_3SPh_4F

>  <PQ_SYMBOL>  (4207) 
bAla_3SPh_4F

>  <FULL_NAME>  (4207) 
(S)-3-amino-3-(4-fluorophenyl)propanoic acid

>  <IUPAC_CONDENSED>  (4207) 
bAla(3S-Ph(4-F))

>  <IUPAC>  (4207) 
(3S)-3-amino-3-(4-fluorophenyl)propanoic acid

>  <TYPE>  (4207) 
Backbone

>  <CLASS>  (4207) 
beta

>  <ANALOG>  (4207) 
X

>  <MOL_WT>  (4207) 
183.18199999999996

>  <LOGP>  (4207) 
1.3002000000000002

>  <TPSA>  (4207) 
63.32000000000001

>  <POPULARITY>  (4207) 
9.2

>  <PROTECTED>  (4207) 
TRUE

>  <SMILES>  (4207) 
N[C@H](c1(ccc(F)cc1))CC(=O)O

>  <INCHIKEY>  (4207) 
CPGFMWPQXUXQRX-QMMMGPOBSA-N

$$$$
bAla_3SPh_4Me
     RDKit          2D

 13 13  0  0  0  0  0  0  0  0999 V2000
   -1.5598   -1.8792    0.0000 N   0  0  0  0  0  0  0  0  0  0  0  0
   -1.0324   -0.4750    0.0000 C   0  0  0  0  0  0  0  0  0  0  0  0
    0.4474   -0.2297    0.0000 C   0  0  0  0  0  0  0  0  0  0  0  0
    0.9749    1.1745    0.0000 C   0  0  0  0  0  0  0  0  0  0  0  0
    2.4547    1.4199    0.0000 C   0  0  0  0  0  0  0  0  0  0  0  0
    3.4070    0.2610    0.0000 C   0  0  0  0  0  0  0  0  0  0  0  0
    4.8868    0.5063    0.0000 C   0  0  0  0  0  0  0  0  0  0  0  0
    2.8796   -1.1432    0.0000 C   0  0  0  0  0  0  0  0  0  0  0  0
    1.3998   -1.3886    0.0000 C   0  0  0  0  0  0  0  0  0  0  0  0
   -1.9847    0.6838    0.0000 C   0  0  0  0  0  0  0  0  0  0  0  0
   -3.4645    0.4385    0.0000 C   0  0  0  0  0  0  0  0  0  0  0  0
   -3.9920   -0.9657    0.0000 O   0  0  0  0  0  0  0  0  0  0  0  0
   -4.4169    1.5974    0.0000 O   0  0  0  0  0  0  0  0  0  0  0  0
  2  1  1  1
  2  3  1  0
  3  4  1  0
  4  5  2  0
  5  6  1  0
  6  7  1  0
  6  8  2  0
  8  9  1  0
  2 10  1  0
 10 11  1  0
 11 12  2  0
 11 13  1  0
  9  3  2  0
M  END
>  <rName>  (4208) 
bAla_3SPh_4Me

>  <PQ_SYMBOL>  (4208) 
bAla_3SPh_4Me

>  <FULL_NAME>  (4208) 
(S)-3-amino-3-(p-tolyl)propanoic acid

>  <IUPAC_CONDENSED>  (4208) 
bAla(3S-Ph(4-Me))

>  <IUPAC>  (4208) 
(3S)-3-amino-3-(4-methylphenyl)propanoic acid

>  <TYPE>  (4208) 
Backbone

>  <CLASS>  (4208) 
beta

>  <ANALOG>  (4208) 
X

>  <MOL_WT>  (4208) 
179.21899999999997

>  <LOGP>  (4208) 
1.4695200000000002

>  <TPSA>  (4208) 
63.32000000000001

>  <POPULARITY>  (4208) 
10.3

>  <PROTECTED>  (4208) 
TRUE

>  <SMILES>  (4208) 
N[C@H](c1(ccc(C)cc1))CC(=O)O

>  <INCHIKEY>  (4208) 
XPDAKEOBPKFUAH-VIFPVBQESA-N

$$$$
bAla_3SPh_4NO2
     RDKit          2D

 15 15  0  0  0  0  0  0  0  0999 V2000
   -2.3844   -1.8721    0.0000 N   0  0  0  0  0  0  0  0  0  0  0  0
   -1.8029   -0.4894    0.0000 C   0  0  0  0  0  0  0  0  0  0  0  0
   -0.3147   -0.3016    0.0000 C   0  0  0  0  0  0  0  0  0  0  0  0
    0.2667    1.0811    0.0000 C   0  0  0  0  0  0  0  0  0  0  0  0
    1.7549    1.2689    0.0000 C   0  0  0  0  0  0  0  0  0  0  0  0
    2.6617    0.0740    0.0000 C   0  0  0  0  0  0  0  0  0  0  0  0
    2.0802   -1.3087    0.0000 C   0  0  0  0  0  0  0  0  0  0  0  0
    0.5920   -1.4965    0.0000 C   0  0  0  0  0  0  0  0  0  0  0  0
    4.1499    0.2618    0.0000 N   0  0  0  0  0  0  0  0  0  0  0  0
    4.7313    1.6445    0.0000 O   0  0  0  0  0  0  0  0  0  0  0  0
    5.0566   -0.9331    0.0000 O   0  0  0  0  0  0  0  0  0  0  0  0
   -2.7097    0.7055    0.0000 C   0  0  0  0  0  0  0  0  0  0  0  0
   -4.1978    0.5177    0.0000 C   0  0  0  0  0  0  0  0  0  0  0  0
   -4.7793   -0.8650    0.0000 O   0  0  0  0  0  0  0  0  0  0  0  0
   -5.1046    1.7127    0.0000 O   0  0  0  0  0  0  0  0  0  0  0  0
  2  1  1  1
  2  3  1  0
  3  4  1  0
  4  5  2  0
  5  6  1  0
  6  7  2  0
  7  8  1  0
  6  9  1  0
  9 10  2  0
  9 11  1  0
  2 12  1  0
 12 13  1  0
 13 14  2  0
 13 15  1  0
  8  3  2  0
M  CHG  2   9   1  11  -1
M  END
>  <rName>  (4209) 
bAla_3SPh_4NO2

>  <PQ_SYMBOL>  (4209) 
bAla_3SPh_4NO2

>  <FULL_NAME>  (4209) 
(S)-3-amino-3-(4-nitrophenyl)propanoic acid

>  <IUPAC_CONDENSED>  (4209) 
bAla(3S-Ph(4-NO2))

>  <IUPAC>  (4209) 
(3S)-3-amino-3-(4-nitrophenyl)propanoic acid

>  <TYPE>  (4209) 
Backbone

>  <CLASS>  (4209) 
beta

>  <ANALOG>  (4209) 
Lys

>  <MOL_WT>  (4209) 
210.18899999999996

>  <LOGP>  (4209) 
1.0693

>  <TPSA>  (4209) 
106.46

>  <POPULARITY>  (4209) 
7.8

>  <PROTECTED>  (4209) 
TRUE

>  <SMILES>  (4209) 
N[C@H](c1(ccc(cc1)[N+](=O)[O-]))CC(=O)O

>  <INCHIKEY>  (4209) 
JVQPVKJZKRICRR-QMMMGPOBSA-N

$$$$
bAla_3SPh_4OMe
     RDKit          2D

 14 14  0  0  0  0  0  0  0  0999 V2000
   -1.9239   -1.8882    0.0000 N   0  0  0  0  0  0  0  0  0  0  0  0
   -1.4367   -0.4695    0.0000 C   0  0  0  0  0  0  0  0  0  0  0  0
    0.0356   -0.1821    0.0000 C   0  0  0  0  0  0  0  0  0  0  0  0
    0.5228    1.2365    0.0000 C   0  0  0  0  0  0  0  0  0  0  0  0
    1.9950    1.5239    0.0000 C   0  0  0  0  0  0  0  0  0  0  0  0
    2.9800    0.3926    0.0000 C   0  0  0  0  0  0  0  0  0  0  0  0
    4.4522    0.6799    0.0000 O   0  0  0  0  0  0  0  0  0  0  0  0
    5.4372   -0.4514    0.0000 C   0  0  0  0  0  0  0  0  0  0  0  0
    2.4927   -1.0261    0.0000 C   0  0  0  0  0  0  0  0  0  0  0  0
    1.0205   -1.3134    0.0000 C   0  0  0  0  0  0  0  0  0  0  0  0
   -2.4216    0.6618    0.0000 C   0  0  0  0  0  0  0  0  0  0  0  0
   -3.8939    0.3744    0.0000 C   0  0  0  0  0  0  0  0  0  0  0  0
   -4.3811   -1.0442    0.0000 O   0  0  0  0  0  0  0  0  0  0  0  0
   -4.8788    1.5057    0.0000 O   0  0  0  0  0  0  0  0  0  0  0  0
  2  1  1  1
  2  3  1  0
  3  4  1  0
  4  5  2  0
  5  6  1  0
  6  7  1  0
  7  8  1  0
  6  9  2  0
  9 10  1  0
  2 11  1  0
 11 12  1  0
 12 13  2  0
 12 14  1  0
 10  3  2  0
M  END
>  <rName>  (4210) 
bAla_3SPh_4OMe

>  <PQ_SYMBOL>  (4210) 
bAla_3SPh_4OMe

>  <FULL_NAME>  (4210) 
(S)-3-amino-3-(4-methoxyphenyl)propanoic acid

>  <IUPAC_CONDENSED>  (4210) 
bAla(3S-Ph(4-OMe))

>  <IUPAC>  (4210) 
(3S)-3-amino-3-(4-methoxyphenyl)propanoic acid

>  <TYPE>  (4210) 
Backbone

>  <CLASS>  (4210) 
beta

>  <ANALOG>  (4210) 
X

>  <MOL_WT>  (4210) 
195.21799999999996

>  <LOGP>  (4210) 
1.1697

>  <TPSA>  (4210) 
72.55

>  <POPULARITY>  (4210) 
11.2

>  <PROTECTED>  (4210) 
TRUE

>  <SMILES>  (4210) 
N[C@H](c1(ccc(OC)cc1))CC(=O)O

>  <INCHIKEY>  (4210) 
NYTANCDDCQVQHG-VIFPVBQESA-N

$$$$
bAla_3SPh_4Ph
     RDKit          2D

 18 19  0  0  0  0  0  0  0  0999 V2000
   -3.5589   -1.8393    0.0000 N   0  0  0  0  0  0  0  0  0  0  0  0
   -2.9274   -0.4787    0.0000 C   0  0  0  0  0  0  0  0  0  0  0  0
   -1.4333   -0.3453    0.0000 C   0  0  0  0  0  0  0  0  0  0  0  0
   -0.8018    1.0153    0.0000 C   0  0  0  0  0  0  0  0  0  0  0  0
    0.6923    1.1486    0.0000 C   0  0  0  0  0  0  0  0  0  0  0  0
    1.5548   -0.0786    0.0000 C   0  0  0  0  0  0  0  0  0  0  0  0
    0.9233   -1.4391    0.0000 C   0  0  0  0  0  0  0  0  0  0  0  0
   -0.5708   -1.5725    0.0000 C   0  0  0  0  0  0  0  0  0  0  0  0
    3.0489    0.0548    0.0000 C   0  0  0  0  0  0  0  0  0  0  0  0
    3.9114   -1.1724    0.0000 C   0  0  0  0  0  0  0  0  0  0  0  0
    5.4055   -1.0390    0.0000 C   0  0  0  0  0  0  0  0  0  0  0  0
    6.0370    0.3216    0.0000 C   0  0  0  0  0  0  0  0  0  0  0  0
    5.1744    1.5488    0.0000 C   0  0  0  0  0  0  0  0  0  0  0  0
    3.6804    1.4154    0.0000 C   0  0  0  0  0  0  0  0  0  0  0  0
   -3.7899    0.7485    0.0000 C   0  0  0  0  0  0  0  0  0  0  0  0
   -5.2840    0.6151    0.0000 C   0  0  0  0  0  0  0  0  0  0  0  0
   -5.9155   -0.7455    0.0000 O   0  0  0  0  0  0  0  0  0  0  0  0
   -6.1465    1.8423    0.0000 O   0  0  0  0  0  0  0  0  0  0  0  0
  2  1  1  1
  2  3  1  0
  3  4  1  0
  4  5  2  0
  5  6  1  0
  6  7  2  0
  7  8  1  0
  6  9  1  0
  9 10  2  0
 10 11  1  0
 11 12  2  0
 12 13  1  0
 13 14  2  0
  2 15  1  0
 15 16  1  0
 16 17  2  0
 16 18  1  0
  8  3  2  0
 14  9  1  0
M  END
>  <rName>  (4211) 
bAla_3SPh_4Ph

>  <PQ_SYMBOL>  (4211) 
bAla_3SPh_4Ph

>  <FULL_NAME>  (4211) 
(3S)-3-Amino-3-(4-phenylphenyl)propanoic acid

>  <IUPAC_CONDENSED>  (4211) 
bAla(3S-Ph(4-Ph))

>  <IUPAC>  (4211) 
(3S)-3-amino-3-(4-phenylphenyl)propanoic acid

>  <TYPE>  (4211) 
Backbone

>  <CLASS>  (4211) 
beta

>  <ANALOG>  (4211) 
X

>  <MOL_WT>  (4211) 
241.29

>  <LOGP>  (4211) 
2.828100000000001

>  <TPSA>  (4211) 
63.32000000000001

>  <POPULARITY>  (4211) 
6.8

>  <PROTECTED>  (4211) 
TRUE

>  <SMILES>  (4211) 
N[C@H](c1(ccc(cc1)c2(ccccc2)))CC(=O)O

>  <INCHIKEY>  (4211) 
BJZGTTDEOZUSRH-AWEZNQCLSA-N

$$$$
bAla_3SPr
     RDKit          2D

  9  8  0  0  0  0  0  0  0  0999 V2000
   -0.1633    1.5188    0.0000 N   0  0  0  0  0  0  0  0  0  0  0  0
   -0.2877    0.0239    0.0000 C   0  0  0  0  0  0  0  0  0  0  0  0
   -1.6444   -0.6157    0.0000 C   0  0  0  0  0  0  0  0  0  0  0  0
   -2.8768    0.2394    0.0000 C   0  0  0  0  0  0  0  0  0  0  0  0
   -4.2336   -0.4002    0.0000 C   0  0  0  0  0  0  0  0  0  0  0  0
    0.9447   -0.8312    0.0000 C   0  0  0  0  0  0  0  0  0  0  0  0
    2.3014   -0.1915    0.0000 C   0  0  0  0  0  0  0  0  0  0  0  0
    2.4259    1.3033    0.0000 O   0  0  0  0  0  0  0  0  0  0  0  0
    3.5338   -1.0467    0.0000 O   0  0  0  0  0  0  0  0  0  0  0  0
  2  1  1  6
  2  3  1  0
  3  4  1  0
  4  5  1  0
  2  6  1  0
  6  7  1  0
  7  8  2  0
  7  9  1  0
M  END
>  <rName>  (4212) 
bAla_3SPr

>  <PQ_SYMBOL>  (4212) 
bAla_3SPr

>  <FULL_NAME>  (4212) 
(S)-3-aminohexanoic acid

>  <IUPAC_CONDENSED>  (4212) 
bAla(3S-Pr)

>  <IUPAC>  (4212) 
(3S)-3-aminohexanoic acid

>  <TYPE>  (4212) 
Backbone

>  <CLASS>  (4212) 
beta

>  <ANALOG>  (4212) 
Val

>  <MOL_WT>  (4212) 
131.175

>  <LOGP>  (4212) 
0.5884999999999998

>  <TPSA>  (4212) 
63.32000000000001

>  <POPULARITY>  (4212) 
14.0

>  <PROTECTED>  (4212) 
TRUE

>  <SMILES>  (4212) 
N[C@@H](CCC)CC(=O)O

>  <INCHIKEY>  (4212) 
YIJFIIXHVSHQEN-YFKPBYRVSA-N

$$$$
bAla_3Sallyl
     RDKit          2D

  9  8  0  0  0  0  0  0  0  0999 V2000
   -0.1633    1.5188    0.0000 N   0  0  0  0  0  0  0  0  0  0  0  0
   -0.2877    0.0239    0.0000 C   0  0  0  0  0  0  0  0  0  0  0  0
   -1.6444   -0.6157    0.0000 C   0  0  0  0  0  0  0  0  0  0  0  0
   -2.8768    0.2394    0.0000 C   0  0  0  0  0  0  0  0  0  0  0  0
   -4.2336   -0.4002    0.0000 C   0  0  0  0  0  0  0  0  0  0  0  0
    0.9447   -0.8312    0.0000 C   0  0  0  0  0  0  0  0  0  0  0  0
    2.3014   -0.1915    0.0000 C   0  0  0  0  0  0  0  0  0  0  0  0
    2.4259    1.3033    0.0000 O   0  0  0  0  0  0  0  0  0  0  0  0
    3.5338   -1.0467    0.0000 O   0  0  0  0  0  0  0  0  0  0  0  0
  2  1  1  6
  2  3  1  0
  3  4  1  0
  4  5  2  0
  2  6  1  0
  6  7  1  0
  7  8  2  0
  7  9  1  0
M  END
>  <rName>  (4213) 
bAla_3Sallyl

>  <PQ_SYMBOL>  (4213) 
bAla_3Sallyl

>  <FULL_NAME>  (4213) 
(S)-3-aminohex-5-enoic acid

>  <IUPAC_CONDENSED>  (4213) 
bAla(3S-allyl)

>  <IUPAC>  (4213) 
(3S)-3-aminohex-5-enoic acid

>  <TYPE>  (4213) 
Backbone

>  <CLASS>  (4213) 
beta

>  <ANALOG>  (4213) 
Val

>  <MOL_WT>  (4213) 
129.15900000000002

>  <LOGP>  (4213) 
0.3645

>  <TPSA>  (4213) 
63.32000000000001

>  <POPULARITY>  (4213) 
10.3

>  <PROTECTED>  (4213) 
TRUE

>  <SMILES>  (4213) 
N[C@@H](CC=C)CC(=O)O

>  <INCHIKEY>  (4213) 
UEMNCMYSSFWTCS-YFKPBYRVSA-N

$$$$
bAla_3Sbenzhydryl
     RDKit          2D

 19 20  0  0  0  0  0  0  0  0999 V2000
   -0.5750   -2.6112    0.0000 N   0  0  0  0  0  0  0  0  0  0  0  0
   -0.9213   -1.1517    0.0000 C   0  0  0  0  0  0  0  0  0  0  0  0
    0.1695   -0.1221    0.0000 C   0  0  0  0  0  0  0  0  0  0  0  0
    1.6066   -0.5519    0.0000 C   0  0  0  0  0  0  0  0  0  0  0  0
    1.9529   -2.0114    0.0000 C   0  0  0  0  0  0  0  0  0  0  0  0
    3.3900   -2.4412    0.0000 C   0  0  0  0  0  0  0  0  0  0  0  0
    4.4808   -1.4116    0.0000 C   0  0  0  0  0  0  0  0  0  0  0  0
    4.1345    0.0479    0.0000 C   0  0  0  0  0  0  0  0  0  0  0  0
    2.6974    0.4777    0.0000 C   0  0  0  0  0  0  0  0  0  0  0  0
   -0.1768    1.3374    0.0000 C   0  0  0  0  0  0  0  0  0  0  0  0
    0.9140    2.3671    0.0000 C   0  0  0  0  0  0  0  0  0  0  0  0
    0.5677    3.8265    0.0000 C   0  0  0  0  0  0  0  0  0  0  0  0
   -0.8694    4.2564    0.0000 C   0  0  0  0  0  0  0  0  0  0  0  0
   -1.9602    3.2267    0.0000 C   0  0  0  0  0  0  0  0  0  0  0  0
   -1.6139    1.7673    0.0000 C   0  0  0  0  0  0  0  0  0  0  0  0
   -2.3584   -0.7219    0.0000 C   0  0  0  0  0  0  0  0  0  0  0  0
   -3.4492   -1.7515    0.0000 C   0  0  0  0  0  0  0  0  0  0  0  0
   -3.1029   -3.2110    0.0000 O   0  0  0  0  0  0  0  0  0  0  0  0
   -4.8863   -1.3217    0.0000 O   0  0  0  0  0  0  0  0  0  0  0  0
  2  1  1  1
  2  3  1  0
  3  4  1  0
  4  5  2  0
  5  6  1  0
  6  7  2  0
  7  8  1  0
  8  9  2  0
  3 10  1  0
 10 11  2  0
 11 12  1  0
 12 13  2  0
 13 14  1  0
 14 15  2  0
  2 16  1  0
 16 17  1  0
 17 18  2  0
 17 19  1  0
  9  4  1  0
 15 10  1  0
M  END
>  <rName>  (4214) 
bAla_3Sbenzhydryl

>  <PQ_SYMBOL>  (4214) 
bAla_3Sbenzhydryl

>  <FULL_NAME>  (4214) 
(S)-3-amino-4,4-diphenylbutanoic acid

>  <IUPAC_CONDENSED>  (4214) 
bAla(3S-benzhydryl)

>  <IUPAC>  (4214) 
(3S)-3-amino-4,4-diphenylbutanoic acid

>  <TYPE>  (4214) 
Backbone

>  <CLASS>  (4214) 
beta

>  <ANALOG>  (4214) 
Phe

>  <MOL_WT>  (4214) 
255.31699999999998

>  <LOGP>  (4214) 
2.6205000000000007

>  <TPSA>  (4214) 
63.32000000000001

>  <POPULARITY>  (4214) 
4.9

>  <PROTECTED>  (4214) 
TRUE

>  <SMILES>  (4214) 
N[C@H](C(c1(ccccc1))c2(ccccc2))CC(=O)O

>  <INCHIKEY>  (4214) 
BMWWMUHNEWGJJH-AWEZNQCLSA-N

$$$$
bAla_3Sbenzothiophen3yl
     RDKit          2D

 16 17  0  0  0  0  0  0  0  0999 V2000
   -2.2204   -1.3731    0.0000 N   0  0  0  0  0  0  0  0  0  0  0  0
   -2.0671    0.1190    0.0000 C   0  0  0  0  0  0  0  0  0  0  0  0
   -0.6982    0.7323    0.0000 C   0  0  0  0  0  0  0  0  0  0  0  0
    0.5173   -0.1465    0.0000 C   0  0  0  0  0  0  0  0  0  0  0  0
    0.5208   -1.6465    0.0000 C   0  0  0  0  0  0  0  0  0  0  0  0
    1.9485   -2.1067    0.0000 S   0  0  0  0  0  0  0  0  0  0  0  0
    2.8273   -0.8912    0.0000 C   0  0  0  0  0  0  0  0  0  0  0  0
    4.3188   -0.7309    0.0000 C   0  0  0  0  0  0  0  0  0  0  0  0
    4.9257    0.6408    0.0000 C   0  0  0  0  0  0  0  0  0  0  0  0
    4.0412    1.8523    0.0000 C   0  0  0  0  0  0  0  0  0  0  0  0
    2.5498    1.6920    0.0000 C   0  0  0  0  0  0  0  0  0  0  0  0
    1.9428    0.3203    0.0000 C   0  0  0  0  0  0  0  0  0  0  0  0
   -3.2827    0.9979    0.0000 C   0  0  0  0  0  0  0  0  0  0  0  0
   -4.6516    0.3846    0.0000 C   0  0  0  0  0  0  0  0  0  0  0  0
   -4.8049   -1.1076    0.0000 O   0  0  0  0  0  0  0  0  0  0  0  0
   -5.8672    1.2634    0.0000 O   0  0  0  0  0  0  0  0  0  0  0  0
  2  1  1  6
  2  3  1  0
  3  4  1  0
  4  5  2  0
  5  6  1  0
  6  7  1  0
  7  8  2  0
  8  9  1  0
  9 10  2  0
 10 11  1  0
 11 12  2  0
  2 13  1  0
 13 14  1  0
 14 15  2  0
 14 16  1  0
 12  7  1  0
 12  4  1  0
M  END
>  <rName>  (4215) 
bAla_3Sbenzothiophen3yl

>  <PQ_SYMBOL>  (4215) 
bAla_3Sbenzothiophen3yl

>  <FULL_NAME>  (4215) 
(S)-3-amino-4-(benzo[b]thiophen-3-yl)butanoic acid

>  <IUPAC_CONDENSED>  (4215) 
bAla(3S-benzothiophen-3-yl)

>  <IUPAC>  (4215) 
(3S)-3-amino-4-(1-benzothiophen-3-yl)butanoic acid

>  <TYPE>  (4215) 
Backbone

>  <CLASS>  (4215) 
beta

>  <ANALOG>  (4215) 
Phe

>  <MOL_WT>  (4215) 
235.308

>  <LOGP>  (4215) 
2.2458

>  <TPSA>  (4215) 
63.32000000000001

>  <POPULARITY>  (4215) 
4.7

>  <PROTECTED>  (4215) 
TRUE

>  <SMILES>  (4215) 
N[C@@H](Cc2(csc1(ccccc12)))CC(=O)O

>  <INCHIKEY>  (4215) 
FGCYUNZSPGBIGH-VIFPVBQESA-N

$$$$
bAla_3Sbut3enyl
     RDKit          2D

 10  9  0  0  0  0  0  0  0  0999 V2000
   -0.3386    1.4842    0.0000 N   0  0  0  0  0  0  0  0  0  0  0  0
   -0.2594   -0.0137    0.0000 C   0  0  0  0  0  0  0  0  0  0  0  0
    1.0773   -0.6941    0.0000 C   0  0  0  0  0  0  0  0  0  0  0  0
    2.3350    0.1233    0.0000 C   0  0  0  0  0  0  0  0  0  0  0  0
    3.6718   -0.5571    0.0000 C   0  0  0  0  0  0  0  0  0  0  0  0
    4.9295    0.2604    0.0000 C   0  0  0  0  0  0  0  0  0  0  0  0
   -1.5171   -0.8312    0.0000 C   0  0  0  0  0  0  0  0  0  0  0  0
   -2.8539   -0.1507    0.0000 C   0  0  0  0  0  0  0  0  0  0  0  0
   -2.9330    1.3472    0.0000 O   0  0  0  0  0  0  0  0  0  0  0  0
   -4.1116   -0.9682    0.0000 O   0  0  0  0  0  0  0  0  0  0  0  0
  2  1  1  1
  2  3  1  0
  3  4  1  0
  4  5  1  0
  5  6  2  0
  2  7  1  0
  7  8  1  0
  8  9  2  0
  8 10  1  0
M  END
>  <rName>  (4216) 
bAla_3Sbut3enyl

>  <PQ_SYMBOL>  (4216) 
bAla_3Sbut3enyl

>  <FULL_NAME>  (4216) 
(S)-3-Amino-hept-6-enoic acid

>  <IUPAC_CONDENSED>  (4216) 
bAla(3S-but-3-enyl)

>  <IUPAC>  (4216) 
(3S)-3-aminohept-6-enoic acid

>  <TYPE>  (4216) 
Backbone

>  <CLASS>  (4216) 
beta

>  <ANALOG>  (4216) 
Leu

>  <MOL_WT>  (4216) 
143.186

>  <LOGP>  (4216) 
0.7545999999999999

>  <TPSA>  (4216) 
63.32000000000001

>  <POPULARITY>  (4216) 
7.3

>  <PROTECTED>  (4216) 
TRUE

>  <SMILES>  (4216) 
N[C@@H](CCC=C)CC(=O)O

>  <INCHIKEY>  (4216) 
IAWLQRWQXWXELQ-LURJTMIESA-N

$$$$
bAla_3ScBu
     RDKit          2D

 10 10  0  0  0  0  0  0  0  0999 V2000
   -0.3582   -1.8337    0.0000 N   0  0  0  0  0  0  0  0  0  0  0  0
    0.0484   -0.3898    0.0000 C   0  0  0  0  0  0  0  0  0  0  0  0
    1.5020   -0.0199    0.0000 C   0  0  0  0  0  0  0  0  0  0  0  0
    2.2684    1.2695    0.0000 C   0  0  0  0  0  0  0  0  0  0  0  0
    3.5578    0.5032    0.0000 C   0  0  0  0  0  0  0  0  0  0  0  0
    2.7915   -0.7863    0.0000 C   0  0  0  0  0  0  0  0  0  0  0  0
   -0.9988    0.6842    0.0000 C   0  0  0  0  0  0  0  0  0  0  0  0
   -2.4525    0.3143    0.0000 C   0  0  0  0  0  0  0  0  0  0  0  0
   -2.8590   -1.1296    0.0000 O   0  0  0  0  0  0  0  0  0  0  0  0
   -3.4997    1.3882    0.0000 O   0  0  0  0  0  0  0  0  0  0  0  0
  2  1  1  1
  2  3  1  0
  3  4  1  0
  4  5  1  0
  5  6  1  0
  2  7  1  0
  7  8  1  0
  8  9  2  0
  8 10  1  0
  6  3  1  0
M  END
>  <rName>  (4217) 
bAla_3ScBu

>  <PQ_SYMBOL>  (4217) 
bAla_3ScBu

>  <FULL_NAME>  (4217) 
(S)-3-amino-3-cyclobutylpropanoic acid

>  <IUPAC_CONDENSED>  (4217) 
bAla(3S-cBu)

>  <IUPAC>  (4217) 
(3S)-3-amino-3-cyclobutylpropanoic acid

>  <TYPE>  (4217) 
Backbone

>  <CLASS>  (4217) 
beta

>  <ANALOG>  (4217) 
X

>  <MOL_WT>  (4217) 
143.186

>  <LOGP>  (4217) 
0.5884999999999998

>  <TPSA>  (4217) 
63.32000000000001

>  <POPULARITY>  (4217) 
5.0

>  <PROTECTED>  (4217) 
TRUE

>  <SMILES>  (4217) 
N[C@H](C1(CCC1))CC(=O)O

>  <INCHIKEY>  (4217) 
BKTGHCWCUCSXIV-LURJTMIESA-N

$$$$
bAla_3ScHex
     RDKit          2D

 12 12  0  0  0  0  0  0  0  0999 V2000
   -1.0786   -1.8814    0.0000 N   0  0  0  0  0  0  0  0  0  0  0  0
   -0.6074   -0.4573    0.0000 C   0  0  0  0  0  0  0  0  0  0  0  0
    0.8615   -0.1534    0.0000 C   0  0  0  0  0  0  0  0  0  0  0  0
    1.3327    1.2707    0.0000 C   0  0  0  0  0  0  0  0  0  0  0  0
    2.8016    1.5746    0.0000 C   0  0  0  0  0  0  0  0  0  0  0  0
    3.7992    0.4545    0.0000 C   0  0  0  0  0  0  0  0  0  0  0  0
    3.3280   -0.9696    0.0000 C   0  0  0  0  0  0  0  0  0  0  0  0
    1.8591   -1.2735    0.0000 C   0  0  0  0  0  0  0  0  0  0  0  0
   -1.6051    0.6628    0.0000 C   0  0  0  0  0  0  0  0  0  0  0  0
   -3.0740    0.3588    0.0000 C   0  0  0  0  0  0  0  0  0  0  0  0
   -3.5452   -1.0652    0.0000 O   0  0  0  0  0  0  0  0  0  0  0  0
   -4.0716    1.4790    0.0000 O   0  0  0  0  0  0  0  0  0  0  0  0
  2  1  1  1
  2  3  1  0
  3  4  1  0
  4  5  1  0
  5  6  1  0
  6  7  1  0
  7  8  1  0
  2  9  1  0
  9 10  1  0
 10 11  2  0
 10 12  1  0
  8  3  1  0
M  END
>  <rName>  (4218) 
bAla_3ScHex

>  <PQ_SYMBOL>  (4218) 
bAla_3ScHex

>  <FULL_NAME>  (4218) 
(S)-3-Amino-3-cyclohexylpropanoic acid

>  <IUPAC_CONDENSED>  (4218) 
bAla(3S-cHex)

>  <IUPAC>  (4218) 
(3S)-3-amino-3-cyclohexylpropanoic acid

>  <TYPE>  (4218) 
Backbone

>  <CLASS>  (4218) 
beta

>  <ANALOG>  (4218) 
X

>  <MOL_WT>  (4218) 
171.24

>  <LOGP>  (4218) 
1.3687

>  <TPSA>  (4218) 
63.32000000000001

>  <POPULARITY>  (4218) 
9.7

>  <PROTECTED>  (4218) 
TRUE

>  <SMILES>  (4218) 
N[C@H](C1(CCCCC1))CC(=O)O

>  <INCHIKEY>  (4218) 
XGRSAFKZAGGXJV-QMMMGPOBSA-N

$$$$
bAla_3ScHexEt
     RDKit          2D

 14 14  0  0  0  0  0  0  0  0999 V2000
   -2.1732   -1.6585    0.0000 N   0  0  0  0  0  0  0  0  0  0  0  0
   -1.8487   -0.1940    0.0000 C   0  0  0  0  0  0  0  0  0  0  0  0
   -0.4182    0.2573    0.0000 C   0  0  0  0  0  0  0  0  0  0  0  0
    0.6879   -0.7560    0.0000 C   0  0  0  0  0  0  0  0  0  0  0  0
    2.1184   -0.3047    0.0000 C   0  0  0  0  0  0  0  0  0  0  0  0
    2.4428    1.1598    0.0000 C   0  0  0  0  0  0  0  0  0  0  0  0
    3.8734    1.6110    0.0000 C   0  0  0  0  0  0  0  0  0  0  0  0
    4.9794    0.5978    0.0000 C   0  0  0  0  0  0  0  0  0  0  0  0
    4.6549   -0.8667    0.0000 C   0  0  0  0  0  0  0  0  0  0  0  0
    3.2244   -1.3180    0.0000 C   0  0  0  0  0  0  0  0  0  0  0  0
   -2.9548    0.8193    0.0000 C   0  0  0  0  0  0  0  0  0  0  0  0
   -4.3853    0.3680    0.0000 C   0  0  0  0  0  0  0  0  0  0  0  0
   -4.7097   -1.0965    0.0000 O   0  0  0  0  0  0  0  0  0  0  0  0
   -5.4913    1.3812    0.0000 O   0  0  0  0  0  0  0  0  0  0  0  0
  2  1  1  6
  2  3  1  0
  3  4  1  0
  4  5  1  0
  5  6  1  0
  6  7  1  0
  7  8  1  0
  8  9  1  0
  9 10  1  0
  2 11  1  0
 11 12  1  0
 12 13  2  0
 12 14  1  0
 10  5  1  0
M  END
>  <rName>  (4219) 
bAla_3ScHexEt

>  <PQ_SYMBOL>  (4219) 
bAla_3ScHexEt

>  <FULL_NAME>  (4219) 
(3S)-3-amino-5-cyclohexylpentanoic acid

>  <IUPAC_CONDENSED>  (4219) 
bAla(3S-cHexEt)

>  <IUPAC>  (4219) 
(3S)-3-amino-5-cyclohexylpentanoic acid

>  <TYPE>  (4219) 
Backbone

>  <CLASS>  (4219) 
beta

>  <ANALOG>  (4219) 
Ala

>  <MOL_WT>  (4219) 
199.29399999999998

>  <LOGP>  (4219) 
2.1489

>  <TPSA>  (4219) 
63.32000000000001

>  <POPULARITY>  (4219) 
6.1

>  <PROTECTED>  (4219) 
TRUE

>  <SMILES>  (4219) 
N[C@@H](CCC1(CCCCC1))CC(=O)O

>  <INCHIKEY>  (4219) 
ANWIUBCLJDRQEF-JTQLQIEISA-N

$$$$
bAla_3ScPent
     RDKit          2D

 11 11  0  0  0  0  0  0  0  0999 V2000
   -0.7304   -1.8619    0.0000 N   0  0  0  0  0  0  0  0  0  0  0  0
   -0.2874   -0.4288    0.0000 C   0  0  0  0  0  0  0  0  0  0  0  0
    1.1751   -0.0958    0.0000 C   0  0  0  0  0  0  0  0  0  0  0  0
    2.3042   -1.0834    0.0000 C   0  0  0  0  0  0  0  0  0  0  0  0
    3.5923   -0.3148    0.0000 C   0  0  0  0  0  0  0  0  0  0  0  0
    3.2594    1.1478    0.0000 C   0  0  0  0  0  0  0  0  0  0  0  0
    1.7655    1.2831    0.0000 C   0  0  0  0  0  0  0  0  0  0  0  0
   -1.3071    0.6714    0.0000 C   0  0  0  0  0  0  0  0  0  0  0  0
   -2.7697    0.3385    0.0000 C   0  0  0  0  0  0  0  0  0  0  0  0
   -3.2126   -1.0946    0.0000 O   0  0  0  0  0  0  0  0  0  0  0  0
   -3.7893    1.4386    0.0000 O   0  0  0  0  0  0  0  0  0  0  0  0
  2  1  1  1
  2  3  1  0
  3  4  1  0
  4  5  1  0
  5  6  1  0
  6  7  1  0
  2  8  1  0
  8  9  1  0
  9 10  2  0
  9 11  1  0
  7  3  1  0
M  END
>  <rName>  (4220) 
bAla_3ScPent

>  <PQ_SYMBOL>  (4220) 
bAla_3ScPent

>  <FULL_NAME>  (4220) 
(3S)-3-Amino-3-cyclopentylpropanoic acid

>  <IUPAC_CONDENSED>  (4220) 
bAla(3S-cPent)

>  <IUPAC>  (4220) 
(3S)-3-amino-3-cyclopentylpropanoic acid

>  <TYPE>  (4220) 
Backbone

>  <CLASS>  (4220) 
beta

>  <ANALOG>  (4220) 
X

>  <MOL_WT>  (4220) 
157.21300000000002

>  <LOGP>  (4220) 
0.9785999999999997

>  <TPSA>  (4220) 
63.32000000000001

>  <POPULARITY>  (4220) 
2.2

>  <PROTECTED>  (4220) 
TRUE

>  <SMILES>  (4220) 
N[C@H](C1(CCCC1))CC(=O)O

>  <INCHIKEY>  (4220) 
SPOIBOUMGDWHCR-ZETCQYMHSA-N

$$$$
bAla_3ScPr
     RDKit          2D

  9  9  0  0  0  0  0  0  0  0999 V2000
    0.0470   -1.7903    0.0000 N   0  0  0  0  0  0  0  0  0  0  0  0
    0.4040   -0.3334    0.0000 C   0  0  0  0  0  0  0  0  0  0  0  0
    1.8442    0.0860    0.0000 C   0  0  0  0  0  0  0  0  0  0  0  0
    3.3011   -0.2709    0.0000 C   0  0  0  0  0  0  0  0  0  0  0  0
    2.8817    1.1693    0.0000 C   0  0  0  0  0  0  0  0  0  0  0  0
   -0.6793    0.7042    0.0000 C   0  0  0  0  0  0  0  0  0  0  0  0
   -2.1195    0.2848    0.0000 C   0  0  0  0  0  0  0  0  0  0  0  0
   -2.4764   -1.1721    0.0000 O   0  0  0  0  0  0  0  0  0  0  0  0
   -3.2028    1.3224    0.0000 O   0  0  0  0  0  0  0  0  0  0  0  0
  2  1  1  1
  2  3  1  0
  3  4  1  0
  4  5  1  0
  2  6  1  0
  6  7  1  0
  7  8  2  0
  7  9  1  0
  5  3  1  0
M  END
>  <rName>  (4221) 
bAla_3ScPr

>  <PQ_SYMBOL>  (4221) 
bAla_3ScPr

>  <FULL_NAME>  (4221) 
(S)-3-amino-3-cyclopropylpropanoic acid

>  <IUPAC_CONDENSED>  (4221) 
bAla(3S-cPr)

>  <IUPAC>  (4221) 
(3S)-3-amino-3-cyclopropylpropanoic acid

>  <TYPE>  (4221) 
Backbone

>  <CLASS>  (4221) 
beta

>  <ANALOG>  (4221) 
X

>  <MOL_WT>  (4221) 
129.15900000000002

>  <LOGP>  (4221) 
0.19839999999999985

>  <TPSA>  (4221) 
63.32000000000001

>  <POPULARITY>  (4221) 
8.3

>  <PROTECTED>  (4221) 
TRUE

>  <SMILES>  (4221) 
N[C@H](C1(CC1))CC(=O)O

>  <INCHIKEY>  (4221) 
IHWFMMMLMIDKCB-YFKPBYRVSA-N

$$$$
bAla_3Sfur2yl
     RDKit          2D

 11 11  0  0  0  0  0  0  0  0999 V2000
   -0.7304   -1.8619    0.0000 N   0  0  0  0  0  0  0  0  0  0  0  0
   -0.2874   -0.4288    0.0000 C   0  0  0  0  0  0  0  0  0  0  0  0
    1.1751   -0.0958    0.0000 C   0  0  0  0  0  0  0  0  0  0  0  0
    2.3042   -1.0834    0.0000 C   0  0  0  0  0  0  0  0  0  0  0  0
    3.5923   -0.3148    0.0000 C   0  0  0  0  0  0  0  0  0  0  0  0
    3.2594    1.1478    0.0000 C   0  0  0  0  0  0  0  0  0  0  0  0
    1.7655    1.2831    0.0000 O   0  0  0  0  0  0  0  0  0  0  0  0
   -1.3071    0.6714    0.0000 C   0  0  0  0  0  0  0  0  0  0  0  0
   -2.7697    0.3385    0.0000 C   0  0  0  0  0  0  0  0  0  0  0  0
   -3.2126   -1.0946    0.0000 O   0  0  0  0  0  0  0  0  0  0  0  0
   -3.7893    1.4386    0.0000 O   0  0  0  0  0  0  0  0  0  0  0  0
  2  1  1  1
  2  3  1  0
  3  4  2  0
  4  5  1  0
  5  6  2  0
  6  7  1  0
  2  8  1  0
  8  9  1  0
  9 10  2  0
  9 11  1  0
  7  3  1  0
M  END
>  <rName>  (4222) 
bAla_3Sfur2yl

>  <PQ_SYMBOL>  (4222) 
bAla_3Sfur2yl

>  <FULL_NAME>  (4222) 
(S)-3-amino-3-(furan-2-yl)propanoic acid

>  <IUPAC_CONDENSED>  (4222) 
bAla(3S-fur-2-yl)

>  <IUPAC>  (4222) 
(3S)-3-amino-3-(furan-2-yl)propanoic acid

>  <TYPE>  (4222) 
Backbone

>  <CLASS>  (4222) 
beta

>  <ANALOG>  (4222) 
X

>  <MOL_WT>  (4222) 
155.153

>  <LOGP>  (4222) 
0.7541

>  <TPSA>  (4222) 
76.46

>  <POPULARITY>  (4222) 
8.3

>  <PROTECTED>  (4222) 
TRUE

>  <SMILES>  (4222) 
N[C@H](c1(ccco1))CC(=O)O

>  <INCHIKEY>  (4222) 
YIKVKIOGYSPIMP-YFKPBYRVSA-N

$$$$
bAla_3Sfurfuryl
     RDKit          2D

 12 12  0  0  0  0  0  0  0  0999 V2000
   -0.6782    1.2367    0.0000 N   0  0  0  0  0  0  0  0  0  0  0  0
   -0.8112   -0.2574    0.0000 C   0  0  0  0  0  0  0  0  0  0  0  0
    0.4162   -1.1196    0.0000 C   0  0  0  0  0  0  0  0  0  0  0  0
    1.7766   -0.4878    0.0000 C   0  0  0  0  0  0  0  0  0  0  0  0
    3.0874   -1.2170    0.0000 C   0  0  0  0  0  0  0  0  0  0  0  0
    4.1860   -0.1957    0.0000 C   0  0  0  0  0  0  0  0  0  0  0  0
    3.5542    1.1647    0.0000 C   0  0  0  0  0  0  0  0  0  0  0  0
    2.0651    0.9842    0.0000 O   0  0  0  0  0  0  0  0  0  0  0  0
   -2.1716   -0.8892    0.0000 C   0  0  0  0  0  0  0  0  0  0  0  0
   -3.3991   -0.0270    0.0000 C   0  0  0  0  0  0  0  0  0  0  0  0
   -3.2660    1.4671    0.0000 O   0  0  0  0  0  0  0  0  0  0  0  0
   -4.7595   -0.6589    0.0000 O   0  0  0  0  0  0  0  0  0  0  0  0
  2  1  1  1
  2  3  1  0
  3  4  1  0
  4  5  2  0
  5  6  1  0
  6  7  2  0
  7  8  1  0
  2  9  1  0
  9 10  1  0
 10 11  2  0
 10 12  1  0
  8  4  1  0
M  END
>  <rName>  (4223) 
bAla_3Sfurfuryl

>  <PQ_SYMBOL>  (4223) 
bAla_3Sfurfuryl

>  <FULL_NAME>  (4223) 
(S)-3-amino-4-(furan-2-yl)butanoic acid

>  <IUPAC_CONDENSED>  (4223) 
bAla(3S-furfuryl)

>  <IUPAC>  (4223) 
(3S)-3-amino-4-(furan-2-yl)butanoic acid

>  <TYPE>  (4223) 
Backbone

>  <CLASS>  (4223) 
beta

>  <ANALOG>  (4223) 
Phe

>  <MOL_WT>  (4223) 
169.17999999999998

>  <LOGP>  (4223) 
0.6240999999999999

>  <TPSA>  (4223) 
76.46

>  <POPULARITY>  (4223) 
4.5

>  <PROTECTED>  (4223) 
TRUE

>  <SMILES>  (4223) 
N[C@@H](Cc1(ccco1))CC(=O)O

>  <INCHIKEY>  (4223) 
ZIAIKPBTLUWDMG-LURJTMIESA-N

$$$$
bAla_3SiBu
     RDKit          2D

 10  9  0  0  0  0  0  0  0  0999 V2000
   -0.0000   -1.3500    0.0000 N   0  0  0  0  0  0  0  0  0  0  0  0
   -0.0000    0.1500    0.0000 C   0  0  0  0  0  0  0  0  0  0  0  0
   -1.2990    0.9000    0.0000 C   0  0  0  0  0  0  0  0  0  0  0  0
   -2.5981    0.1500    0.0000 C   0  0  0  0  0  0  0  0  0  0  0  0
   -3.8971    0.9000    0.0000 C   0  0  0  0  0  0  0  0  0  0  0  0
   -2.5981   -1.3500    0.0000 C   0  0  0  0  0  0  0  0  0  0  0  0
    1.2990    0.9000    0.0000 C   0  0  0  0  0  0  0  0  0  0  0  0
    2.5981    0.1500    0.0000 C   0  0  0  0  0  0  0  0  0  0  0  0
    2.5981   -1.3500    0.0000 O   0  0  0  0  0  0  0  0  0  0  0  0
    3.8971    0.9000    0.0000 O   0  0  0  0  0  0  0  0  0  0  0  0
  2  1  1  1
  2  3  1  0
  3  4  1  0
  4  5  1  0
  4  6  1  0
  2  7  1  0
  7  8  1  0
  8  9  2  0
  8 10  1  0
M  END
>  <rName>  (4224) 
bAla_3SiBu

>  <PQ_SYMBOL>  (4224) 
bAla_3SiBu

>  <FULL_NAME>  (4224) 
L-Beta-Homoleucine

>  <IUPAC_CONDENSED>  (4224) 
bAla(3S-iBu)

>  <IUPAC>  (4224) 
(3S)-3-amino-5-methylhexanoic acid

>  <TYPE>  (4224) 
Backbone

>  <CLASS>  (4224) 
beta

>  <ANALOG>  (4224) 
Leu

>  <MOL_WT>  (4224) 
145.202

>  <LOGP>  (4224) 
0.8344999999999998

>  <TPSA>  (4224) 
63.32000000000001

>  <POPULARITY>  (4224) 
26.9

>  <PROTECTED>  (4224) 
TRUE

>  <SMILES>  (4224) 
N[C@@H](CC(C)C)CC(=O)O

>  <INCHIKEY>  (4224) 
MLYMSIKVLAPCAK-LURJTMIESA-N

$$$$
bAla_3SisohexylOCO
     RDKit          2D

 15 14  0  0  0  0  0  0  0  0999 V2000
    2.3493   -1.6343    0.0000 N   0  0  0  0  0  0  0  0  0  0  0  0
    2.3392   -0.1343    0.0000 C   0  0  0  0  0  0  0  0  0  0  0  0
    1.0352    0.6070    0.0000 C   0  0  0  0  0  0  0  0  0  0  0  0
    1.0251    2.1069    0.0000 O   0  0  0  0  0  0  0  0  0  0  0  0
   -0.2588   -0.1517    0.0000 O   0  0  0  0  0  0  0  0  0  0  0  0
   -1.5628    0.5895    0.0000 C   0  0  0  0  0  0  0  0  0  0  0  0
   -2.8568   -0.1692    0.0000 C   0  0  0  0  0  0  0  0  0  0  0  0
   -4.1609    0.5721    0.0000 C   0  0  0  0  0  0  0  0  0  0  0  0
   -5.4548   -0.1866    0.0000 C   0  0  0  0  0  0  0  0  0  0  0  0
   -6.7589    0.5546    0.0000 C   0  0  0  0  0  0  0  0  0  0  0  0
   -5.4448   -1.6866    0.0000 C   0  0  0  0  0  0  0  0  0  0  0  0
    3.6332    0.6244    0.0000 C   0  0  0  0  0  0  0  0  0  0  0  0
    4.9372   -0.1169    0.0000 C   0  0  0  0  0  0  0  0  0  0  0  0
    4.9473   -1.6168    0.0000 O   0  0  0  0  0  0  0  0  0  0  0  0
    6.2312    0.6418    0.0000 O   0  0  0  0  0  0  0  0  0  0  0  0
  2  1  1  6
  2  3  1  0
  3  4  2  0
  3  5  1  0
  5  6  1  0
  6  7  1  0
  7  8  1  0
  8  9  1  0
  9 10  1  0
  9 11  1  0
  2 12  1  0
 12 13  1  0
 13 14  2  0
 13 15  1  0
M  END
>  <rName>  (4225) 
bAla_3SisohexylOCO

>  <PQ_SYMBOL>  (4225) 
bAla_3SisohexylOCO

>  <FULL_NAME>  (4225) 
bAla(3S-isohexylOCO)

>  <IUPAC_CONDENSED>  (4225) 
bAla(3S-isohexylOCO)

>  <IUPAC>  (4225) 
(3S)-3-amino-3-(((4-methylpentyl)oxy)carbonyl)propanoic acid

>  <TYPE>  (4225) 
Backbone

>  <CLASS>  (4225) 
beta

>  <ANALOG>  (4225) 
X

>  <MOL_WT>  (4225) 
217.265

>  <LOGP>  (4225) 
0.7677999999999994

>  <TPSA>  (4225) 
89.62000000000002

>  <POPULARITY>  (4225) 
2.2

>  <PROTECTED>  (4225) 
TRUE

>  <SMILES>  (4225) 
N[C@H](C(=O)OCCCC(C)C)CC(=O)O

>  <INCHIKEY>  (4225) 
QGLNGRJMRKNBLJ-QMMMGPOBSA-N

$$$$
bAla_3Snaphth1yl
     RDKit          2D

 16 17  0  0  0  0  0  0  0  0999 V2000
   -1.3768    1.6435    0.0000 N   0  0  0  0  0  0  0  0  0  0  0  0
   -1.3799    0.1435    0.0000 C   0  0  0  0  0  0  0  0  0  0  0  0
   -0.0825   -0.6092    0.0000 C   0  0  0  0  0  0  0  0  0  0  0  0
   -0.0856   -2.1092    0.0000 C   0  0  0  0  0  0  0  0  0  0  0  0
    1.2119   -2.8619    0.0000 C   0  0  0  0  0  0  0  0  0  0  0  0
    2.5125   -2.1146    0.0000 C   0  0  0  0  0  0  0  0  0  0  0  0
    2.5156   -0.6146    0.0000 C   0  0  0  0  0  0  0  0  0  0  0  0
    3.8162    0.1327    0.0000 C   0  0  0  0  0  0  0  0  0  0  0  0
    3.8193    1.6327    0.0000 C   0  0  0  0  0  0  0  0  0  0  0  0
    2.5218    2.3854    0.0000 C   0  0  0  0  0  0  0  0  0  0  0  0
    1.2213    1.6381    0.0000 C   0  0  0  0  0  0  0  0  0  0  0  0
    1.2181    0.1381    0.0000 C   0  0  0  0  0  0  0  0  0  0  0  0
   -2.6805   -0.6038    0.0000 C   0  0  0  0  0  0  0  0  0  0  0  0
   -3.9780    0.1489    0.0000 C   0  0  0  0  0  0  0  0  0  0  0  0
   -3.9749    1.6489    0.0000 O   0  0  0  0  0  0  0  0  0  0  0  0
   -5.2786   -0.5984    0.0000 O   0  0  0  0  0  0  0  0  0  0  0  0
  2  1  1  6
  2  3  1  0
  3  4  2  0
  4  5  1  0
  5  6  2  0
  6  7  1  0
  7  8  2  0
  8  9  1  0
  9 10  2  0
 10 11  1  0
 11 12  2  0
  2 13  1  0
 13 14  1  0
 14 15  2  0
 14 16  1  0
 12  7  1  0
 12  3  1  0
M  END
>  <rName>  (4226) 
bAla_3Snaphth1yl

>  <PQ_SYMBOL>  (4226) 
bAla_3Snaphth1yl

>  <FULL_NAME>  (4226) 
(S)-3-amino-3-(naphthalen-1-yl)propanoic acid

>  <IUPAC_CONDENSED>  (4226) 
bAla(3S-naphth-1-yl)

>  <IUPAC>  (4226) 
(3S)-3-amino-3-(naphthalen-1-yl)propanoic acid

>  <TYPE>  (4226) 
Backbone

>  <CLASS>  (4226) 
beta

>  <ANALOG>  (4226) 
X

>  <MOL_WT>  (4226) 
215.25199999999995

>  <LOGP>  (4226) 
2.3143000000000002

>  <TPSA>  (4226) 
63.32000000000001

>  <POPULARITY>  (4226) 
9.0

>  <PROTECTED>  (4226) 
TRUE

>  <SMILES>  (4226) 
N[C@H](c2(cccc1(ccccc12)))CC(=O)O

>  <INCHIKEY>  (4226) 
BIOQBKBTOAMMDG-LBPRGKRZSA-N

$$$$
bAla_3Snaphth1ylmethyl
     RDKit          2D

 17 18  0  0  0  0  0  0  0  0999 V2000
   -2.3550   -1.3574    0.0000 N   0  0  0  0  0  0  0  0  0  0  0  0
   -2.1431    0.1276    0.0000 C   0  0  0  0  0  0  0  0  0  0  0  0
   -0.7511    0.6865    0.0000 C   0  0  0  0  0  0  0  0  0  0  0  0
    0.4290   -0.2395    0.0000 C   0  0  0  0  0  0  0  0  0  0  0  0
    0.2170   -1.7244    0.0000 C   0  0  0  0  0  0  0  0  0  0  0  0
    1.3971   -2.6504    0.0000 C   0  0  0  0  0  0  0  0  0  0  0  0
    2.7891   -2.0915    0.0000 C   0  0  0  0  0  0  0  0  0  0  0  0
    3.0010   -0.6065    0.0000 C   0  0  0  0  0  0  0  0  0  0  0  0
    4.3929   -0.0476    0.0000 C   0  0  0  0  0  0  0  0  0  0  0  0
    4.6048    1.4374    0.0000 C   0  0  0  0  0  0  0  0  0  0  0  0
    3.4248    2.3634    0.0000 C   0  0  0  0  0  0  0  0  0  0  0  0
    2.0328    1.8044    0.0000 C   0  0  0  0  0  0  0  0  0  0  0  0
    1.8209    0.3195    0.0000 C   0  0  0  0  0  0  0  0  0  0  0  0
   -3.3231    1.0536    0.0000 C   0  0  0  0  0  0  0  0  0  0  0  0
   -4.7151    0.4946    0.0000 C   0  0  0  0  0  0  0  0  0  0  0  0
   -4.9270   -0.9903    0.0000 O   0  0  0  0  0  0  0  0  0  0  0  0
   -5.8951    1.4206    0.0000 O   0  0  0  0  0  0  0  0  0  0  0  0
  2  1  1  6
  2  3  1  0
  3  4  1  0
  4  5  2  0
  5  6  1  0
  6  7  2  0
  7  8  1  0
  8  9  2  0
  9 10  1  0
 10 11  2  0
 11 12  1  0
 12 13  2  0
  2 14  1  0
 14 15  1  0
 15 16  2  0
 15 17  1  0
 13  4  1  0
 13  8  1  0
M  END
>  <rName>  (4227) 
bAla_3Snaphth1ylmethyl

>  <PQ_SYMBOL>  (4227) 
bAla_3Snaphth1ylmethyl

>  <FULL_NAME>  (4227) 
(3S)-3-amino-4-naphthalen-1-ylbutanoic acid

>  <IUPAC_CONDENSED>  (4227) 
bAla(3S-naphth-1-ylmethyl)

>  <IUPAC>  (4227) 
(3S)-3-amino-4-(naphthalen-1-yl)butanoic acid

>  <TYPE>  (4227) 
Backbone

>  <CLASS>  (4227) 
beta

>  <ANALOG>  (4227) 
Phe

>  <MOL_WT>  (4227) 
229.27899999999997

>  <LOGP>  (4227) 
2.1843

>  <TPSA>  (4227) 
63.32000000000001

>  <POPULARITY>  (4227) 
8.2

>  <PROTECTED>  (4227) 
TRUE

>  <SMILES>  (4227) 
N[C@@H](Cc1(cccc2(ccccc12)))CC(=O)O

>  <INCHIKEY>  (4227) 
VEJIDCKYNSOIIN-LBPRGKRZSA-N

$$$$
bAla_3Snaphth2yl
     RDKit          2D

 16 17  0  0  0  0  0  0  0  0999 V2000
   -2.7878   -1.8484    0.0000 N   0  0  0  0  0  0  0  0  0  0  0  0
   -1.9911   -0.5775    0.0000 C   0  0  0  0  0  0  0  0  0  0  0  0
   -0.4921   -0.6320    0.0000 C   0  0  0  0  0  0  0  0  0  0  0  0
    0.2102   -1.9575    0.0000 C   0  0  0  0  0  0  0  0  0  0  0  0
    1.7092   -2.0120    0.0000 C   0  0  0  0  0  0  0  0  0  0  0  0
    2.5060   -0.7411    0.0000 C   0  0  0  0  0  0  0  0  0  0  0  0
    4.0050   -0.7956    0.0000 C   0  0  0  0  0  0  0  0  0  0  0  0
    4.8017    0.4753    0.0000 C   0  0  0  0  0  0  0  0  0  0  0  0
    4.0994    1.8007    0.0000 C   0  0  0  0  0  0  0  0  0  0  0  0
    2.6004    1.8552    0.0000 C   0  0  0  0  0  0  0  0  0  0  0  0
    1.8037    0.5843    0.0000 C   0  0  0  0  0  0  0  0  0  0  0  0
    0.3047    0.6389    0.0000 C   0  0  0  0  0  0  0  0  0  0  0  0
   -2.6933    0.7479    0.0000 C   0  0  0  0  0  0  0  0  0  0  0  0
   -4.1923    0.8025    0.0000 C   0  0  0  0  0  0  0  0  0  0  0  0
   -4.9891   -0.4685    0.0000 O   0  0  0  0  0  0  0  0  0  0  0  0
   -4.8946    2.1279    0.0000 O   0  0  0  0  0  0  0  0  0  0  0  0
  2  1  1  1
  2  3  1  0
  3  4  1  0
  4  5  2  0
  5  6  1  0
  6  7  2  0
  7  8  1  0
  8  9  2  0
  9 10  1  0
 10 11  2  0
 11 12  1  0
  2 13  1  0
 13 14  1  0
 14 15  2  0
 14 16  1  0
 11  6  1  0
 12  3  2  0
M  END
>  <rName>  (4228) 
bAla_3Snaphth2yl

>  <PQ_SYMBOL>  (4228) 
bAla_3Snaphth2yl

>  <FULL_NAME>  (4228) 
(S)-3-amino-3-(naphthalen-2-yl)propanoic acid

>  <IUPAC_CONDENSED>  (4228) 
bAla(3S-naphth-2-yl)

>  <IUPAC>  (4228) 
(3S)-3-amino-3-(naphthalen-2-yl)propanoic acid

>  <TYPE>  (4228) 
Backbone

>  <CLASS>  (4228) 
beta

>  <ANALOG>  (4228) 
X

>  <MOL_WT>  (4228) 
215.25199999999995

>  <LOGP>  (4228) 
2.3143000000000002

>  <TPSA>  (4228) 
63.32000000000001

>  <POPULARITY>  (4228) 
7.2

>  <PROTECTED>  (4228) 
TRUE

>  <SMILES>  (4228) 
N[C@H](c2(ccc1(ccccc1c2)))CC(=O)O

>  <INCHIKEY>  (4228) 
JASNXOXPNZWQRV-LBPRGKRZSA-N

$$$$
bAla_3Snaphth2ylmethyl
     RDKit          2D

 17 18  0  0  0  0  0  0  0  0999 V2000
   -1.9056    1.0350    0.0000 N   0  0  0  0  0  0  0  0  0  0  0  0
   -2.3974   -0.3821    0.0000 C   0  0  0  0  0  0  0  0  0  0  0  0
   -1.4161   -1.5166    0.0000 C   0  0  0  0  0  0  0  0  0  0  0  0
    0.0570   -1.2340    0.0000 C   0  0  0  0  0  0  0  0  0  0  0  0
    1.0384   -2.3684    0.0000 C   0  0  0  0  0  0  0  0  0  0  0  0
    2.5115   -2.0858    0.0000 C   0  0  0  0  0  0  0  0  0  0  0  0
    3.0033   -0.6688    0.0000 C   0  0  0  0  0  0  0  0  0  0  0  0
    4.4764   -0.3862    0.0000 C   0  0  0  0  0  0  0  0  0  0  0  0
    4.9683    1.0309    0.0000 C   0  0  0  0  0  0  0  0  0  0  0  0
    3.9870    2.1654    0.0000 C   0  0  0  0  0  0  0  0  0  0  0  0
    2.5138    1.8828    0.0000 C   0  0  0  0  0  0  0  0  0  0  0  0
    2.0220    0.4657    0.0000 C   0  0  0  0  0  0  0  0  0  0  0  0
    0.5489    0.1831    0.0000 C   0  0  0  0  0  0  0  0  0  0  0  0
   -3.8705   -0.6647    0.0000 C   0  0  0  0  0  0  0  0  0  0  0  0
   -4.8519    0.4697    0.0000 C   0  0  0  0  0  0  0  0  0  0  0  0
   -4.3600    1.8868    0.0000 O   0  0  0  0  0  0  0  0  0  0  0  0
   -6.3250    0.1871    0.0000 O   0  0  0  0  0  0  0  0  0  0  0  0
  2  1  1  1
  2  3  1  0
  3  4  1  0
  4  5  1  0
  5  6  2  0
  6  7  1  0
  7  8  2  0
  8  9  1  0
  9 10  2  0
 10 11  1  0
 11 12  2  0
 12 13  1  0
  2 14  1  0
 14 15  1  0
 15 16  2  0
 15 17  1  0
 12  7  1  0
 13  4  2  0
M  END
>  <rName>  (4229) 
bAla_3Snaphth2ylmethyl

>  <PQ_SYMBOL>  (4229) 
bAla_3Snaphth2ylmethyl

>  <FULL_NAME>  (4229) 
(3S)-3-amino-4-naphthalen-2-ylbutanoic acid

>  <IUPAC_CONDENSED>  (4229) 
bAla(3S-naphth-2-ylmethyl)

>  <IUPAC>  (4229) 
(3S)-3-amino-4-(naphthalen-2-yl)butanoic acid

>  <TYPE>  (4229) 
Backbone

>  <CLASS>  (4229) 
beta

>  <ANALOG>  (4229) 
Phe

>  <MOL_WT>  (4229) 
229.27899999999997

>  <LOGP>  (4229) 
2.1843

>  <TPSA>  (4229) 
63.32000000000001

>  <POPULARITY>  (4229) 
6.9

>  <PROTECTED>  (4229) 
TRUE

>  <SMILES>  (4229) 
N[C@@H](Cc2(ccc1(ccccc1c2)))CC(=O)O

>  <INCHIKEY>  (4229) 
WSVMIVFELRCSPA-ZDUSSCGKSA-N

$$$$
bAla_3Spent3yl
     RDKit          2D

 11 10  0  0  0  0  0  0  0  0999 V2000
    0.1858    1.7787    0.0000 N   0  0  0  0  0  0  0  0  0  0  0  0
    0.2284    0.2793    0.0000 C   0  0  0  0  0  0  0  0  0  0  0  0
    1.5481   -0.4335    0.0000 C   0  0  0  0  0  0  0  0  0  0  0  0
    2.8254    0.3530    0.0000 C   0  0  0  0  0  0  0  0  0  0  0  0
    2.7829    1.8524    0.0000 C   0  0  0  0  0  0  0  0  0  0  0  0
    1.5907   -1.9329    0.0000 C   0  0  0  0  0  0  0  0  0  0  0  0
    0.3134   -2.7195    0.0000 C   0  0  0  0  0  0  0  0  0  0  0  0
   -1.0489   -0.5072    0.0000 C   0  0  0  0  0  0  0  0  0  0  0  0
   -2.3687    0.2056    0.0000 C   0  0  0  0  0  0  0  0  0  0  0  0
   -2.4112    1.7050    0.0000 O   0  0  0  0  0  0  0  0  0  0  0  0
   -3.6459   -0.5809    0.0000 O   0  0  0  0  0  0  0  0  0  0  0  0
  2  1  1  6
  2  3  1  0
  3  4  1  0
  4  5  1  0
  3  6  1  0
  6  7  1  0
  2  8  1  0
  8  9  1  0
  9 10  2  0
  9 11  1  0
M  END
>  <rName>  (4230) 
bAla_3Spent3yl

>  <PQ_SYMBOL>  (4230) 
bAla_3Spent3yl

>  <FULL_NAME>  (4230) 
(3S)-3-amino-4-ethylhexanoic acid

>  <IUPAC_CONDENSED>  (4230) 
bAla(3S-pent-3-yl)

>  <IUPAC>  (4230) 
(3S)-3-amino-4-ethylhexanoic acid

>  <TYPE>  (4230) 
Backbone

>  <CLASS>  (4230) 
beta

>  <ANALOG>  (4230) 
Leu

>  <MOL_WT>  (4230) 
159.229

>  <LOGP>  (4230) 
1.2245999999999997

>  <TPSA>  (4230) 
63.32000000000001

>  <POPULARITY>  (4230) 
11.9

>  <PROTECTED>  (4230) 
TRUE

>  <SMILES>  (4230) 
N[C@H](C(CC)CC)CC(=O)O

>  <INCHIKEY>  (4230) 
HOPWNSZDCHOHRY-ZETCQYMHSA-N

$$$$
bAla_3Sprop2ynyl
     RDKit          2D

  9  8  0  0  0  0  0  0  0  0999 V2000
    0.3560   -1.3170    0.0000 N   0  0  0  0  0  0  0  0  0  0  0  0
    0.2798    0.1811    0.0000 C   0  0  0  0  0  0  0  0  0  0  0  0
    1.5392    0.9961    0.0000 C   0  0  0  0  0  0  0  0  0  0  0  0
    2.8746    0.3129    0.0000 C   0  0  0  0  0  0  0  0  0  0  0  0
    4.2100   -0.3702    0.0000 C   0  0  0  0  0  0  0  0  0  0  0  0
   -1.0556    0.8642    0.0000 C   0  0  0  0  0  0  0  0  0  0  0  0
   -2.3149    0.0493    0.0000 C   0  0  0  0  0  0  0  0  0  0  0  0
   -2.2388   -1.4488    0.0000 O   0  0  0  0  0  0  0  0  0  0  0  0
   -3.6503    0.7324    0.0000 O   0  0  0  0  0  0  0  0  0  0  0  0
  2  1  1  6
  2  3  1  0
  3  4  1  0
  4  5  3  0
  2  6  1  0
  6  7  1  0
  7  8  2  0
  7  9  1  0
M  END
>  <rName>  (4231) 
bAla_3Sprop2ynyl

>  <PQ_SYMBOL>  (4231) 
bAla_3Sprop2ynyl

>  <FULL_NAME>  (4231) 
(S)-3-aminohex-5-ynoic acid

>  <IUPAC_CONDENSED>  (4231) 
bAla(3S-prop-2-ynyl)

>  <IUPAC>  (4231) 
(3S)-3-aminohex-5-ynoic acid

>  <TYPE>  (4231) 
Backbone

>  <CLASS>  (4231) 
beta

>  <ANALOG>  (4231) 
Val

>  <MOL_WT>  (4231) 
127.14299999999997

>  <LOGP>  (4231) 
-0.18829999999999997

>  <TPSA>  (4231) 
63.32000000000001

>  <POPULARITY>  (4231) 
6.3

>  <PROTECTED>  (4231) 
TRUE

>  <SMILES>  (4231) 
N[C@@H](CC#C)CC(=O)O

>  <INCHIKEY>  (4231) 
DWFMCQGMVSIJBN-YFKPBYRVSA-N

$$$$
bAla_3Spyrazol4yl_1Me_3Br
     RDKit          2D

 13 13  0  0  0  0  0  0  0  0999 V2000
   -1.1142   -2.0332    0.0000 N   0  0  0  0  0  0  0  0  0  0  0  0
   -0.7252   -0.5845    0.0000 C   0  0  0  0  0  0  0  0  0  0  0  0
    0.7239   -0.1971    0.0000 C   0  0  0  0  0  0  0  0  0  0  0  0
    1.8891   -1.1417    0.0000 C   0  0  0  0  0  0  0  0  0  0  0  0
    3.1476   -0.3254    0.0000 N   0  0  0  0  0  0  0  0  0  0  0  0
    4.5477   -0.8637    0.0000 C   0  0  0  0  0  0  0  0  0  0  0  0
    2.7602    1.1237    0.0000 N   0  0  0  0  0  0  0  0  0  0  0  0
    1.2623    1.2030    0.0000 C   0  0  0  0  0  0  0  0  0  0  0  0
    0.4460    2.4615    0.0000 Br  0  0  0  0  0  0  0  0  0  0  0  0
   -1.7852    0.4768    0.0000 C   0  0  0  0  0  0  0  0  0  0  0  0
   -3.2343    0.0893    0.0000 C   0  0  0  0  0  0  0  0  0  0  0  0
   -3.6234   -1.3594    0.0000 O   0  0  0  0  0  0  0  0  0  0  0  0
   -4.2944    1.1506    0.0000 O   0  0  0  0  0  0  0  0  0  0  0  0
  2  1  1  1
  2  3  1  0
  3  4  2  0
  4  5  1  0
  5  6  1  0
  5  7  1  0
  7  8  2  0
  8  9  1  0
  2 10  1  0
 10 11  1  0
 11 12  2  0
 11 13  1  0
  8  3  1  0
M  END
>  <rName>  (4232) 
bAla_3Spyrazol4yl_1Me_3Br

>  <PQ_SYMBOL>  (4232) 
bAla_3Spyrazol4yl_1Me_3Br

>  <FULL_NAME>  (4232) 
(3S)-3-amino-3-(3-bromo-1-methyl-1H-pyrazol-4-yl)propanoic acid

>  <IUPAC_CONDENSED>  (4232) 
bAla(3S-pyrazol-4-yl(1-Me,3-Br))

>  <IUPAC>  (4232) 
(3S)-3-amino-3-(3-bromo-1-methyl-1H-pyrazol-4-yl)propanoic acid

>  <TYPE>  (4232) 
Backbone

>  <CLASS>  (4232) 
beta

>  <ANALOG>  (4232) 
X

>  <MOL_WT>  (4232) 
248.07999999999998

>  <LOGP>  (4232) 
0.6570999999999998

>  <TPSA>  (4232) 
81.14

>  <POPULARITY>  (4232) 
2.6

>  <PROTECTED>  (4232) 
TRUE

>  <SMILES>  (4232) 
N[C@H](c1(cn(C)nc1Br))CC(=O)O

>  <INCHIKEY>  (4232) 
QTPMEZKCDYYJLT-YFKPBYRVSA-N

$$$$
bAla_3Spyrid2yl
     RDKit          2D

 12 12  0  0  0  0  0  0  0  0999 V2000
   -1.0786   -1.8814    0.0000 N   0  0  0  0  0  0  0  0  0  0  0  0
   -0.6074   -0.4573    0.0000 C   0  0  0  0  0  0  0  0  0  0  0  0
    0.8615   -0.1534    0.0000 C   0  0  0  0  0  0  0  0  0  0  0  0
    1.3327    1.2707    0.0000 C   0  0  0  0  0  0  0  0  0  0  0  0
    2.8016    1.5746    0.0000 C   0  0  0  0  0  0  0  0  0  0  0  0
    3.7992    0.4545    0.0000 C   0  0  0  0  0  0  0  0  0  0  0  0
    3.3280   -0.9696    0.0000 C   0  0  0  0  0  0  0  0  0  0  0  0
    1.8591   -1.2735    0.0000 N   0  0  0  0  0  0  0  0  0  0  0  0
   -1.6051    0.6628    0.0000 C   0  0  0  0  0  0  0  0  0  0  0  0
   -3.0740    0.3588    0.0000 C   0  0  0  0  0  0  0  0  0  0  0  0
   -3.5452   -1.0652    0.0000 O   0  0  0  0  0  0  0  0  0  0  0  0
   -4.0716    1.4790    0.0000 O   0  0  0  0  0  0  0  0  0  0  0  0
  2  1  1  1
  2  3  1  0
  3  4  2  0
  4  5  1  0
  5  6  2  0
  6  7  1  0
  7  8  2  0
  2  9  1  0
  9 10  1  0
 10 11  2  0
 10 12  1  0
  8  3  1  0
M  END
>  <rName>  (4233) 
bAla_3Spyrid2yl

>  <PQ_SYMBOL>  (4233) 
bAla_3Spyrid2yl

>  <FULL_NAME>  (4233) 
(S)-3-Amino-3-(pyridin-2-YL)propanoic acid

>  <IUPAC_CONDENSED>  (4233) 
bAla(3S-pyrid-2-yl)

>  <IUPAC>  (4233) 
(3S)-3-amino-3-pyridin-2-ylpropanoic acid

>  <TYPE>  (4233) 
Backbone

>  <CLASS>  (4233) 
beta

>  <ANALOG>  (4233) 
X

>  <MOL_WT>  (4233) 
166.17999999999998

>  <LOGP>  (4233) 
0.5561

>  <TPSA>  (4233) 
76.21

>  <POPULARITY>  (4233) 
2.2

>  <PROTECTED>  (4233) 
TRUE

>  <SMILES>  (4233) 
N[C@H](c1(ccccn1))CC(=O)O

>  <INCHIKEY>  (4233) 
WCLGSNNEAOFFCL-LURJTMIESA-N

$$$$
bAla_3Spyrid2yl_5Br
     RDKit          2D

 13 13  0  0  0  0  0  0  0  0999 V2000
   -1.5598   -1.8792    0.0000 N   0  0  0  0  0  0  0  0  0  0  0  0
   -1.0324   -0.4750    0.0000 C   0  0  0  0  0  0  0  0  0  0  0  0
    0.4474   -0.2297    0.0000 C   0  0  0  0  0  0  0  0  0  0  0  0
    0.9749    1.1745    0.0000 C   0  0  0  0  0  0  0  0  0  0  0  0
    2.4547    1.4199    0.0000 C   0  0  0  0  0  0  0  0  0  0  0  0
    3.4070    0.2610    0.0000 C   0  0  0  0  0  0  0  0  0  0  0  0
    4.8868    0.5063    0.0000 Br  0  0  0  0  0  0  0  0  0  0  0  0
    2.8796   -1.1432    0.0000 C   0  0  0  0  0  0  0  0  0  0  0  0
    1.3998   -1.3886    0.0000 N   0  0  0  0  0  0  0  0  0  0  0  0
   -1.9847    0.6838    0.0000 C   0  0  0  0  0  0  0  0  0  0  0  0
   -3.4645    0.4385    0.0000 C   0  0  0  0  0  0  0  0  0  0  0  0
   -3.9920   -0.9657    0.0000 O   0  0  0  0  0  0  0  0  0  0  0  0
   -4.4169    1.5974    0.0000 O   0  0  0  0  0  0  0  0  0  0  0  0
  2  1  1  1
  2  3  1  0
  3  4  1  0
  4  5  2  0
  5  6  1  0
  6  7  1  0
  6  8  2  0
  8  9  1  0
  2 10  1  0
 10 11  1  0
 11 12  2  0
 11 13  1  0
  9  3  2  0
M  END
>  <rName>  (4234) 
bAla_3Spyrid2yl_5Br

>  <PQ_SYMBOL>  (4234) 
bAla_3Spyrid2yl_5Br

>  <FULL_NAME>  (4234) 
(3S)-3-amino-3-(5-bromopyridin-2-yl)propanoic acid

>  <IUPAC_CONDENSED>  (4234) 
bAla(3S-pyrid-2-yl(5-Br))

>  <IUPAC>  (4234) 
(3S)-3-amino-3-(5-bromopyridin-2-yl)propanoic acid

>  <TYPE>  (4234) 
Backbone

>  <CLASS>  (4234) 
beta

>  <ANALOG>  (4234) 
X

>  <MOL_WT>  (4234) 
245.07599999999996

>  <LOGP>  (4234) 
1.3186

>  <TPSA>  (4234) 
76.21

>  <POPULARITY>  (4234) 
3.0

>  <PROTECTED>  (4234) 
TRUE

>  <SMILES>  (4234) 
N[C@H](c1(ccc(Br)cn1))CC(=O)O

>  <INCHIKEY>  (4234) 
FARVNIMLDDARND-LURJTMIESA-N

$$$$
bAla_3Spyrid3yl
     RDKit          2D

 12 12  0  0  0  0  0  0  0  0999 V2000
   -1.0786   -1.8814    0.0000 N   0  0  0  0  0  0  0  0  0  0  0  0
   -0.6074   -0.4573    0.0000 C   0  0  0  0  0  0  0  0  0  0  0  0
    0.8615   -0.1534    0.0000 C   0  0  0  0  0  0  0  0  0  0  0  0
    1.3327    1.2707    0.0000 C   0  0  0  0  0  0  0  0  0  0  0  0
    2.8016    1.5746    0.0000 C   0  0  0  0  0  0  0  0  0  0  0  0
    3.7992    0.4545    0.0000 C   0  0  0  0  0  0  0  0  0  0  0  0
    3.3280   -0.9696    0.0000 N   0  0  0  0  0  0  0  0  0  0  0  0
    1.8591   -1.2735    0.0000 C   0  0  0  0  0  0  0  0  0  0  0  0
   -1.6051    0.6628    0.0000 C   0  0  0  0  0  0  0  0  0  0  0  0
   -3.0740    0.3588    0.0000 C   0  0  0  0  0  0  0  0  0  0  0  0
   -3.5452   -1.0652    0.0000 O   0  0  0  0  0  0  0  0  0  0  0  0
   -4.0716    1.4790    0.0000 O   0  0  0  0  0  0  0  0  0  0  0  0
  2  1  1  1
  2  3  1  0
  3  4  2  0
  4  5  1  0
  5  6  2  0
  6  7  1  0
  7  8  2  0
  2  9  1  0
  9 10  1  0
 10 11  2  0
 10 12  1  0
  8  3  1  0
M  END
>  <rName>  (4235) 
bAla_3Spyrid3yl

>  <PQ_SYMBOL>  (4235) 
bAla_3Spyrid3yl

>  <FULL_NAME>  (4235) 
(S)-3-amino-3-(pyridin-3-yl)propanoic acid

>  <IUPAC_CONDENSED>  (4235) 
bAla(3S-pyrid-3-yl)

>  <IUPAC>  (4235) 
(3S)-3-amino-3-(pyridin-3-yl)propanoic acid

>  <TYPE>  (4235) 
Backbone

>  <CLASS>  (4235) 
beta

>  <ANALOG>  (4235) 
X

>  <MOL_WT>  (4235) 
166.17999999999998

>  <LOGP>  (4235) 
0.5561

>  <TPSA>  (4235) 
76.21

>  <POPULARITY>  (4235) 
11.0

>  <PROTECTED>  (4235) 
TRUE

>  <SMILES>  (4235) 
N[C@H](c1(cccnc1))CC(=O)O

>  <INCHIKEY>  (4235) 
QOTCEJINJFHMLO-ZETCQYMHSA-N

$$$$
bAla_3Spyrid3yl_5Br
     RDKit          2D

 13 13  0  0  0  0  0  0  0  0999 V2000
   -1.2291   -1.8553    0.0000 N   0  0  0  0  0  0  0  0  0  0  0  0
   -0.9051   -0.3907    0.0000 C   0  0  0  0  0  0  0  0  0  0  0  0
    0.5252    0.0611    0.0000 C   0  0  0  0  0  0  0  0  0  0  0  0
    0.8491    1.5257    0.0000 C   0  0  0  0  0  0  0  0  0  0  0  0
    2.2795    1.9775    0.0000 N   0  0  0  0  0  0  0  0  0  0  0  0
    3.3859    0.9646    0.0000 C   0  0  0  0  0  0  0  0  0  0  0  0
    3.0620   -0.5000    0.0000 C   0  0  0  0  0  0  0  0  0  0  0  0
    4.1684   -1.5128    0.0000 Br  0  0  0  0  0  0  0  0  0  0  0  0
    1.6316   -0.9517    0.0000 C   0  0  0  0  0  0  0  0  0  0  0  0
   -2.0116    0.6222    0.0000 C   0  0  0  0  0  0  0  0  0  0  0  0
   -3.4419    0.1704    0.0000 C   0  0  0  0  0  0  0  0  0  0  0  0
   -3.7658   -1.2942    0.0000 O   0  0  0  0  0  0  0  0  0  0  0  0
   -4.5483    1.1832    0.0000 O   0  0  0  0  0  0  0  0  0  0  0  0
  2  1  1  1
  2  3  1  0
  3  4  2  0
  4  5  1  0
  5  6  2  0
  6  7  1  0
  7  8  1  0
  7  9  2  0
  2 10  1  0
 10 11  1  0
 11 12  2  0
 11 13  1  0
  9  3  1  0
M  END
>  <rName>  (4236) 
bAla_3Spyrid3yl_5Br

>  <PQ_SYMBOL>  (4236) 
bAla_3Spyrid3yl_5Br

>  <FULL_NAME>  (4236) 
(3S)-3-amino-3-(5-bromopyridin-3-yl)propanoic Acid

>  <IUPAC_CONDENSED>  (4236) 
bAla(3S-pyrid-3-yl(5-Br))

>  <IUPAC>  (4236) 
(3S)-3-amino-3-(5-bromopyridin-3-yl)propanoic acid

>  <TYPE>  (4236) 
Backbone

>  <CLASS>  (4236) 
beta

>  <ANALOG>  (4236) 
X

>  <MOL_WT>  (4236) 
245.07599999999996

>  <LOGP>  (4236) 
1.3186000000000002

>  <TPSA>  (4236) 
76.21

>  <POPULARITY>  (4236) 
3.4

>  <PROTECTED>  (4236) 
TRUE

>  <SMILES>  (4236) 
N[C@H](c1(cncc(Br)c1))CC(=O)O

>  <INCHIKEY>  (4236) 
FDBHAXKSSQPQMA-ZETCQYMHSA-N

$$$$
bAla_3Spyrid3yl_6Cl
     RDKit          2D

 13 13  0  0  0  0  0  0  0  0999 V2000
   -1.5598   -1.8792    0.0000 N   0  0  0  0  0  0  0  0  0  0  0  0
   -1.0324   -0.4750    0.0000 C   0  0  0  0  0  0  0  0  0  0  0  0
    0.4474   -0.2297    0.0000 C   0  0  0  0  0  0  0  0  0  0  0  0
    0.9749    1.1745    0.0000 C   0  0  0  0  0  0  0  0  0  0  0  0
    2.4547    1.4199    0.0000 C   0  0  0  0  0  0  0  0  0  0  0  0
    3.4070    0.2610    0.0000 C   0  0  0  0  0  0  0  0  0  0  0  0
    4.8868    0.5063    0.0000 Cl  0  0  0  0  0  0  0  0  0  0  0  0
    2.8796   -1.1432    0.0000 N   0  0  0  0  0  0  0  0  0  0  0  0
    1.3998   -1.3886    0.0000 C   0  0  0  0  0  0  0  0  0  0  0  0
   -1.9847    0.6838    0.0000 C   0  0  0  0  0  0  0  0  0  0  0  0
   -3.4645    0.4385    0.0000 C   0  0  0  0  0  0  0  0  0  0  0  0
   -3.9920   -0.9657    0.0000 O   0  0  0  0  0  0  0  0  0  0  0  0
   -4.4169    1.5974    0.0000 O   0  0  0  0  0  0  0  0  0  0  0  0
  2  1  1  1
  2  3  1  0
  3  4  1  0
  4  5  2  0
  5  6  1  0
  6  7  1  0
  6  8  2  0
  8  9  1  0
  2 10  1  0
 10 11  1  0
 11 12  2  0
 11 13  1  0
  9  3  2  0
M  END
>  <rName>  (4237) 
bAla_3Spyrid3yl_6Cl

>  <PQ_SYMBOL>  (4237) 
bAla_3Spyrid3yl_6Cl

>  <FULL_NAME>  (4237) 
(3S)-3-amino-3-(6-chloro-3-pyridinyl)propanoic acid

>  <IUPAC_CONDENSED>  (4237) 
bAla(3S-pyrid-3-yl(6-Cl))

>  <IUPAC>  (4237) 
(3S)-3-amino-3-(6-chloropyridin-3-yl)propanoic acid

>  <TYPE>  (4237) 
Backbone

>  <CLASS>  (4237) 
beta

>  <ANALOG>  (4237) 
X

>  <MOL_WT>  (4237) 
200.62499999999997

>  <LOGP>  (4237) 
1.2095

>  <TPSA>  (4237) 
76.21

>  <POPULARITY>  (4237) 
3.6

>  <PROTECTED>  (4237) 
TRUE

>  <SMILES>  (4237) 
N[C@H](c1(ccc(Cl)nc1))CC(=O)O

>  <INCHIKEY>  (4237) 
CISKLWKYACVMGK-LURJTMIESA-N

$$$$
bAla_3Spyrid3ylmethyl
     RDKit          2D

 13 13  0  0  0  0  0  0  0  0999 V2000
   -0.9767    1.2065    0.0000 N   0  0  0  0  0  0  0  0  0  0  0  0
   -1.1358   -0.2850    0.0000 C   0  0  0  0  0  0  0  0  0  0  0  0
    0.0764   -1.1685    0.0000 C   0  0  0  0  0  0  0  0  0  0  0  0
    1.4476   -0.5605    0.0000 C   0  0  0  0  0  0  0  0  0  0  0  0
    1.6067    0.9310    0.0000 C   0  0  0  0  0  0  0  0  0  0  0  0
    2.9779    1.5390    0.0000 C   0  0  0  0  0  0  0  0  0  0  0  0
    4.1901    0.6555    0.0000 C   0  0  0  0  0  0  0  0  0  0  0  0
    4.0310   -0.8361    0.0000 N   0  0  0  0  0  0  0  0  0  0  0  0
    2.6598   -1.4441    0.0000 C   0  0  0  0  0  0  0  0  0  0  0  0
   -2.5071   -0.8930    0.0000 C   0  0  0  0  0  0  0  0  0  0  0  0
   -3.7192   -0.0095    0.0000 C   0  0  0  0  0  0  0  0  0  0  0  0
   -3.5602    1.4821    0.0000 O   0  0  0  0  0  0  0  0  0  0  0  0
   -5.0905   -0.6175    0.0000 O   0  0  0  0  0  0  0  0  0  0  0  0
  2  1  1  1
  2  3  1  0
  3  4  1  0
  4  5  2  0
  5  6  1  0
  6  7  2  0
  7  8  1  0
  8  9  2  0
  2 10  1  0
 10 11  1  0
 11 12  2  0
 11 13  1  0
  9  4  1  0
M  END
>  <rName>  (4238) 
bAla_3Spyrid3ylmethyl

>  <PQ_SYMBOL>  (4238) 
bAla_3Spyrid3ylmethyl

>  <FULL_NAME>  (4238) 
(S)-3-amino-4-(pyridin-3-yl)butanoic acid

>  <IUPAC_CONDENSED>  (4238) 
bAla(3S-pyrid-3-ylmethyl)

>  <IUPAC>  (4238) 
(3S)-3-amino-4-(pyridin-3-yl)butanoic acid

>  <TYPE>  (4238) 
Backbone

>  <CLASS>  (4238) 
beta

>  <ANALOG>  (4238) 
Phe

>  <MOL_WT>  (4238) 
180.20699999999997

>  <LOGP>  (4238) 
0.4261000000000001

>  <TPSA>  (4238) 
76.21

>  <POPULARITY>  (4238) 
3.7

>  <PROTECTED>  (4238) 
TRUE

>  <SMILES>  (4238) 
N[C@@H](Cc1(cccnc1))CC(=O)O

>  <INCHIKEY>  (4238) 
OODABKPTGCZGHL-QMMMGPOBSA-N

$$$$
bAla_3Spyrid4yl_2Cl
     RDKit          2D

 13 13  0  0  0  0  0  0  0  0999 V2000
   -1.2291   -1.8553    0.0000 N   0  0  0  0  0  0  0  0  0  0  0  0
   -0.9051   -0.3907    0.0000 C   0  0  0  0  0  0  0  0  0  0  0  0
    0.5252    0.0611    0.0000 C   0  0  0  0  0  0  0  0  0  0  0  0
    0.8491    1.5257    0.0000 C   0  0  0  0  0  0  0  0  0  0  0  0
    2.2795    1.9775    0.0000 C   0  0  0  0  0  0  0  0  0  0  0  0
    3.3859    0.9646    0.0000 N   0  0  0  0  0  0  0  0  0  0  0  0
    3.0620   -0.5000    0.0000 C   0  0  0  0  0  0  0  0  0  0  0  0
    4.1684   -1.5128    0.0000 Cl  0  0  0  0  0  0  0  0  0  0  0  0
    1.6316   -0.9517    0.0000 C   0  0  0  0  0  0  0  0  0  0  0  0
   -2.0116    0.6222    0.0000 C   0  0  0  0  0  0  0  0  0  0  0  0
   -3.4419    0.1704    0.0000 C   0  0  0  0  0  0  0  0  0  0  0  0
   -3.7658   -1.2942    0.0000 O   0  0  0  0  0  0  0  0  0  0  0  0
   -4.5483    1.1832    0.0000 O   0  0  0  0  0  0  0  0  0  0  0  0
  2  1  1  1
  2  3  1  0
  3  4  1  0
  4  5  2  0
  5  6  1  0
  6  7  2  0
  7  8  1  0
  7  9  1  0
  2 10  1  0
 10 11  1  0
 11 12  2  0
 11 13  1  0
  9  3  2  0
M  END
>  <rName>  (4239) 
bAla_3Spyrid4yl_2Cl

>  <PQ_SYMBOL>  (4239) 
bAla_3Spyrid4yl_2Cl

>  <FULL_NAME>  (4239) 
(S)-3-Amino-3-(2-chloropyridin-4-yl)propanoic acid

>  <IUPAC_CONDENSED>  (4239) 
bAla(3S-pyrid-4-yl(2-Cl))

>  <IUPAC>  (4239) 
(3S)-3-amino-3-(2-chloropyridin-4-yl)propanoic acid

>  <TYPE>  (4239) 
Backbone

>  <CLASS>  (4239) 
beta

>  <ANALOG>  (4239) 
X

>  <MOL_WT>  (4239) 
200.625

>  <LOGP>  (4239) 
1.2095000000000002

>  <TPSA>  (4239) 
76.21

>  <POPULARITY>  (4239) 
3.3

>  <PROTECTED>  (4239) 
TRUE

>  <SMILES>  (4239) 
N[C@H](c1(ccnc(Cl)c1))CC(=O)O

>  <INCHIKEY>  (4239) 
BHMDKFUSMUPTTM-LURJTMIESA-N

$$$$
bAla_3Spyrid4ylmethyl
     RDKit          2D

 13 13  0  0  0  0  0  0  0  0999 V2000
   -0.9767    1.2065    0.0000 N   0  0  0  0  0  0  0  0  0  0  0  0
   -1.1358   -0.2850    0.0000 C   0  0  0  0  0  0  0  0  0  0  0  0
    0.0764   -1.1685    0.0000 C   0  0  0  0  0  0  0  0  0  0  0  0
    1.4476   -0.5605    0.0000 C   0  0  0  0  0  0  0  0  0  0  0  0
    1.6067    0.9310    0.0000 C   0  0  0  0  0  0  0  0  0  0  0  0
    2.9779    1.5390    0.0000 C   0  0  0  0  0  0  0  0  0  0  0  0
    4.1901    0.6555    0.0000 N   0  0  0  0  0  0  0  0  0  0  0  0
    4.0310   -0.8361    0.0000 C   0  0  0  0  0  0  0  0  0  0  0  0
    2.6598   -1.4441    0.0000 C   0  0  0  0  0  0  0  0  0  0  0  0
   -2.5071   -0.8930    0.0000 C   0  0  0  0  0  0  0  0  0  0  0  0
   -3.7192   -0.0095    0.0000 C   0  0  0  0  0  0  0  0  0  0  0  0
   -3.5602    1.4821    0.0000 O   0  0  0  0  0  0  0  0  0  0  0  0
   -5.0905   -0.6175    0.0000 O   0  0  0  0  0  0  0  0  0  0  0  0
  2  1  1  1
  2  3  1  0
  3  4  1  0
  4  5  1  0
  5  6  2  0
  6  7  1  0
  7  8  2  0
  8  9  1  0
  2 10  1  0
 10 11  1  0
 11 12  2  0
 11 13  1  0
  9  4  2  0
M  END
>  <rName>  (4240) 
bAla_3Spyrid4ylmethyl

>  <PQ_SYMBOL>  (4240) 
bAla_3Spyrid4ylmethyl

>  <FULL_NAME>  (4240) 
(S)-3-amino-4-(pyridin-4-yl)butanoic acid

>  <IUPAC_CONDENSED>  (4240) 
bAla(3S-pyrid-4-ylmethyl)

>  <IUPAC>  (4240) 
(3S)-3-amino-4-(pyridin-4-yl)butanoic acid

>  <TYPE>  (4240) 
Backbone

>  <CLASS>  (4240) 
beta

>  <ANALOG>  (4240) 
Phe

>  <MOL_WT>  (4240) 
180.20699999999997

>  <LOGP>  (4240) 
0.4261000000000001

>  <TPSA>  (4240) 
76.21

>  <POPULARITY>  (4240) 
4.9

>  <PROTECTED>  (4240) 
TRUE

>  <SMILES>  (4240) 
N[C@@H](Cc1(ccncc1))CC(=O)O

>  <INCHIKEY>  (4240) 
HPMMXBBRJNNDBV-QMMMGPOBSA-N

$$$$
bAla_3SsBu_S
     RDKit          2D

 10  9  0  0  0  0  0  0  0  0999 V2000
    0.0468    2.0175    0.0000 N   0  0  0  0  0  0  0  0  0  0  0  0
   -0.3729    0.5774    0.0000 C   0  0  0  0  0  0  0  0  0  0  0  0
   -1.8299    0.2209    0.0000 C   0  0  0  0  0  0  0  0  0  0  0  0
   -2.8672    1.3044    0.0000 C   0  0  0  0  0  0  0  0  0  0  0  0
   -2.2497   -1.2192    0.0000 C   0  0  0  0  0  0  0  0  0  0  0  0
   -1.2124   -2.3027    0.0000 C   0  0  0  0  0  0  0  0  0  0  0  0
    0.6643   -0.5061    0.0000 C   0  0  0  0  0  0  0  0  0  0  0  0
    2.1213   -0.1496    0.0000 C   0  0  0  0  0  0  0  0  0  0  0  0
    2.5411    1.2905    0.0000 O   0  0  0  0  0  0  0  0  0  0  0  0
    3.1586   -1.2331    0.0000 O   0  0  0  0  0  0  0  0  0  0  0  0
  2  1  1  1
  2  3  1  0
  3  4  1  6
  3  5  1  0
  5  6  1  0
  2  7  1  0
  7  8  1  0
  8  9  2  0
  8 10  1  0
M  END
>  <rName>  (4241) 
bAla_3SsBu_S

>  <PQ_SYMBOL>  (4241) 
bAla_3SsBu_S

>  <FULL_NAME>  (4241) 
(3S,4S)-3-amino-4-methylhexanoic acid

>  <IUPAC_CONDENSED>  (4241) 
bAla(3S-sBu(S))

>  <IUPAC>  (4241) 
(3S,4S)-3-amino-4-methylhexanoic acid

>  <TYPE>  (4241) 
Backbone

>  <CLASS>  (4241) 
beta

>  <ANALOG>  (4241) 
Ile

>  <MOL_WT>  (4241) 
145.202

>  <LOGP>  (4241) 
0.8344999999999998

>  <TPSA>  (4241) 
63.32000000000001

>  <POPULARITY>  (4241) 
2.2

>  <PROTECTED>  (4241) 
TRUE

>  <SMILES>  (4241) 
N[C@H]([C@@H](C)CC)CC(=O)O

>  <INCHIKEY>  (4241) 
JHEDYGILOIBOTL-WDSKDSINSA-N

$$$$
bAla_3StBu
     RDKit          2D

 10  9  0  0  0  0  0  0  0  0999 V2000
   -0.0629    1.7674    0.0000 N   0  0  0  0  0  0  0  0  0  0  0  0
   -0.3412    0.2934    0.0000 C   0  0  0  0  0  0  0  0  0  0  0  0
   -1.7568   -0.2026    0.0000 C   0  0  0  0  0  0  0  0  0  0  0  0
   -2.2528    1.2130    0.0000 C   0  0  0  0  0  0  0  0  0  0  0  0
   -1.2608   -1.6182    0.0000 C   0  0  0  0  0  0  0  0  0  0  0  0
   -3.1725   -0.6986    0.0000 C   0  0  0  0  0  0  0  0  0  0  0  0
    0.7961   -0.6846    0.0000 C   0  0  0  0  0  0  0  0  0  0  0  0
    2.2118   -0.1886    0.0000 C   0  0  0  0  0  0  0  0  0  0  0  0
    2.4900    1.2854    0.0000 O   0  0  0  0  0  0  0  0  0  0  0  0
    3.3491   -1.1666    0.0000 O   0  0  0  0  0  0  0  0  0  0  0  0
  2  1  1  1
  2  3  1  0
  3  4  1  0
  3  5  1  0
  3  6  1  0
  2  7  1  0
  7  8  1  0
  8  9  2  0
  8 10  1  0
M  END
>  <rName>  (4242) 
bAla_3StBu

>  <PQ_SYMBOL>  (4242) 
bAla_3StBu

>  <FULL_NAME>  (4242) 
(3S)-3-amino-4,4-dimethylpentanoic acid

>  <IUPAC_CONDENSED>  (4242) 
bAla(3S-tBu)

>  <IUPAC>  (4242) 
(3S)-3-amino-4,4-dimethylpentanoic acid

>  <TYPE>  (4242) 
Backbone

>  <CLASS>  (4242) 
beta

>  <ANALOG>  (4242) 
Val

>  <MOL_WT>  (4242) 
145.202

>  <LOGP>  (4242) 
0.8344999999999998

>  <TPSA>  (4242) 
63.32000000000001

>  <POPULARITY>  (4242) 
12.5

>  <PROTECTED>  (4242) 
TRUE

>  <SMILES>  (4242) 
N[C@H](C(C)(C)C)CC(=O)O

>  <INCHIKEY>  (4242) 
MIMSUZKTGRXZNZ-YFKPBYRVSA-N

$$$$
bAla_3Stetrahydropyran4yl
     RDKit          2D

 12 12  0  0  0  0  0  0  0  0999 V2000
   -1.0786   -1.8814    0.0000 N   0  0  0  0  0  0  0  0  0  0  0  0
   -0.6074   -0.4573    0.0000 C   0  0  0  0  0  0  0  0  0  0  0  0
    0.8615   -0.1534    0.0000 C   0  0  0  0  0  0  0  0  0  0  0  0
    1.3327    1.2707    0.0000 C   0  0  0  0  0  0  0  0  0  0  0  0
    2.8016    1.5746    0.0000 C   0  0  0  0  0  0  0  0  0  0  0  0
    3.7992    0.4545    0.0000 O   0  0  0  0  0  0  0  0  0  0  0  0
    3.3280   -0.9696    0.0000 C   0  0  0  0  0  0  0  0  0  0  0  0
    1.8591   -1.2735    0.0000 C   0  0  0  0  0  0  0  0  0  0  0  0
   -1.6051    0.6628    0.0000 C   0  0  0  0  0  0  0  0  0  0  0  0
   -3.0740    0.3588    0.0000 C   0  0  0  0  0  0  0  0  0  0  0  0
   -3.5452   -1.0652    0.0000 O   0  0  0  0  0  0  0  0  0  0  0  0
   -4.0716    1.4790    0.0000 O   0  0  0  0  0  0  0  0  0  0  0  0
  2  1  1  1
  2  3  1  0
  3  4  1  0
  4  5  1  0
  5  6  1  0
  6  7  1  0
  7  8  1  0
  2  9  1  0
  9 10  1  0
 10 11  2  0
 10 12  1  0
  8  3  1  0
M  END
>  <rName>  (4243) 
bAla_3Stetrahydropyran4yl

>  <PQ_SYMBOL>  (4243) 
bAla_3Stetrahydropyran4yl

>  <FULL_NAME>  (4243) 
(3S)-3-Amino-3-(oxan-4-yl)propanoic acid

>  <IUPAC_CONDENSED>  (4243) 
bAla(3S-tetrahydropyran-4-yl)

>  <IUPAC>  (4243) 
(3S)-3-amino-3-(oxan-4-yl)propanoic acid

>  <TYPE>  (4243) 
Backbone

>  <CLASS>  (4243) 
beta

>  <ANALOG>  (4243) 
X

>  <MOL_WT>  (4243) 
173.212

>  <LOGP>  (4243) 
0.21499999999999936

>  <TPSA>  (4243) 
72.55

>  <POPULARITY>  (4243) 
2.2

>  <PROTECTED>  (4243) 
TRUE

>  <SMILES>  (4243) 
N[C@H](C1(CCOCC1))CC(=O)O

>  <INCHIKEY>  (4243) 
LGOBVYUKERSQGZ-ZETCQYMHSA-N

$$$$
bAla_3Sthiazol2yl
     RDKit          2D

 11 11  0  0  0  0  0  0  0  0999 V2000
   -0.7304   -1.8619    0.0000 N   0  0  0  0  0  0  0  0  0  0  0  0
   -0.2874   -0.4288    0.0000 C   0  0  0  0  0  0  0  0  0  0  0  0
    1.1751   -0.0958    0.0000 C   0  0  0  0  0  0  0  0  0  0  0  0
    2.3042   -1.0834    0.0000 N   0  0  0  0  0  0  0  0  0  0  0  0
    3.5923   -0.3148    0.0000 C   0  0  0  0  0  0  0  0  0  0  0  0
    3.2594    1.1478    0.0000 C   0  0  0  0  0  0  0  0  0  0  0  0
    1.7655    1.2831    0.0000 S   0  0  0  0  0  0  0  0  0  0  0  0
   -1.3071    0.6714    0.0000 C   0  0  0  0  0  0  0  0  0  0  0  0
   -2.7697    0.3385    0.0000 C   0  0  0  0  0  0  0  0  0  0  0  0
   -3.2126   -1.0946    0.0000 O   0  0  0  0  0  0  0  0  0  0  0  0
   -3.7893    1.4386    0.0000 O   0  0  0  0  0  0  0  0  0  0  0  0
  2  1  1  1
  2  3  1  0
  3  4  2  0
  4  5  1  0
  5  6  2  0
  6  7  1  0
  2  8  1  0
  8  9  1  0
  9 10  2  0
  9 11  1  0
  7  3  1  0
M  END
>  <rName>  (4244) 
bAla_3Sthiazol2yl

>  <PQ_SYMBOL>  (4244) 
bAla_3Sthiazol2yl

>  <FULL_NAME>  (4244) 
(3S)-3-amino-3-(1,3-thiazol-2-yl)propanoic acid

>  <IUPAC_CONDENSED>  (4244) 
bAla(3S-thiazol-2-yl)

>  <IUPAC>  (4244) 
(3S)-3-amino-3-(1,3-thiazol-2-yl)propanoic acid

>  <TYPE>  (4244) 
Backbone

>  <CLASS>  (4244) 
beta

>  <ANALOG>  (4244) 
X

>  <MOL_WT>  (4244) 
172.209

>  <LOGP>  (4244) 
0.6176000000000001

>  <TPSA>  (4244) 
76.21

>  <POPULARITY>  (4244) 
2.2

>  <PROTECTED>  (4244) 
TRUE

>  <SMILES>  (4244) 
N[C@H](c1(nccs1))CC(=O)O

>  <INCHIKEY>  (4244) 
RYXFYJOVBFTPTP-BYPYZUCNSA-N

$$$$
bAla_3Sthiazol2yl_5Br
     RDKit          2D

 12 12  0  0  0  0  0  0  0  0999 V2000
   -1.3362   -1.8972    0.0000 N   0  0  0  0  0  0  0  0  0  0  0  0
   -0.7147   -0.5320    0.0000 C   0  0  0  0  0  0  0  0  0  0  0  0
    0.7783   -0.3876    0.0000 C   0  0  0  0  0  0  0  0  0  0  0  0
    1.7727   -1.5106    0.0000 N   0  0  0  0  0  0  0  0  0  0  0  0
    3.1480   -0.9119    0.0000 C   0  0  0  0  0  0  0  0  0  0  0  0
    3.0036    0.5811    0.0000 C   0  0  0  0  0  0  0  0  0  0  0  0
    4.1266    1.5755    0.0000 Br  0  0  0  0  0  0  0  0  0  0  0  0
    1.5390    0.9052    0.0000 S   0  0  0  0  0  0  0  0  0  0  0  0
   -1.5863    0.6888    0.0000 C   0  0  0  0  0  0  0  0  0  0  0  0
   -3.0794    0.5444    0.0000 C   0  0  0  0  0  0  0  0  0  0  0  0
   -3.7008   -0.8208    0.0000 O   0  0  0  0  0  0  0  0  0  0  0  0
   -3.9509    1.7652    0.0000 O   0  0  0  0  0  0  0  0  0  0  0  0
  2  1  1  1
  2  3  1  0
  3  4  2  0
  4  5  1  0
  5  6  2  0
  6  7  1  0
  6  8  1  0
  2  9  1  0
  9 10  1  0
 10 11  2  0
 10 12  1  0
  8  3  1  0
M  END
>  <rName>  (4245) 
bAla_3Sthiazol2yl_5Br

>  <PQ_SYMBOL>  (4245) 
bAla_3Sthiazol2yl_5Br

>  <FULL_NAME>  (4245) 
(3S)-3-amino-3-(5-bromo-1,3-thiazol-2-yl)propanoic acid

>  <IUPAC_CONDENSED>  (4245) 
bAla(3S-thiazol-2-yl(5-Br))

>  <IUPAC>  (4245) 
(3S)-3-amino-3-(5-bromothiazol-2-yl)propanoic acid

>  <TYPE>  (4245) 
Backbone

>  <CLASS>  (4245) 
beta

>  <ANALOG>  (4245) 
X

>  <MOL_WT>  (4245) 
251.10499999999996

>  <LOGP>  (4245) 
1.3801000000000003

>  <TPSA>  (4245) 
76.21

>  <POPULARITY>  (4245) 
2.8

>  <PROTECTED>  (4245) 
TRUE

>  <SMILES>  (4245) 
N[C@H](c1(ncc(Br)s1))CC(=O)O

>  <INCHIKEY>  (4245) 
INHMQMVQKLVSSP-VKHMYHEASA-N

$$$$
bAla_3Sthiazol5yl
     RDKit          2D

 11 11  0  0  0  0  0  0  0  0999 V2000
   -0.7304   -1.8619    0.0000 N   0  0  0  0  0  0  0  0  0  0  0  0
   -0.2874   -0.4288    0.0000 C   0  0  0  0  0  0  0  0  0  0  0  0
    1.1751   -0.0958    0.0000 C   0  0  0  0  0  0  0  0  0  0  0  0
    2.3042   -1.0834    0.0000 C   0  0  0  0  0  0  0  0  0  0  0  0
    3.5923   -0.3148    0.0000 N   0  0  0  0  0  0  0  0  0  0  0  0
    3.2594    1.1478    0.0000 C   0  0  0  0  0  0  0  0  0  0  0  0
    1.7655    1.2831    0.0000 S   0  0  0  0  0  0  0  0  0  0  0  0
   -1.3071    0.6714    0.0000 C   0  0  0  0  0  0  0  0  0  0  0  0
   -2.7697    0.3385    0.0000 C   0  0  0  0  0  0  0  0  0  0  0  0
   -3.2126   -1.0946    0.0000 O   0  0  0  0  0  0  0  0  0  0  0  0
   -3.7893    1.4386    0.0000 O   0  0  0  0  0  0  0  0  0  0  0  0
  2  1  1  1
  2  3  1  0
  3  4  2  0
  4  5  1  0
  5  6  2  0
  6  7  1  0
  2  8  1  0
  8  9  1  0
  9 10  2  0
  9 11  1  0
  7  3  1  0
M  END
>  <rName>  (4246) 
bAla_3Sthiazol5yl

>  <PQ_SYMBOL>  (4246) 
bAla_3Sthiazol5yl

>  <FULL_NAME>  (4246) 
(3S)-3-amino-3-(1,3-thiazol-5-yl)propanoic acid

>  <IUPAC_CONDENSED>  (4246) 
bAla(3S-thiazol-5-yl)

>  <IUPAC>  (4246) 
(3S)-3-amino-3-(thiazol-5-yl)propanoic acid

>  <TYPE>  (4246) 
Backbone

>  <CLASS>  (4246) 
beta

>  <ANALOG>  (4246) 
X

>  <MOL_WT>  (4246) 
172.209

>  <LOGP>  (4246) 
0.6175999999999999

>  <TPSA>  (4246) 
76.21

>  <POPULARITY>  (4246) 
3.6

>  <PROTECTED>  (4246) 
TRUE

>  <SMILES>  (4246) 
N[C@H](c1(cncs1))CC(=O)O

>  <INCHIKEY>  (4246) 
KQNQTOWUBAHLBK-BYPYZUCNSA-N

$$$$
bAla_3Sthien2yl
     RDKit          2D

 11 11  0  0  0  0  0  0  0  0999 V2000
   -0.7304   -1.8619    0.0000 N   0  0  0  0  0  0  0  0  0  0  0  0
   -0.2874   -0.4288    0.0000 C   0  0  0  0  0  0  0  0  0  0  0  0
    1.1751   -0.0958    0.0000 C   0  0  0  0  0  0  0  0  0  0  0  0
    2.3042   -1.0834    0.0000 C   0  0  0  0  0  0  0  0  0  0  0  0
    3.5923   -0.3148    0.0000 C   0  0  0  0  0  0  0  0  0  0  0  0
    3.2594    1.1478    0.0000 C   0  0  0  0  0  0  0  0  0  0  0  0
    1.7655    1.2831    0.0000 S   0  0  0  0  0  0  0  0  0  0  0  0
   -1.3071    0.6714    0.0000 C   0  0  0  0  0  0  0  0  0  0  0  0
   -2.7697    0.3385    0.0000 C   0  0  0  0  0  0  0  0  0  0  0  0
   -3.2126   -1.0946    0.0000 O   0  0  0  0  0  0  0  0  0  0  0  0
   -3.7893    1.4386    0.0000 O   0  0  0  0  0  0  0  0  0  0  0  0
  2  1  1  1
  2  3  1  0
  3  4  2  0
  4  5  1  0
  5  6  2  0
  6  7  1  0
  2  8  1  0
  8  9  1  0
  9 10  2  0
  9 11  1  0
  7  3  1  0
M  END
>  <rName>  (4247) 
bAla_3Sthien2yl

>  <PQ_SYMBOL>  (4247) 
bAla_3Sthien2yl

>  <FULL_NAME>  (4247) 
(S)-3-amino-3-(thiophen-2-yl)propanoic acid

>  <IUPAC_CONDENSED>  (4247) 
bAla(3S-thien-2-yl)

>  <IUPAC>  (4247) 
(3S)-3-amino-3-(thiophen-2-yl)propanoic acid

>  <TYPE>  (4247) 
Backbone

>  <CLASS>  (4247) 
beta

>  <ANALOG>  (4247) 
X

>  <MOL_WT>  (4247) 
171.221

>  <LOGP>  (4247) 
1.2226000000000001

>  <TPSA>  (4247) 
63.32000000000001

>  <POPULARITY>  (4247) 
9.0

>  <PROTECTED>  (4247) 
TRUE

>  <SMILES>  (4247) 
N[C@H](c1(cccs1))CC(=O)O

>  <INCHIKEY>  (4247) 
GYAYLYLPTPXESE-YFKPBYRVSA-N

$$$$
bAla_3Sthien2yl_4Br
     RDKit          2D

 12 12  0  0  0  0  0  0  0  0999 V2000
   -1.0492   -1.8441    0.0000 N   0  0  0  0  0  0  0  0  0  0  0  0
   -0.6822   -0.3897    0.0000 C   0  0  0  0  0  0  0  0  0  0  0  0
    0.7609    0.0196    0.0000 C   0  0  0  0  0  0  0  0  0  0  0  0
    1.9403   -0.9073    0.0000 C   0  0  0  0  0  0  0  0  0  0  0  0
    3.1862   -0.0721    0.0000 C   0  0  0  0  0  0  0  0  0  0  0  0
    4.5943   -0.5892    0.0000 Br  0  0  0  0  0  0  0  0  0  0  0  0
    2.7769    1.3710    0.0000 C   0  0  0  0  0  0  0  0  0  0  0  0
    1.2780    1.4276    0.0000 S   0  0  0  0  0  0  0  0  0  0  0  0
   -1.7582    0.6554    0.0000 C   0  0  0  0  0  0  0  0  0  0  0  0
   -3.2013    0.2460    0.0000 C   0  0  0  0  0  0  0  0  0  0  0  0
   -3.5683   -1.2084    0.0000 O   0  0  0  0  0  0  0  0  0  0  0  0
   -4.2773    1.2911    0.0000 O   0  0  0  0  0  0  0  0  0  0  0  0
  2  1  1  1
  2  3  1  0
  3  4  2  0
  4  5  1  0
  5  6  1  0
  5  7  2  0
  7  8  1  0
  2  9  1  0
  9 10  1  0
 10 11  2  0
 10 12  1  0
  8  3  1  0
M  END
>  <rName>  (4248) 
bAla_3Sthien2yl_4Br

>  <PQ_SYMBOL>  (4248) 
bAla_3Sthien2yl_4Br

>  <FULL_NAME>  (4248) 
(3S)-3-Amino-3-(4-bromothiophen-2-YL)propanoic acid

>  <IUPAC_CONDENSED>  (4248) 
bAla(3S-thien-2-yl(4-Br))

>  <IUPAC>  (4248) 
(3S)-3-amino-3-(4-bromothiophen-2-yl)propanoic acid

>  <TYPE>  (4248) 
Backbone

>  <CLASS>  (4248) 
beta

>  <ANALOG>  (4248) 
X

>  <MOL_WT>  (4248) 
250.117

>  <LOGP>  (4248) 
1.9851

>  <TPSA>  (4248) 
63.32000000000001

>  <POPULARITY>  (4248) 
3.6

>  <PROTECTED>  (4248) 
TRUE

>  <SMILES>  (4248) 
N[C@H](c1(cc(Br)cs1))CC(=O)O

>  <INCHIKEY>  (4248) 
NOOFILCZCFLGBV-YFKPBYRVSA-N

$$$$
bAla_3Sthien2yl_5Br
     RDKit          2D

 12 12  0  0  0  0  0  0  0  0999 V2000
   -1.3362   -1.8972    0.0000 N   0  0  0  0  0  0  0  0  0  0  0  0
   -0.7147   -0.5320    0.0000 C   0  0  0  0  0  0  0  0  0  0  0  0
    0.7783   -0.3876    0.0000 C   0  0  0  0  0  0  0  0  0  0  0  0
    1.7727   -1.5106    0.0000 C   0  0  0  0  0  0  0  0  0  0  0  0
    3.1480   -0.9119    0.0000 C   0  0  0  0  0  0  0  0  0  0  0  0
    3.0036    0.5811    0.0000 C   0  0  0  0  0  0  0  0  0  0  0  0
    4.1266    1.5755    0.0000 Br  0  0  0  0  0  0  0  0  0  0  0  0
    1.5390    0.9052    0.0000 S   0  0  0  0  0  0  0  0  0  0  0  0
   -1.5863    0.6888    0.0000 C   0  0  0  0  0  0  0  0  0  0  0  0
   -3.0794    0.5444    0.0000 C   0  0  0  0  0  0  0  0  0  0  0  0
   -3.7008   -0.8208    0.0000 O   0  0  0  0  0  0  0  0  0  0  0  0
   -3.9509    1.7652    0.0000 O   0  0  0  0  0  0  0  0  0  0  0  0
  2  1  1  1
  2  3  1  0
  3  4  2  0
  4  5  1  0
  5  6  2  0
  6  7  1  0
  6  8  1  0
  2  9  1  0
  9 10  1  0
 10 11  2  0
 10 12  1  0
  8  3  1  0
M  END
>  <rName>  (4249) 
bAla_3Sthien2yl_5Br

>  <PQ_SYMBOL>  (4249) 
bAla_3Sthien2yl_5Br

>  <FULL_NAME>  (4249) 
(3S)-3-Amino-3-(5-bromothiophen-2-YL)propanoic acid

>  <IUPAC_CONDENSED>  (4249) 
bAla(3S-thien-2-yl(5-Br))

>  <IUPAC>  (4249) 
(3S)-3-amino-3-(5-bromothiophen-2-yl)propanoic acid

>  <TYPE>  (4249) 
Backbone

>  <CLASS>  (4249) 
beta

>  <ANALOG>  (4249) 
X

>  <MOL_WT>  (4249) 
250.11699999999996

>  <LOGP>  (4249) 
1.9851

>  <TPSA>  (4249) 
63.32000000000001

>  <POPULARITY>  (4249) 
3.2

>  <PROTECTED>  (4249) 
TRUE

>  <SMILES>  (4249) 
N[C@H](c1(ccc(Br)s1))CC(=O)O

>  <INCHIKEY>  (4249) 
ULEZVSZRHZKPRW-BYPYZUCNSA-N

$$$$
bAla_3Sthien2ylmethyl
     RDKit          2D

 12 12  0  0  0  0  0  0  0  0999 V2000
   -0.6782    1.2367    0.0000 N   0  0  0  0  0  0  0  0  0  0  0  0
   -0.8112   -0.2574    0.0000 C   0  0  0  0  0  0  0  0  0  0  0  0
    0.4162   -1.1196    0.0000 C   0  0  0  0  0  0  0  0  0  0  0  0
    1.7766   -0.4878    0.0000 C   0  0  0  0  0  0  0  0  0  0  0  0
    3.0874   -1.2170    0.0000 C   0  0  0  0  0  0  0  0  0  0  0  0
    4.1860   -0.1957    0.0000 C   0  0  0  0  0  0  0  0  0  0  0  0
    3.5542    1.1647    0.0000 C   0  0  0  0  0  0  0  0  0  0  0  0
    2.0651    0.9842    0.0000 S   0  0  0  0  0  0  0  0  0  0  0  0
   -2.1716   -0.8892    0.0000 C   0  0  0  0  0  0  0  0  0  0  0  0
   -3.3991   -0.0270    0.0000 C   0  0  0  0  0  0  0  0  0  0  0  0
   -3.2660    1.4671    0.0000 O   0  0  0  0  0  0  0  0  0  0  0  0
   -4.7595   -0.6589    0.0000 O   0  0  0  0  0  0  0  0  0  0  0  0
  2  1  1  6
  2  3  1  0
  3  4  1  0
  4  5  2  0
  5  6  1  0
  6  7  2  0
  7  8  1  0
  2  9  1  0
  9 10  1  0
 10 11  2  0
 10 12  1  0
  8  4  1  0
M  END
>  <rName>  (4250) 
bAla_3Sthien2ylmethyl

>  <PQ_SYMBOL>  (4250) 
bAla_3Sthien2ylmethyl

>  <FULL_NAME>  (4250) 
(S)-3-amino-4-(thiophen-2-yl)butanoic acid

>  <IUPAC_CONDENSED>  (4250) 
bAla(3S-thien-2-ylmethyl)

>  <IUPAC>  (4250) 
(3S)-3-amino-4-(thiophen-2-yl)butanoic acid

>  <TYPE>  (4250) 
Backbone

>  <CLASS>  (4250) 
beta

>  <ANALOG>  (4250) 
Phe

>  <MOL_WT>  (4250) 
185.24799999999996

>  <LOGP>  (4250) 
1.0926

>  <TPSA>  (4250) 
63.32000000000001

>  <POPULARITY>  (4250) 
6.8

>  <PROTECTED>  (4250) 
TRUE

>  <SMILES>  (4250) 
N[C@H](Cc1(cccs1))CC(=O)O

>  <INCHIKEY>  (4250) 
LRHQHHDPWZCVTR-ZCFIWIBFSA-N

$$$$
bAla_3Sthien3yl
     RDKit          2D

 11 11  0  0  0  0  0  0  0  0999 V2000
   -0.7304   -1.8619    0.0000 N   0  0  0  0  0  0  0  0  0  0  0  0
   -0.2874   -0.4288    0.0000 C   0  0  0  0  0  0  0  0  0  0  0  0
    1.1751   -0.0958    0.0000 C   0  0  0  0  0  0  0  0  0  0  0  0
    2.3042   -1.0834    0.0000 C   0  0  0  0  0  0  0  0  0  0  0  0
    3.5923   -0.3148    0.0000 C   0  0  0  0  0  0  0  0  0  0  0  0
    3.2594    1.1478    0.0000 S   0  0  0  0  0  0  0  0  0  0  0  0
    1.7655    1.2831    0.0000 C   0  0  0  0  0  0  0  0  0  0  0  0
   -1.3071    0.6714    0.0000 C   0  0  0  0  0  0  0  0  0  0  0  0
   -2.7697    0.3385    0.0000 C   0  0  0  0  0  0  0  0  0  0  0  0
   -3.2126   -1.0946    0.0000 O   0  0  0  0  0  0  0  0  0  0  0  0
   -3.7893    1.4386    0.0000 O   0  0  0  0  0  0  0  0  0  0  0  0
  2  1  1  1
  2  3  1  0
  3  4  1  0
  4  5  2  0
  5  6  1  0
  6  7  1  0
  2  8  1  0
  8  9  1  0
  9 10  2  0
  9 11  1  0
  7  3  2  0
M  END
>  <rName>  (4251) 
bAla_3Sthien3yl

>  <PQ_SYMBOL>  (4251) 
bAla_3Sthien3yl

>  <FULL_NAME>  (4251) 
(S)-3-amino-3-(thiophen-3-yl)propanoic acid

>  <IUPAC_CONDENSED>  (4251) 
bAla(3S-thien-3-yl)

>  <IUPAC>  (4251) 
(3S)-3-amino-3-(thiophen-3-yl)propanoic acid

>  <TYPE>  (4251) 
Backbone

>  <CLASS>  (4251) 
beta

>  <ANALOG>  (4251) 
X

>  <MOL_WT>  (4251) 
171.22099999999998

>  <LOGP>  (4251) 
1.2226000000000001

>  <TPSA>  (4251) 
63.32000000000001

>  <POPULARITY>  (4251) 
7.6

>  <PROTECTED>  (4251) 
TRUE

>  <SMILES>  (4251) 
N[C@H](c1(ccsc1))CC(=O)O

>  <INCHIKEY>  (4251) 
UPDVATYZQLTZOZ-LURJTMIESA-N

$$$$
bAla_3Sthien3ylmethyl
     RDKit          2D

 12 12  0  0  0  0  0  0  0  0999 V2000
   -0.6782    1.2367    0.0000 N   0  0  0  0  0  0  0  0  0  0  0  0
   -0.8112   -0.2574    0.0000 C   0  0  0  0  0  0  0  0  0  0  0  0
    0.4162   -1.1196    0.0000 C   0  0  0  0  0  0  0  0  0  0  0  0
    1.7766   -0.4878    0.0000 C   0  0  0  0  0  0  0  0  0  0  0  0
    3.0874   -1.2170    0.0000 C   0  0  0  0  0  0  0  0  0  0  0  0
    4.1860   -0.1957    0.0000 C   0  0  0  0  0  0  0  0  0  0  0  0
    3.5542    1.1647    0.0000 S   0  0  0  0  0  0  0  0  0  0  0  0
    2.0651    0.9842    0.0000 C   0  0  0  0  0  0  0  0  0  0  0  0
   -2.1716   -0.8892    0.0000 C   0  0  0  0  0  0  0  0  0  0  0  0
   -3.3991   -0.0270    0.0000 C   0  0  0  0  0  0  0  0  0  0  0  0
   -3.2660    1.4671    0.0000 O   0  0  0  0  0  0  0  0  0  0  0  0
   -4.7595   -0.6589    0.0000 O   0  0  0  0  0  0  0  0  0  0  0  0
  2  1  1  1
  2  3  1  0
  3  4  1  0
  4  5  1  0
  5  6  2  0
  6  7  1  0
  7  8  1  0
  2  9  1  0
  9 10  1  0
 10 11  2  0
 10 12  1  0
  8  4  2  0
M  END
>  <rName>  (4252) 
bAla_3Sthien3ylmethyl

>  <PQ_SYMBOL>  (4252) 
bAla_3Sthien3ylmethyl

>  <FULL_NAME>  (4252) 
(S)-3-amino-4-(thiophen-3-yl)butanoic acid

>  <IUPAC_CONDENSED>  (4252) 
bAla(3S-thien-3-ylmethyl)

>  <IUPAC>  (4252) 
(3S)-3-amino-4-(thiophen-3-yl)butanoic acid

>  <TYPE>  (4252) 
Backbone

>  <CLASS>  (4252) 
beta

>  <ANALOG>  (4252) 
Phe

>  <MOL_WT>  (4252) 
185.24799999999996

>  <LOGP>  (4252) 
1.0926

>  <TPSA>  (4252) 
63.32000000000001

>  <POPULARITY>  (4252) 
5.1

>  <PROTECTED>  (4252) 
TRUE

>  <SMILES>  (4252) 
N[C@@H](Cc1(ccsc1))CC(=O)O

>  <INCHIKEY>  (4252) 
AZWUDBISUBOQFK-ZETCQYMHSA-N

$$$$
bAla_3_b_b_btetraMe
     RDKit          2D

 10  9  0  0  0  0  0  0  0  0999 V2000
   -1.6046   -1.7271    0.0000 N   0  0  0  0  0  0  0  0  0  0  0  0
   -1.0865   -0.3194    0.0000 C   0  0  0  0  0  0  0  0  0  0  0  0
   -2.0466    0.8331    0.0000 C   0  0  0  0  0  0  0  0  0  0  0  0
   -3.5247    0.5779    0.0000 C   0  0  0  0  0  0  0  0  0  0  0  0
    0.3916   -0.0642    0.0000 C   0  0  0  0  0  0  0  0  0  0  0  0
    0.1364    1.4139    0.0000 C   0  0  0  0  0  0  0  0  0  0  0  0
    0.6468   -1.5423    0.0000 C   0  0  0  0  0  0  0  0  0  0  0  0
    1.8698    0.1910    0.0000 C   0  0  0  0  0  0  0  0  0  0  0  0
    2.8298   -0.9615    0.0000 O   0  0  0  0  0  0  0  0  0  0  0  0
    2.3878    1.5987    0.0000 O   0  0  0  0  0  0  0  0  0  0  0  0
  1  2  1  0
  2  3  1  0
  3  4  1  0
  2  5  1  0
  5  6  1  0
  5  7  1  0
  5  8  1  0
  8  9  2  0
  8 10  1  0
M  END
>  <rName>  (4253) 
bAla_3_b_b_btetraMe

>  <PQ_SYMBOL>  (4253) 
bAla_3_b_b_btetraMe

>  <FULL_NAME>  (4253) 
3-Amino-2,2-dimethylpentanoic acid

>  <IUPAC_CONDENSED>  (4253) 
bAla(3,b,b,b-tetraMe)

>  <IUPAC>  (4253) 
3-amino-2,2-dimethylpentanoic acid

>  <TYPE>  (4253) 
Backbone

>  <CLASS>  (4253) 
beta

>  <ANALOG>  (4253) 
Ala

>  <MOL_WT>  (4253) 
145.202

>  <LOGP>  (4253) 
0.8344999999999998

>  <TPSA>  (4253) 
63.32000000000001

>  <POPULARITY>  (4253) 
10.7

>  <PROTECTED>  (4253) 
TRUE

>  <SMILES>  (4253) 
NC(CC)C(C)(C)C(=O)O

>  <INCHIKEY>  (4253) 
WCQRSICZSNMTGE-UHFFFAOYSA-N

$$$$
bAla_3cPr
     RDKit          2D

  9  9  0  0  0  0  0  0  0  0999 V2000
    0.0470   -1.7903    0.0000 N   0  0  0  0  0  0  0  0  0  0  0  0
    0.4040   -0.3334    0.0000 C   0  0  0  0  0  0  0  0  0  0  0  0
    1.8442    0.0860    0.0000 C   0  0  0  0  0  0  0  0  0  0  0  0
    3.3011   -0.2709    0.0000 C   0  0  0  0  0  0  0  0  0  0  0  0
    2.8817    1.1693    0.0000 C   0  0  0  0  0  0  0  0  0  0  0  0
   -0.6793    0.7042    0.0000 C   0  0  0  0  0  0  0  0  0  0  0  0
   -2.1195    0.2848    0.0000 C   0  0  0  0  0  0  0  0  0  0  0  0
   -2.4764   -1.1721    0.0000 O   0  0  0  0  0  0  0  0  0  0  0  0
   -3.2028    1.3224    0.0000 O   0  0  0  0  0  0  0  0  0  0  0  0
  1  2  1  0
  2  3  1  0
  3  4  1  0
  4  5  1  0
  2  6  1  0
  6  7  1  0
  7  8  2  0
  7  9  1  0
  5  3  1  0
M  END
>  <rName>  (4254) 
bAla_3cPr

>  <PQ_SYMBOL>  (4254) 
bAla_3cPr

>  <FULL_NAME>  (4254) 
3-Amino-3-cyclopropylpropanoic acid

>  <IUPAC_CONDENSED>  (4254) 
bAla(3-cPr)

>  <IUPAC>  (4254) 
3-amino-3-cyclopropylpropanoic acid

>  <TYPE>  (4254) 
Backbone

>  <CLASS>  (4254) 
beta

>  <ANALOG>  (4254) 
X

>  <MOL_WT>  (4254) 
129.15900000000002

>  <LOGP>  (4254) 
0.19839999999999985

>  <TPSA>  (4254) 
63.32000000000001

>  <POPULARITY>  (4254) 
6.7

>  <PROTECTED>  (4254) 
TRUE

>  <SMILES>  (4254) 
NC(C1(CC1))CC(=O)O

>  <INCHIKEY>  (4254) 
IHWFMMMLMIDKCB-UHFFFAOYSA-N

$$$$
bAla_3naphth1yl
     RDKit          2D

 16 17  0  0  0  0  0  0  0  0999 V2000
   -1.3768    1.6435    0.0000 N   0  0  0  0  0  0  0  0  0  0  0  0
   -1.3799    0.1435    0.0000 C   0  0  0  0  0  0  0  0  0  0  0  0
   -0.0825   -0.6092    0.0000 C   0  0  0  0  0  0  0  0  0  0  0  0
   -0.0856   -2.1092    0.0000 C   0  0  0  0  0  0  0  0  0  0  0  0
    1.2119   -2.8619    0.0000 C   0  0  0  0  0  0  0  0  0  0  0  0
    2.5125   -2.1146    0.0000 C   0  0  0  0  0  0  0  0  0  0  0  0
    2.5156   -0.6146    0.0000 C   0  0  0  0  0  0  0  0  0  0  0  0
    3.8162    0.1327    0.0000 C   0  0  0  0  0  0  0  0  0  0  0  0
    3.8193    1.6327    0.0000 C   0  0  0  0  0  0  0  0  0  0  0  0
    2.5218    2.3854    0.0000 C   0  0  0  0  0  0  0  0  0  0  0  0
    1.2213    1.6381    0.0000 C   0  0  0  0  0  0  0  0  0  0  0  0
    1.2181    0.1381    0.0000 C   0  0  0  0  0  0  0  0  0  0  0  0
   -2.6805   -0.6038    0.0000 C   0  0  0  0  0  0  0  0  0  0  0  0
   -3.9780    0.1489    0.0000 C   0  0  0  0  0  0  0  0  0  0  0  0
   -3.9749    1.6489    0.0000 O   0  0  0  0  0  0  0  0  0  0  0  0
   -5.2786   -0.5984    0.0000 O   0  0  0  0  0  0  0  0  0  0  0  0
  1  2  1  0
  2  3  1  0
  3  4  2  0
  4  5  1  0
  5  6  2  0
  6  7  1  0
  7  8  2  0
  8  9  1  0
  9 10  2  0
 10 11  1  0
 11 12  2  0
  2 13  1  0
 13 14  1  0
 14 15  2  0
 14 16  1  0
 12  3  1  0
 12  7  1  0
M  END
>  <rName>  (4255) 
bAla_3naphth1yl

>  <PQ_SYMBOL>  (4255) 
bAla_3naphth1yl

>  <FULL_NAME>  (4255) 
3-amino-3-naphthalen-1-ylpropanoic acid

>  <IUPAC_CONDENSED>  (4255) 
bAla(3-naphth-1-yl)

>  <IUPAC>  (4255) 
3-amino-3-(naphthalen-1-yl)propanoic acid

>  <TYPE>  (4255) 
Backbone

>  <CLASS>  (4255) 
beta

>  <ANALOG>  (4255) 
X

>  <MOL_WT>  (4255) 
215.25199999999995

>  <LOGP>  (4255) 
2.3143000000000002

>  <TPSA>  (4255) 
63.32000000000001

>  <POPULARITY>  (4255) 
8.2

>  <PROTECTED>  (4255) 
TRUE

>  <SMILES>  (4255) 
NC(c1(cccc2(ccccc12)))CC(=O)O

>  <INCHIKEY>  (4255) 
BIOQBKBTOAMMDG-UHFFFAOYSA-N

$$$$
bAla_3naphth2yl
     RDKit          2D

 16 17  0  0  0  0  0  0  0  0999 V2000
   -2.7878   -1.8484    0.0000 N   0  0  0  0  0  0  0  0  0  0  0  0
   -1.9911   -0.5775    0.0000 C   0  0  0  0  0  0  0  0  0  0  0  0
   -0.4921   -0.6320    0.0000 C   0  0  0  0  0  0  0  0  0  0  0  0
    0.2102   -1.9575    0.0000 C   0  0  0  0  0  0  0  0  0  0  0  0
    1.7092   -2.0120    0.0000 C   0  0  0  0  0  0  0  0  0  0  0  0
    2.5060   -0.7411    0.0000 C   0  0  0  0  0  0  0  0  0  0  0  0
    4.0050   -0.7956    0.0000 C   0  0  0  0  0  0  0  0  0  0  0  0
    4.8017    0.4753    0.0000 C   0  0  0  0  0  0  0  0  0  0  0  0
    4.0994    1.8007    0.0000 C   0  0  0  0  0  0  0  0  0  0  0  0
    2.6004    1.8552    0.0000 C   0  0  0  0  0  0  0  0  0  0  0  0
    1.8037    0.5843    0.0000 C   0  0  0  0  0  0  0  0  0  0  0  0
    0.3047    0.6389    0.0000 C   0  0  0  0  0  0  0  0  0  0  0  0
   -2.6933    0.7479    0.0000 C   0  0  0  0  0  0  0  0  0  0  0  0
   -4.1923    0.8025    0.0000 C   0  0  0  0  0  0  0  0  0  0  0  0
   -4.9891   -0.4685    0.0000 O   0  0  0  0  0  0  0  0  0  0  0  0
   -4.8946    2.1279    0.0000 O   0  0  0  0  0  0  0  0  0  0  0  0
  1  2  1  0
  2  3  1  0
  3  4  1  0
  4  5  2  0
  5  6  1  0
  6  7  2  0
  7  8  1  0
  8  9  2  0
  9 10  1  0
 10 11  2  0
 11 12  1  0
  2 13  1  0
 13 14  1  0
 14 15  2  0
 14 16  1  0
 11  6  1  0
 12  3  2  0
M  END
>  <rName>  (4256) 
bAla_3naphth2yl

>  <PQ_SYMBOL>  (4256) 
bAla_3naphth2yl

>  <FULL_NAME>  (4256) 
3-amino-3-(naphthalen-2-yl)propanoic acid

>  <IUPAC_CONDENSED>  (4256) 
bAla(3-naphth-2-yl)

>  <IUPAC>  (4256) 
3-amino-3-(naphthalen-2-yl)propanoic acid

>  <TYPE>  (4256) 
Backbone

>  <CLASS>  (4256) 
beta

>  <ANALOG>  (4256) 
X

>  <MOL_WT>  (4256) 
215.25199999999995

>  <LOGP>  (4256) 
2.3143000000000002

>  <TPSA>  (4256) 
63.32000000000001

>  <POPULARITY>  (4256) 
7.3

>  <PROTECTED>  (4256) 
TRUE

>  <SMILES>  (4256) 
NC(c2(ccc1(ccccc1c2)))CC(=O)O

>  <INCHIKEY>  (4256) 
JASNXOXPNZWQRV-UHFFFAOYSA-N

$$$$
bAla_3pyrid2yl
     RDKit          2D

 12 12  0  0  0  0  0  0  0  0999 V2000
   -1.0786   -1.8814    0.0000 N   0  0  0  0  0  0  0  0  0  0  0  0
   -0.6074   -0.4573    0.0000 C   0  0  0  0  0  0  0  0  0  0  0  0
    0.8615   -0.1534    0.0000 C   0  0  0  0  0  0  0  0  0  0  0  0
    1.3327    1.2707    0.0000 C   0  0  0  0  0  0  0  0  0  0  0  0
    2.8016    1.5746    0.0000 C   0  0  0  0  0  0  0  0  0  0  0  0
    3.7992    0.4545    0.0000 C   0  0  0  0  0  0  0  0  0  0  0  0
    3.3280   -0.9696    0.0000 C   0  0  0  0  0  0  0  0  0  0  0  0
    1.8591   -1.2735    0.0000 N   0  0  0  0  0  0  0  0  0  0  0  0
   -1.6051    0.6628    0.0000 C   0  0  0  0  0  0  0  0  0  0  0  0
   -3.0740    0.3588    0.0000 C   0  0  0  0  0  0  0  0  0  0  0  0
   -3.5452   -1.0652    0.0000 O   0  0  0  0  0  0  0  0  0  0  0  0
   -4.0716    1.4790    0.0000 O   0  0  0  0  0  0  0  0  0  0  0  0
  1  2  1  0
  2  3  1  0
  3  4  2  0
  4  5  1  0
  5  6  2  0
  6  7  1  0
  7  8  2  0
  2  9  1  0
  9 10  1  0
 10 11  2  0
 10 12  1  0
  8  3  1  0
M  END
>  <rName>  (4257) 
bAla_3pyrid2yl

>  <PQ_SYMBOL>  (4257) 
bAla_3pyrid2yl

>  <FULL_NAME>  (4257) 
3-Amino-3-(pyridin-2-yl)propanoic acid

>  <IUPAC_CONDENSED>  (4257) 
bAla(3-pyrid-2-yl)

>  <IUPAC>  (4257) 
3-amino-3-(pyridin-2-yl)propanoic acid

>  <TYPE>  (4257) 
Backbone

>  <CLASS>  (4257) 
beta

>  <ANALOG>  (4257) 
X

>  <MOL_WT>  (4257) 
166.17999999999998

>  <LOGP>  (4257) 
0.5561

>  <TPSA>  (4257) 
76.21

>  <POPULARITY>  (4257) 
8.0

>  <PROTECTED>  (4257) 
TRUE

>  <SMILES>  (4257) 
NC(c1(ccccn1))CC(=O)O

>  <INCHIKEY>  (4257) 
WCLGSNNEAOFFCL-UHFFFAOYSA-N

$$$$
bAla_3pyrid3yl_6OMe
     RDKit          2D

 14 14  0  0  0  0  0  0  0  0999 V2000
   -1.9239   -1.8882    0.0000 N   0  0  0  0  0  0  0  0  0  0  0  0
   -1.4367   -0.4695    0.0000 C   0  0  0  0  0  0  0  0  0  0  0  0
    0.0356   -0.1821    0.0000 C   0  0  0  0  0  0  0  0  0  0  0  0
    0.5228    1.2365    0.0000 C   0  0  0  0  0  0  0  0  0  0  0  0
    1.9950    1.5239    0.0000 C   0  0  0  0  0  0  0  0  0  0  0  0
    2.9800    0.3926    0.0000 C   0  0  0  0  0  0  0  0  0  0  0  0
    4.4522    0.6799    0.0000 O   0  0  0  0  0  0  0  0  0  0  0  0
    5.4372   -0.4514    0.0000 C   0  0  0  0  0  0  0  0  0  0  0  0
    2.4927   -1.0261    0.0000 N   0  0  0  0  0  0  0  0  0  0  0  0
    1.0205   -1.3134    0.0000 C   0  0  0  0  0  0  0  0  0  0  0  0
   -2.4216    0.6618    0.0000 C   0  0  0  0  0  0  0  0  0  0  0  0
   -3.8939    0.3744    0.0000 C   0  0  0  0  0  0  0  0  0  0  0  0
   -4.3811   -1.0442    0.0000 O   0  0  0  0  0  0  0  0  0  0  0  0
   -4.8788    1.5057    0.0000 O   0  0  0  0  0  0  0  0  0  0  0  0
  1  2  1  0
  2  3  1  0
  3  4  1  0
  4  5  2  0
  5  6  1  0
  6  7  1  0
  7  8  1  0
  6  9  2  0
  9 10  1  0
  2 11  1  0
 11 12  1  0
 12 13  2  0
 12 14  1  0
 10  3  2  0
M  END
>  <rName>  (4258) 
bAla_3pyrid3yl_6OMe

>  <PQ_SYMBOL>  (4258) 
bAla_3pyrid3yl_6OMe

>  <FULL_NAME>  (4258) 
3-Amino-3-(6-methoxypyridin-3-yl)propanoic acid

>  <IUPAC_CONDENSED>  (4258) 
bAla(3-pyrid-3-yl(6-OMe))

>  <IUPAC>  (4258) 
3-amino-3-(6-methoxypyridin-3-yl)propanoic acid

>  <TYPE>  (4258) 
Backbone

>  <CLASS>  (4258) 
beta

>  <ANALOG>  (4258) 
X

>  <MOL_WT>  (4258) 
196.206

>  <LOGP>  (4258) 
0.5647

>  <TPSA>  (4258) 
85.44000000000001

>  <POPULARITY>  (4258) 
6.8

>  <PROTECTED>  (4258) 
TRUE

>  <SMILES>  (4258) 
NC(c1(ccc(OC)nc1))CC(=O)O

>  <INCHIKEY>  (4258) 
JWSDJSZHYFNBEN-UHFFFAOYSA-N

$$$$
bAla_3pyrid4yl
     RDKit          2D

 12 12  0  0  0  0  0  0  0  0999 V2000
   -1.0786   -1.8814    0.0000 N   0  0  0  0  0  0  0  0  0  0  0  0
   -0.6074   -0.4573    0.0000 C   0  0  0  0  0  0  0  0  0  0  0  0
    0.8615   -0.1534    0.0000 C   0  0  0  0  0  0  0  0  0  0  0  0
    1.3327    1.2707    0.0000 C   0  0  0  0  0  0  0  0  0  0  0  0
    2.8016    1.5746    0.0000 C   0  0  0  0  0  0  0  0  0  0  0  0
    3.7992    0.4545    0.0000 N   0  0  0  0  0  0  0  0  0  0  0  0
    3.3280   -0.9696    0.0000 C   0  0  0  0  0  0  0  0  0  0  0  0
    1.8591   -1.2735    0.0000 C   0  0  0  0  0  0  0  0  0  0  0  0
   -1.6051    0.6628    0.0000 C   0  0  0  0  0  0  0  0  0  0  0  0
   -3.0740    0.3588    0.0000 C   0  0  0  0  0  0  0  0  0  0  0  0
   -3.5452   -1.0652    0.0000 O   0  0  0  0  0  0  0  0  0  0  0  0
   -4.0716    1.4790    0.0000 O   0  0  0  0  0  0  0  0  0  0  0  0
  1  2  1  0
  2  3  1  0
  3  4  1  0
  4  5  2  0
  5  6  1  0
  6  7  2  0
  7  8  1  0
  2  9  1  0
  9 10  1  0
 10 11  2  0
 10 12  1  0
  8  3  2  0
M  END
>  <rName>  (4259) 
bAla_3pyrid4yl

>  <PQ_SYMBOL>  (4259) 
bAla_3pyrid4yl

>  <FULL_NAME>  (4259) 
3-Amino-3-(pyridin-4-yl)propanoic acid

>  <IUPAC_CONDENSED>  (4259) 
bAla(3-pyrid-4-yl)

>  <IUPAC>  (4259) 
3-amino-3-(pyridin-4-yl)propanoic acid

>  <TYPE>  (4259) 
Backbone

>  <CLASS>  (4259) 
beta

>  <ANALOG>  (4259) 
X

>  <MOL_WT>  (4259) 
166.17999999999998

>  <LOGP>  (4259) 
0.5561

>  <TPSA>  (4259) 
76.21

>  <POPULARITY>  (4259) 
6.8

>  <PROTECTED>  (4259) 
TRUE

>  <SMILES>  (4259) 
NC(c1(ccncc1))CC(=O)O

>  <INCHIKEY>  (4259) 
HELGKMIKUOPFTO-UHFFFAOYSA-N

$$$$
bAla_3pyrid4yl_2Cl_6Me
     RDKit          2D

 14 14  0  0  0  0  0  0  0  0999 V2000
   -1.6283   -1.9406    0.0000 N   0  0  0  0  0  0  0  0  0  0  0  0
   -1.1520   -0.5182    0.0000 C   0  0  0  0  0  0  0  0  0  0  0  0
    0.3179   -0.2194    0.0000 C   0  0  0  0  0  0  0  0  0  0  0  0
    0.7942    1.2029    0.0000 C   0  0  0  0  0  0  0  0  0  0  0  0
    2.2641    1.5017    0.0000 C   0  0  0  0  0  0  0  0  0  0  0  0
    2.7404    2.9241    0.0000 C   0  0  0  0  0  0  0  0  0  0  0  0
    3.2578    0.3780    0.0000 N   0  0  0  0  0  0  0  0  0  0  0  0
    2.7816   -1.0443    0.0000 C   0  0  0  0  0  0  0  0  0  0  0  0
    3.7753   -2.1680    0.0000 Cl  0  0  0  0  0  0  0  0  0  0  0  0
    1.3116   -1.3431    0.0000 C   0  0  0  0  0  0  0  0  0  0  0  0
   -2.1457    0.6055    0.0000 C   0  0  0  0  0  0  0  0  0  0  0  0
   -3.6157    0.3067    0.0000 C   0  0  0  0  0  0  0  0  0  0  0  0
   -4.0919   -1.1157    0.0000 O   0  0  0  0  0  0  0  0  0  0  0  0
   -4.6094    1.4304    0.0000 O   0  0  0  0  0  0  0  0  0  0  0  0
  1  2  1  0
  2  3  1  0
  3  4  2  0
  4  5  1  0
  5  6  1  0
  5  7  2  0
  7  8  1  0
  8  9  1  0
  8 10  2  0
  2 11  1  0
 11 12  1  0
 12 13  2  0
 12 14  1  0
 10  3  1  0
M  END
>  <rName>  (4260) 
bAla_3pyrid4yl_2Cl_6Me

>  <PQ_SYMBOL>  (4260) 
bAla_3pyrid4yl_2Cl_6Me

>  <FULL_NAME>  (4260) 
3-Amino-3-(2-chloro-6-methylpyridin-4-yl)propanoic acid

>  <IUPAC_CONDENSED>  (4260) 
bAla(3-pyrid-4-yl(2-Cl,6-Me))

>  <IUPAC>  (4260) 
3-amino-3-(2-chloro-6-methylpyridin-4-yl)propanoic acid

>  <TYPE>  (4260) 
Backbone

>  <CLASS>  (4260) 
beta

>  <ANALOG>  (4260) 
X

>  <MOL_WT>  (4260) 
214.652

>  <LOGP>  (4260) 
1.5179200000000002

>  <TPSA>  (4260) 
76.21

>  <POPULARITY>  (4260) 
2.9

>  <PROTECTED>  (4260) 
TRUE

>  <SMILES>  (4260) 
NC(c1(cc(C)nc(Cl)c1))CC(=O)O

>  <INCHIKEY>  (4260) 
WHOUBDGFPXGXJJ-UHFFFAOYSA-N

$$$$
bAla_3tBu
     RDKit          2D

 10  9  0  0  0  0  0  0  0  0999 V2000
   -0.0629    1.7674    0.0000 N   0  0  0  0  0  0  0  0  0  0  0  0
   -0.3412    0.2934    0.0000 C   0  0  0  0  0  0  0  0  0  0  0  0
   -1.7568   -0.2026    0.0000 C   0  0  0  0  0  0  0  0  0  0  0  0
   -2.2528    1.2130    0.0000 C   0  0  0  0  0  0  0  0  0  0  0  0
   -1.2608   -1.6182    0.0000 C   0  0  0  0  0  0  0  0  0  0  0  0
   -3.1725   -0.6986    0.0000 C   0  0  0  0  0  0  0  0  0  0  0  0
    0.7961   -0.6846    0.0000 C   0  0  0  0  0  0  0  0  0  0  0  0
    2.2118   -0.1886    0.0000 C   0  0  0  0  0  0  0  0  0  0  0  0
    2.4900    1.2854    0.0000 O   0  0  0  0  0  0  0  0  0  0  0  0
    3.3491   -1.1666    0.0000 O   0  0  0  0  0  0  0  0  0  0  0  0
  1  2  1  0
  2  3  1  0
  3  4  1  0
  3  5  1  0
  3  6  1  0
  2  7  1  0
  7  8  1  0
  8  9  2  0
  8 10  1  0
M  END
>  <rName>  (4261) 
bAla_3tBu

>  <PQ_SYMBOL>  (4261) 
bAla_3tBu

>  <FULL_NAME>  (4261) 
3-Amino-4,4-dimethylpentanoic acid

>  <IUPAC_CONDENSED>  (4261) 
bAla(3-tBu)

>  <IUPAC>  (4261) 
3-amino-4,4-dimethylpentanoic acid

>  <TYPE>  (4261) 
Backbone

>  <CLASS>  (4261) 
beta

>  <ANALOG>  (4261) 
Val

>  <MOL_WT>  (4261) 
145.202

>  <LOGP>  (4261) 
0.8344999999999998

>  <TPSA>  (4261) 
63.32000000000001

>  <POPULARITY>  (4261) 
11.6

>  <PROTECTED>  (4261) 
TRUE

>  <SMILES>  (4261) 
NC(C(C)(C)C)CC(=O)O

>  <INCHIKEY>  (4261) 
MIMSUZKTGRXZNZ-UHFFFAOYSA-N

$$$$
bAla_3tetrahydropyran4yl
     RDKit          2D

 12 12  0  0  0  0  0  0  0  0999 V2000
   -1.0786   -1.8814    0.0000 N   0  0  0  0  0  0  0  0  0  0  0  0
   -0.6074   -0.4573    0.0000 C   0  0  0  0  0  0  0  0  0  0  0  0
    0.8615   -0.1534    0.0000 C   0  0  0  0  0  0  0  0  0  0  0  0
    1.3327    1.2707    0.0000 C   0  0  0  0  0  0  0  0  0  0  0  0
    2.8016    1.5746    0.0000 C   0  0  0  0  0  0  0  0  0  0  0  0
    3.7992    0.4545    0.0000 O   0  0  0  0  0  0  0  0  0  0  0  0
    3.3280   -0.9696    0.0000 C   0  0  0  0  0  0  0  0  0  0  0  0
    1.8591   -1.2735    0.0000 C   0  0  0  0  0  0  0  0  0  0  0  0
   -1.6051    0.6628    0.0000 C   0  0  0  0  0  0  0  0  0  0  0  0
   -3.0740    0.3588    0.0000 C   0  0  0  0  0  0  0  0  0  0  0  0
   -3.5452   -1.0652    0.0000 O   0  0  0  0  0  0  0  0  0  0  0  0
   -4.0716    1.4790    0.0000 O   0  0  0  0  0  0  0  0  0  0  0  0
  1  2  1  0
  2  3  1  0
  3  4  1  0
  4  5  1  0
  5  6  1  0
  6  7  1  0
  7  8  1  0
  2  9  1  0
  9 10  1  0
 10 11  2  0
 10 12  1  0
  8  3  1  0
M  END
>  <rName>  (4262) 
bAla_3tetrahydropyran4yl

>  <PQ_SYMBOL>  (4262) 
bAla_3tetrahydropyran4yl

>  <FULL_NAME>  (4262) 
3-Amino-3-(oxan-4-yl)propanoic acid

>  <IUPAC_CONDENSED>  (4262) 
bAla(3-tetrahydropyran-4-yl)

>  <IUPAC>  (4262) 
3-amino-3-(oxan-4-yl)propanoic acid

>  <TYPE>  (4262) 
Backbone

>  <CLASS>  (4262) 
beta

>  <ANALOG>  (4262) 
X

>  <MOL_WT>  (4262) 
173.212

>  <LOGP>  (4262) 
0.21499999999999936

>  <TPSA>  (4262) 
72.55

>  <POPULARITY>  (4262) 
5.0

>  <PROTECTED>  (4262) 
TRUE

>  <SMILES>  (4262) 
NC(C1(CCOCC1))CC(=O)O

>  <INCHIKEY>  (4262) 
LGOBVYUKERSQGZ-UHFFFAOYSA-N

$$$$
bAla_3thien2yl
     RDKit          2D

 11 11  0  0  0  0  0  0  0  0999 V2000
   -0.7304   -1.8619    0.0000 N   0  0  0  0  0  0  0  0  0  0  0  0
   -0.2874   -0.4288    0.0000 C   0  0  0  0  0  0  0  0  0  0  0  0
    1.1751   -0.0958    0.0000 C   0  0  0  0  0  0  0  0  0  0  0  0
    2.3042   -1.0834    0.0000 C   0  0  0  0  0  0  0  0  0  0  0  0
    3.5923   -0.3148    0.0000 C   0  0  0  0  0  0  0  0  0  0  0  0
    3.2594    1.1478    0.0000 C   0  0  0  0  0  0  0  0  0  0  0  0
    1.7655    1.2831    0.0000 S   0  0  0  0  0  0  0  0  0  0  0  0
   -1.3071    0.6714    0.0000 C   0  0  0  0  0  0  0  0  0  0  0  0
   -2.7697    0.3385    0.0000 C   0  0  0  0  0  0  0  0  0  0  0  0
   -3.2126   -1.0946    0.0000 O   0  0  0  0  0  0  0  0  0  0  0  0
   -3.7893    1.4386    0.0000 O   0  0  0  0  0  0  0  0  0  0  0  0
  1  2  1  0
  2  3  1  0
  3  4  2  0
  4  5  1  0
  5  6  2  0
  6  7  1  0
  2  8  1  0
  8  9  1  0
  9 10  2  0
  9 11  1  0
  7  3  1  0
M  END
>  <rName>  (4263) 
bAla_3thien2yl

>  <PQ_SYMBOL>  (4263) 
bAla_3thien2yl

>  <FULL_NAME>  (4263) 
3-Amino-3-(thiophen-2-yl)propanoic acid

>  <IUPAC_CONDENSED>  (4263) 
bAla(3-thien-2-yl)

>  <IUPAC>  (4263) 
3-amino-3-(thiophen-2-yl)propanoic acid

>  <TYPE>  (4263) 
Backbone

>  <CLASS>  (4263) 
beta

>  <ANALOG>  (4263) 
X

>  <MOL_WT>  (4263) 
171.221

>  <LOGP>  (4263) 
1.2226000000000001

>  <TPSA>  (4263) 
63.32000000000001

>  <POPULARITY>  (4263) 
8.5

>  <PROTECTED>  (4263) 
TRUE

>  <SMILES>  (4263) 
NC(c1(cccs1))CC(=O)O

>  <INCHIKEY>  (4263) 
GYAYLYLPTPXESE-UHFFFAOYSA-N

$$$$
bAla_3thien3yl
     RDKit          2D

 11 11  0  0  0  0  0  0  0  0999 V2000
   -0.7304   -1.8619    0.0000 N   0  0  0  0  0  0  0  0  0  0  0  0
   -0.2874   -0.4288    0.0000 C   0  0  0  0  0  0  0  0  0  0  0  0
    1.1751   -0.0958    0.0000 C   0  0  0  0  0  0  0  0  0  0  0  0
    2.3042   -1.0834    0.0000 C   0  0  0  0  0  0  0  0  0  0  0  0
    3.5923   -0.3148    0.0000 C   0  0  0  0  0  0  0  0  0  0  0  0
    3.2594    1.1478    0.0000 S   0  0  0  0  0  0  0  0  0  0  0  0
    1.7655    1.2831    0.0000 C   0  0  0  0  0  0  0  0  0  0  0  0
   -1.3071    0.6714    0.0000 C   0  0  0  0  0  0  0  0  0  0  0  0
   -2.7697    0.3385    0.0000 C   0  0  0  0  0  0  0  0  0  0  0  0
   -3.2126   -1.0946    0.0000 O   0  0  0  0  0  0  0  0  0  0  0  0
   -3.7893    1.4386    0.0000 O   0  0  0  0  0  0  0  0  0  0  0  0
  1  2  1  0
  2  3  1  0
  3  4  1  0
  4  5  2  0
  5  6  1  0
  6  7  1  0
  2  8  1  0
  8  9  1  0
  9 10  2  0
  9 11  1  0
  7  3  2  0
M  END
>  <rName>  (4264) 
bAla_3thien3yl

>  <PQ_SYMBOL>  (4264) 
bAla_3thien3yl

>  <FULL_NAME>  (4264) 
3-Amino-3-(3-thienyl)propanoic acid

>  <IUPAC_CONDENSED>  (4264) 
bAla(3-thien-3-yl)

>  <IUPAC>  (4264) 
3-amino-3-(thiophen-3-yl)propanoic acid

>  <TYPE>  (4264) 
Backbone

>  <CLASS>  (4264) 
beta

>  <ANALOG>  (4264) 
X

>  <MOL_WT>  (4264) 
171.22099999999998

>  <LOGP>  (4264) 
1.2226000000000001

>  <TPSA>  (4264) 
63.32000000000001

>  <POPULARITY>  (4264) 
6.6

>  <PROTECTED>  (4264) 
TRUE

>  <SMILES>  (4264) 
NC(c1(ccsc1))CC(=O)O

>  <INCHIKEY>  (4264) 
UPDVATYZQLTZOZ-UHFFFAOYSA-N

$$$$
bAla_3undecyl
     RDKit          2D

 17 16  0  0  0  0  0  0  0  0999 V2000
    4.4957    1.4974    0.0000 N   0  0  0  0  0  0  0  0  0  0  0  0
    4.4355   -0.0014    0.0000 C   0  0  0  0  0  0  0  0  0  0  0  0
    3.1075   -0.6987    0.0000 C   0  0  0  0  0  0  0  0  0  0  0  0
    1.8395    0.1028    0.0000 C   0  0  0  0  0  0  0  0  0  0  0  0
    0.5115   -0.5945    0.0000 C   0  0  0  0  0  0  0  0  0  0  0  0
   -0.7565    0.2070    0.0000 C   0  0  0  0  0  0  0  0  0  0  0  0
   -2.0845   -0.4903    0.0000 C   0  0  0  0  0  0  0  0  0  0  0  0
   -3.3524    0.3111    0.0000 C   0  0  0  0  0  0  0  0  0  0  0  0
   -4.6805   -0.3862    0.0000 C   0  0  0  0  0  0  0  0  0  0  0  0
   -5.9484    0.4153    0.0000 C   0  0  0  0  0  0  0  0  0  0  0  0
   -7.2765   -0.2820    0.0000 C   0  0  0  0  0  0  0  0  0  0  0  0
   -8.5444    0.5195    0.0000 C   0  0  0  0  0  0  0  0  0  0  0  0
   -9.8725   -0.1778    0.0000 C   0  0  0  0  0  0  0  0  0  0  0  0
    5.7034   -0.8029    0.0000 C   0  0  0  0  0  0  0  0  0  0  0  0
    7.0315   -0.1055    0.0000 C   0  0  0  0  0  0  0  0  0  0  0  0
    7.0917    1.3933    0.0000 O   0  0  0  0  0  0  0  0  0  0  0  0
    8.2994   -0.9070    0.0000 O   0  0  0  0  0  0  0  0  0  0  0  0
  1  2  1  0
  2  3  1  0
  3  4  1  0
  4  5  1  0
  5  6  1  0
  6  7  1  0
  7  8  1  0
  8  9  1  0
  9 10  1  0
 10 11  1  0
 11 12  1  0
 12 13  1  0
  2 14  1  0
 14 15  1  0
 15 16  2  0
 15 17  1  0
M  END
>  <rName>  (4265) 
bAla_3undecyl

>  <PQ_SYMBOL>  (4265) 
bAla_3undecyl

>  <FULL_NAME>  (4265) 
3-Aminotetradecanoic acid

>  <IUPAC_CONDENSED>  (4265) 
bAla(3-undecyl)

>  <IUPAC>  (4265) 
3-aminotetradecanoic acid

>  <TYPE>  (4265) 
Backbone

>  <CLASS>  (4265) 
beta

>  <ANALOG>  (4265) 
X

>  <MOL_WT>  (4265) 
243.39099999999996

>  <LOGP>  (4265) 
3.7093000000000025

>  <TPSA>  (4265) 
63.32000000000001

>  <POPULARITY>  (4265) 
7.2

>  <PROTECTED>  (4265) 
TRUE

>  <SMILES>  (4265) 
NC(CCCCCCCCCCC)CC(=O)O

>  <INCHIKEY>  (4265) 
MZHRIDJLZTWHJA-UHFFFAOYSA-N

$$$$
bAla_adamantyl
     RDKit          2D

 15 17  0  0  0  0  0  0  0  0999 V2000
   -1.3504   -1.0252    0.0000 N   0  0  0  0  0  0  0  0  0  0  0  0
   -0.5612    0.2504    0.0000 C   0  0  0  0  0  0  0  0  0  0  0  0
    0.5580   -0.7483    0.0000 C   0  0  0  0  0  0  0  0  0  0  0  0
    1.6772   -1.7470    0.0000 C   0  0  0  0  0  0  0  0  0  0  0  0
    3.1017   -1.2771    0.0000 C   0  0  0  0  0  0  0  0  0  0  0  0
    3.4070    0.1915    0.0000 C   0  0  0  0  0  0  0  0  0  0  0  0
    2.2878    1.1902    0.0000 C   0  0  0  0  0  0  0  0  0  0  0  0
    0.8633    0.7203    0.0000 C   0  0  0  0  0  0  0  0  0  0  0  0
    1.1686    2.1889    0.0000 C   0  0  0  0  0  0  0  0  0  0  0  0
   -0.2559    1.7190    0.0000 C   0  0  0  0  0  0  0  0  0  0  0  0
    1.6331   -0.9718    0.0000 C   0  0  0  0  0  0  0  0  0  0  0  0
   -1.9545    0.8061    0.0000 C   0  0  0  0  0  0  0  0  0  0  0  0
   -3.1323   -0.1227    0.0000 C   0  0  0  0  0  0  0  0  0  0  0  0
   -2.9169   -1.6071    0.0000 O   0  0  0  0  0  0  0  0  0  0  0  0
   -4.5256    0.4330    0.0000 O   0  0  0  0  0  0  0  0  0  0  0  0
  1  2  1  0
  2  3  1  0
  3  4  1  0
  4  5  1  0
  5  6  1  0
  6  7  1  0
  7  8  1  0
  7  9  1  0
  9 10  1  0
 10 11  1  0
  2 12  1  0
 12 13  1  0
 13 14  2  0
 13 15  1  0
  8  3  1  0
 10  2  1  0
 11  5  1  0
M  END
>  <rName>  (4266) 
bAla_adamantyl

>  <PQ_SYMBOL>  (4266) 
bAla_adamantyl

>  <FULL_NAME>  (4266) 
(2-Amino-2-adamantyl)acetic acid

>  <IUPAC_CONDENSED>  (4266) 
bAla(adamantyl)

>  <IUPAC>  (4266) 
2-(2-aminoadamantan-2-yl)acetic acid

>  <TYPE>  (4266) 
Backbone

>  <CLASS>  (4266) 
beta

>  <ANALOG>  (4266) 
X

>  <MOL_WT>  (4266) 
209.289

>  <LOGP>  (4266) 
1.6147

>  <TPSA>  (4266) 
63.32000000000001

>  <POPULARITY>  (4266) 
2.9

>  <PROTECTED>  (4266) 
TRUE

>  <SMILES>  (4266) 
NC2(C1(CC3(CC(C1)CC2C3)))CC(=O)O

>  <INCHIKEY>  (4266) 
VOWMKAWURROZJG-UHFFFAOYSA-N

$$$$
bAla_b_bdiCH2F
     RDKit          2D

 10  9  0  0  0  0  0  0  0  0999 V2000
    2.8430    0.8739    0.0000 N   0  0  0  0  0  0  0  0  0  0  0  0
    1.4313    1.3812    0.0000 C   0  0  0  0  0  0  0  0  0  0  0  0
    0.2862    0.4123    0.0000 C   0  0  0  0  0  0  0  0  0  0  0  0
   -0.6826    1.5574    0.0000 C   0  0  0  0  0  0  0  0  0  0  0  0
   -2.1588    1.2910    0.0000 F   0  0  0  0  0  0  0  0  0  0  0  0
    1.2551   -0.7328    0.0000 C   0  0  0  0  0  0  0  0  0  0  0  0
    0.7478   -2.1444    0.0000 F   0  0  0  0  0  0  0  0  0  0  0  0
   -0.8589   -0.5565    0.0000 C   0  0  0  0  0  0  0  0  0  0  0  0
   -2.2705   -0.0492    0.0000 O   0  0  0  0  0  0  0  0  0  0  0  0
   -0.5925   -2.0327    0.0000 O   0  0  0  0  0  0  0  0  0  0  0  0
  1  2  1  0
  2  3  1  0
  3  4  1  0
  4  5  1  0
  3  6  1  0
  6  7  1  0
  3  8  1  0
  8  9  2  0
  8 10  1  0
M  END
>  <rName>  (4267) 
bAla_b_bdiCH2F

>  <PQ_SYMBOL>  (4267) 
bAla_b_bdiCH2F

>  <FULL_NAME>  (4267) 
NCC(CF)(CF)C(=O)O

>  <IUPAC_CONDENSED>  (4267) 
bAla(b,b-diCH2F)

>  <IUPAC>  (4267) 
3-amino-2,2-bis(fluoromethyl)propanoic acid

>  <TYPE>  (4267) 
Backbone

>  <CLASS>  (4267) 
beta

>  <ANALOG>  (4267) 
X

>  <MOL_WT>  (4267) 
153.128

>  <LOGP>  (4267) 
-0.04489999999999977

>  <TPSA>  (4267) 
63.32000000000001

>  <POPULARITY>  (4267) 
2.8

>  <PROTECTED>  (4267) 
TRUE

>  <SMILES>  (4267) 
NCC(CF)(CF)C(=O)O

>  <INCHIKEY>  (4267) 
XYFSSDLSVZLHGL-UHFFFAOYSA-N

$$$$
bAla_b_bdiF
     RDKit          2D

  8  7  0  0  0  0  0  0  0  0999 V2000
   -2.7534    0.3439    0.0000 N   0  0  0  0  0  0  0  0  0  0  0  0
   -1.6552   -0.6779    0.0000 C   0  0  0  0  0  0  0  0  0  0  0  0
   -0.2212   -0.2378    0.0000 C   0  0  0  0  0  0  0  0  0  0  0  0
    0.2189   -1.6717    0.0000 F   0  0  0  0  0  0  0  0  0  0  0  0
   -0.6614    1.1962    0.0000 F   0  0  0  0  0  0  0  0  0  0  0  0
    1.2127    0.2024    0.0000 C   0  0  0  0  0  0  0  0  0  0  0  0
    2.3109   -0.8194    0.0000 O   0  0  0  0  0  0  0  0  0  0  0  0
    1.5485    1.6643    0.0000 O   0  0  0  0  0  0  0  0  0  0  0  0
  1  2  1  0
  2  3  1  0
  3  4  1  0
  3  5  1  0
  3  6  1  0
  6  7  2  0
  6  8  1  0
M  END
>  <rName>  (4268) 
bAla_b_bdiF

>  <PQ_SYMBOL>  (4268) 
bAla_b_bdiF

>  <FULL_NAME>  (4268) 
3-Amino-2,2-difluoropropanoic acid

>  <IUPAC_CONDENSED>  (4268) 
bAla(b,b-diF)

>  <IUPAC>  (4268) 
3-amino-2,2-difluoropropanoic acid

>  <TYPE>  (4268) 
Backbone

>  <CLASS>  (4268) 
beta

>  <ANALOG>  (4268) 
X

>  <MOL_WT>  (4268) 
125.07399999999998

>  <LOGP>  (4268) 
-0.335

>  <TPSA>  (4268) 
63.32000000000001

>  <POPULARITY>  (4268) 
9.6

>  <PROTECTED>  (4268) 
TRUE

>  <SMILES>  (4268) 
NCC(F)(F)C(=O)O

>  <INCHIKEY>  (4268) 
OEXAUVBPMONLBF-UHFFFAOYSA-N

$$$$
bAla_b_bdiMe
     RDKit          2D

  8  7  0  0  0  0  0  0  0  0999 V2000
   -2.7534   -0.3439    0.0000 N   0  0  0  0  0  0  0  0  0  0  0  0
   -1.6552    0.6779    0.0000 C   0  0  0  0  0  0  0  0  0  0  0  0
   -0.2212    0.2378    0.0000 C   0  0  0  0  0  0  0  0  0  0  0  0
    0.2189    1.6717    0.0000 C   0  0  0  0  0  0  0  0  0  0  0  0
   -0.6614   -1.1962    0.0000 C   0  0  0  0  0  0  0  0  0  0  0  0
    1.2127   -0.2024    0.0000 C   0  0  0  0  0  0  0  0  0  0  0  0
    2.3109    0.8194    0.0000 O   0  0  0  0  0  0  0  0  0  0  0  0
    1.5485   -1.6643    0.0000 O   0  0  0  0  0  0  0  0  0  0  0  0
  1  2  1  0
  2  3  1  0
  3  4  1  0
  3  5  1  0
  3  6  1  0
  6  7  2  0
  6  8  1  0
M  END
>  <rName>  (4269) 
bAla_b_bdiMe

>  <PQ_SYMBOL>  (4269) 
bAla_b_bdiMe

>  <FULL_NAME>  (4269) 
3-amino-2,2-dimethyl-propionic acid

>  <IUPAC_CONDENSED>  (4269) 
bAla(b,b-diMe)

>  <IUPAC>  (4269) 
3-amino-2,2-dimethylpropanoic acid

>  <TYPE>  (4269) 
Backbone

>  <CLASS>  (4269) 
beta

>  <ANALOG>  (4269) 
Ala

>  <MOL_WT>  (4269) 
117.14799999999997

>  <LOGP>  (4269) 
0.05590000000000023

>  <TPSA>  (4269) 
63.32000000000001

>  <POPULARITY>  (4269) 
17.8

>  <PROTECTED>  (4269) 
TRUE

>  <SMILES>  (4269) 
NCC(C)(C)C(=O)O

>  <INCHIKEY>  (4269) 
DGNHGRLDBKAPEH-UHFFFAOYSA-N

$$$$
bAla_b_bdiMe_bCF3
     RDKit          2D

 12 11  0  0  0  0  0  0  0  0999 V2000
   -0.9892    2.1592    0.0000 N   0  0  0  0  0  0  0  0  0  0  0  0
   -0.6917    0.6890    0.0000 C   0  0  0  0  0  0  0  0  0  0  0  0
   -1.8161   -0.3037    0.0000 C   0  0  0  0  0  0  0  0  0  0  0  0
   -2.9406   -1.2965    0.0000 F   0  0  0  0  0  0  0  0  0  0  0  0
   -2.8089    0.8207    0.0000 F   0  0  0  0  0  0  0  0  0  0  0  0
   -0.8234   -1.4282    0.0000 F   0  0  0  0  0  0  0  0  0  0  0  0
    0.7303    0.2116    0.0000 C   0  0  0  0  0  0  0  0  0  0  0  0
    1.2078    1.6335    0.0000 C   0  0  0  0  0  0  0  0  0  0  0  0
    0.2529   -1.2104    0.0000 C   0  0  0  0  0  0  0  0  0  0  0  0
    2.1523   -0.2659    0.0000 C   0  0  0  0  0  0  0  0  0  0  0  0
    3.2768    0.7268    0.0000 O   0  0  0  0  0  0  0  0  0  0  0  0
    2.4498   -1.7361    0.0000 O   0  0  0  0  0  0  0  0  0  0  0  0
  1  2  1  0
  2  3  1  0
  3  4  1  0
  3  5  1  0
  3  6  1  0
  2  7  1  0
  7  8  1  0
  7  9  1  0
  7 10  1  0
 10 11  2  0
 10 12  1  0
M  END
>  <rName>  (4270) 
bAla_b_bdiMe_bCF3

>  <PQ_SYMBOL>  (4270) 
bAla_b_bdiMe_bCF3

>  <FULL_NAME>  (4270) 
3-Amino-4,4,4-trifluoro-2,2-dimethylbutanoic acid

>  <IUPAC_CONDENSED>  (4270) 
bAla(b,b-diMe,b-CF3)

>  <IUPAC>  (4270) 
3-amino-4,4,4-trifluoro-2,2-dimethylbutanoic acid

>  <TYPE>  (4270) 
Backbone

>  <CLASS>  (4270) 
beta

>  <ANALOG>  (4270) 
X

>  <MOL_WT>  (4270) 
185.145

>  <LOGP>  (4270) 
0.9868000000000001

>  <TPSA>  (4270) 
63.32000000000001

>  <POPULARITY>  (4270) 
3.0

>  <PROTECTED>  (4270) 
TRUE

>  <SMILES>  (4270) 
NC(C(F)(F)F)C(C)(C)C(=O)O

>  <INCHIKEY>  (4270) 
GHXPZXIZABWISS-UHFFFAOYSA-N

$$$$
bAla_b_bdiMe_bPh
     RDKit          2D

 14 14  0  0  0  0  0  0  0  0999 V2000
   -0.4034   -2.5464    0.0000 N   0  0  0  0  0  0  0  0  0  0  0  0
   -0.2759   -1.0518    0.0000 C   0  0  0  0  0  0  0  0  0  0  0  0
    1.0821   -0.4149    0.0000 C   0  0  0  0  0  0  0  0  0  0  0  0
    1.2096    1.0797    0.0000 C   0  0  0  0  0  0  0  0  0  0  0  0
    2.5676    1.7166    0.0000 C   0  0  0  0  0  0  0  0  0  0  0  0
    3.7982    0.8590    0.0000 C   0  0  0  0  0  0  0  0  0  0  0  0
    3.6708   -0.6356    0.0000 C   0  0  0  0  0  0  0  0  0  0  0  0
    2.3128   -1.2725    0.0000 C   0  0  0  0  0  0  0  0  0  0  0  0
   -1.5066   -0.1941    0.0000 C   0  0  0  0  0  0  0  0  0  0  0  0
   -0.6489    1.0365    0.0000 C   0  0  0  0  0  0  0  0  0  0  0  0
   -2.3642   -1.4248    0.0000 C   0  0  0  0  0  0  0  0  0  0  0  0
   -2.7372    0.6635    0.0000 C   0  0  0  0  0  0  0  0  0  0  0  0
   -4.0952    0.0266    0.0000 O   0  0  0  0  0  0  0  0  0  0  0  0
   -2.6097    2.1581    0.0000 O   0  0  0  0  0  0  0  0  0  0  0  0
  1  2  1  0
  2  3  1  0
  3  4  2  0
  4  5  1  0
  5  6  2  0
  6  7  1  0
  7  8  2  0
  2  9  1  0
  9 10  1  0
  9 11  1  0
  9 12  1  0
 12 13  2  0
 12 14  1  0
  8  3  1  0
M  END
>  <rName>  (4271) 
bAla_b_bdiMe_bPh

>  <PQ_SYMBOL>  (4271) 
bAla_b_bdiMe_bPh

>  <FULL_NAME>  (4271) 
3-Amino-2,2-dimethyl-3-phenylpropanoic acid

>  <IUPAC_CONDENSED>  (4271) 
bAla(b,b-diMe,b-Ph)

>  <IUPAC>  (4271) 
3-amino-2,2-dimethyl-3-phenylpropanoic acid

>  <TYPE>  (4271) 
Backbone

>  <CLASS>  (4271) 
beta

>  <ANALOG>  (4271) 
X

>  <MOL_WT>  (4271) 
193.24599999999995

>  <LOGP>  (4271) 
1.7972000000000001

>  <TPSA>  (4271) 
63.32000000000001

>  <POPULARITY>  (4271) 
7.9

>  <PROTECTED>  (4271) 
TRUE

>  <SMILES>  (4271) 
NC(c1(ccccc1))C(C)(C)C(=O)O

>  <INCHIKEY>  (4271) 
OQRIETIIFBOIRV-UHFFFAOYSA-N

$$$$
bAla_b_bdiMe_bcBu
     RDKit          2D

 12 12  0  0  0  0  0  0  0  0999 V2000
    0.3699   -2.4229    0.0000 N   0  0  0  0  0  0  0  0  0  0  0  0
    0.3535   -0.9230    0.0000 C   0  0  0  0  0  0  0  0  0  0  0  0
    1.6442   -0.1588    0.0000 C   0  0  0  0  0  0  0  0  0  0  0  0
    2.0166    1.2943    0.0000 C   0  0  0  0  0  0  0  0  0  0  0  0
    3.4696    0.9219    0.0000 C   0  0  0  0  0  0  0  0  0  0  0  0
    3.0973   -0.5312    0.0000 C   0  0  0  0  0  0  0  0  0  0  0  0
   -0.9537   -0.1872    0.0000 C   0  0  0  0  0  0  0  0  0  0  0  0
   -0.2180    1.1199    0.0000 C   0  0  0  0  0  0  0  0  0  0  0  0
   -1.6895   -1.4944    0.0000 C   0  0  0  0  0  0  0  0  0  0  0  0
   -2.2609    0.5485    0.0000 C   0  0  0  0  0  0  0  0  0  0  0  0
   -3.5516   -0.2156    0.0000 O   0  0  0  0  0  0  0  0  0  0  0  0
   -2.2773    2.0484    0.0000 O   0  0  0  0  0  0  0  0  0  0  0  0
  1  2  1  0
  2  3  1  0
  3  4  1  0
  4  5  1  0
  5  6  1  0
  2  7  1  0
  7  8  1  0
  7  9  1  0
  7 10  1  0
 10 11  2  0
 10 12  1  0
  6  3  1  0
M  END
>  <rName>  (4272) 
bAla_b_bdiMe_bcBu

>  <PQ_SYMBOL>  (4272) 
bAla_b_bdiMe_bcBu

>  <FULL_NAME>  (4272) 
3-Amino-3-cyclobutyl-2,2-dimethylpropanoic acid

>  <IUPAC_CONDENSED>  (4272) 
bAla(b,b-diMe,b-cBu)

>  <IUPAC>  (4272) 
3-amino-3-cyclobutyl-2,2-dimethylpropanoic acid

>  <TYPE>  (4272) 
Backbone

>  <CLASS>  (4272) 
beta

>  <ANALOG>  (4272) 
X

>  <MOL_WT>  (4272) 
171.24

>  <LOGP>  (4272) 
1.2245999999999997

>  <TPSA>  (4272) 
63.32000000000001

>  <POPULARITY>  (4272) 
2.8

>  <PROTECTED>  (4272) 
TRUE

>  <SMILES>  (4272) 
NC(C1(CCC1))C(C)(C)C(=O)O

>  <INCHIKEY>  (4272) 
YPJBZGRSMMVXAQ-UHFFFAOYSA-N

$$$$
bAla_b_bdiMe_bcPr
     RDKit          2D

 11 11  0  0  0  0  0  0  0  0999 V2000
    0.8175   -2.3079    0.0000 N   0  0  0  0  0  0  0  0  0  0  0  0
    0.6924   -0.8132    0.0000 C   0  0  0  0  0  0  0  0  0  0  0  0
    1.9243    0.0426    0.0000 C   0  0  0  0  0  0  0  0  0  0  0  0
    3.4191    0.1677    0.0000 C   0  0  0  0  0  0  0  0  0  0  0  0
    2.5633    1.3997    0.0000 C   0  0  0  0  0  0  0  0  0  0  0  0
   -0.6647   -0.1742    0.0000 C   0  0  0  0  0  0  0  0  0  0  0  0
   -0.0257    1.1829    0.0000 C   0  0  0  0  0  0  0  0  0  0  0  0
   -1.3037   -1.5312    0.0000 C   0  0  0  0  0  0  0  0  0  0  0  0
   -2.0218    0.4649    0.0000 C   0  0  0  0  0  0  0  0  0  0  0  0
   -3.2537   -0.3909    0.0000 O   0  0  0  0  0  0  0  0  0  0  0  0
   -2.1469    1.9596    0.0000 O   0  0  0  0  0  0  0  0  0  0  0  0
  1  2  1  0
  2  3  1  0
  3  4  1  0
  4  5  1  0
  2  6  1  0
  6  7  1  0
  6  8  1  0
  6  9  1  0
  9 10  2  0
  9 11  1  0
  5  3  1  0
M  END
>  <rName>  (4273) 
bAla_b_bdiMe_bcPr

>  <PQ_SYMBOL>  (4273) 
bAla_b_bdiMe_bcPr

>  <FULL_NAME>  (4273) 
3-Amino-3-cyclopropyl-2,2-dimethylpropanoic acid

>  <IUPAC_CONDENSED>  (4273) 
bAla(b,b-diMe,b-cPr)

>  <IUPAC>  (4273) 
3-amino-3-cyclopropyl-2,2-dimethylpropanoic acid

>  <TYPE>  (4273) 
Backbone

>  <CLASS>  (4273) 
beta

>  <ANALOG>  (4273) 
X

>  <MOL_WT>  (4273) 
157.213

>  <LOGP>  (4273) 
0.8344999999999998

>  <TPSA>  (4273) 
63.32000000000001

>  <POPULARITY>  (4273) 
3.5

>  <PROTECTED>  (4273) 
TRUE

>  <SMILES>  (4273) 
NC(C1(CC1))C(C)(C)C(=O)O

>  <INCHIKEY>  (4273) 
WTSMQDGZFPWJOU-UHFFFAOYSA-N

$$$$
bAla_benzothiophen3yl
     RDKit          2D

 16 17  0  0  0  0  0  0  0  0999 V2000
   -5.2621   -0.0599    0.0000 N   0  0  0  0  0  0  0  0  0  0  0  0
   -4.1205   -1.0329    0.0000 C   0  0  0  0  0  0  0  0  0  0  0  0
   -2.7070   -0.5308    0.0000 C   0  0  0  0  0  0  0  0  0  0  0  0
   -1.5655   -1.5039    0.0000 C   0  0  0  0  0  0  0  0  0  0  0  0
   -0.1520   -1.0018    0.0000 C   0  0  0  0  0  0  0  0  0  0  0  0
    1.0850   -1.8501    0.0000 C   0  0  0  0  0  0  0  0  0  0  0  0
    2.2741   -0.9358    0.0000 C   0  0  0  0  0  0  0  0  0  0  0  0
    3.7493   -1.2077    0.0000 C   0  0  0  0  0  0  0  0  0  0  0  0
    4.7223   -0.0661    0.0000 C   0  0  0  0  0  0  0  0  0  0  0  0
    4.2202    1.3473    0.0000 C   0  0  0  0  0  0  0  0  0  0  0  0
    2.7451    1.6192    0.0000 C   0  0  0  0  0  0  0  0  0  0  0  0
    1.7720    0.4776    0.0000 C   0  0  0  0  0  0  0  0  0  0  0  0
    0.2726    0.4369    0.0000 S   0  0  0  0  0  0  0  0  0  0  0  0
   -2.4352    0.9443    0.0000 C   0  0  0  0  0  0  0  0  0  0  0  0
   -1.0217    1.4464    0.0000 O   0  0  0  0  0  0  0  0  0  0  0  0
   -3.5767    1.9174    0.0000 O   0  0  0  0  0  0  0  0  0  0  0  0
  1  2  1  0
  2  3  1  0
  3  4  1  0
  4  5  1  0
  5  6  2  0
  6  7  1  0
  7  8  2  0
  8  9  1  0
  9 10  2  0
 10 11  1  0
 11 12  2  0
 12 13  1  0
  3 14  1  0
 14 15  2  0
 14 16  1  0
 12  7  1  0
 13  5  1  0
M  END
>  <rName>  (4274) 
bAla_benzothiophen3yl

>  <PQ_SYMBOL>  (4274) 
bAla_benzothiophen3yl

>  <FULL_NAME>  (4274) 
3-Amino-2-[(1-benzothiophen-2-yl)methyl]propanoic acid

>  <IUPAC_CONDENSED>  (4274) 
bAla(benzothiophen-3-yl)

>  <IUPAC>  (4274) 
3-amino-2-((1-benzothiophen-2-yl)methyl)propanoic acid

>  <TYPE>  (4274) 
Backbone

>  <CLASS>  (4274) 
beta

>  <ANALOG>  (4274) 
Phe

>  <MOL_WT>  (4274) 
235.308

>  <LOGP>  (4274) 
2.1033

>  <TPSA>  (4274) 
63.32000000000001

>  <POPULARITY>  (4274) 
4.1

>  <PROTECTED>  (4274) 
TRUE

>  <SMILES>  (4274) 
NCC(Cc2(cc1(ccccc1s2)))C(=O)O

>  <INCHIKEY>  (4274) 
GBVRSSBIFRIIRQ-UHFFFAOYSA-N

$$$$
bAla_oxolan3yl
     RDKit          2D

 11 11  0  0  0  0  0  0  0  0999 V2000
    2.8702   -1.7083    0.0000 N   0  0  0  0  0  0  0  0  0  0  0  0
    1.3728   -1.6194    0.0000 C   0  0  0  0  0  0  0  0  0  0  0  0
    0.7011   -0.2782    0.0000 C   0  0  0  0  0  0  0  0  0  0  0  0
   -0.7963   -0.1893    0.0000 C   0  0  0  0  0  0  0  0  0  0  0  0
   -1.6045    1.0743    0.0000 C   0  0  0  0  0  0  0  0  0  0  0  0
   -3.0560    0.6961    0.0000 C   0  0  0  0  0  0  0  0  0  0  0  0
   -3.1449   -0.8013    0.0000 O   0  0  0  0  0  0  0  0  0  0  0  0
   -1.7483   -1.3485    0.0000 C   0  0  0  0  0  0  0  0  0  0  0  0
    1.5267    0.9741    0.0000 C   0  0  0  0  0  0  0  0  0  0  0  0
    0.8550    2.3153    0.0000 O   0  0  0  0  0  0  0  0  0  0  0  0
    3.0241    0.8852    0.0000 O   0  0  0  0  0  0  0  0  0  0  0  0
  1  2  1  0
  2  3  1  0
  3  4  1  0
  4  5  1  0
  5  6  1  0
  6  7  1  0
  7  8  1  0
  3  9  1  0
  9 10  2  0
  9 11  1  0
  8  4  1  0
M  END
>  <rName>  (4275) 
bAla_oxolan3yl

>  <PQ_SYMBOL>  (4275) 
bAla_oxolan3yl

>  <FULL_NAME>  (4275) 
3-Amino-2-(oxolan-3-yl)propanoic acid

>  <IUPAC_CONDENSED>  (4275) 
bAla(oxolan-3-yl)

>  <IUPAC>  (4275) 
3-amino-2-(oxolan-3-yl)propanoic acid

>  <TYPE>  (4275) 
Backbone

>  <CLASS>  (4275) 
beta

>  <ANALOG>  (4275) 
Ser

>  <MOL_WT>  (4275) 
159.185

>  <LOGP>  (4275) 
-0.31760000000000016

>  <TPSA>  (4275) 
72.55

>  <POPULARITY>  (4275) 
6.1

>  <PROTECTED>  (4275) 
TRUE

>  <SMILES>  (4275) 
NCC(C1(CCOC1))C(=O)O

>  <INCHIKEY>  (4275) 
LFGQVAXQJPFPAD-UHFFFAOYSA-N

$$$$
bHis_R
     RDKit          2D

 11 11  0  0  0  0  0  0  0  0999 V2000
   -0.7304   -1.8619    0.0000 N   0  0  0  0  0  0  0  0  0  0  0  0
   -0.2874   -0.4288    0.0000 C   0  0  0  0  0  0  0  0  0  0  0  0
    1.1751   -0.0958    0.0000 C   0  0  0  0  0  0  0  0  0  0  0  0
    2.3042   -1.0834    0.0000 C   0  0  0  0  0  0  0  0  0  0  0  0
    3.5923   -0.3148    0.0000 N   0  0  0  0  0  0  0  0  0  0  0  0
    3.2594    1.1478    0.0000 C   0  0  0  0  0  0  0  0  0  0  0  0
    1.7655    1.2831    0.0000 N   0  0  0  0  0  0  0  0  0  0  0  0
   -1.3071    0.6714    0.0000 C   0  0  0  0  0  0  0  0  0  0  0  0
   -2.7697    0.3385    0.0000 C   0  0  0  0  0  0  0  0  0  0  0  0
   -3.2126   -1.0946    0.0000 O   0  0  0  0  0  0  0  0  0  0  0  0
   -3.7893    1.4386    0.0000 O   0  0  0  0  0  0  0  0  0  0  0  0
  2  1  1  6
  2  3  1  0
  3  4  2  0
  4  5  1  0
  5  6  2  0
  6  7  1  0
  2  8  1  0
  8  9  1  0
  9 10  2  0
  9 11  1  0
  7  3  1  0
M  END
>  <rName>  (4276) 
bHis_R

>  <PQ_SYMBOL>  (4276) 
bHis_R

>  <FULL_NAME>  (4276) 
(3R)-3-amino-3-(1H-imidazol-5-yl)propanoic acid

>  <IUPAC_CONDENSED>  (4276) 
bHis(R)

>  <IUPAC>  (4276) 
(3R)-3-amino-3-(1H-imidazol-5-yl)propanoic acid

>  <TYPE>  (4276) 
Backbone

>  <CLASS>  (4276) 
beta

>  <ANALOG>  (4276) 
X

>  <MOL_WT>  (4276) 
155.15699999999998

>  <LOGP>  (4276) 
-0.11579999999999996

>  <TPSA>  (4276) 
92.0

>  <POPULARITY>  (4276) 
3.7

>  <PROTECTED>  (4276) 
TRUE

>  <SMILES>  (4276) 
N[C@@H](c1(cnc[nH]1))CC(=O)O

>  <INCHIKEY>  (4276) 
BBGYWNCGOUEKBO-SCSAIBSYSA-N

$$$$
bLeu
     RDKit          2D

  9  8  0  0  0  0  0  0  0  0999 V2000
   -0.2826    1.7410    0.0000 N   0  0  0  0  0  0  0  0  0  0  0  0
   -0.5402    0.2633    0.0000 C   0  0  0  0  0  0  0  0  0  0  0  0
   -1.9487   -0.2525    0.0000 C   0  0  0  0  0  0  0  0  0  0  0  0
   -3.0997    0.7094    0.0000 C   0  0  0  0  0  0  0  0  0  0  0  0
   -2.2062   -1.7302    0.0000 C   0  0  0  0  0  0  0  0  0  0  0  0
    0.6108   -0.6986    0.0000 C   0  0  0  0  0  0  0  0  0  0  0  0
    2.0193   -0.1828    0.0000 C   0  0  0  0  0  0  0  0  0  0  0  0
    2.2769    1.2950    0.0000 O   0  0  0  0  0  0  0  0  0  0  0  0
    3.1703   -1.1447    0.0000 O   0  0  0  0  0  0  0  0  0  0  0  0
  1  2  1  0
  2  3  1  0
  3  4  1  0
  3  5  1  0
  2  6  1  0
  6  7  1  0
  7  8  2  0
  7  9  1  0
M  END
>  <rName>  (4277) 
bLeu

>  <PQ_SYMBOL>  (4277) 
bLeu

>  <FULL_NAME>  (4277) 
3-amino-4-methylpentanoic acid

>  <IUPAC_CONDENSED>  (4277) 
bLeu

>  <IUPAC>  (4277) 
3-amino-4-methylpentanoic acid

>  <TYPE>  (4277) 
Backbone

>  <CLASS>  (4277) 
beta

>  <ANALOG>  (4277) 
Val

>  <MOL_WT>  (4277) 
131.175

>  <LOGP>  (4277) 
0.44439999999999985

>  <TPSA>  (4277) 
63.32000000000001

>  <POPULARITY>  (4277) 
15.1

>  <PROTECTED>  (4277) 
TRUE

>  <SMILES>  (4277) 
NC(C(C)C)CC(=O)O

>  <INCHIKEY>  (4277) 
GLUJNGJDHCTUJY-UHFFFAOYSA-N

$$$$
bLeu_R
     RDKit          2D

  9  8  0  0  0  0  0  0  0  0999 V2000
   -0.2826    1.7410    0.0000 N   0  0  0  0  0  0  0  0  0  0  0  0
   -0.5402    0.2633    0.0000 C   0  0  0  0  0  0  0  0  0  0  0  0
   -1.9487   -0.2525    0.0000 C   0  0  0  0  0  0  0  0  0  0  0  0
   -3.0997    0.7094    0.0000 C   0  0  0  0  0  0  0  0  0  0  0  0
   -2.2062   -1.7302    0.0000 C   0  0  0  0  0  0  0  0  0  0  0  0
    0.6108   -0.6986    0.0000 C   0  0  0  0  0  0  0  0  0  0  0  0
    2.0193   -0.1828    0.0000 C   0  0  0  0  0  0  0  0  0  0  0  0
    2.2769    1.2950    0.0000 O   0  0  0  0  0  0  0  0  0  0  0  0
    3.1703   -1.1447    0.0000 O   0  0  0  0  0  0  0  0  0  0  0  0
  2  1  1  6
  2  3  1  0
  3  4  1  0
  3  5  1  0
  2  6  1  0
  6  7  1  0
  7  8  2  0
  7  9  1  0
M  END
>  <rName>  (4278) 
bLeu_R

>  <PQ_SYMBOL>  (4278) 
bLeu_R

>  <FULL_NAME>  (4278) 
L-Beta-Leucine, L-Beta-Homo-Valine

>  <IUPAC_CONDENSED>  (4278) 
bLeu(R)

>  <IUPAC>  (4278) 
(3R)-3-amino-4-methylpentanoic acid

>  <TYPE>  (4278) 
Backbone

>  <CLASS>  (4278) 
beta

>  <ANALOG>  (4278) 
Val

>  <MOL_WT>  (4278) 
131.175

>  <LOGP>  (4278) 
0.44439999999999985

>  <TPSA>  (4278) 
63.32000000000001

>  <POPULARITY>  (4278) 
22.1

>  <PROTECTED>  (4278) 
TRUE

>  <SMILES>  (4278) 
N[C@@H](C(C)C)CC(=O)O

>  <INCHIKEY>  (4278) 
GLUJNGJDHCTUJY-RXMQYKEDSA-N

$$$$
bLeu_R_Me
     RDKit          2D

 11 10  0  0  0  0  0  0  0  0999 V2000
    0.2445   -1.3622    0.0000 N   0  0  0  0  0  0  0  0  0  0  0  0
    0.2354    0.1378    0.0000 C   0  0  0  0  0  0  0  0  0  0  0  0
   -1.0682    0.8799    0.0000 C   0  0  0  0  0  0  0  0  0  0  0  0
   -2.3627    0.1220    0.0000 C   0  0  0  0  0  0  0  0  0  0  0  0
   -3.1206    1.4164    0.0000 C   0  0  0  0  0  0  0  0  0  0  0  0
   -1.6048   -1.1725    0.0000 C   0  0  0  0  0  0  0  0  0  0  0  0
   -3.6571   -0.6360    0.0000 C   0  0  0  0  0  0  0  0  0  0  0  0
    1.5298    0.8957    0.0000 C   0  0  0  0  0  0  0  0  0  0  0  0
    2.8334    0.1536    0.0000 C   0  0  0  0  0  0  0  0  0  0  0  0
    2.8425   -1.3463    0.0000 O   0  0  0  0  0  0  0  0  0  0  0  0
    4.1278    0.9116    0.0000 O   0  0  0  0  0  0  0  0  0  0  0  0
  2  1  1  6
  2  3  1  0
  3  4  1  0
  4  5  1  0
  4  6  1  0
  4  7  1  0
  2  8  1  0
  8  9  1  0
  9 10  2  0
  9 11  1  0
M  END
>  <rName>  (4279) 
bLeu_R_Me

>  <PQ_SYMBOL>  (4279) 
bLeu_R_Me

>  <FULL_NAME>  (4279) 
(3R)-3-amino-5,5-dimethylhexanoic acid

>  <IUPAC_CONDENSED>  (4279) 
bLeu(R,Me)

>  <IUPAC>  (4279) 
(3R)-3-amino-5,5-dimethylhexanoic acid

>  <TYPE>  (4279) 
Backbone

>  <CLASS>  (4279) 
beta

>  <ANALOG>  (4279) 
Leu

>  <MOL_WT>  (4279) 
159.22899999999998

>  <LOGP>  (4279) 
1.2245999999999997

>  <TPSA>  (4279) 
63.32000000000001

>  <POPULARITY>  (4279) 
2.2

>  <PROTECTED>  (4279) 
TRUE

>  <SMILES>  (4279) 
N[C@H](CC(C)(C)C)CC(=O)O

>  <INCHIKEY>  (4279) 
ZBCPPTZVOXHDMT-LURJTMIESA-N

$$$$
bLeu_S
     RDKit          2D

  9  8  0  0  0  0  0  0  0  0999 V2000
   -0.2826    1.7410    0.0000 N   0  0  0  0  0  0  0  0  0  0  0  0
   -0.5402    0.2633    0.0000 C   0  0  0  0  0  0  0  0  0  0  0  0
   -1.9487   -0.2525    0.0000 C   0  0  0  0  0  0  0  0  0  0  0  0
   -3.0997    0.7094    0.0000 C   0  0  0  0  0  0  0  0  0  0  0  0
   -2.2062   -1.7302    0.0000 C   0  0  0  0  0  0  0  0  0  0  0  0
    0.6108   -0.6986    0.0000 C   0  0  0  0  0  0  0  0  0  0  0  0
    2.0193   -0.1828    0.0000 C   0  0  0  0  0  0  0  0  0  0  0  0
    2.2769    1.2950    0.0000 O   0  0  0  0  0  0  0  0  0  0  0  0
    3.1703   -1.1447    0.0000 O   0  0  0  0  0  0  0  0  0  0  0  0
  2  1  1  1
  2  3  1  0
  3  4  1  0
  3  5  1  0
  2  6  1  0
  6  7  1  0
  7  8  2  0
  7  9  1  0
M  END
>  <rName>  (4280) 
bLeu_S

>  <PQ_SYMBOL>  (4280) 
bLeu_S

>  <FULL_NAME>  (4280) 
D-Beta-Leucine, D-Beta-Homo-Valine

>  <IUPAC_CONDENSED>  (4280) 
bLeu(S)

>  <IUPAC>  (4280) 
(3S)-3-amino-4-methylpentanoic acid

>  <TYPE>  (4280) 
Backbone

>  <CLASS>  (4280) 
beta

>  <ANALOG>  (4280) 
Val

>  <MOL_WT>  (4280) 
131.175

>  <LOGP>  (4280) 
0.44439999999999985

>  <TPSA>  (4280) 
63.32000000000001

>  <POPULARITY>  (4280) 
15.5

>  <PROTECTED>  (4280) 
TRUE

>  <SMILES>  (4280) 
N[C@H](C(C)C)CC(=O)O

>  <INCHIKEY>  (4280) 
GLUJNGJDHCTUJY-YFKPBYRVSA-N

$$$$
bLeu_b_bdiMe
     RDKit          2D

 11 10  0  0  0  0  0  0  0  0999 V2000
   -1.2063    2.1026    0.0000 N   0  0  0  0  0  0  0  0  0  0  0  0
   -0.8727    0.6402    0.0000 C   0  0  0  0  0  0  0  0  0  0  0  0
   -1.9725   -0.3799    0.0000 C   0  0  0  0  0  0  0  0  0  0  0  0
   -3.4058    0.0625    0.0000 C   0  0  0  0  0  0  0  0  0  0  0  0
   -1.6390   -1.8424    0.0000 C   0  0  0  0  0  0  0  0  0  0  0  0
    0.5605    0.1978    0.0000 C   0  0  0  0  0  0  0  0  0  0  0  0
    0.1181   -1.2355    0.0000 C   0  0  0  0  0  0  0  0  0  0  0  0
    1.0029    1.6310    0.0000 C   0  0  0  0  0  0  0  0  0  0  0  0
    1.9938   -0.2446    0.0000 C   0  0  0  0  0  0  0  0  0  0  0  0
    3.0936    0.7754    0.0000 O   0  0  0  0  0  0  0  0  0  0  0  0
    2.3273   -1.7071    0.0000 O   0  0  0  0  0  0  0  0  0  0  0  0
  1  2  1  0
  2  3  1  0
  3  4  1  0
  3  5  1  0
  2  6  1  0
  6  7  1  0
  6  8  1  0
  6  9  1  0
  9 10  2  0
  9 11  1  0
M  END
>  <rName>  (4281) 
bLeu_b_bdiMe

>  <PQ_SYMBOL>  (4281) 
bLeu_b_bdiMe

>  <FULL_NAME>  (4281) 
3-Amino-2,2,4-trimethylpentanoic acid

>  <IUPAC_CONDENSED>  (4281) 
bLeu(b,b-diMe)

>  <IUPAC>  (4281) 
3-amino-2,2,4-trimethylpentanoic acid

>  <TYPE>  (4281) 
Backbone

>  <CLASS>  (4281) 
beta

>  <ANALOG>  (4281) 
Val

>  <MOL_WT>  (4281) 
159.22899999999998

>  <LOGP>  (4281) 
1.0804999999999998

>  <TPSA>  (4281) 
63.32000000000001

>  <POPULARITY>  (4281) 
8.3

>  <PROTECTED>  (4281) 
TRUE

>  <SMILES>  (4281) 
NC(C(C)C)C(C)(C)C(=O)O

>  <INCHIKEY>  (4281) 
UQUZZTXRNBZFPZ-UHFFFAOYSA-N

$$$$
bLys_R
     RDKit          2D

 10  9  0  0  0  0  0  0  0  0999 V2000
    0.3386   -1.4842    0.0000 N   0  0  0  0  0  0  0  0  0  0  0  0
    0.2594    0.0137    0.0000 C   0  0  0  0  0  0  0  0  0  0  0  0
   -1.0773    0.6941    0.0000 C   0  0  0  0  0  0  0  0  0  0  0  0
   -2.3350   -0.1233    0.0000 C   0  0  0  0  0  0  0  0  0  0  0  0
   -3.6718    0.5571    0.0000 C   0  0  0  0  0  0  0  0  0  0  0  0
   -4.9295   -0.2604    0.0000 N   0  0  0  0  0  0  0  0  0  0  0  0
    1.5171    0.8312    0.0000 C   0  0  0  0  0  0  0  0  0  0  0  0
    2.8539    0.1507    0.0000 C   0  0  0  0  0  0  0  0  0  0  0  0
    2.9330   -1.3472    0.0000 O   0  0  0  0  0  0  0  0  0  0  0  0
    4.1116    0.9682    0.0000 O   0  0  0  0  0  0  0  0  0  0  0  0
  2  1  1  6
  2  3  1  0
  3  4  1  0
  4  5  1  0
  5  6  1  0
  2  7  1  0
  7  8  1  0
  8  9  2  0
  8 10  1  0
M  END
>  <rName>  (4282) 
bLys_R

>  <PQ_SYMBOL>  (4282) 
bLys_R

>  <FULL_NAME>  (4282) 
(R)-3,6-diaminohexanoic acid

>  <IUPAC_CONDENSED>  (4282) 
bLys(R)

>  <IUPAC>  (4282) 
(3R)-3,6-diaminohexanoic acid

>  <TYPE>  (4282) 
Backbone

>  <CLASS>  (4282) 
beta

>  <ANALOG>  (4282) 
Lys

>  <MOL_WT>  (4282) 
146.19000000000003

>  <LOGP>  (4282) 
-0.4727000000000004

>  <TPSA>  (4282) 
89.34

>  <POPULARITY>  (4282) 
13.1

>  <PROTECTED>  (4282) 
TRUE

>  <SMILES>  (4282) 
N[C@H](CCCN)CC(=O)O

>  <INCHIKEY>  (4282) 
QKEWQOJCHPFEAF-RXMQYKEDSA-N

$$$$
bLys_S
     RDKit          2D

 10  9  0  0  0  0  0  0  0  0999 V2000
    0.3386   -1.4842    0.0000 N   0  0  0  0  0  0  0  0  0  0  0  0
    0.2594    0.0137    0.0000 C   0  0  0  0  0  0  0  0  0  0  0  0
   -1.0773    0.6941    0.0000 C   0  0  0  0  0  0  0  0  0  0  0  0
   -2.3350   -0.1233    0.0000 C   0  0  0  0  0  0  0  0  0  0  0  0
   -3.6718    0.5571    0.0000 C   0  0  0  0  0  0  0  0  0  0  0  0
   -4.9295   -0.2604    0.0000 N   0  0  0  0  0  0  0  0  0  0  0  0
    1.5171    0.8312    0.0000 C   0  0  0  0  0  0  0  0  0  0  0  0
    2.8539    0.1507    0.0000 C   0  0  0  0  0  0  0  0  0  0  0  0
    2.9330   -1.3472    0.0000 O   0  0  0  0  0  0  0  0  0  0  0  0
    4.1116    0.9682    0.0000 O   0  0  0  0  0  0  0  0  0  0  0  0
  2  1  1  1
  2  3  1  0
  3  4  1  0
  4  5  1  0
  5  6  1  0
  2  7  1  0
  7  8  1  0
  8  9  2  0
  8 10  1  0
M  END
>  <rName>  (4283) 
bLys_S

>  <PQ_SYMBOL>  (4283) 
bLys_S

>  <FULL_NAME>  (4283) 
beta-lysine

>  <IUPAC_CONDENSED>  (4283) 
bLys(S)

>  <IUPAC>  (4283) 
(3S)-3,6-diaminohexanoic acid

>  <TYPE>  (4283) 
Backbone

>  <CLASS>  (4283) 
beta

>  <ANALOG>  (4283) 
Lys

>  <MOL_WT>  (4283) 
146.19000000000003

>  <LOGP>  (4283) 
-0.4727000000000004

>  <TPSA>  (4283) 
89.34

>  <POPULARITY>  (4283) 
26.4

>  <PROTECTED>  (4283) 
TRUE

>  <SMILES>  (4283) 
N[C@@H](CCCN)CC(=O)O

>  <INCHIKEY>  (4283) 
QKEWQOJCHPFEAF-YFKPBYRVSA-N

$$$$
bPhe
     RDKit          2D

 12 12  0  0  0  0  0  0  0  0999 V2000
   -1.0786   -1.8814    0.0000 N   0  0  0  0  0  0  0  0  0  0  0  0
   -0.6074   -0.4573    0.0000 C   0  0  0  0  0  0  0  0  0  0  0  0
    0.8615   -0.1534    0.0000 C   0  0  0  0  0  0  0  0  0  0  0  0
    1.3327    1.2707    0.0000 C   0  0  0  0  0  0  0  0  0  0  0  0
    2.8016    1.5746    0.0000 C   0  0  0  0  0  0  0  0  0  0  0  0
    3.7992    0.4545    0.0000 C   0  0  0  0  0  0  0  0  0  0  0  0
    3.3280   -0.9696    0.0000 C   0  0  0  0  0  0  0  0  0  0  0  0
    1.8591   -1.2735    0.0000 C   0  0  0  0  0  0  0  0  0  0  0  0
   -1.6051    0.6628    0.0000 C   0  0  0  0  0  0  0  0  0  0  0  0
   -3.0740    0.3588    0.0000 C   0  0  0  0  0  0  0  0  0  0  0  0
   -3.5452   -1.0652    0.0000 O   0  0  0  0  0  0  0  0  0  0  0  0
   -4.0716    1.4790    0.0000 O   0  0  0  0  0  0  0  0  0  0  0  0
  1  2  1  0
  2  3  1  0
  3  4  2  0
  4  5  1  0
  5  6  2  0
  6  7  1  0
  7  8  2  0
  2  9  1  0
  9 10  1  0
 10 11  2  0
 10 12  1  0
  8  3  1  0
M  END
>  <rName>  (4284) 
bPhe

>  <PQ_SYMBOL>  (4284) 
bPhe

>  <FULL_NAME>  (4284) 
(3S)-3-amino-3-phenylpropanoic acid

>  <IUPAC_CONDENSED>  (4284) 
bPhe

>  <IUPAC>  (4284) 
3-amino-3-phenylpropanoic acid

>  <TYPE>  (4284) 
Backbone

>  <CLASS>  (4284) 
beta

>  <ANALOG>  (4284) 
X

>  <MOL_WT>  (4284) 
165.19199999999998

>  <LOGP>  (4284) 
1.1611

>  <TPSA>  (4284) 
63.32000000000001

>  <POPULARITY>  (4284) 
25.5

>  <PROTECTED>  (4284) 
TRUE

>  <SMILES>  (4284) 
NC(c1(ccccc1))CC(=O)O

>  <INCHIKEY>  (4284) 
UJOYFRCOTPUKAK-UHFFFAOYSA-N

$$$$
bPhe_R
     RDKit          2D

 12 12  0  0  0  0  0  0  0  0999 V2000
   -1.0786   -1.8814    0.0000 N   0  0  0  0  0  0  0  0  0  0  0  0
   -0.6074   -0.4573    0.0000 C   0  0  0  0  0  0  0  0  0  0  0  0
    0.8615   -0.1534    0.0000 C   0  0  0  0  0  0  0  0  0  0  0  0
    1.3327    1.2707    0.0000 C   0  0  0  0  0  0  0  0  0  0  0  0
    2.8016    1.5746    0.0000 C   0  0  0  0  0  0  0  0  0  0  0  0
    3.7992    0.4545    0.0000 C   0  0  0  0  0  0  0  0  0  0  0  0
    3.3280   -0.9696    0.0000 C   0  0  0  0  0  0  0  0  0  0  0  0
    1.8591   -1.2735    0.0000 C   0  0  0  0  0  0  0  0  0  0  0  0
   -1.6051    0.6628    0.0000 C   0  0  0  0  0  0  0  0  0  0  0  0
   -3.0740    0.3588    0.0000 C   0  0  0  0  0  0  0  0  0  0  0  0
   -3.5452   -1.0652    0.0000 O   0  0  0  0  0  0  0  0  0  0  0  0
   -4.0716    1.4790    0.0000 O   0  0  0  0  0  0  0  0  0  0  0  0
  2  1  1  6
  2  3  1  0
  3  4  2  0
  4  5  1  0
  5  6  2  0
  6  7  1  0
  7  8  2  0
  2  9  1  0
  9 10  1  0
 10 11  2  0
 10 12  1  0
  8  3  1  0
M  END
>  <rName>  (4285) 
bPhe_R

>  <PQ_SYMBOL>  (4285) 
bPhe_R

>  <FULL_NAME>  (4285) 
(R)-3-amino-3-phenylpropanoic acid

>  <IUPAC_CONDENSED>  (4285) 
bPhe(R)

>  <IUPAC>  (4285) 
(3R)-3-amino-3-phenylpropanoic acid

>  <TYPE>  (4285) 
Backbone

>  <CLASS>  (4285) 
beta

>  <ANALOG>  (4285) 
X

>  <MOL_WT>  (4285) 
165.19199999999998

>  <LOGP>  (4285) 
1.1611

>  <TPSA>  (4285) 
63.32000000000001

>  <POPULARITY>  (4285) 
14.7

>  <PROTECTED>  (4285) 
TRUE

>  <SMILES>  (4285) 
N[C@@H](c1(ccccc1))CC(=O)O

>  <INCHIKEY>  (4285) 
UJOYFRCOTPUKAK-MRVPVSSYSA-N

$$$$
bPhe_S
     RDKit          2D

 12 12  0  0  0  0  0  0  0  0999 V2000
   -1.0786   -1.8814    0.0000 N   0  0  0  0  0  0  0  0  0  0  0  0
   -0.6074   -0.4573    0.0000 C   0  0  0  0  0  0  0  0  0  0  0  0
    0.8615   -0.1534    0.0000 C   0  0  0  0  0  0  0  0  0  0  0  0
    1.3327    1.2707    0.0000 C   0  0  0  0  0  0  0  0  0  0  0  0
    2.8016    1.5746    0.0000 C   0  0  0  0  0  0  0  0  0  0  0  0
    3.7992    0.4545    0.0000 C   0  0  0  0  0  0  0  0  0  0  0  0
    3.3280   -0.9696    0.0000 C   0  0  0  0  0  0  0  0  0  0  0  0
    1.8591   -1.2735    0.0000 C   0  0  0  0  0  0  0  0  0  0  0  0
   -1.6051    0.6628    0.0000 C   0  0  0  0  0  0  0  0  0  0  0  0
   -3.0740    0.3588    0.0000 C   0  0  0  0  0  0  0  0  0  0  0  0
   -3.5452   -1.0652    0.0000 O   0  0  0  0  0  0  0  0  0  0  0  0
   -4.0716    1.4790    0.0000 O   0  0  0  0  0  0  0  0  0  0  0  0
  2  1  1  1
  2  3  1  0
  3  4  2  0
  4  5  1  0
  5  6  2  0
  6  7  1  0
  7  8  2  0
  2  9  1  0
  9 10  1  0
 10 11  2  0
 10 12  1  0
  8  3  1  0
M  END
>  <rName>  (4286) 
bPhe_S

>  <PQ_SYMBOL>  (4286) 
bPhe_S

>  <FULL_NAME>  (4286) 
(S)-3-amino-3-phenylpropanoic acid

>  <IUPAC_CONDENSED>  (4286) 
bPhe(S)

>  <IUPAC>  (4286) 
(3S)-3-amino-3-phenylpropanoic acid

>  <TYPE>  (4286) 
Backbone

>  <CLASS>  (4286) 
beta

>  <ANALOG>  (4286) 
X

>  <MOL_WT>  (4286) 
165.19199999999998

>  <LOGP>  (4286) 
1.1611

>  <TPSA>  (4286) 
63.32000000000001

>  <POPULARITY>  (4286) 
13.8

>  <PROTECTED>  (4286) 
TRUE

>  <SMILES>  (4286) 
N[C@H](c1(ccccc1))CC(=O)O

>  <INCHIKEY>  (4286) 
UJOYFRCOTPUKAK-QMMMGPOBSA-N

$$$$
bPro
     RDKit          2D

  8  8  0  0  0  0  0  0  0  0999 V2000
   -2.2608   -0.7500    0.0000 N   0  0  0  0  0  0  0  0  0  0  0  0
   -0.8342   -1.2135    0.0000 C   0  0  0  0  0  0  0  0  0  0  0  0
    0.0475    0.0000    0.0000 C   0  0  0  0  0  0  0  0  0  0  0  0
   -0.8342    1.2135    0.0000 C   0  0  0  0  0  0  0  0  0  0  0  0
   -2.2608    0.7500    0.0000 C   0  0  0  0  0  0  0  0  0  0  0  0
    1.5475    0.0000    0.0000 C   0  0  0  0  0  0  0  0  0  0  0  0
    2.2975    1.2990    0.0000 O   0  0  0  0  0  0  0  0  0  0  0  0
    2.2975   -1.2990    0.0000 O   0  0  0  0  0  0  0  0  0  0  0  0
  1  2  1  0
  2  3  1  0
  3  4  1  0
  4  5  1  0
  3  6  1  0
  6  7  2  0
  6  8  1  0
  5  1  1  0
M  END
>  <rName>  (4287) 
bPro

>  <PQ_SYMBOL>  (4287) 
bPro

>  <FULL_NAME>  (4287) 
pyrrolidine-3-carboxylic acid

>  <IUPAC_CONDENSED>  (4287) 
bPro

>  <IUPAC>  (4287) 
pyrrolidine-3-carboxylic acid

>  <TYPE>  (4287) 
Backbone

>  <CLASS>  (4287) 
beta

>  <ANALOG>  (4287) 
Pro

>  <MOL_WT>  (4287) 
115.13199999999999

>  <LOGP>  (4287) 
-0.31949999999999995

>  <TPSA>  (4287) 
49.33

>  <POPULARITY>  (4287) 
15.3

>  <PROTECTED>  (4287) 
TRUE

>  <SMILES>  (4287) 
N1CC(CC1)C(=O)O

>  <INCHIKEY>  (4287) 
JAEIBKXSIXOLOL-UHFFFAOYSA-N

$$$$
bPro_3Bn
     RDKit          2D

 15 16  0  0  0  0  0  0  0  0999 V2000
   -2.3509   -2.2347    0.0000 N   0  0  0  0  0  0  0  0  0  0  0  0
   -2.6747   -0.7701    0.0000 C   0  0  0  0  0  0  0  0  0  0  0  0
   -1.3819   -0.0095    0.0000 C   0  0  0  0  0  0  0  0  0  0  0  0
   -0.2590   -1.0040    0.0000 C   0  0  0  0  0  0  0  0  0  0  0  0
   -0.8578   -2.3793    0.0000 C   0  0  0  0  0  0  0  0  0  0  0  0
   -0.2754    1.0033    0.0000 C   0  0  0  0  0  0  0  0  0  0  0  0
    1.1549    0.5515    0.0000 C   0  0  0  0  0  0  0  0  0  0  0  0
    2.2614    1.5642    0.0000 C   0  0  0  0  0  0  0  0  0  0  0  0
    3.6917    1.1124    0.0000 C   0  0  0  0  0  0  0  0  0  0  0  0
    4.0156   -0.3522    0.0000 C   0  0  0  0  0  0  0  0  0  0  0  0
    2.9091   -1.3650    0.0000 C   0  0  0  0  0  0  0  0  0  0  0  0
    1.4788   -0.9132    0.0000 C   0  0  0  0  0  0  0  0  0  0  0  0
   -2.2734    1.1968    0.0000 C   0  0  0  0  0  0  0  0  0  0  0  0
   -1.6746    2.5720    0.0000 O   0  0  0  0  0  0  0  0  0  0  0  0
   -3.7639    1.0278    0.0000 O   0  0  0  0  0  0  0  0  0  0  0  0
  1  2  1  0
  2  3  1  0
  3  4  1  0
  4  5  1  0
  3  6  1  0
  6  7  1  0
  7  8  2  0
  8  9  1  0
  9 10  2  0
 10 11  1  0
 11 12  2  0
  3 13  1  0
 13 14  2  0
 13 15  1  0
  5  1  1  0
 12  7  1  0
M  END
>  <rName>  (4288) 
bPro_3Bn

>  <PQ_SYMBOL>  (4288) 
bPro_3Bn

>  <FULL_NAME>  (4288) 
3-Benzylpyrrolidine-3-carboxylic acid

>  <IUPAC_CONDENSED>  (4288) 
bPro(3-Bn)

>  <IUPAC>  (4288) 
3-benzylpyrrolidine-3-carboxylic acid

>  <TYPE>  (4288) 
Backbone

>  <CLASS>  (4288) 
beta

>  <ANALOG>  (4288) 
Pro

>  <MOL_WT>  (4288) 
205.257

>  <LOGP>  (4288) 
1.2934

>  <TPSA>  (4288) 
49.33

>  <POPULARITY>  (4288) 
7.1

>  <PROTECTED>  (4288) 
TRUE

>  <SMILES>  (4288) 
N1CC(CC1)(Cc2(ccccc2))C(=O)O

>  <INCHIKEY>  (4288) 
FMKXTSWVXJUTBQ-UHFFFAOYSA-N

$$$$
bPro_3Bn_3Br
     RDKit          2D

 16 17  0  0  0  0  0  0  0  0999 V2000
   -2.2293   -2.4046    0.0000 N   0  0  0  0  0  0  0  0  0  0  0  0
   -2.7611   -1.0021    0.0000 C   0  0  0  0  0  0  0  0  0  0  0  0
   -1.5915   -0.0629    0.0000 C   0  0  0  0  0  0  0  0  0  0  0  0
   -0.3369   -0.8850    0.0000 C   0  0  0  0  0  0  0  0  0  0  0  0
   -0.7311   -2.3323    0.0000 C   0  0  0  0  0  0  0  0  0  0  0  0
   -0.6427    1.0989    0.0000 C   0  0  0  0  0  0  0  0  0  0  0  0
    0.8378    0.8582    0.0000 C   0  0  0  0  0  0  0  0  0  0  0  0
    1.7866    2.0200    0.0000 C   0  0  0  0  0  0  0  0  0  0  0  0
    3.2672    1.7792    0.0000 C   0  0  0  0  0  0  0  0  0  0  0  0
    3.7989    0.3766    0.0000 C   0  0  0  0  0  0  0  0  0  0  0  0
    2.8502   -0.7852    0.0000 C   0  0  0  0  0  0  0  0  0  0  0  0
    3.3819   -2.1878    0.0000 Br  0  0  0  0  0  0  0  0  0  0  0  0
    1.3696   -0.5444    0.0000 C   0  0  0  0  0  0  0  0  0  0  0  0
   -2.6478    1.0021    0.0000 C   0  0  0  0  0  0  0  0  0  0  0  0
   -2.2536    2.4494    0.0000 O   0  0  0  0  0  0  0  0  0  0  0  0
   -4.0983    0.6199    0.0000 O   0  0  0  0  0  0  0  0  0  0  0  0
  1  2  1  0
  2  3  1  0
  3  4  1  0
  4  5  1  0
  3  6  1  0
  6  7  1  0
  7  8  2  0
  8  9  1  0
  9 10  2  0
 10 11  1  0
 11 12  1  0
 11 13  2  0
  3 14  1  0
 14 15  2  0
 14 16  1  0
  5  1  1  0
 13  7  1  0
M  END
>  <rName>  (4289) 
bPro_3Bn_3Br

>  <PQ_SYMBOL>  (4289) 
bPro_3Bn_3Br

>  <FULL_NAME>  (4289) 
3-[(3-Bromophenyl)methyl]pyrrolidine-3-carboxylic acid

>  <IUPAC_CONDENSED>  (4289) 
bPro(3-Bn(3-Br))

>  <IUPAC>  (4289) 
3-((3-bromophenyl)methyl)pyrrolidine-3-carboxylic acid

>  <TYPE>  (4289) 
Backbone

>  <CLASS>  (4289) 
beta

>  <ANALOG>  (4289) 
Pro

>  <MOL_WT>  (4289) 
284.153

>  <LOGP>  (4289) 
2.0559000000000003

>  <TPSA>  (4289) 
49.33

>  <POPULARITY>  (4289) 
2.8

>  <PROTECTED>  (4289) 
TRUE

>  <SMILES>  (4289) 
N1CC(CC1)(Cc2(cccc(Br)c2))C(=O)O

>  <INCHIKEY>  (4289) 
SUXMIIRWISVRRJ-UHFFFAOYSA-N

$$$$
bPro_3CF3
     RDKit          2D

 12 12  0  0  0  0  0  0  0  0999 V2000
   -2.5278   -0.9166    0.0000 N   0  0  0  0  0  0  0  0  0  0  0  0
   -1.0627   -1.2381    0.0000 C   0  0  0  0  0  0  0  0  0  0  0  0
   -0.3042    0.0560    0.0000 C   0  0  0  0  0  0  0  0  0  0  0  0
   -1.3005    1.1773    0.0000 C   0  0  0  0  0  0  0  0  0  0  0  0
   -2.6748    0.5762    0.0000 C   0  0  0  0  0  0  0  0  0  0  0  0
    0.9036   -0.8336    0.0000 C   0  0  0  0  0  0  0  0  0  0  0  0
    2.1113   -1.7232    0.0000 F   0  0  0  0  0  0  0  0  0  0  0  0
    1.8307    0.1476    0.0000 F   0  0  0  0  0  0  0  0  0  0  0  0
    0.0139   -2.0413    0.0000 F   0  0  0  0  0  0  0  0  0  0  0  0
    0.7068    1.1641    0.0000 C   0  0  0  0  0  0  0  0  0  0  0  0
    2.0509    1.0377    0.0000 O   0  0  0  0  0  0  0  0  0  0  0  0
    0.2527    2.5937    0.0000 O   0  0  0  0  0  0  0  0  0  0  0  0
  1  2  1  0
  2  3  1  0
  3  4  1  0
  4  5  1  0
  3  6  1  0
  6  7  1  0
  6  8  1  0
  6  9  1  0
  3 10  1  0
 10 11  2  0
 10 12  1  0
  5  1  1  0
M  END
>  <rName>  (4290) 
bPro_3CF3

>  <PQ_SYMBOL>  (4290) 
bPro_3CF3

>  <FULL_NAME>  (4290) 
3-(Trifluoromethyl)pyrrolidine-3-carboxylic acid

>  <IUPAC_CONDENSED>  (4290) 
bPro(3-CF3)

>  <IUPAC>  (4290) 
3-(trifluoromethyl)pyrrolidine-3-carboxylic acid

>  <TYPE>  (4290) 
Backbone

>  <CLASS>  (4290) 
beta

>  <ANALOG>  (4290) 
Pro

>  <MOL_WT>  (4290) 
183.129

>  <LOGP>  (4290) 
0.613

>  <TPSA>  (4290) 
49.33

>  <POPULARITY>  (4290) 
4.9

>  <PROTECTED>  (4290) 
TRUE

>  <SMILES>  (4290) 
N1CC(CC1)(C(F)(F)F)C(=O)O

>  <INCHIKEY>  (4290) 
VEUBBZBEISLEIY-UHFFFAOYSA-N

$$$$
bPro_3CH2F
     RDKit          2D

 10 10  0  0  0  0  0  0  0  0999 V2000
   -2.4430   -0.0674    0.0000 N   0  0  0  0  0  0  0  0  0  0  0  0
   -1.2238   -0.9412    0.0000 C   0  0  0  0  0  0  0  0  0  0  0  0
   -0.0160   -0.0516    0.0000 C   0  0  0  0  0  0  0  0  0  0  0  0
    0.7424   -1.3457    0.0000 C   0  0  0  0  0  0  0  0  0  0  0  0
    0.0009   -2.6496    0.0000 F   0  0  0  0  0  0  0  0  0  0  0  0
   -0.4888    1.3719    0.0000 C   0  0  0  0  0  0  0  0  0  0  0  0
   -1.9888    1.3622    0.0000 C   0  0  0  0  0  0  0  0  0  0  0  0
    1.3503    0.5674    0.0000 C   0  0  0  0  0  0  0  0  0  0  0  0
    1.4973    2.0602    0.0000 O   0  0  0  0  0  0  0  0  0  0  0  0
    2.5695   -0.3063    0.0000 O   0  0  0  0  0  0  0  0  0  0  0  0
  1  2  1  0
  2  3  1  0
  3  4  1  0
  4  5  1  0
  3  6  1  0
  6  7  1  0
  3  8  1  0
  8  9  2  0
  8 10  1  0
  7  1  1  0
M  END
>  <rName>  (4291) 
bPro_3CH2F

>  <PQ_SYMBOL>  (4291) 
bPro_3CH2F

>  <FULL_NAME>  (4291) 
3-(Fluoromethyl)pyrrolidine-3-carboxylic acid

>  <IUPAC_CONDENSED>  (4291) 
bPro(3-CH2F)

>  <IUPAC>  (4291) 
3-(fluoromethyl)pyrrolidine-3-carboxylic acid

>  <TYPE>  (4291) 
Backbone

>  <CLASS>  (4291) 
beta

>  <ANALOG>  (4291) 
Pro

>  <MOL_WT>  (4291) 
147.149

>  <LOGP>  (4291) 
0.02019999999999994

>  <TPSA>  (4291) 
49.33

>  <POPULARITY>  (4291) 
4.9

>  <PROTECTED>  (4291) 
TRUE

>  <SMILES>  (4291) 
N1CC(CF)(CC1)C(=O)O

>  <INCHIKEY>  (4291) 
KBRVKMHENNBCIY-UHFFFAOYSA-N

$$$$
bPro_3CHF2
     RDKit          2D

 11 11  0  0  0  0  0  0  0  0999 V2000
   -2.5390   -0.7500    0.0000 N   0  0  0  0  0  0  0  0  0  0  0  0
   -1.1124   -1.2135    0.0000 C   0  0  0  0  0  0  0  0  0  0  0  0
   -0.2307   -0.0000    0.0000 C   0  0  0  0  0  0  0  0  0  0  0  0
   -1.1124    1.2135    0.0000 C   0  0  0  0  0  0  0  0  0  0  0  0
   -2.5390    0.7500    0.0000 C   0  0  0  0  0  0  0  0  0  0  0  0
    0.8840   -1.0037    0.0000 C   0  0  0  0  0  0  0  0  0  0  0  0
    0.5721   -2.4709    0.0000 F   0  0  0  0  0  0  0  0  0  0  0  0
    2.3106   -0.5402    0.0000 F   0  0  0  0  0  0  0  0  0  0  0  0
    0.8840    1.0037    0.0000 C   0  0  0  0  0  0  0  0  0  0  0  0
    0.5721    2.4709    0.0000 O   0  0  0  0  0  0  0  0  0  0  0  0
    2.3106    0.5402    0.0000 O   0  0  0  0  0  0  0  0  0  0  0  0
  1  2  1  0
  2  3  1  0
  3  4  1  0
  4  5  1  0
  3  6  1  0
  6  7  1  0
  6  8  1  0
  3  9  1  0
  9 10  2  0
  9 11  1  0
  5  1  1  0
M  END
>  <rName>  (4292) 
bPro_3CHF2

>  <PQ_SYMBOL>  (4292) 
bPro_3CHF2

>  <FULL_NAME>  (4292) 
3-(Difluoromethyl)pyrrolidine-3-carboxylic acid

>  <IUPAC_CONDENSED>  (4292) 
bPro(3-CHF2)

>  <IUPAC>  (4292) 
3-(difluoromethyl)pyrrolidine-3-carboxylic acid

>  <TYPE>  (4292) 
Backbone

>  <CLASS>  (4292) 
beta

>  <ANALOG>  (4292) 
Pro

>  <MOL_WT>  (4292) 
165.139

>  <LOGP>  (4292) 
0.3158

>  <TPSA>  (4292) 
49.33

>  <POPULARITY>  (4292) 
4.9

>  <PROTECTED>  (4292) 
TRUE

>  <SMILES>  (4292) 
N1CC(CC1)(C(F)F)C(=O)O

>  <INCHIKEY>  (4292) 
IDWOXIDTJICYMU-UHFFFAOYSA-N

$$$$
bPro_3CN
     RDKit          2D

 10 10  0  0  0  0  0  0  0  0999 V2000
   -2.5113   -0.3472    0.0000 N   0  0  0  0  0  0  0  0  0  0  0  0
   -1.1516   -0.9805    0.0000 C   0  0  0  0  0  0  0  0  0  0  0  0
   -0.1291    0.1169    0.0000 C   0  0  0  0  0  0  0  0  0  0  0  0
    1.0993    0.9778    0.0000 C   0  0  0  0  0  0  0  0  0  0  0  0
    2.3277    1.8386    0.0000 N   0  0  0  0  0  0  0  0  0  0  0  0
   -0.8568    1.4285    0.0000 C   0  0  0  0  0  0  0  0  0  0  0  0
   -2.3291    1.1417    0.0000 C   0  0  0  0  0  0  0  0  0  0  0  0
    0.8555   -1.0148    0.0000 C   0  0  0  0  0  0  0  0  0  0  0  0
    2.3278   -0.7279    0.0000 O   0  0  0  0  0  0  0  0  0  0  0  0
    0.3677   -2.4332    0.0000 O   0  0  0  0  0  0  0  0  0  0  0  0
  1  2  1  0
  2  3  1  0
  3  4  1  0
  4  5  3  0
  3  6  1  0
  6  7  1  0
  3  8  1  0
  8  9  2  0
  8 10  1  0
  7  1  1  0
M  END
>  <rName>  (4293) 
bPro_3CN

>  <PQ_SYMBOL>  (4293) 
bPro_3CN

>  <FULL_NAME>  (4293) 
3-Cyanopyrrolidine-3-carboxylic acid

>  <IUPAC_CONDENSED>  (4293) 
bPro(3-CN)

>  <IUPAC>  (4293) 
3-cyanopyrrolidine-3-carboxylic acid

>  <TYPE>  (4293) 
Backbone

>  <CLASS>  (4293) 
beta

>  <ANALOG>  (4293) 
Pro

>  <MOL_WT>  (4293) 
140.142

>  <LOGP>  (4293) 
-0.42572000000000015

>  <TPSA>  (4293) 
73.12

>  <POPULARITY>  (4293) 
6.0

>  <PROTECTED>  (4293) 
TRUE

>  <SMILES>  (4293) 
N1CC(C#N)(CC1)C(=O)O

>  <INCHIKEY>  (4293) 
DNOCOYAIVTZNLH-UHFFFAOYSA-N

$$$$
bPro_3Et
     RDKit          2D

 10 10  0  0  0  0  0  0  0  0999 V2000
   -2.4212   -0.7414    0.0000 N   0  0  0  0  0  0  0  0  0  0  0  0
   -0.9564   -1.0643    0.0000 C   0  0  0  0  0  0  0  0  0  0  0  0
   -0.1967    0.2291    0.0000 C   0  0  0  0  0  0  0  0  0  0  0  0
    0.8154    1.3362    0.0000 C   0  0  0  0  0  0  0  0  0  0  0  0
    2.2802    1.0134    0.0000 C   0  0  0  0  0  0  0  0  0  0  0  0
   -1.1920    1.3513    0.0000 C   0  0  0  0  0  0  0  0  0  0  0  0
   -2.5668    0.7515    0.0000 C   0  0  0  0  0  0  0  0  0  0  0  0
    1.0102   -0.6617    0.0000 C   0  0  0  0  0  0  0  0  0  0  0  0
    2.3851   -0.0618    0.0000 O   0  0  0  0  0  0  0  0  0  0  0  0
    0.8422   -2.1522    0.0000 O   0  0  0  0  0  0  0  0  0  0  0  0
  1  2  1  0
  2  3  1  0
  3  4  1  0
  4  5  1  0
  3  6  1  0
  6  7  1  0
  3  8  1  0
  8  9  2  0
  8 10  1  0
  7  1  1  0
M  END
>  <rName>  (4294) 
bPro_3Et

>  <PQ_SYMBOL>  (4294) 
bPro_3Et

>  <FULL_NAME>  (4294) 
3-Ethylpyrrolidine-3-carboxylic acid

>  <IUPAC_CONDENSED>  (4294) 
bPro(3-Et)

>  <IUPAC>  (4294) 
3-ethylpyrrolidine-3-carboxylic acid

>  <TYPE>  (4294) 
Backbone

>  <CLASS>  (4294) 
beta

>  <ANALOG>  (4294) 
Pro

>  <MOL_WT>  (4294) 
143.186

>  <LOGP>  (4294) 
0.46069999999999983

>  <TPSA>  (4294) 
49.33

>  <POPULARITY>  (4294) 
8.4

>  <PROTECTED>  (4294) 
TRUE

>  <SMILES>  (4294) 
N1CC(CC)(CC1)C(=O)O

>  <INCHIKEY>  (4294) 
XDOVGXXGEKFORU-UHFFFAOYSA-N

$$$$
bPro_3F
     RDKit          2D

  9  9  0  0  0  0  0  0  0  0999 V2000
   -2.4430   -0.3613    0.0000 N   0  0  0  0  0  0  0  0  0  0  0  0
   -1.2239   -1.2353    0.0000 C   0  0  0  0  0  0  0  0  0  0  0  0
   -0.0160   -0.3460    0.0000 C   0  0  0  0  0  0  0  0  0  0  0  0
    0.7422   -1.6403    0.0000 F   0  0  0  0  0  0  0  0  0  0  0  0
   -0.4885    1.0777    0.0000 C   0  0  0  0  0  0  0  0  0  0  0  0
   -1.9885    1.0682    0.0000 C   0  0  0  0  0  0  0  0  0  0  0  0
    1.3504    0.2728    0.0000 C   0  0  0  0  0  0  0  0  0  0  0  0
    1.4978    1.7655    0.0000 O   0  0  0  0  0  0  0  0  0  0  0  0
    2.5695   -0.6013    0.0000 O   0  0  0  0  0  0  0  0  0  0  0  0
  1  2  1  0
  2  3  1  0
  3  4  1  0
  3  5  1  0
  5  6  1  0
  3  7  1  0
  7  8  2  0
  7  9  1  0
  6  1  1  0
M  END
>  <rName>  (4295) 
bPro_3F

>  <PQ_SYMBOL>  (4295) 
bPro_3F

>  <FULL_NAME>  (4295) 
3-Fluoropyrrolidine-3-carboxylic acid

>  <IUPAC_CONDENSED>  (4295) 
bPro(3-F)

>  <IUPAC>  (4295) 
3-fluoropyrrolidine-3-carboxylic acid

>  <TYPE>  (4295) 
Backbone

>  <CLASS>  (4295) 
beta

>  <ANALOG>  (4295) 
Pro

>  <MOL_WT>  (4295) 
133.122

>  <LOGP>  (4295) 
-0.22740000000000032

>  <TPSA>  (4295) 
49.33

>  <POPULARITY>  (4295) 
7.1

>  <PROTECTED>  (4295) 
TRUE

>  <SMILES>  (4295) 
N1CC(F)(CC1)C(=O)O

>  <INCHIKEY>  (4295) 
IETFKCHBHKSILW-UHFFFAOYSA-N

$$$$
bPro_3Me
     RDKit          2D

  9  9  0  0  0  0  0  0  0  0999 V2000
   -1.9885   -1.0682    0.0000 N   0  0  0  0  0  0  0  0  0  0  0  0
   -0.4885   -1.0777    0.0000 C   0  0  0  0  0  0  0  0  0  0  0  0
   -0.0160    0.3460    0.0000 C   0  0  0  0  0  0  0  0  0  0  0  0
    0.7422    1.6403    0.0000 C   0  0  0  0  0  0  0  0  0  0  0  0
   -1.2239    1.2353    0.0000 C   0  0  0  0  0  0  0  0  0  0  0  0
   -2.4430    0.3613    0.0000 C   0  0  0  0  0  0  0  0  0  0  0  0
    1.3504   -0.2728    0.0000 C   0  0  0  0  0  0  0  0  0  0  0  0
    2.5695    0.6013    0.0000 O   0  0  0  0  0  0  0  0  0  0  0  0
    1.4978   -1.7655    0.0000 O   0  0  0  0  0  0  0  0  0  0  0  0
  1  2  1  0
  2  3  1  0
  3  4  1  0
  3  5  1  0
  5  6  1  0
  3  7  1  0
  7  8  2  0
  7  9  1  0
  6  1  1  0
M  END
>  <rName>  (4296) 
bPro_3Me

>  <PQ_SYMBOL>  (4296) 
bPro_3Me

>  <FULL_NAME>  (4296) 
3-Methyl-pyrrolidine-3-carboxylic acid

>  <IUPAC_CONDENSED>  (4296) 
bPro(3-Me)

>  <IUPAC>  (4296) 
3-methylpyrrolidine-3-carboxylic acid

>  <TYPE>  (4296) 
Backbone

>  <CLASS>  (4296) 
beta

>  <ANALOG>  (4296) 
Pro

>  <MOL_WT>  (4296) 
129.159

>  <LOGP>  (4296) 
0.07059999999999994

>  <TPSA>  (4296) 
49.33

>  <POPULARITY>  (4296) 
10.9

>  <PROTECTED>  (4296) 
TRUE

>  <SMILES>  (4296) 
N1CC(C)(CC1)C(=O)O

>  <INCHIKEY>  (4296) 
JXNPHMVNQPDXQI-UHFFFAOYSA-N

$$$$
bPro_3MeOH
     RDKit          2D

 10 10  0  0  0  0  0  0  0  0999 V2000
   -2.4212   -0.7414    0.0000 N   0  0  0  0  0  0  0  0  0  0  0  0
   -0.9564   -1.0643    0.0000 C   0  0  0  0  0  0  0  0  0  0  0  0
   -0.1967    0.2291    0.0000 C   0  0  0  0  0  0  0  0  0  0  0  0
    0.8154    1.3362    0.0000 C   0  0  0  0  0  0  0  0  0  0  0  0
    2.2802    1.0134    0.0000 O   0  0  0  0  0  0  0  0  0  0  0  0
   -1.1920    1.3513    0.0000 C   0  0  0  0  0  0  0  0  0  0  0  0
   -2.5668    0.7515    0.0000 C   0  0  0  0  0  0  0  0  0  0  0  0
    1.0102   -0.6617    0.0000 C   0  0  0  0  0  0  0  0  0  0  0  0
    2.3851   -0.0618    0.0000 O   0  0  0  0  0  0  0  0  0  0  0  0
    0.8422   -2.1522    0.0000 O   0  0  0  0  0  0  0  0  0  0  0  0
  1  2  1  0
  2  3  1  0
  3  4  1  0
  4  5  1  0
  3  6  1  0
  6  7  1  0
  3  8  1  0
  8  9  2  0
  8 10  1  0
  7  1  1  0
M  END
>  <rName>  (4297) 
bPro_3MeOH

>  <PQ_SYMBOL>  (4297) 
bPro_3MeOH

>  <FULL_NAME>  (4297) 
3-(Hydroxymethyl)pyrrolidine-3-carboxylic acid

>  <IUPAC_CONDENSED>  (4297) 
bPro(3-MeOH)

>  <IUPAC>  (4297) 
3-(hydroxymethyl)pyrrolidine-3-carboxylic acid

>  <TYPE>  (4297) 
Backbone

>  <CLASS>  (4297) 
beta

>  <ANALOG>  (4297) 
Pro

>  <MOL_WT>  (4297) 
145.158

>  <LOGP>  (4297) 
-0.9570000000000003

>  <TPSA>  (4297) 
69.56

>  <POPULARITY>  (4297) 
6.5

>  <PROTECTED>  (4297) 
TRUE

>  <SMILES>  (4297) 
N1CC(CO)(CC1)C(=O)O

>  <INCHIKEY>  (4297) 
MBTICTHJXGKWKO-UHFFFAOYSA-N

$$$$
bPro_3OMe
     RDKit          2D

 10 10  0  0  0  0  0  0  0  0999 V2000
   -2.4430   -0.0674    0.0000 N   0  0  0  0  0  0  0  0  0  0  0  0
   -1.2238   -0.9412    0.0000 C   0  0  0  0  0  0  0  0  0  0  0  0
   -0.0160   -0.0516    0.0000 C   0  0  0  0  0  0  0  0  0  0  0  0
    0.7424   -1.3457    0.0000 O   0  0  0  0  0  0  0  0  0  0  0  0
    0.0009   -2.6496    0.0000 C   0  0  0  0  0  0  0  0  0  0  0  0
   -0.4888    1.3719    0.0000 C   0  0  0  0  0  0  0  0  0  0  0  0
   -1.9888    1.3622    0.0000 C   0  0  0  0  0  0  0  0  0  0  0  0
    1.3503    0.5674    0.0000 C   0  0  0  0  0  0  0  0  0  0  0  0
    1.4973    2.0602    0.0000 O   0  0  0  0  0  0  0  0  0  0  0  0
    2.5695   -0.3063    0.0000 O   0  0  0  0  0  0  0  0  0  0  0  0
  1  2  1  0
  2  3  1  0
  3  4  1  0
  4  5  1  0
  3  6  1  0
  6  7  1  0
  3  8  1  0
  8  9  2  0
  8 10  1  0
  7  1  1  0
M  END
>  <rName>  (4298) 
bPro_3OMe

>  <PQ_SYMBOL>  (4298) 
bPro_3OMe

>  <FULL_NAME>  (4298) 
3-Methoxypyrrolidine-3-carboxylic acid

>  <IUPAC_CONDENSED>  (4298) 
bPro(3-OMe)

>  <IUPAC>  (4298) 
3-methoxypyrrolidine-3-carboxylic acid

>  <TYPE>  (4298) 
Backbone

>  <CLASS>  (4298) 
beta

>  <ANALOG>  (4298) 
Pro

>  <MOL_WT>  (4298) 
145.15800000000002

>  <LOGP>  (4298) 
-0.5505000000000002

>  <TPSA>  (4298) 
58.56

>  <POPULARITY>  (4298) 
6.2

>  <PROTECTED>  (4298) 
TRUE

>  <SMILES>  (4298) 
N1CC(OC)(CC1)C(=O)O

>  <INCHIKEY>  (4298) 
HBJJGJFQUKZIPN-UHFFFAOYSA-N

$$$$
bPro_3Ph
     RDKit          2D

 14 15  0  0  0  0  0  0  0  0999 V2000
   -3.3039    0.7819    0.0000 N   0  0  0  0  0  0  0  0  0  0  0  0
   -2.4277   -0.4356    0.0000 C   0  0  0  0  0  0  0  0  0  0  0  0
   -0.9990    0.0215    0.0000 C   0  0  0  0  0  0  0  0  0  0  0  0
   -0.9923    1.5214    0.0000 C   0  0  0  0  0  0  0  0  0  0  0  0
   -2.4167    1.9914    0.0000 C   0  0  0  0  0  0  0  0  0  0  0  0
    0.4935    0.1715    0.0000 C   0  0  0  0  0  0  0  0  0  0  0  0
    1.3697   -1.0460    0.0000 C   0  0  0  0  0  0  0  0  0  0  0  0
    2.8621   -0.8959    0.0000 C   0  0  0  0  0  0  0  0  0  0  0  0
    3.4784    0.4717    0.0000 C   0  0  0  0  0  0  0  0  0  0  0  0
    2.6022    1.6891    0.0000 C   0  0  0  0  0  0  0  0  0  0  0  0
    1.1097    1.5391    0.0000 C   0  0  0  0  0  0  0  0  0  0  0  0
   -0.6938   -1.4472    0.0000 C   0  0  0  0  0  0  0  0  0  0  0  0
    0.7307   -1.9171    0.0000 O   0  0  0  0  0  0  0  0  0  0  0  0
   -1.8130   -2.4458    0.0000 O   0  0  0  0  0  0  0  0  0  0  0  0
  1  2  1  0
  2  3  1  0
  3  4  1  0
  4  5  1  0
  3  6  1  0
  6  7  2  0
  7  8  1  0
  8  9  2  0
  9 10  1  0
 10 11  2  0
  3 12  1  0
 12 13  2  0
 12 14  1  0
  5  1  1  0
 11  6  1  0
M  END
>  <rName>  (4299) 
bPro_3Ph

>  <PQ_SYMBOL>  (4299) 
bPro_3Ph

>  <FULL_NAME>  (4299) 
3-Phenylpyrrolidine-3-carboxylic acid

>  <IUPAC_CONDENSED>  (4299) 
bPro(3-Ph)

>  <IUPAC>  (4299) 
3-phenylpyrrolidine-3-carboxylic acid

>  <TYPE>  (4299) 
Backbone

>  <CLASS>  (4299) 
beta

>  <ANALOG>  (4299) 
Pro

>  <MOL_WT>  (4299) 
191.23

>  <LOGP>  (4299) 
1.0023000000000002

>  <TPSA>  (4299) 
49.33

>  <POPULARITY>  (4299) 
10.0

>  <PROTECTED>  (4299) 
TRUE

>  <SMILES>  (4299) 
N1CC(CC1)(c2(ccccc2))C(=O)O

>  <INCHIKEY>  (4299) 
RFPPVLWOSUDHRI-UHFFFAOYSA-N

$$$$
bPro_3Ph_3Br
     RDKit          2D

 15 16  0  0  0  0  0  0  0  0999 V2000
   -3.2702    1.4209    0.0000 N   0  0  0  0  0  0  0  0  0  0  0  0
   -2.7184    0.0262    0.0000 C   0  0  0  0  0  0  0  0  0  0  0  0
   -1.2213    0.1200    0.0000 C   0  0  0  0  0  0  0  0  0  0  0  0
   -0.8479    1.5728    0.0000 C   0  0  0  0  0  0  0  0  0  0  0  0
   -2.1143    2.3768    0.0000 C   0  0  0  0  0  0  0  0  0  0  0  0
    0.2625   -0.0995    0.0000 C   0  0  0  0  0  0  0  0  0  0  0  0
    0.8144   -1.4943    0.0000 C   0  0  0  0  0  0  0  0  0  0  0  0
    2.2983   -1.7137    0.0000 C   0  0  0  0  0  0  0  0  0  0  0  0
    3.2303   -0.5384    0.0000 C   0  0  0  0  0  0  0  0  0  0  0  0
    2.6784    0.8564    0.0000 C   0  0  0  0  0  0  0  0  0  0  0  0
    3.6104    2.0317    0.0000 Br  0  0  0  0  0  0  0  0  0  0  0  0
    1.1945    1.0758    0.0000 C   0  0  0  0  0  0  0  0  0  0  0  0
   -1.2845   -1.3787    0.0000 C   0  0  0  0  0  0  0  0  0  0  0  0
   -0.0182   -2.1827    0.0000 O   0  0  0  0  0  0  0  0  0  0  0  0
   -2.6139   -2.0733    0.0000 O   0  0  0  0  0  0  0  0  0  0  0  0
  1  2  1  0
  2  3  1  0
  3  4  1  0
  4  5  1  0
  3  6  1  0
  6  7  2  0
  7  8  1  0
  8  9  2  0
  9 10  1  0
 10 11  1  0
 10 12  2  0
  3 13  1  0
 13 14  2  0
 13 15  1  0
  5  1  1  0
 12  6  1  0
M  END
>  <rName>  (4300) 
bPro_3Ph_3Br

>  <PQ_SYMBOL>  (4300) 
bPro_3Ph_3Br

>  <FULL_NAME>  (4300) 
3-(3-Bromophenyl)pyrrolidine-3-carboxylic acid

>  <IUPAC_CONDENSED>  (4300) 
bPro(3-Ph(3-Br))

>  <IUPAC>  (4300) 
3-(3-bromophenyl)pyrrolidine-3-carboxylic acid

>  <TYPE>  (4300) 
Backbone

>  <CLASS>  (4300) 
beta

>  <ANALOG>  (4300) 
Pro

>  <MOL_WT>  (4300) 
270.126

>  <LOGP>  (4300) 
1.7648000000000004

>  <TPSA>  (4300) 
49.33

>  <POPULARITY>  (4300) 
3.6

>  <PROTECTED>  (4300) 
TRUE

>  <SMILES>  (4300) 
N1CC(CC1)(c2(cccc(Br)c2))C(=O)O

>  <INCHIKEY>  (4300) 
GZNIOGJFWGIBNA-UHFFFAOYSA-N

$$$$
bPro_3Ph_4Br
     RDKit          2D

 15 16  0  0  0  0  0  0  0  0999 V2000
   -3.5924    0.9264    0.0000 N   0  0  0  0  0  0  0  0  0  0  0  0
   -2.7800   -0.3345    0.0000 C   0  0  0  0  0  0  0  0  0  0  0  0
   -1.3297    0.0485    0.0000 C   0  0  0  0  0  0  0  0  0  0  0  0
   -1.2458    1.5461    0.0000 C   0  0  0  0  0  0  0  0  0  0  0  0
   -2.6442    2.0887    0.0000 C   0  0  0  0  0  0  0  0  0  0  0  0
    0.1685    0.1216    0.0000 C   0  0  0  0  0  0  0  0  0  0  0  0
    0.9809   -1.1394    0.0000 C   0  0  0  0  0  0  0  0  0  0  0  0
    2.4792   -1.0663    0.0000 C   0  0  0  0  0  0  0  0  0  0  0  0
    3.1650    0.2677    0.0000 C   0  0  0  0  0  0  0  0  0  0  0  0
    4.6632    0.3408    0.0000 Br  0  0  0  0  0  0  0  0  0  0  0  0
    2.3526    1.5287    0.0000 C   0  0  0  0  0  0  0  0  0  0  0  0
    0.8544    1.4556    0.0000 C   0  0  0  0  0  0  0  0  0  0  0  0
   -1.1004   -1.4339    0.0000 C   0  0  0  0  0  0  0  0  0  0  0  0
    0.2980   -1.9765    0.0000 O   0  0  0  0  0  0  0  0  0  0  0  0
   -2.2695   -2.3737    0.0000 O   0  0  0  0  0  0  0  0  0  0  0  0
  1  2  1  0
  2  3  1  0
  3  4  1  0
  4  5  1  0
  3  6  1  0
  6  7  1  0
  7  8  2  0
  8  9  1  0
  9 10  1  0
  9 11  2  0
 11 12  1  0
  3 13  1  0
 13 14  2  0
 13 15  1  0
  5  1  1  0
 12  6  2  0
M  END
>  <rName>  (4301) 
bPro_3Ph_4Br

>  <PQ_SYMBOL>  (4301) 
bPro_3Ph_4Br

>  <FULL_NAME>  (4301) 
3-(4-Bromophenyl)pyrrolidine-3-carboxylic acid

>  <IUPAC_CONDENSED>  (4301) 
bPro(3-Ph(4-Br))

>  <IUPAC>  (4301) 
3-(4-bromophenyl)pyrrolidine-3-carboxylic acid

>  <TYPE>  (4301) 
Backbone

>  <CLASS>  (4301) 
beta

>  <ANALOG>  (4301) 
Pro

>  <MOL_WT>  (4301) 
270.126

>  <LOGP>  (4301) 
1.7648000000000001

>  <TPSA>  (4301) 
49.33

>  <POPULARITY>  (4301) 
3.8

>  <PROTECTED>  (4301) 
TRUE

>  <SMILES>  (4301) 
N1CC(CC1)(c2(ccc(Br)cc2))C(=O)O

>  <INCHIKEY>  (4301) 
DBLRDQARIHEJKM-UHFFFAOYSA-N

$$$$
bPro_3cBu
     RDKit          2D

 12 13  0  0  0  0  0  0  0  0999 V2000
   -2.9205    0.4314    0.0000 N   0  0  0  0  0  0  0  0  0  0  0  0
   -1.8771   -0.6463    0.0000 C   0  0  0  0  0  0  0  0  0  0  0  0
   -0.5298    0.0131    0.0000 C   0  0  0  0  0  0  0  0  0  0  0  0
   -0.7405    1.4982    0.0000 C   0  0  0  0  0  0  0  0  0  0  0  0
   -2.2181    1.7567    0.0000 C   0  0  0  0  0  0  0  0  0  0  0  0
    0.9252    0.3779    0.0000 C   0  0  0  0  0  0  0  0  0  0  0  0
    2.2119   -0.3930    0.0000 C   0  0  0  0  0  0  0  0  0  0  0  0
    2.9828    0.8937    0.0000 C   0  0  0  0  0  0  0  0  0  0  0  0
    1.6960    1.6646    0.0000 C   0  0  0  0  0  0  0  0  0  0  0  0
   -0.0149   -1.3958    0.0000 C   0  0  0  0  0  0  0  0  0  0  0  0
    1.4626   -1.6543    0.0000 O   0  0  0  0  0  0  0  0  0  0  0  0
   -0.9776   -2.5461    0.0000 O   0  0  0  0  0  0  0  0  0  0  0  0
  1  2  1  0
  2  3  1  0
  3  4  1  0
  4  5  1  0
  3  6  1  0
  6  7  1  0
  7  8  1  0
  8  9  1  0
  3 10  1  0
 10 11  2  0
 10 12  1  0
  5  1  1  0
  9  6  1  0
M  END
>  <rName>  (4302) 
bPro_3cBu

>  <PQ_SYMBOL>  (4302) 
bPro_3cBu

>  <FULL_NAME>  (4302) 
3-Cyclobutylpyrrolidine-3-carboxylic acid

>  <IUPAC_CONDENSED>  (4302) 
bPro(3-cBu)

>  <IUPAC>  (4302) 
3-cyclobutylpyrrolidine-3-carboxylic acid

>  <TYPE>  (4302) 
Backbone

>  <CLASS>  (4302) 
beta

>  <ANALOG>  (4302) 
Pro

>  <MOL_WT>  (4302) 
169.224

>  <LOGP>  (4302) 
0.8507999999999998

>  <TPSA>  (4302) 
49.33

>  <POPULARITY>  (4302) 
3.2

>  <PROTECTED>  (4302) 
TRUE

>  <SMILES>  (4302) 
N1CC(CC1)(C2(CCC2))C(=O)O

>  <INCHIKEY>  (4302) 
JTCNDAXCKDXASZ-UHFFFAOYSA-N

$$$$
bPro_3cPent
     RDKit          2D

 13 14  0  0  0  0  0  0  0  0999 V2000
   -3.1042    0.6521    0.0000 N   0  0  0  0  0  0  0  0  0  0  0  0
   -2.1649   -0.5174    0.0000 C   0  0  0  0  0  0  0  0  0  0  0  0
   -0.7624    0.0146    0.0000 C   0  0  0  0  0  0  0  0  0  0  0  0
   -0.8348    1.5128    0.0000 C   0  0  0  0  0  0  0  0  0  0  0  0
   -2.2822    1.9069    0.0000 C   0  0  0  0  0  0  0  0  0  0  0  0
    0.7201    0.2433    0.0000 C   0  0  0  0  0  0  0  0  0  0  0  0
    1.4065    1.5770    0.0000 C   0  0  0  0  0  0  0  0  0  0  0  0
    2.8870    1.3364    0.0000 C   0  0  0  0  0  0  0  0  0  0  0  0
    3.1157   -0.1460    0.0000 C   0  0  0  0  0  0  0  0  0  0  0  0
    1.7765   -0.8216    0.0000 C   0  0  0  0  0  0  0  0  0  0  0  0
   -0.3800   -1.4359    0.0000 C   0  0  0  0  0  0  0  0  0  0  0  0
    1.0674   -1.8299    0.0000 O   0  0  0  0  0  0  0  0  0  0  0  0
   -1.4449   -2.4923    0.0000 O   0  0  0  0  0  0  0  0  0  0  0  0
  1  2  1  0
  2  3  1  0
  3  4  1  0
  4  5  1  0
  3  6  1  0
  6  7  1  0
  7  8  1  0
  8  9  1  0
  9 10  1  0
  3 11  1  0
 11 12  2  0
 11 13  1  0
  5  1  1  0
 10  6  1  0
M  END
>  <rName>  (4303) 
bPro_3cPent

>  <PQ_SYMBOL>  (4303) 
bPro_3cPent

>  <FULL_NAME>  (4303) 
3-Cyclopentylpyrrolidine-3-carboxylic acid

>  <IUPAC_CONDENSED>  (4303) 
bPro(3-cPent)

>  <IUPAC>  (4303) 
3-cyclopentylpyrrolidine-3-carboxylic acid

>  <TYPE>  (4303) 
Backbone

>  <CLASS>  (4303) 
beta

>  <ANALOG>  (4303) 
Pro

>  <MOL_WT>  (4303) 
183.25099999999998

>  <LOGP>  (4303) 
1.2409000000000001

>  <TPSA>  (4303) 
49.33

>  <POPULARITY>  (4303) 
3.8

>  <PROTECTED>  (4303) 
TRUE

>  <SMILES>  (4303) 
N1CC(CC1)(C2(CCCC2))C(=O)O

>  <INCHIKEY>  (4303) 
OQCVHDYDCXKESN-UHFFFAOYSA-N

$$$$
bPro_3cPr
     RDKit          2D

 11 12  0  0  0  0  0  0  0  0999 V2000
   -2.7375    0.0431    0.0000 N   0  0  0  0  0  0  0  0  0  0  0  0
   -1.5280   -0.8441    0.0000 C   0  0  0  0  0  0  0  0  0  0  0  0
   -0.3105    0.0321    0.0000 C   0  0  0  0  0  0  0  0  0  0  0  0
   -0.7675    1.4608    0.0000 C   0  0  0  0  0  0  0  0  0  0  0  0
   -2.2675    1.4676    0.0000 C   0  0  0  0  0  0  0  0  0  0  0  0
    1.0626    0.6360    0.0000 C   0  0  0  0  0  0  0  0  0  0  0  0
    1.9498    1.8455    0.0000 C   0  0  0  0  0  0  0  0  0  0  0  0
    2.5536    0.4724    0.0000 C   0  0  0  0  0  0  0  0  0  0  0  0
    0.4336   -1.2703    0.0000 C   0  0  0  0  0  0  0  0  0  0  0  0
    1.9336   -1.2771    0.0000 O   0  0  0  0  0  0  0  0  0  0  0  0
   -0.3222   -2.5660    0.0000 O   0  0  0  0  0  0  0  0  0  0  0  0
  1  2  1  0
  2  3  1  0
  3  4  1  0
  4  5  1  0
  3  6  1  0
  6  7  1  0
  7  8  1  0
  3  9  1  0
  9 10  2  0
  9 11  1  0
  5  1  1  0
  8  6  1  0
M  END
>  <rName>  (4304) 
bPro_3cPr

>  <PQ_SYMBOL>  (4304) 
bPro_3cPr

>  <FULL_NAME>  (4304) 
3-Cyclopropylpyrrolidine-3-carboxylic acid

>  <IUPAC_CONDENSED>  (4304) 
bPro(3-cPr)

>  <IUPAC>  (4304) 
3-cyclopropylpyrrolidine-3-carboxylic acid

>  <TYPE>  (4304) 
Backbone

>  <CLASS>  (4304) 
beta

>  <ANALOG>  (4304) 
Pro

>  <MOL_WT>  (4304) 
155.197

>  <LOGP>  (4304) 
0.46069999999999983

>  <TPSA>  (4304) 
49.33

>  <POPULARITY>  (4304) 
2.9

>  <PROTECTED>  (4304) 
TRUE

>  <SMILES>  (4304) 
N1CC(CC1)(C2(CC2))C(=O)O

>  <INCHIKEY>  (4304) 
LARLMQBLIFZIIP-UHFFFAOYSA-N

$$$$
bPro_3iPr
     RDKit          2D

 11 11  0  0  0  0  0  0  0  0999 V2000
   -2.5390   -0.7500    0.0000 N   0  0  0  0  0  0  0  0  0  0  0  0
   -1.1124   -1.2135    0.0000 C   0  0  0  0  0  0  0  0  0  0  0  0
   -0.2307   -0.0000    0.0000 C   0  0  0  0  0  0  0  0  0  0  0  0
   -1.1124    1.2135    0.0000 C   0  0  0  0  0  0  0  0  0  0  0  0
   -2.5390    0.7500    0.0000 C   0  0  0  0  0  0  0  0  0  0  0  0
    0.8840    1.0037    0.0000 C   0  0  0  0  0  0  0  0  0  0  0  0
    2.3106    0.5402    0.0000 C   0  0  0  0  0  0  0  0  0  0  0  0
    0.5721    2.4709    0.0000 C   0  0  0  0  0  0  0  0  0  0  0  0
    0.8840   -1.0037    0.0000 C   0  0  0  0  0  0  0  0  0  0  0  0
    2.3106   -0.5402    0.0000 O   0  0  0  0  0  0  0  0  0  0  0  0
    0.5721   -2.4709    0.0000 O   0  0  0  0  0  0  0  0  0  0  0  0
  1  2  1  0
  2  3  1  0
  3  4  1  0
  4  5  1  0
  3  6  1  0
  6  7  1  0
  6  8  1  0
  3  9  1  0
  9 10  2  0
  9 11  1  0
  5  1  1  0
M  END
>  <rName>  (4305) 
bPro_3iPr

>  <PQ_SYMBOL>  (4305) 
bPro_3iPr

>  <FULL_NAME>  (4305) 
3-(Propan-2-yl)pyrrolidine-3-carboxylicacid

>  <IUPAC_CONDENSED>  (4305) 
bPro(3-iPr)

>  <IUPAC>  (4305) 
3-(propan-2-yl)pyrrolidine-3-carboxylic acid

>  <TYPE>  (4305) 
Backbone

>  <CLASS>  (4305) 
beta

>  <ANALOG>  (4305) 
Pro

>  <MOL_WT>  (4305) 
157.213

>  <LOGP>  (4305) 
0.7066999999999999

>  <TPSA>  (4305) 
49.33

>  <POPULARITY>  (4305) 
7.1

>  <PROTECTED>  (4305) 
TRUE

>  <SMILES>  (4305) 
N1CC(CC1)(C(C)C)C(=O)O

>  <INCHIKEY>  (4305) 
HFZIHWZPKFWIBA-UHFFFAOYSA-N

$$$$
bPro_3tBu
     RDKit          2D

 12 12  0  0  0  0  0  0  0  0999 V2000
   -2.6739   -0.6640    0.0000 N   0  0  0  0  0  0  0  0  0  0  0  0
   -1.2790   -1.2158    0.0000 C   0  0  0  0  0  0  0  0  0  0  0  0
   -0.3233   -0.0597    0.0000 C   0  0  0  0  0  0  0  0  0  0  0  0
   -1.1274    1.2066    0.0000 C   0  0  0  0  0  0  0  0  0  0  0  0
   -2.5802    0.8330    0.0000 C   0  0  0  0  0  0  0  0  0  0  0  0
    0.8520    0.8724    0.0000 C   0  0  0  0  0  0  0  0  0  0  0  0
    1.9204   -0.1804    0.0000 C   0  0  0  0  0  0  0  0  0  0  0  0
   -0.0801    2.0477    0.0000 C   0  0  0  0  0  0  0  0  0  0  0  0
    2.0272    1.8045    0.0000 C   0  0  0  0  0  0  0  0  0  0  0  0
    0.7266   -1.1310    0.0000 C   0  0  0  0  0  0  0  0  0  0  0  0
    0.3237   -2.5759    0.0000 O   0  0  0  0  0  0  0  0  0  0  0  0
    2.2140   -0.9374    0.0000 O   0  0  0  0  0  0  0  0  0  0  0  0
  1  2  1  0
  2  3  1  0
  3  4  1  0
  4  5  1  0
  3  6  1  0
  6  7  1  0
  6  8  1  0
  6  9  1  0
  3 10  1  0
 10 11  2  0
 10 12  1  0
  5  1  1  0
M  END
>  <rName>  (4306) 
bPro_3tBu

>  <PQ_SYMBOL>  (4306) 
bPro_3tBu

>  <FULL_NAME>  (4306) 
3-Tert-butylpyrrolidine-3-carboxylic acid

>  <IUPAC_CONDENSED>  (4306) 
bPro(3-tBu)

>  <IUPAC>  (4306) 
3-(tert-butyl)pyrrolidine-3-carboxylic acid

>  <TYPE>  (4306) 
Backbone

>  <CLASS>  (4306) 
beta

>  <ANALOG>  (4306) 
Pro

>  <MOL_WT>  (4306) 
171.23999999999998

>  <LOGP>  (4306) 
1.0967999999999998

>  <TPSA>  (4306) 
49.33

>  <POPULARITY>  (4306) 
5.3

>  <PROTECTED>  (4306) 
TRUE

>  <SMILES>  (4306) 
N1CC(CC1)(C(C)(C)C)C(=O)O

>  <INCHIKEY>  (4306) 
DPSBPVYEBMGBQL-UHFFFAOYSA-N

$$$$
bPro_3vinyl
     RDKit          2D

 10 10  0  0  0  0  0  0  0  0999 V2000
   -2.4212   -0.7414    0.0000 N   0  0  0  0  0  0  0  0  0  0  0  0
   -0.9564   -1.0643    0.0000 C   0  0  0  0  0  0  0  0  0  0  0  0
   -0.1967    0.2291    0.0000 C   0  0  0  0  0  0  0  0  0  0  0  0
    0.8154    1.3362    0.0000 C   0  0  0  0  0  0  0  0  0  0  0  0
    2.2802    1.0134    0.0000 C   0  0  0  0  0  0  0  0  0  0  0  0
   -1.1920    1.3513    0.0000 C   0  0  0  0  0  0  0  0  0  0  0  0
   -2.5668    0.7515    0.0000 C   0  0  0  0  0  0  0  0  0  0  0  0
    1.0102   -0.6617    0.0000 C   0  0  0  0  0  0  0  0  0  0  0  0
    2.3851   -0.0618    0.0000 O   0  0  0  0  0  0  0  0  0  0  0  0
    0.8422   -2.1522    0.0000 O   0  0  0  0  0  0  0  0  0  0  0  0
  1  2  1  0
  2  3  1  0
  3  4  1  0
  4  5  2  0
  3  6  1  0
  6  7  1  0
  3  8  1  0
  8  9  2  0
  8 10  1  0
  7  1  1  0
M  END
>  <rName>  (4307) 
bPro_3vinyl

>  <PQ_SYMBOL>  (4307) 
bPro_3vinyl

>  <FULL_NAME>  (4307) 
3-Ethenylpyrrolidine-3-carboxylic acid

>  <IUPAC_CONDENSED>  (4307) 
bPro(3-vinyl)

>  <IUPAC>  (4307) 
3-ethenylpyrrolidine-3-carboxylic acid

>  <TYPE>  (4307) 
Backbone

>  <CLASS>  (4307) 
beta

>  <ANALOG>  (4307) 
Pro

>  <MOL_WT>  (4307) 
141.17000000000002

>  <LOGP>  (4307) 
0.23670000000000008

>  <TPSA>  (4307) 
49.33

>  <POPULARITY>  (4307) 
4.9

>  <PROTECTED>  (4307) 
TRUE

>  <SMILES>  (4307) 
N1CC(C=C)(CC1)C(=O)O

>  <INCHIKEY>  (4307) 
ZNMVWJVQINWOLZ-UHFFFAOYSA-N

$$$$
bPro_R
     RDKit          2D

  8  8  0  0  0  0  0  0  0  0999 V2000
   -2.2608   -0.7500    0.0000 N   0  0  0  0  0  0  0  0  0  0  0  0
   -0.8342   -1.2135    0.0000 C   0  0  0  0  0  0  0  0  0  0  0  0
    0.0475    0.0000    0.0000 C   0  0  0  0  0  0  0  0  0  0  0  0
   -0.8342    1.2135    0.0000 C   0  0  0  0  0  0  0  0  0  0  0  0
   -2.2608    0.7500    0.0000 C   0  0  0  0  0  0  0  0  0  0  0  0
    1.5475    0.0000    0.0000 C   0  0  0  0  0  0  0  0  0  0  0  0
    2.2975    1.2990    0.0000 O   0  0  0  0  0  0  0  0  0  0  0  0
    2.2975   -1.2990    0.0000 O   0  0  0  0  0  0  0  0  0  0  0  0
  1  2  1  0
  2  3  1  0
  3  4  1  0
  4  5  1  0
  3  6  1  1
  6  7  2  0
  6  8  1  0
  5  1  1  0
M  END
>  <rName>  (4308) 
bPro_R

>  <PQ_SYMBOL>  (4308) 
bPro_R

>  <FULL_NAME>  (4308) 
(R)-pyrrolidine-3-carboxylic acid

>  <IUPAC_CONDENSED>  (4308) 
bPro(R)

>  <IUPAC>  (4308) 
(3R)-pyrrolidine-3-carboxylic acid

>  <TYPE>  (4308) 
Backbone

>  <CLASS>  (4308) 
beta

>  <ANALOG>  (4308) 
Pro

>  <MOL_WT>  (4308) 
115.13199999999999

>  <LOGP>  (4308) 
-0.31949999999999995

>  <TPSA>  (4308) 
49.33

>  <POPULARITY>  (4308) 
13.3

>  <PROTECTED>  (4308) 
TRUE

>  <SMILES>  (4308) 
N1C[C@@H](CC1)C(=O)O

>  <INCHIKEY>  (4308) 
JAEIBKXSIXOLOL-SCSAIBSYSA-N

$$$$
bPro_R_3RMe
     RDKit          2D

  9  9  0  0  0  0  0  0  0  0999 V2000
   -1.9885   -1.0682    0.0000 N   0  0  0  0  0  0  0  0  0  0  0  0
   -0.4885   -1.0777    0.0000 C   0  0  0  0  0  0  0  0  0  0  0  0
   -0.0160    0.3460    0.0000 C   0  0  0  0  0  0  0  0  0  0  0  0
    0.7422    1.6403    0.0000 C   0  0  0  0  0  0  0  0  0  0  0  0
   -1.2239    1.2353    0.0000 C   0  0  0  0  0  0  0  0  0  0  0  0
   -2.4430    0.3613    0.0000 C   0  0  0  0  0  0  0  0  0  0  0  0
    1.3504   -0.2728    0.0000 C   0  0  0  0  0  0  0  0  0  0  0  0
    2.5695    0.6013    0.0000 O   0  0  0  0  0  0  0  0  0  0  0  0
    1.4978   -1.7655    0.0000 O   0  0  0  0  0  0  0  0  0  0  0  0
  1  2  1  0
  2  3  1  0
  3  4  1  6
  3  5  1  0
  5  6  1  0
  3  7  1  0
  7  8  2  0
  7  9  1  0
  6  1  1  0
M  END
>  <rName>  (4309) 
bPro_R_3RMe

>  <PQ_SYMBOL>  (4309) 
bPro_R_3RMe

>  <FULL_NAME>  (4309) 
(R)-3-methylpyrrolidine-3-carboxylic acid

>  <IUPAC_CONDENSED>  (4309) 
bPro(R,3R-Me)

>  <IUPAC>  (4309) 
(3R)-3-methylpyrrolidine-3-carboxylic acid

>  <TYPE>  (4309) 
Backbone

>  <CLASS>  (4309) 
beta

>  <ANALOG>  (4309) 
Pro

>  <MOL_WT>  (4309) 
129.159

>  <LOGP>  (4309) 
0.07059999999999994

>  <TPSA>  (4309) 
49.33

>  <POPULARITY>  (4309) 
2.2

>  <PROTECTED>  (4309) 
TRUE

>  <SMILES>  (4309) 
N1C[C@@](C)(CC1)C(=O)O

>  <INCHIKEY>  (4309) 
JXNPHMVNQPDXQI-ZCFIWIBFSA-N

$$$$
bPro_R_3RMe_4RMe
     RDKit          2D

 10 10  0  0  0  0  0  0  0  0999 V2000
   -1.2972   -1.8982    0.0000 N   0  0  0  0  0  0  0  0  0  0  0  0
    0.1160   -1.3953    0.0000 C   0  0  0  0  0  0  0  0  0  0  0  0
    0.0744    0.1041    0.0000 C   0  0  0  0  0  0  0  0  0  0  0  0
    0.3455    1.5794    0.0000 C   0  0  0  0  0  0  0  0  0  0  0  0
   -1.3645    0.5279    0.0000 C   0  0  0  0  0  0  0  0  0  0  0  0
   -1.8674    1.9411    0.0000 C   0  0  0  0  0  0  0  0  0  0  0  0
   -2.2122   -0.7096    0.0000 C   0  0  0  0  0  0  0  0  0  0  0  0
    1.5700   -0.0113    0.0000 C   0  0  0  0  0  0  0  0  0  0  0  0
    2.4177    1.2262    0.0000 O   0  0  0  0  0  0  0  0  0  0  0  0
    2.2178   -1.3642    0.0000 O   0  0  0  0  0  0  0  0  0  0  0  0
  1  2  1  0
  2  3  1  0
  3  4  1  6
  3  5  1  0
  5  6  1  6
  5  7  1  0
  3  8  1  0
  8  9  2  0
  8 10  1  0
  7  1  1  0
M  END
>  <rName>  (4310) 
bPro_R_3RMe_4RMe

>  <PQ_SYMBOL>  (4310) 
bPro_R_3RMe_4RMe

>  <FULL_NAME>  (4310) 
(3R,4R)-3,4-Dimethylpyrrolidine-3-carboxylic acid

>  <IUPAC_CONDENSED>  (4310) 
bPro(R,3R-Me,4R-Me)

>  <IUPAC>  (4310) 
(3R,4R)-3,4-dimethylpyrrolidine-3-carboxylic acid

>  <TYPE>  (4310) 
Backbone

>  <CLASS>  (4310) 
beta

>  <ANALOG>  (4310) 
Pro

>  <MOL_WT>  (4310) 
143.18599999999998

>  <LOGP>  (4310) 
0.31659999999999994

>  <TPSA>  (4310) 
49.33

>  <POPULARITY>  (4310) 
7.9

>  <PROTECTED>  (4310) 
TRUE

>  <SMILES>  (4310) 
N1C[C@@](C)([C@@H](C)C1)C(=O)O

>  <INCHIKEY>  (4310) 
WGMNHEWFYKZQBE-FSPLSTOPSA-N

$$$$
bPro_R_4RMe
     RDKit          2D

  9  9  0  0  0  0  0  0  0  0999 V2000
   -2.1314   -1.2133    0.0000 N   0  0  0  0  0  0  0  0  0  0  0  0
   -0.6730   -1.5641    0.0000 C   0  0  0  0  0  0  0  0  0  0  0  0
    0.1113   -0.2855    0.0000 C   0  0  0  0  0  0  0  0  0  0  0  0
   -0.8624    0.8555    0.0000 C   0  0  0  0  0  0  0  0  0  0  0  0
   -0.5115    2.3139    0.0000 C   0  0  0  0  0  0  0  0  0  0  0  0
   -2.2485    0.2821    0.0000 C   0  0  0  0  0  0  0  0  0  0  0  0
    1.6067   -0.1685    0.0000 C   0  0  0  0  0  0  0  0  0  0  0  0
    2.2531    1.1851    0.0000 O   0  0  0  0  0  0  0  0  0  0  0  0
    2.4558   -1.4051    0.0000 O   0  0  0  0  0  0  0  0  0  0  0  0
  1  2  1  0
  2  3  1  0
  3  4  1  0
  4  5  1  6
  4  6  1  0
  3  7  1  1
  7  8  2  0
  7  9  1  0
  6  1  1  0
M  END
>  <rName>  (4311) 
bPro_R_4RMe

>  <PQ_SYMBOL>  (4311) 
bPro_R_4RMe

>  <FULL_NAME>  (4311) 
(3R,4R)-4-methylpyrrolidine-3-carboxylic acid

>  <IUPAC_CONDENSED>  (4311) 
bPro(R,4R-Me)

>  <IUPAC>  (4311) 
(3R,4R)-4-methylpyrrolidine-3-carboxylic acid

>  <TYPE>  (4311) 
Backbone

>  <CLASS>  (4311) 
beta

>  <ANALOG>  (4311) 
Pro

>  <MOL_WT>  (4311) 
129.15900000000002

>  <LOGP>  (4311) 
-0.07349999999999995

>  <TPSA>  (4311) 
49.33

>  <POPULARITY>  (4311) 
9.8

>  <PROTECTED>  (4311) 
TRUE

>  <SMILES>  (4311) 
N1C[C@@H]([C@@H](C)C1)C(=O)O

>  <INCHIKEY>  (4311) 
FLYSYPZJEXSTBV-WHFBIAKZSA-N

$$$$
bPro_R_4RPh
     RDKit          2D

 14 15  0  0  0  0  0  0  0  0999 V2000
   -2.5667    2.2179    0.0000 N   0  0  0  0  0  0  0  0  0  0  0  0
   -2.9834    0.7769    0.0000 C   0  0  0  0  0  0  0  0  0  0  0  0
   -1.7417   -0.0646    0.0000 C   0  0  0  0  0  0  0  0  0  0  0  0
   -0.5576    0.8562    0.0000 C   0  0  0  0  0  0  0  0  0  0  0  0
   -1.0675    2.2669    0.0000 C   0  0  0  0  0  0  0  0  0  0  0  0
    0.8833    0.4396    0.0000 C   0  0  0  0  0  0  0  0  0  0  0  0
    1.2430   -1.0167    0.0000 C   0  0  0  0  0  0  0  0  0  0  0  0
    2.6840   -1.4333    0.0000 C   0  0  0  0  0  0  0  0  0  0  0  0
    3.7653   -0.3937    0.0000 C   0  0  0  0  0  0  0  0  0  0  0  0
    3.4056    1.0625    0.0000 C   0  0  0  0  0  0  0  0  0  0  0  0
    1.9647    1.4792    0.0000 C   0  0  0  0  0  0  0  0  0  0  0  0
   -1.6927   -1.5638    0.0000 C   0  0  0  0  0  0  0  0  0  0  0  0
   -0.3698   -2.2710    0.0000 O   0  0  0  0  0  0  0  0  0  0  0  0
   -2.9665   -2.3559    0.0000 O   0  0  0  0  0  0  0  0  0  0  0  0
  1  2  1  0
  2  3  1  0
  3  4  1  0
  4  5  1  0
  4  6  1  1
  6  7  2  0
  7  8  1  0
  8  9  2  0
  9 10  1  0
 10 11  2  0
  3 12  1  1
 12 13  2  0
 12 14  1  0
  5  1  1  0
 11  6  1  0
M  END
>  <rName>  (4312) 
bPro_R_4RPh

>  <PQ_SYMBOL>  (4312) 
bPro_R_4RPh

>  <FULL_NAME>  (4312) 
cis-4-Phenylpyrrolidine-3-carboxylic acid

>  <IUPAC_CONDENSED>  (4312) 
bPro(R,4R-Ph)

>  <IUPAC>  (4312) 
(3R,4R)-4-phenylpyrrolidine-3-carboxylic acid

>  <TYPE>  (4312) 
Backbone

>  <CLASS>  (4312) 
beta

>  <ANALOG>  (4312) 
Pro

>  <MOL_WT>  (4312) 
191.23

>  <LOGP>  (4312) 
1.0742

>  <TPSA>  (4312) 
49.33

>  <POPULARITY>  (4312) 
6.6

>  <PROTECTED>  (4312) 
TRUE

>  <SMILES>  (4312) 
N1C[C@@H]([C@@H](C1)c2(ccccc2))C(=O)O

>  <INCHIKEY>  (4312) 
XTJDGOQYFKHEJR-UWVGGRQHSA-N

$$$$
bPro_R_4SPh
     RDKit          2D

 14 15  0  0  0  0  0  0  0  0999 V2000
   -2.5667    2.2179    0.0000 N   0  0  0  0  0  0  0  0  0  0  0  0
   -2.9834    0.7769    0.0000 C   0  0  0  0  0  0  0  0  0  0  0  0
   -1.7417   -0.0646    0.0000 C   0  0  0  0  0  0  0  0  0  0  0  0
   -0.5576    0.8562    0.0000 C   0  0  0  0  0  0  0  0  0  0  0  0
   -1.0675    2.2669    0.0000 C   0  0  0  0  0  0  0  0  0  0  0  0
    0.8833    0.4396    0.0000 C   0  0  0  0  0  0  0  0  0  0  0  0
    1.2430   -1.0167    0.0000 C   0  0  0  0  0  0  0  0  0  0  0  0
    2.6840   -1.4333    0.0000 C   0  0  0  0  0  0  0  0  0  0  0  0
    3.7653   -0.3937    0.0000 C   0  0  0  0  0  0  0  0  0  0  0  0
    3.4056    1.0625    0.0000 C   0  0  0  0  0  0  0  0  0  0  0  0
    1.9647    1.4792    0.0000 C   0  0  0  0  0  0  0  0  0  0  0  0
   -1.6927   -1.5638    0.0000 C   0  0  0  0  0  0  0  0  0  0  0  0
   -0.3698   -2.2710    0.0000 O   0  0  0  0  0  0  0  0  0  0  0  0
   -2.9665   -2.3559    0.0000 O   0  0  0  0  0  0  0  0  0  0  0  0
  1  2  1  0
  2  3  1  0
  3  4  1  0
  4  5  1  0
  4  6  1  6
  6  7  2  0
  7  8  1  0
  8  9  2  0
  9 10  1  0
 10 11  2  0
  3 12  1  1
 12 13  2  0
 12 14  1  0
  5  1  1  0
 11  6  1  0
M  END
>  <rName>  (4313) 
bPro_R_4SPh

>  <PQ_SYMBOL>  (4313) 
bPro_R_4SPh

>  <FULL_NAME>  (4313) 
(3R,4S)-4-Phenylpyrrolidine-3-carboxylic acid

>  <IUPAC_CONDENSED>  (4313) 
bPro(R,4S-Ph)

>  <IUPAC>  (4313) 
(3R,4S)-4-phenylpyrrolidine-3-carboxylic acid

>  <TYPE>  (4313) 
Backbone

>  <CLASS>  (4313) 
beta

>  <ANALOG>  (4313) 
Pro

>  <MOL_WT>  (4313) 
191.23

>  <LOGP>  (4313) 
1.0742

>  <TPSA>  (4313) 
49.33

>  <POPULARITY>  (4313) 
10.5

>  <PROTECTED>  (4313) 
TRUE

>  <SMILES>  (4313) 
N1C[C@@H]([C@H](C1)c2(ccccc2))C(=O)O

>  <INCHIKEY>  (4313) 
XTJDGOQYFKHEJR-ZJUUUORDSA-N

$$$$
bPro_S
     RDKit          2D

  8  8  0  0  0  0  0  0  0  0999 V2000
   -2.2608   -0.7500    0.0000 N   0  0  0  0  0  0  0  0  0  0  0  0
   -0.8342   -1.2135    0.0000 C   0  0  0  0  0  0  0  0  0  0  0  0
    0.0475    0.0000    0.0000 C   0  0  0  0  0  0  0  0  0  0  0  0
   -0.8342    1.2135    0.0000 C   0  0  0  0  0  0  0  0  0  0  0  0
   -2.2608    0.7500    0.0000 C   0  0  0  0  0  0  0  0  0  0  0  0
    1.5475    0.0000    0.0000 C   0  0  0  0  0  0  0  0  0  0  0  0
    2.2975    1.2990    0.0000 O   0  0  0  0  0  0  0  0  0  0  0  0
    2.2975   -1.2990    0.0000 O   0  0  0  0  0  0  0  0  0  0  0  0
  1  2  1  0
  2  3  1  0
  3  4  1  0
  4  5  1  0
  3  6  1  6
  6  7  2  0
  6  8  1  0
  5  1  1  0
M  END
>  <rName>  (4314) 
bPro_S

>  <PQ_SYMBOL>  (4314) 
bPro_S

>  <FULL_NAME>  (4314) 
(S)-pyrrolidine-3-carboxylic acid

>  <IUPAC_CONDENSED>  (4314) 
bPro(S)

>  <IUPAC>  (4314) 
(3S)-pyrrolidine-3-carboxylic acid

>  <TYPE>  (4314) 
Backbone

>  <CLASS>  (4314) 
beta

>  <ANALOG>  (4314) 
Pro

>  <MOL_WT>  (4314) 
115.13199999999999

>  <LOGP>  (4314) 
-0.31949999999999995

>  <TPSA>  (4314) 
49.33

>  <POPULARITY>  (4314) 
13.3

>  <PROTECTED>  (4314) 
TRUE

>  <SMILES>  (4314) 
N1C[C@H](CC1)C(=O)O

>  <INCHIKEY>  (4314) 
JAEIBKXSIXOLOL-BYPYZUCNSA-N

$$$$
bPro_S_3SMe
     RDKit          2D

  9  9  0  0  0  0  0  0  0  0999 V2000
   -1.9885   -1.0682    0.0000 N   0  0  0  0  0  0  0  0  0  0  0  0
   -0.4885   -1.0777    0.0000 C   0  0  0  0  0  0  0  0  0  0  0  0
   -0.0160    0.3460    0.0000 C   0  0  0  0  0  0  0  0  0  0  0  0
    0.7422    1.6403    0.0000 C   0  0  0  0  0  0  0  0  0  0  0  0
   -1.2239    1.2353    0.0000 C   0  0  0  0  0  0  0  0  0  0  0  0
   -2.4430    0.3613    0.0000 C   0  0  0  0  0  0  0  0  0  0  0  0
    1.3504   -0.2728    0.0000 C   0  0  0  0  0  0  0  0  0  0  0  0
    2.5695    0.6013    0.0000 O   0  0  0  0  0  0  0  0  0  0  0  0
    1.4978   -1.7655    0.0000 O   0  0  0  0  0  0  0  0  0  0  0  0
  1  2  1  0
  2  3  1  0
  3  4  1  1
  3  5  1  0
  5  6  1  0
  3  7  1  0
  7  8  2  0
  7  9  1  0
  6  1  1  0
M  END
>  <rName>  (4315) 
bPro_S_3SMe

>  <PQ_SYMBOL>  (4315) 
bPro_S_3SMe

>  <FULL_NAME>  (4315) 
(S)-3-Methyl-pyrrolidine-3-carboxylic acid

>  <IUPAC_CONDENSED>  (4315) 
bPro(S,3S-Me)

>  <IUPAC>  (4315) 
(3S)-3-methylpyrrolidine-3-carboxylic acid

>  <TYPE>  (4315) 
Backbone

>  <CLASS>  (4315) 
beta

>  <ANALOG>  (4315) 
Pro

>  <MOL_WT>  (4315) 
129.159

>  <LOGP>  (4315) 
0.07059999999999994

>  <TPSA>  (4315) 
49.33

>  <POPULARITY>  (4315) 
2.2

>  <PROTECTED>  (4315) 
TRUE

>  <SMILES>  (4315) 
N1C[C@](C)(CC1)C(=O)O

>  <INCHIKEY>  (4315) 
JXNPHMVNQPDXQI-LURJTMIESA-N

$$$$
bPro_S_3SOH_4ROH
     RDKit          2D

 10 10  0  0  0  0  0  0  0  0999 V2000
   -2.5278   -0.3428    0.0000 N   0  0  0  0  0  0  0  0  0  0  0  0
   -1.4011   -1.3330    0.0000 C   0  0  0  0  0  0  0  0  0  0  0  0
   -0.1112   -0.5674    0.0000 C   0  0  0  0  0  0  0  0  0  0  0  0
    0.5154   -1.9303    0.0000 O   0  0  0  0  0  0  0  0  0  0  0  0
   -0.4407    0.8959    0.0000 C   0  0  0  0  0  0  0  0  0  0  0  0
    0.5495    2.0226    0.0000 O   0  0  0  0  0  0  0  0  0  0  0  0
   -1.9342    1.0347    0.0000 C   0  0  0  0  0  0  0  0  0  0  0  0
    1.3097   -0.0868    0.0000 C   0  0  0  0  0  0  0  0  0  0  0  0
    1.6039    1.3841    0.0000 O   0  0  0  0  0  0  0  0  0  0  0  0
    2.4364   -1.0770    0.0000 O   0  0  0  0  0  0  0  0  0  0  0  0
  1  2  1  0
  2  3  1  0
  3  4  1  1
  3  5  1  0
  5  6  1  1
  5  7  1  0
  3  8  1  0
  8  9  2  0
  8 10  1  0
  7  1  1  0
M  END
>  <rName>  (4316) 
bPro_S_3SOH_4ROH

>  <PQ_SYMBOL>  (4316) 
bPro_S_3SOH_4ROH

>  <FULL_NAME>  (4316) 
rac-(3R,4S)-3,4-dihydroxypyrrolidine-3-carboxylic acid

>  <IUPAC_CONDENSED>  (4316) 
bPro(S,3S-OH,4R-OH)

>  <IUPAC>  (4316) 
(3S,4R)-3,4-dihydroxypyrrolidine-3-carboxylic acid

>  <TYPE>  (4316) 
Backbone

>  <CLASS>  (4316) 
beta

>  <ANALOG>  (4316) 
Pro

>  <MOL_WT>  (4316) 
147.13

>  <LOGP>  (4316) 
-2.2338000000000005

>  <TPSA>  (4316) 
89.79

>  <POPULARITY>  (4316) 
4.1

>  <PROTECTED>  (4316) 
TRUE

>  <SMILES>  (4316) 
N1C[C@](O)([C@H](O)C1)C(=O)O

>  <INCHIKEY>  (4316) 
MJPJIGLROTZSLF-WUJLRWPWSA-N

$$$$
bPro_S_4RPh
     RDKit          2D

 14 15  0  0  0  0  0  0  0  0999 V2000
   -2.5667    2.2179    0.0000 N   0  0  0  0  0  0  0  0  0  0  0  0
   -2.9834    0.7769    0.0000 C   0  0  0  0  0  0  0  0  0  0  0  0
   -1.7417   -0.0646    0.0000 C   0  0  0  0  0  0  0  0  0  0  0  0
   -0.5576    0.8562    0.0000 C   0  0  0  0  0  0  0  0  0  0  0  0
   -1.0675    2.2669    0.0000 C   0  0  0  0  0  0  0  0  0  0  0  0
    0.8833    0.4396    0.0000 C   0  0  0  0  0  0  0  0  0  0  0  0
    1.2430   -1.0167    0.0000 C   0  0  0  0  0  0  0  0  0  0  0  0
    2.6840   -1.4333    0.0000 C   0  0  0  0  0  0  0  0  0  0  0  0
    3.7653   -0.3937    0.0000 C   0  0  0  0  0  0  0  0  0  0  0  0
    3.4056    1.0625    0.0000 C   0  0  0  0  0  0  0  0  0  0  0  0
    1.9647    1.4792    0.0000 C   0  0  0  0  0  0  0  0  0  0  0  0
   -1.6927   -1.5638    0.0000 C   0  0  0  0  0  0  0  0  0  0  0  0
   -0.3698   -2.2710    0.0000 O   0  0  0  0  0  0  0  0  0  0  0  0
   -2.9665   -2.3559    0.0000 O   0  0  0  0  0  0  0  0  0  0  0  0
  1  2  1  0
  2  3  1  0
  3  4  1  0
  4  5  1  0
  4  6  1  1
  6  7  2  0
  7  8  1  0
  8  9  2  0
  9 10  1  0
 10 11  2  0
  3 12  1  6
 12 13  2  0
 12 14  1  0
  5  1  1  0
 11  6  1  0
M  END
>  <rName>  (4317) 
bPro_S_4RPh

>  <PQ_SYMBOL>  (4317) 
bPro_S_4RPh

>  <FULL_NAME>  (4317) 
(3S,4R)-4-phenylpyrrolidine-3-carboxylic acid

>  <IUPAC_CONDENSED>  (4317) 
bPro(S,4R-Ph)

>  <IUPAC>  (4317) 
(3S,4R)-4-phenylpyrrolidine-3-carboxylic acid

>  <TYPE>  (4317) 
Backbone

>  <CLASS>  (4317) 
beta

>  <ANALOG>  (4317) 
Pro

>  <MOL_WT>  (4317) 
191.23

>  <LOGP>  (4317) 
1.0742

>  <TPSA>  (4317) 
49.33

>  <POPULARITY>  (4317) 
9.5

>  <PROTECTED>  (4317) 
TRUE

>  <SMILES>  (4317) 
N1C[C@H]([C@@H](C1)c2(ccccc2))C(=O)O

>  <INCHIKEY>  (4317) 
XTJDGOQYFKHEJR-VHSXEESVSA-N

$$$$
bPro_S_4RPh_2F
     RDKit          2D

 15 16  0  0  0  0  0  0  0  0999 V2000
   -2.3971    2.3435    0.0000 N   0  0  0  0  0  0  0  0  0  0  0  0
   -2.9923    0.9667    0.0000 C   0  0  0  0  0  0  0  0  0  0  0  0
   -1.8668   -0.0249    0.0000 C   0  0  0  0  0  0  0  0  0  0  0  0
   -0.5759    0.7391    0.0000 C   0  0  0  0  0  0  0  0  0  0  0  0
   -0.9037    2.2029    0.0000 C   0  0  0  0  0  0  0  0  0  0  0  0
    0.8009    0.1439    0.0000 C   0  0  0  0  0  0  0  0  0  0  0  0
    0.9739   -1.3461    0.0000 C   0  0  0  0  0  0  0  0  0  0  0  0
    2.3507   -1.9413    0.0000 C   0  0  0  0  0  0  0  0  0  0  0  0
    3.5546   -1.0465    0.0000 C   0  0  0  0  0  0  0  0  0  0  0  0
    3.3817    0.4435    0.0000 C   0  0  0  0  0  0  0  0  0  0  0  0
    2.0048    1.0387    0.0000 C   0  0  0  0  0  0  0  0  0  0  0  0
    1.8319    2.5287    0.0000 F   0  0  0  0  0  0  0  0  0  0  0  0
   -2.0074   -1.5183    0.0000 C   0  0  0  0  0  0  0  0  0  0  0  0
   -0.7844   -2.3868    0.0000 O   0  0  0  0  0  0  0  0  0  0  0  0
   -3.3710   -2.1432    0.0000 O   0  0  0  0  0  0  0  0  0  0  0  0
  1  2  1  0
  2  3  1  0
  3  4  1  0
  4  5  1  0
  4  6  1  1
  6  7  2  0
  7  8  1  0
  8  9  2  0
  9 10  1  0
 10 11  2  0
 11 12  1  0
  3 13  1  6
 13 14  2  0
 13 15  1  0
  5  1  1  0
 11  6  1  0
M  END
>  <rName>  (4318) 
bPro_S_4RPh_2F

>  <PQ_SYMBOL>  (4318) 
bPro_S_4RPh_2F

>  <FULL_NAME>  (4318) 
(3S,4R)-4-(2-fluorophenyl)pyrrolidine-3-carboxylic acid

>  <IUPAC_CONDENSED>  (4318) 
bPro(S,4R-Ph(2-F))

>  <IUPAC>  (4318) 
(3S,4R)-4-(2-fluorophenyl)pyrrolidine-3-carboxylic acid

>  <TYPE>  (4318) 
Backbone

>  <CLASS>  (4318) 
beta

>  <ANALOG>  (4318) 
Pro

>  <MOL_WT>  (4318) 
209.21999999999997

>  <LOGP>  (4318) 
1.2133

>  <TPSA>  (4318) 
49.33

>  <POPULARITY>  (4318) 
7.7

>  <PROTECTED>  (4318) 
TRUE

>  <SMILES>  (4318) 
N1C[C@H]([C@@H](C1)c2(ccccc2F))C(=O)O

>  <INCHIKEY>  (4318) 
YVTADGCUSGBFIQ-DTWKUNHWSA-N

$$$$
bPro_S_4RPh_2Me
     RDKit          2D

 15 16  0  0  0  0  0  0  0  0999 V2000
   -2.3971    2.3435    0.0000 N   0  0  0  0  0  0  0  0  0  0  0  0
   -2.9923    0.9667    0.0000 C   0  0  0  0  0  0  0  0  0  0  0  0
   -1.8668   -0.0249    0.0000 C   0  0  0  0  0  0  0  0  0  0  0  0
   -0.5759    0.7391    0.0000 C   0  0  0  0  0  0  0  0  0  0  0  0
   -0.9037    2.2029    0.0000 C   0  0  0  0  0  0  0  0  0  0  0  0
    0.8009    0.1439    0.0000 C   0  0  0  0  0  0  0  0  0  0  0  0
    0.9739   -1.3461    0.0000 C   0  0  0  0  0  0  0  0  0  0  0  0
    2.3507   -1.9413    0.0000 C   0  0  0  0  0  0  0  0  0  0  0  0
    3.5546   -1.0465    0.0000 C   0  0  0  0  0  0  0  0  0  0  0  0
    3.3817    0.4435    0.0000 C   0  0  0  0  0  0  0  0  0  0  0  0
    2.0048    1.0387    0.0000 C   0  0  0  0  0  0  0  0  0  0  0  0
    1.8319    2.5287    0.0000 C   0  0  0  0  0  0  0  0  0  0  0  0
   -2.0074   -1.5183    0.0000 C   0  0  0  0  0  0  0  0  0  0  0  0
   -0.7844   -2.3868    0.0000 O   0  0  0  0  0  0  0  0  0  0  0  0
   -3.3710   -2.1432    0.0000 O   0  0  0  0  0  0  0  0  0  0  0  0
  1  2  1  0
  2  3  1  0
  3  4  1  0
  4  5  1  0
  4  6  1  1
  6  7  2  0
  7  8  1  0
  8  9  2  0
  9 10  1  0
 10 11  2  0
 11 12  1  0
  3 13  1  6
 13 14  2  0
 13 15  1  0
  5  1  1  0
 11  6  1  0
M  END
>  <rName>  (4319) 
bPro_S_4RPh_2Me

>  <PQ_SYMBOL>  (4319) 
bPro_S_4RPh_2Me

>  <FULL_NAME>  (4319) 
(3S,4R)-4-(o-Tolyl)pyrrolidine-3-carboxylic acid

>  <IUPAC_CONDENSED>  (4319) 
bPro(S,4R-Ph(2-Me))

>  <IUPAC>  (4319) 
(3S,4R)-4-(2-methylphenyl)pyrrolidine-3-carboxylic acid

>  <TYPE>  (4319) 
Backbone

>  <CLASS>  (4319) 
beta

>  <ANALOG>  (4319) 
Pro

>  <MOL_WT>  (4319) 
205.25699999999998

>  <LOGP>  (4319) 
1.38262

>  <TPSA>  (4319) 
49.33

>  <POPULARITY>  (4319) 
5.3

>  <PROTECTED>  (4319) 
TRUE

>  <SMILES>  (4319) 
N1C[C@H]([C@@H](C1)c2(ccccc2C))C(=O)O

>  <INCHIKEY>  (4319) 
PLUOWDZCCZMKBL-WDEREUQCSA-N

$$$$
bPro_S_4RPh_34diF
     RDKit          2D

 16 17  0  0  0  0  0  0  0  0999 V2000
   -3.0433    2.3175    0.0000 N   0  0  0  0  0  0  0  0  0  0  0  0
   -3.5428    0.9031    0.0000 C   0  0  0  0  0  0  0  0  0  0  0  0
   -2.3520   -0.0090    0.0000 C   0  0  0  0  0  0  0  0  0  0  0  0
   -1.1165    0.8416    0.0000 C   0  0  0  0  0  0  0  0  0  0  0  0
   -1.5438    2.2795    0.0000 C   0  0  0  0  0  0  0  0  0  0  0  0
    0.2979    0.3421    0.0000 C   0  0  0  0  0  0  0  0  0  0  0  0
    0.5725   -1.1325    0.0000 C   0  0  0  0  0  0  0  0  0  0  0  0
    1.9869   -1.6320    0.0000 C   0  0  0  0  0  0  0  0  0  0  0  0
    3.1266   -0.6568    0.0000 C   0  0  0  0  0  0  0  0  0  0  0  0
    4.5410   -1.1563    0.0000 F   0  0  0  0  0  0  0  0  0  0  0  0
    2.8520    0.8178    0.0000 C   0  0  0  0  0  0  0  0  0  0  0  0
    3.9918    1.7929    0.0000 F   0  0  0  0  0  0  0  0  0  0  0  0
    1.4376    1.3173    0.0000 C   0  0  0  0  0  0  0  0  0  0  0  0
   -2.3900   -1.5085    0.0000 C   0  0  0  0  0  0  0  0  0  0  0  0
   -1.1103   -2.2912    0.0000 O   0  0  0  0  0  0  0  0  0  0  0  0
   -3.7076   -2.2254    0.0000 O   0  0  0  0  0  0  0  0  0  0  0  0
  1  2  1  0
  2  3  1  0
  3  4  1  0
  4  5  1  0
  4  6  1  1
  6  7  1  0
  7  8  2  0
  8  9  1  0
  9 10  1  0
  9 11  2  0
 11 12  1  0
 11 13  1  0
  3 14  1  6
 14 15  2  0
 14 16  1  0
  5  1  1  0
 13  6  2  0
M  END
>  <rName>  (4320) 
bPro_S_4RPh_34diF

>  <PQ_SYMBOL>  (4320) 
bPro_S_4RPh_34diF

>  <FULL_NAME>  (4320) 
rac-(3R,4S)-4-(3,4-difluorophenyl)pyrrolidine-3-carboxylic acid

>  <IUPAC_CONDENSED>  (4320) 
bPro(S,4R-Ph(3,4-diF))

>  <IUPAC>  (4320) 
(3S,4R)-4-(3,4-difluorophenyl)pyrrolidine-3-carboxylic acid

>  <TYPE>  (4320) 
Backbone

>  <CLASS>  (4320) 
beta

>  <ANALOG>  (4320) 
Pro

>  <MOL_WT>  (4320) 
227.20999999999998

>  <LOGP>  (4320) 
1.3524

>  <TPSA>  (4320) 
49.33

>  <POPULARITY>  (4320) 
4.3

>  <PROTECTED>  (4320) 
TRUE

>  <SMILES>  (4320) 
N1C[C@H]([C@@H](C1)c2(ccc(F)c(F)c2))C(=O)O

>  <INCHIKEY>  (4320) 
ZDAQDZVRKLMPMX-JGVFFNPUSA-N

$$$$
bPro_S_4RPh_35diF
     RDKit          2D

 16 17  0  0  0  0  0  0  0  0999 V2000
   -2.9935    2.3247    0.0000 N   0  0  0  0  0  0  0  0  0  0  0  0
   -3.4376    0.8919    0.0000 C   0  0  0  0  0  0  0  0  0  0  0  0
   -2.2122    0.0268    0.0000 C   0  0  0  0  0  0  0  0  0  0  0  0
   -1.0108    0.9249    0.0000 C   0  0  0  0  0  0  0  0  0  0  0  0
   -1.4937    2.3451    0.0000 C   0  0  0  0  0  0  0  0  0  0  0  0
    0.4219    0.4808    0.0000 C   0  0  0  0  0  0  0  0  0  0  0  0
    0.7537   -0.9820    0.0000 C   0  0  0  0  0  0  0  0  0  0  0  0
    2.1865   -1.4261    0.0000 C   0  0  0  0  0  0  0  0  0  0  0  0
    2.5183   -2.8890    0.0000 F   0  0  0  0  0  0  0  0  0  0  0  0
    3.2875   -0.4074    0.0000 C   0  0  0  0  0  0  0  0  0  0  0  0
    2.9557    1.0555    0.0000 C   0  0  0  0  0  0  0  0  0  0  0  0
    4.0566    2.0742    0.0000 F   0  0  0  0  0  0  0  0  0  0  0  0
    1.5229    1.4996    0.0000 C   0  0  0  0  0  0  0  0  0  0  0  0
   -2.1918   -1.4730    0.0000 C   0  0  0  0  0  0  0  0  0  0  0  0
   -0.8827   -2.2053    0.0000 O   0  0  0  0  0  0  0  0  0  0  0  0
   -3.4806   -2.2406    0.0000 O   0  0  0  0  0  0  0  0  0  0  0  0
  1  2  1  0
  2  3  1  0
  3  4  1  0
  4  5  1  0
  4  6  1  1
  6  7  2  0
  7  8  1  0
  8  9  1  0
  8 10  2  0
 10 11  1  0
 11 12  1  0
 11 13  2  0
  3 14  1  6
 14 15  2  0
 14 16  1  0
  5  1  1  0
 13  6  1  0
M  END
>  <rName>  (4321) 
bPro_S_4RPh_35diF

>  <PQ_SYMBOL>  (4321) 
bPro_S_4RPh_35diF

>  <FULL_NAME>  (4321) 
rac-(3R,4S)-4-(3,5-difluorophenyl)pyrrolidine-3-carboxylic acid

>  <IUPAC_CONDENSED>  (4321) 
bPro(S,4R-Ph(3,5-diF))

>  <IUPAC>  (4321) 
(3S,4R)-4-(3,5-difluorophenyl)pyrrolidine-3-carboxylic acid

>  <TYPE>  (4321) 
Backbone

>  <CLASS>  (4321) 
beta

>  <ANALOG>  (4321) 
Pro

>  <MOL_WT>  (4321) 
227.21

>  <LOGP>  (4321) 
1.3524

>  <TPSA>  (4321) 
49.33

>  <POPULARITY>  (4321) 
3.6

>  <PROTECTED>  (4321) 
TRUE

>  <SMILES>  (4321) 
N1C[C@H]([C@@H](C1)c2(cc(F)cc(F)c2))C(=O)O

>  <INCHIKEY>  (4321) 
KVSZYVNSKMDFAF-VHSXEESVSA-N

$$$$
bPro_S_4RPh_3Br
     RDKit          2D

 15 16  0  0  0  0  0  0  0  0999 V2000
   -2.5063    2.4997    0.0000 N   0  0  0  0  0  0  0  0  0  0  0  0
   -3.1428    1.1414    0.0000 C   0  0  0  0  0  0  0  0  0  0  0  0
   -2.0478    0.1164    0.0000 C   0  0  0  0  0  0  0  0  0  0  0  0
   -0.7344    0.8411    0.0000 C   0  0  0  0  0  0  0  0  0  0  0  0
   -1.0178    2.3141    0.0000 C   0  0  0  0  0  0  0  0  0  0  0  0
    0.6238    0.2045    0.0000 C   0  0  0  0  0  0  0  0  0  0  0  0
    0.7517   -1.2900    0.0000 C   0  0  0  0  0  0  0  0  0  0  0  0
    2.1099   -1.9265    0.0000 C   0  0  0  0  0  0  0  0  0  0  0  0
    3.3403   -1.0685    0.0000 C   0  0  0  0  0  0  0  0  0  0  0  0
    3.2124    0.4260    0.0000 C   0  0  0  0  0  0  0  0  0  0  0  0
    4.4428    1.2841    0.0000 Br  0  0  0  0  0  0  0  0  0  0  0  0
    1.8542    1.0626    0.0000 C   0  0  0  0  0  0  0  0  0  0  0  0
   -2.2334   -1.3721    0.0000 C   0  0  0  0  0  0  0  0  0  0  0  0
   -1.0372   -2.2771    0.0000 O   0  0  0  0  0  0  0  0  0  0  0  0
   -3.6153   -1.9556    0.0000 O   0  0  0  0  0  0  0  0  0  0  0  0
  1  2  1  0
  2  3  1  0
  3  4  1  0
  4  5  1  0
  4  6  1  1
  6  7  2  0
  7  8  1  0
  8  9  2  0
  9 10  1  0
 10 11  1  0
 10 12  2  0
  3 13  1  6
 13 14  2  0
 13 15  1  0
  5  1  1  0
 12  6  1  0
M  END
>  <rName>  (4322) 
bPro_S_4RPh_3Br

>  <PQ_SYMBOL>  (4322) 
bPro_S_4RPh_3Br

>  <FULL_NAME>  (4322) 
(3S,4R)-4-(3-bromophenyl)pyrrolidine-3-carboxylic acid

>  <IUPAC_CONDENSED>  (4322) 
bPro(S,4R-Ph(3-Br))

>  <IUPAC>  (4322) 
(3S,4R)-4-(3-bromophenyl)pyrrolidine-3-carboxylic acid

>  <TYPE>  (4322) 
Backbone

>  <CLASS>  (4322) 
beta

>  <ANALOG>  (4322) 
Pro

>  <MOL_WT>  (4322) 
270.126

>  <LOGP>  (4322) 
1.8367

>  <TPSA>  (4322) 
49.33

>  <POPULARITY>  (4322) 
4.5

>  <PROTECTED>  (4322) 
TRUE

>  <SMILES>  (4322) 
N1C[C@H]([C@@H](C1)c2(cccc(Br)c2))C(=O)O

>  <INCHIKEY>  (4322) 
IETUAIGPGMFFRV-VHSXEESVSA-N

$$$$
bPro_S_4RPh_3F
     RDKit          2D

 15 16  0  0  0  0  0  0  0  0999 V2000
   -2.5063    2.4997    0.0000 N   0  0  0  0  0  0  0  0  0  0  0  0
   -3.1428    1.1414    0.0000 C   0  0  0  0  0  0  0  0  0  0  0  0
   -2.0478    0.1164    0.0000 C   0  0  0  0  0  0  0  0  0  0  0  0
   -0.7344    0.8411    0.0000 C   0  0  0  0  0  0  0  0  0  0  0  0
   -1.0178    2.3141    0.0000 C   0  0  0  0  0  0  0  0  0  0  0  0
    0.6238    0.2045    0.0000 C   0  0  0  0  0  0  0  0  0  0  0  0
    0.7517   -1.2900    0.0000 C   0  0  0  0  0  0  0  0  0  0  0  0
    2.1099   -1.9265    0.0000 C   0  0  0  0  0  0  0  0  0  0  0  0
    3.3403   -1.0685    0.0000 C   0  0  0  0  0  0  0  0  0  0  0  0
    3.2124    0.4260    0.0000 C   0  0  0  0  0  0  0  0  0  0  0  0
    4.4428    1.2841    0.0000 F   0  0  0  0  0  0  0  0  0  0  0  0
    1.8542    1.0626    0.0000 C   0  0  0  0  0  0  0  0  0  0  0  0
   -2.2334   -1.3721    0.0000 C   0  0  0  0  0  0  0  0  0  0  0  0
   -1.0372   -2.2771    0.0000 O   0  0  0  0  0  0  0  0  0  0  0  0
   -3.6153   -1.9556    0.0000 O   0  0  0  0  0  0  0  0  0  0  0  0
  1  2  1  0
  2  3  1  0
  3  4  1  0
  4  5  1  0
  4  6  1  1
  6  7  2  0
  7  8  1  0
  8  9  2  0
  9 10  1  0
 10 11  1  0
 10 12  2  0
  3 13  1  6
 13 14  2  0
 13 15  1  0
  5  1  1  0
 12  6  1  0
M  END
>  <rName>  (4323) 
bPro_S_4RPh_3F

>  <PQ_SYMBOL>  (4323) 
bPro_S_4RPh_3F

>  <FULL_NAME>  (4323) 
(3S,4R)-4-(3-fluorophenyl)pyrrolidine-3-carboxylic acid

>  <IUPAC_CONDENSED>  (4323) 
bPro(S,4R-Ph(3-F))

>  <IUPAC>  (4323) 
(3S,4R)-4-(3-fluorophenyl)pyrrolidine-3-carboxylic acid

>  <TYPE>  (4323) 
Backbone

>  <CLASS>  (4323) 
beta

>  <ANALOG>  (4323) 
Pro

>  <MOL_WT>  (4323) 
209.21999999999997

>  <LOGP>  (4323) 
1.2133

>  <TPSA>  (4323) 
49.33

>  <POPULARITY>  (4323) 
6.7

>  <PROTECTED>  (4323) 
TRUE

>  <SMILES>  (4323) 
N1C[C@H]([C@@H](C1)c2(cccc(F)c2))C(=O)O

>  <INCHIKEY>  (4323) 
NKGQZNWWPOLORG-VHSXEESVSA-N

$$$$
bPro_S_4RPh_3F_4Br
     RDKit          2D

 16 17  0  0  0  0  0  0  0  0999 V2000
   -3.0433    2.3175    0.0000 N   0  0  0  0  0  0  0  0  0  0  0  0
   -3.5428    0.9031    0.0000 C   0  0  0  0  0  0  0  0  0  0  0  0
   -2.3520   -0.0090    0.0000 C   0  0  0  0  0  0  0  0  0  0  0  0
   -1.1165    0.8416    0.0000 C   0  0  0  0  0  0  0  0  0  0  0  0
   -1.5438    2.2795    0.0000 C   0  0  0  0  0  0  0  0  0  0  0  0
    0.2979    0.3421    0.0000 C   0  0  0  0  0  0  0  0  0  0  0  0
    0.5725   -1.1325    0.0000 C   0  0  0  0  0  0  0  0  0  0  0  0
    1.9869   -1.6320    0.0000 C   0  0  0  0  0  0  0  0  0  0  0  0
    3.1266   -0.6568    0.0000 C   0  0  0  0  0  0  0  0  0  0  0  0
    4.5410   -1.1563    0.0000 Br  0  0  0  0  0  0  0  0  0  0  0  0
    2.8520    0.8178    0.0000 C   0  0  0  0  0  0  0  0  0  0  0  0
    3.9918    1.7929    0.0000 F   0  0  0  0  0  0  0  0  0  0  0  0
    1.4376    1.3173    0.0000 C   0  0  0  0  0  0  0  0  0  0  0  0
   -2.3900   -1.5085    0.0000 C   0  0  0  0  0  0  0  0  0  0  0  0
   -1.1103   -2.2912    0.0000 O   0  0  0  0  0  0  0  0  0  0  0  0
   -3.7076   -2.2254    0.0000 O   0  0  0  0  0  0  0  0  0  0  0  0
  1  2  1  0
  2  3  1  0
  3  4  1  0
  4  5  1  0
  4  6  1  1
  6  7  1  0
  7  8  2  0
  8  9  1  0
  9 10  1  0
  9 11  2  0
 11 12  1  0
 11 13  1  0
  3 14  1  6
 14 15  2  0
 14 16  1  0
  5  1  1  0
 13  6  2  0
M  END
>  <rName>  (4324) 
bPro_S_4RPh_3F_4Br

>  <PQ_SYMBOL>  (4324) 
bPro_S_4RPh_3F_4Br

>  <FULL_NAME>  (4324) 
rac-(3R,4S)-4-(4-bromo-3-fluorophenyl)pyrrolidine-3-carboxylic acid

>  <IUPAC_CONDENSED>  (4324) 
bPro(S,4R-Ph(3-F,4-Br))

>  <IUPAC>  (4324) 
(3S,4R)-4-(4-bromo-3-fluorophenyl)pyrrolidine-3-carboxylic acid

>  <TYPE>  (4324) 
Backbone

>  <CLASS>  (4324) 
beta

>  <ANALOG>  (4324) 
Pro

>  <MOL_WT>  (4324) 
288.116

>  <LOGP>  (4324) 
1.9758

>  <TPSA>  (4324) 
49.33

>  <POPULARITY>  (4324) 
2.7

>  <PROTECTED>  (4324) 
TRUE

>  <SMILES>  (4324) 
N1C[C@H]([C@@H](C1)c2(ccc(Br)c(F)c2))C(=O)O

>  <INCHIKEY>  (4324) 
ATQFWOAOSUDESC-JGVFFNPUSA-N

$$$$
bPro_S_4RPh_3OH
     RDKit          2D

 15 16  0  0  0  0  0  0  0  0999 V2000
   -2.5063    2.4997    0.0000 N   0  0  0  0  0  0  0  0  0  0  0  0
   -3.1428    1.1414    0.0000 C   0  0  0  0  0  0  0  0  0  0  0  0
   -2.0478    0.1164    0.0000 C   0  0  0  0  0  0  0  0  0  0  0  0
   -0.7344    0.8411    0.0000 C   0  0  0  0  0  0  0  0  0  0  0  0
   -1.0178    2.3141    0.0000 C   0  0  0  0  0  0  0  0  0  0  0  0
    0.6238    0.2045    0.0000 C   0  0  0  0  0  0  0  0  0  0  0  0
    0.7517   -1.2900    0.0000 C   0  0  0  0  0  0  0  0  0  0  0  0
    2.1099   -1.9265    0.0000 C   0  0  0  0  0  0  0  0  0  0  0  0
    3.3403   -1.0685    0.0000 C   0  0  0  0  0  0  0  0  0  0  0  0
    3.2124    0.4260    0.0000 C   0  0  0  0  0  0  0  0  0  0  0  0
    4.4428    1.2841    0.0000 O   0  0  0  0  0  0  0  0  0  0  0  0
    1.8542    1.0626    0.0000 C   0  0  0  0  0  0  0  0  0  0  0  0
   -2.2334   -1.3721    0.0000 C   0  0  0  0  0  0  0  0  0  0  0  0
   -1.0372   -2.2771    0.0000 O   0  0  0  0  0  0  0  0  0  0  0  0
   -3.6153   -1.9556    0.0000 O   0  0  0  0  0  0  0  0  0  0  0  0
  1  2  1  0
  2  3  1  0
  3  4  1  0
  4  5  1  0
  4  6  1  1
  6  7  2  0
  7  8  1  0
  8  9  2  0
  9 10  1  0
 10 11  1  0
 10 12  2  0
  3 13  1  6
 13 14  2  0
 13 15  1  0
  5  1  1  0
 12  6  1  0
M  END
>  <rName>  (4325) 
bPro_S_4RPh_3OH

>  <PQ_SYMBOL>  (4325) 
bPro_S_4RPh_3OH

>  <FULL_NAME>  (4325) 
(3S,4R)-4-(3-hydroxyphenyl)pyrrolidine-3-carboxylic acid

>  <IUPAC_CONDENSED>  (4325) 
bPro(S,4R-Ph(3-OH))

>  <IUPAC>  (4325) 
(3S,4R)-4-(3-hydroxyphenyl)pyrrolidine-3-carboxylic acid

>  <TYPE>  (4325) 
Backbone

>  <CLASS>  (4325) 
beta

>  <ANALOG>  (4325) 
Pro

>  <MOL_WT>  (4325) 
207.22899999999998

>  <LOGP>  (4325) 
0.7797999999999998

>  <TPSA>  (4325) 
69.56

>  <POPULARITY>  (4325) 
6.3

>  <PROTECTED>  (4325) 
TRUE

>  <SMILES>  (4325) 
N1C[C@H]([C@@H](C1)c2(cccc(O)c2))C(=O)O

>  <INCHIKEY>  (4325) 
PVSZHVAUFQAERY-VHSXEESVSA-N

$$$$
bPro_S_4RPh_3OMe
     RDKit          2D

 16 17  0  0  0  0  0  0  0  0999 V2000
   -2.7687    2.5715    0.0000 N   0  0  0  0  0  0  0  0  0  0  0  0
   -3.4588    1.2397    0.0000 C   0  0  0  0  0  0  0  0  0  0  0  0
   -2.4054    0.1718    0.0000 C   0  0  0  0  0  0  0  0  0  0  0  0
   -1.0643    0.8436    0.0000 C   0  0  0  0  0  0  0  0  0  0  0  0
   -1.2888    2.3267    0.0000 C   0  0  0  0  0  0  0  0  0  0  0  0
    0.2676    0.1535    0.0000 C   0  0  0  0  0  0  0  0  0  0  0  0
    0.3358   -1.3449    0.0000 C   0  0  0  0  0  0  0  0  0  0  0  0
    1.6677   -2.0350    0.0000 C   0  0  0  0  0  0  0  0  0  0  0  0
    2.9312   -1.2266    0.0000 C   0  0  0  0  0  0  0  0  0  0  0  0
    2.8629    0.2718    0.0000 C   0  0  0  0  0  0  0  0  0  0  0  0
    4.1265    1.0801    0.0000 O   0  0  0  0  0  0  0  0  0  0  0  0
    5.4583    0.3900    0.0000 C   0  0  0  0  0  0  0  0  0  0  0  0
    1.5311    0.9619    0.0000 C   0  0  0  0  0  0  0  0  0  0  0  0
   -2.6502   -1.3081    0.0000 C   0  0  0  0  0  0  0  0  0  0  0  0
   -1.4909   -2.2600    0.0000 O   0  0  0  0  0  0  0  0  0  0  0  0
   -4.0542   -1.8361    0.0000 O   0  0  0  0  0  0  0  0  0  0  0  0
  1  2  1  0
  2  3  1  0
  3  4  1  0
  4  5  1  0
  4  6  1  1
  6  7  2  0
  7  8  1  0
  8  9  2  0
  9 10  1  0
 10 11  1  0
 11 12  1  0
 10 13  2  0
  3 14  1  6
 14 15  2  0
 14 16  1  0
  5  1  1  0
 13  6  1  0
M  END
>  <rName>  (4326) 
bPro_S_4RPh_3OMe

>  <PQ_SYMBOL>  (4326) 
bPro_S_4RPh_3OMe

>  <FULL_NAME>  (4326) 
(3S,4R)-4-(3-methoxyphenyl)pyrrolidine-3-carboxylic acid

>  <IUPAC_CONDENSED>  (4326) 
bPro(S,4R-Ph(3-OMe))

>  <IUPAC>  (4326) 
(3S,4R)-4-(3-methoxyphenyl)pyrrolidine-3-carboxylic acid

>  <TYPE>  (4326) 
Backbone

>  <CLASS>  (4326) 
beta

>  <ANALOG>  (4326) 
Pro

>  <MOL_WT>  (4326) 
221.25599999999997

>  <LOGP>  (4326) 
1.0828

>  <TPSA>  (4326) 
58.56

>  <POPULARITY>  (4326) 
6.3

>  <PROTECTED>  (4326) 
TRUE

>  <SMILES>  (4326) 
N1C[C@H]([C@@H](C1)c2(cccc(OC)c2))C(=O)O

>  <INCHIKEY>  (4326) 
DPBJZZNRRNSKIH-WDEREUQCSA-N

$$$$
bPro_S_4RPh_4Br
     RDKit          2D

 15 16  0  0  0  0  0  0  0  0999 V2000
   -3.0467    2.0903    0.0000 N   0  0  0  0  0  0  0  0  0  0  0  0
   -3.3749    0.6266    0.0000 C   0  0  0  0  0  0  0  0  0  0  0  0
   -2.0842   -0.1378    0.0000 C   0  0  0  0  0  0  0  0  0  0  0  0
   -0.9584    0.8535    0.0000 C   0  0  0  0  0  0  0  0  0  0  0  0
   -1.5533    2.2305    0.0000 C   0  0  0  0  0  0  0  0  0  0  0  0
    0.5052    0.5253    0.0000 C   0  0  0  0  0  0  0  0  0  0  0  0
    0.9529   -0.9063    0.0000 C   0  0  0  0  0  0  0  0  0  0  0  0
    2.4165   -1.2345    0.0000 C   0  0  0  0  0  0  0  0  0  0  0  0
    3.4325   -0.1310    0.0000 C   0  0  0  0  0  0  0  0  0  0  0  0
    4.8962   -0.4591    0.0000 Br  0  0  0  0  0  0  0  0  0  0  0  0
    2.9849    1.3007    0.0000 C   0  0  0  0  0  0  0  0  0  0  0  0
    1.5212    1.6288    0.0000 C   0  0  0  0  0  0  0  0  0  0  0  0
   -1.9440   -1.6312    0.0000 C   0  0  0  0  0  0  0  0  0  0  0  0
   -0.5806   -2.2565    0.0000 O   0  0  0  0  0  0  0  0  0  0  0  0
   -3.1673   -2.4993    0.0000 O   0  0  0  0  0  0  0  0  0  0  0  0
  1  2  1  0
  2  3  1  0
  3  4  1  0
  4  5  1  0
  4  6  1  1
  6  7  1  0
  7  8  2  0
  8  9  1  0
  9 10  1  0
  9 11  2  0
 11 12  1  0
  3 13  1  6
 13 14  2  0
 13 15  1  0
  5  1  1  0
 12  6  2  0
M  END
>  <rName>  (4327) 
bPro_S_4RPh_4Br

>  <PQ_SYMBOL>  (4327) 
bPro_S_4RPh_4Br

>  <FULL_NAME>  (4327) 
rac-(3R,4S)-4-(4-bromophenyl)pyrrolidine-3-carboxylic acid

>  <IUPAC_CONDENSED>  (4327) 
bPro(S,4R-Ph(4-Br))

>  <IUPAC>  (4327) 
(3S,4R)-4-(4-bromophenyl)pyrrolidine-3-carboxylic acid

>  <TYPE>  (4327) 
Backbone

>  <CLASS>  (4327) 
beta

>  <ANALOG>  (4327) 
Pro

>  <MOL_WT>  (4327) 
270.126

>  <LOGP>  (4327) 
1.8367

>  <TPSA>  (4327) 
49.33

>  <POPULARITY>  (4327) 
5.1

>  <PROTECTED>  (4327) 
TRUE

>  <SMILES>  (4327) 
N1C[C@H]([C@@H](C1)c2(ccc(Br)cc2))C(=O)O

>  <INCHIKEY>  (4327) 
XXAATEOPXCAIIN-VHSXEESVSA-N

$$$$
bPro_S_4RPh_4Cl
     RDKit          2D

 15 16  0  0  0  0  0  0  0  0999 V2000
   -3.0467    2.0903    0.0000 N   0  0  0  0  0  0  0  0  0  0  0  0
   -3.3749    0.6266    0.0000 C   0  0  0  0  0  0  0  0  0  0  0  0
   -2.0842   -0.1378    0.0000 C   0  0  0  0  0  0  0  0  0  0  0  0
   -0.9584    0.8535    0.0000 C   0  0  0  0  0  0  0  0  0  0  0  0
   -1.5533    2.2305    0.0000 C   0  0  0  0  0  0  0  0  0  0  0  0
    0.5052    0.5253    0.0000 C   0  0  0  0  0  0  0  0  0  0  0  0
    0.9529   -0.9063    0.0000 C   0  0  0  0  0  0  0  0  0  0  0  0
    2.4165   -1.2345    0.0000 C   0  0  0  0  0  0  0  0  0  0  0  0
    3.4325   -0.1310    0.0000 C   0  0  0  0  0  0  0  0  0  0  0  0
    4.8962   -0.4591    0.0000 Cl  0  0  0  0  0  0  0  0  0  0  0  0
    2.9849    1.3007    0.0000 C   0  0  0  0  0  0  0  0  0  0  0  0
    1.5212    1.6288    0.0000 C   0  0  0  0  0  0  0  0  0  0  0  0
   -1.9440   -1.6312    0.0000 C   0  0  0  0  0  0  0  0  0  0  0  0
   -0.5806   -2.2565    0.0000 O   0  0  0  0  0  0  0  0  0  0  0  0
   -3.1673   -2.4993    0.0000 O   0  0  0  0  0  0  0  0  0  0  0  0
  1  2  1  0
  2  3  1  0
  3  4  1  0
  4  5  1  0
  4  6  1  1
  6  7  1  0
  7  8  2  0
  8  9  1  0
  9 10  1  0
  9 11  2  0
 11 12  1  0
  3 13  1  6
 13 14  2  0
 13 15  1  0
  5  1  1  0
 12  6  2  0
M  END
>  <rName>  (4328) 
bPro_S_4RPh_4Cl

>  <PQ_SYMBOL>  (4328) 
bPro_S_4RPh_4Cl

>  <FULL_NAME>  (4328) 
(3S,4R)-4-(4-chlorophenyl)pyrrolidine-3-carboxylic acid

>  <IUPAC_CONDENSED>  (4328) 
bPro(S,4R-Ph(4-Cl))

>  <IUPAC>  (4328) 
(3S,4R)-4-(4-chlorophenyl)pyrrolidine-3-carboxylic acid

>  <TYPE>  (4328) 
Backbone

>  <CLASS>  (4328) 
beta

>  <ANALOG>  (4328) 
Pro

>  <MOL_WT>  (4328) 
225.675

>  <LOGP>  (4328) 
1.7276

>  <TPSA>  (4328) 
49.33

>  <POPULARITY>  (4328) 
6.4

>  <PROTECTED>  (4328) 
TRUE

>  <SMILES>  (4328) 
N1C[C@H]([C@@H](C1)c2(ccc(Cl)cc2))C(=O)O

>  <INCHIKEY>  (4328) 
UOAQYJHCQPXLOP-VHSXEESVSA-N

$$$$
bPro_S_4RPh_4F
     RDKit          2D

 15 16  0  0  0  0  0  0  0  0999 V2000
   -3.0467    2.0903    0.0000 N   0  0  0  0  0  0  0  0  0  0  0  0
   -3.3749    0.6266    0.0000 C   0  0  0  0  0  0  0  0  0  0  0  0
   -2.0842   -0.1378    0.0000 C   0  0  0  0  0  0  0  0  0  0  0  0
   -0.9584    0.8535    0.0000 C   0  0  0  0  0  0  0  0  0  0  0  0
   -1.5533    2.2305    0.0000 C   0  0  0  0  0  0  0  0  0  0  0  0
    0.5052    0.5253    0.0000 C   0  0  0  0  0  0  0  0  0  0  0  0
    0.9529   -0.9063    0.0000 C   0  0  0  0  0  0  0  0  0  0  0  0
    2.4165   -1.2345    0.0000 C   0  0  0  0  0  0  0  0  0  0  0  0
    3.4325   -0.1310    0.0000 C   0  0  0  0  0  0  0  0  0  0  0  0
    4.8962   -0.4591    0.0000 F   0  0  0  0  0  0  0  0  0  0  0  0
    2.9849    1.3007    0.0000 C   0  0  0  0  0  0  0  0  0  0  0  0
    1.5212    1.6288    0.0000 C   0  0  0  0  0  0  0  0  0  0  0  0
   -1.9440   -1.6312    0.0000 C   0  0  0  0  0  0  0  0  0  0  0  0
   -0.5806   -2.2565    0.0000 O   0  0  0  0  0  0  0  0  0  0  0  0
   -3.1673   -2.4993    0.0000 O   0  0  0  0  0  0  0  0  0  0  0  0
  1  2  1  0
  2  3  1  0
  3  4  1  0
  4  5  1  0
  4  6  1  1
  6  7  1  0
  7  8  2  0
  8  9  1  0
  9 10  1  0
  9 11  2  0
 11 12  1  0
  3 13  1  6
 13 14  2  0
 13 15  1  0
  5  1  1  0
 12  6  2  0
M  END
>  <rName>  (4329) 
bPro_S_4RPh_4F

>  <PQ_SYMBOL>  (4329) 
bPro_S_4RPh_4F

>  <FULL_NAME>  (4329) 
(3S,4R)-4-(4-fluorophenyl)pyrrolidine-3-carboxylic acid

>  <IUPAC_CONDENSED>  (4329) 
bPro(S,4R-Ph(4-F))

>  <IUPAC>  (4329) 
(3S,4R)-4-(4-fluorophenyl)pyrrolidine-3-carboxylic acid

>  <TYPE>  (4329) 
Backbone

>  <CLASS>  (4329) 
beta

>  <ANALOG>  (4329) 
Pro

>  <MOL_WT>  (4329) 
209.22

>  <LOGP>  (4329) 
1.2133

>  <TPSA>  (4329) 
49.33

>  <POPULARITY>  (4329) 
7.7

>  <PROTECTED>  (4329) 
TRUE

>  <SMILES>  (4329) 
N1C[C@H]([C@@H](C1)c2(ccc(F)cc2))C(=O)O

>  <INCHIKEY>  (4329) 
YXKAESVIGMPPNB-VHSXEESVSA-N

$$$$
bPro_S_4RPh_4Me
     RDKit          2D

 15 16  0  0  0  0  0  0  0  0999 V2000
   -3.0467    2.0903    0.0000 N   0  0  0  0  0  0  0  0  0  0  0  0
   -3.3749    0.6266    0.0000 C   0  0  0  0  0  0  0  0  0  0  0  0
   -2.0842   -0.1378    0.0000 C   0  0  0  0  0  0  0  0  0  0  0  0
   -0.9584    0.8535    0.0000 C   0  0  0  0  0  0  0  0  0  0  0  0
   -1.5533    2.2305    0.0000 C   0  0  0  0  0  0  0  0  0  0  0  0
    0.5052    0.5253    0.0000 C   0  0  0  0  0  0  0  0  0  0  0  0
    0.9529   -0.9063    0.0000 C   0  0  0  0  0  0  0  0  0  0  0  0
    2.4165   -1.2345    0.0000 C   0  0  0  0  0  0  0  0  0  0  0  0
    3.4325   -0.1310    0.0000 C   0  0  0  0  0  0  0  0  0  0  0  0
    4.8962   -0.4591    0.0000 C   0  0  0  0  0  0  0  0  0  0  0  0
    2.9849    1.3007    0.0000 C   0  0  0  0  0  0  0  0  0  0  0  0
    1.5212    1.6288    0.0000 C   0  0  0  0  0  0  0  0  0  0  0  0
   -1.9440   -1.6312    0.0000 C   0  0  0  0  0  0  0  0  0  0  0  0
   -0.5806   -2.2565    0.0000 O   0  0  0  0  0  0  0  0  0  0  0  0
   -3.1673   -2.4993    0.0000 O   0  0  0  0  0  0  0  0  0  0  0  0
  1  2  1  0
  2  3  1  0
  3  4  1  0
  4  5  1  0
  4  6  1  1
  6  7  1  0
  7  8  2  0
  8  9  1  0
  9 10  1  0
  9 11  2  0
 11 12  1  0
  3 13  1  6
 13 14  2  0
 13 15  1  0
  5  1  1  0
 12  6  2  0
M  END
>  <rName>  (4330) 
bPro_S_4RPh_4Me

>  <PQ_SYMBOL>  (4330) 
bPro_S_4RPh_4Me

>  <FULL_NAME>  (4330) 
(3S,4R)-4-p-Tolylpyrrolidine-3-carboxylic acid

>  <IUPAC_CONDENSED>  (4330) 
bPro(S,4R-Ph(4-Me))

>  <IUPAC>  (4330) 
(3S,4R)-4-(4-methylphenyl)pyrrolidine-3-carboxylic acid

>  <TYPE>  (4330) 
Backbone

>  <CLASS>  (4330) 
beta

>  <ANALOG>  (4330) 
Pro

>  <MOL_WT>  (4330) 
205.257

>  <LOGP>  (4330) 
1.38262

>  <TPSA>  (4330) 
49.33

>  <POPULARITY>  (4330) 
5.8

>  <PROTECTED>  (4330) 
TRUE

>  <SMILES>  (4330) 
N1C[C@H]([C@@H](C1)c2(ccc(C)cc2))C(=O)O

>  <INCHIKEY>  (4330) 
HOMQPSPEVRFBRQ-WDEREUQCSA-N

$$$$
bPro_S_4RPh_4OMe
     RDKit          2D

 16 17  0  0  0  0  0  0  0  0999 V2000
   -3.5950    1.8392    0.0000 N   0  0  0  0  0  0  0  0  0  0  0  0
   -3.7668    0.3491    0.0000 C   0  0  0  0  0  0  0  0  0  0  0  0
   -2.4027   -0.2748    0.0000 C   0  0  0  0  0  0  0  0  0  0  0  0
   -1.3878    0.8298    0.0000 C   0  0  0  0  0  0  0  0  0  0  0  0
   -2.1247    2.1363    0.0000 C   0  0  0  0  0  0  0  0  0  0  0  0
    0.1023    0.6580    0.0000 C   0  0  0  0  0  0  0  0  0  0  0  0
    0.6986   -0.7184    0.0000 C   0  0  0  0  0  0  0  0  0  0  0  0
    2.1887   -0.8902    0.0000 C   0  0  0  0  0  0  0  0  0  0  0  0
    3.0826    0.3144    0.0000 C   0  0  0  0  0  0  0  0  0  0  0  0
    4.5727    0.1426    0.0000 O   0  0  0  0  0  0  0  0  0  0  0  0
    5.1690   -1.2338    0.0000 C   0  0  0  0  0  0  0  0  0  0  0  0
    2.4863    1.6908    0.0000 C   0  0  0  0  0  0  0  0  0  0  0  0
    0.9962    1.8626    0.0000 C   0  0  0  0  0  0  0  0  0  0  0  0
   -2.1056   -1.7451    0.0000 C   0  0  0  0  0  0  0  0  0  0  0  0
   -0.6837   -2.2229    0.0000 O   0  0  0  0  0  0  0  0  0  0  0  0
   -3.2303   -2.7375    0.0000 O   0  0  0  0  0  0  0  0  0  0  0  0
  1  2  1  0
  2  3  1  0
  3  4  1  0
  4  5  1  0
  4  6  1  1
  6  7  1  0
  7  8  2  0
  8  9  1  0
  9 10  1  0
 10 11  1  0
  9 12  2  0
 12 13  1  0
  3 14  1  6
 14 15  2  0
 14 16  1  0
  5  1  1  0
 13  6  2  0
M  END
>  <rName>  (4331) 
bPro_S_4RPh_4OMe

>  <PQ_SYMBOL>  (4331) 
bPro_S_4RPh_4OMe

>  <FULL_NAME>  (4331) 
(3S,4R)-4-(4-methoxyphenyl)pyrrolidine-3-carboxylic acid

>  <IUPAC_CONDENSED>  (4331) 
bPro(S,4R-Ph(4-OMe))

>  <IUPAC>  (4331) 
(3S,4R)-4-(4-methoxyphenyl)pyrrolidine-3-carboxylic acid

>  <TYPE>  (4331) 
Backbone

>  <CLASS>  (4331) 
beta

>  <ANALOG>  (4331) 
Pro

>  <MOL_WT>  (4331) 
221.256

>  <LOGP>  (4331) 
1.0828

>  <TPSA>  (4331) 
58.56

>  <POPULARITY>  (4331) 
7.4

>  <PROTECTED>  (4331) 
TRUE

>  <SMILES>  (4331) 
N1C[C@H]([C@@H](C1)c2(ccc(OC)cc2))C(=O)O

>  <INCHIKEY>  (4331) 
FQHFMERRNRYSDS-WDEREUQCSA-N

$$$$
bPro_S_4Rpyrazol4yl_15diMe
     RDKit          2D

 15 16  0  0  0  0  0  0  0  0999 V2000
    3.1081   -1.8561    0.0000 N   0  0  0  0  0  0  0  0  0  0  0  0
    3.2020   -0.3590    0.0000 C   0  0  0  0  0  0  0  0  0  0  0  0
    1.8072    0.1929    0.0000 C   0  0  0  0  0  0  0  0  0  0  0  0
    0.8513   -0.9631    0.0000 C   0  0  0  0  0  0  0  0  0  0  0  0
    1.6553   -2.2294    0.0000 C   0  0  0  0  0  0  0  0  0  0  0  0
   -0.6457   -0.8692    0.0000 C   0  0  0  0  0  0  0  0  0  0  0  0
   -1.6016   -2.0252    0.0000 C   0  0  0  0  0  0  0  0  0  0  0  0
   -2.9964   -1.4733    0.0000 N   0  0  0  0  0  0  0  0  0  0  0  0
   -2.9025    0.0238    0.0000 N   0  0  0  0  0  0  0  0  0  0  0  0
   -4.0585    0.9797    0.0000 C   0  0  0  0  0  0  0  0  0  0  0  0
   -1.4497    0.3971    0.0000 C   0  0  0  0  0  0  0  0  0  0  0  0
   -0.8978    1.7919    0.0000 C   0  0  0  0  0  0  0  0  0  0  0  0
    1.4339    1.6457    0.0000 C   0  0  0  0  0  0  0  0  0  0  0  0
   -0.0109    2.0488    0.0000 O   0  0  0  0  0  0  0  0  0  0  0  0
    2.5054    2.6954    0.0000 O   0  0  0  0  0  0  0  0  0  0  0  0
  1  2  1  0
  2  3  1  0
  3  4  1  0
  4  5  1  0
  4  6  1  1
  6  7  1  0
  7  8  2  0
  8  9  1  0
  9 10  1  0
  9 11  1  0
 11 12  1  0
  3 13  1  6
 13 14  2  0
 13 15  1  0
  5  1  1  0
 11  6  2  0
M  END
>  <rName>  (4332) 
bPro_S_4Rpyrazol4yl_15diMe

>  <PQ_SYMBOL>  (4332) 
bPro_S_4Rpyrazol4yl_15diMe

>  <FULL_NAME>  (4332) 
rac-(3R,4S)-4-(1,5-dimethyl-1H-pyrazol-4-yl)pyrrolidine-3-carboxylic acid

>  <IUPAC_CONDENSED>  (4332) 
bPro(S,4R-pyrazol-4-yl(1,5-diMe))

>  <IUPAC>  (4332) 
(3S,4R)-4-(1,5-dimethyl-1H-pyrazol-4-yl)pyrrolidine-3-carboxylic acid

>  <TYPE>  (4332) 
Backbone

>  <CLASS>  (4332) 
beta

>  <ANALOG>  (4332) 
Pro

>  <MOL_WT>  (4332) 
209.249

>  <LOGP>  (4332) 
0.11611999999999928

>  <TPSA>  (4332) 
67.15

>  <POPULARITY>  (4332) 
3.1

>  <PROTECTED>  (4332) 
TRUE

>  <SMILES>  (4332) 
N1C[C@H]([C@@H](C1)c2(cnn(C)c2C))C(=O)O

>  <INCHIKEY>  (4332) 
BYKRYULDRUMKLO-DTWKUNHWSA-N

$$$$
bPro_S_4Rpyrid3yl
     RDKit          2D

 14 15  0  0  0  0  0  0  0  0999 V2000
   -2.5667    2.2179    0.0000 N   0  0  0  0  0  0  0  0  0  0  0  0
   -2.9834    0.7769    0.0000 C   0  0  0  0  0  0  0  0  0  0  0  0
   -1.7417   -0.0646    0.0000 C   0  0  0  0  0  0  0  0  0  0  0  0
   -0.5576    0.8562    0.0000 C   0  0  0  0  0  0  0  0  0  0  0  0
   -1.0675    2.2669    0.0000 C   0  0  0  0  0  0  0  0  0  0  0  0
    0.8833    0.4396    0.0000 C   0  0  0  0  0  0  0  0  0  0  0  0
    1.2430   -1.0167    0.0000 C   0  0  0  0  0  0  0  0  0  0  0  0
    2.6840   -1.4333    0.0000 C   0  0  0  0  0  0  0  0  0  0  0  0
    3.7653   -0.3937    0.0000 C   0  0  0  0  0  0  0  0  0  0  0  0
    3.4056    1.0625    0.0000 N   0  0  0  0  0  0  0  0  0  0  0  0
    1.9647    1.4792    0.0000 C   0  0  0  0  0  0  0  0  0  0  0  0
   -1.6927   -1.5638    0.0000 C   0  0  0  0  0  0  0  0  0  0  0  0
   -0.3698   -2.2710    0.0000 O   0  0  0  0  0  0  0  0  0  0  0  0
   -2.9665   -2.3559    0.0000 O   0  0  0  0  0  0  0  0  0  0  0  0
  1  2  1  0
  2  3  1  0
  3  4  1  0
  4  5  1  0
  4  6  1  1
  6  7  2  0
  7  8  1  0
  8  9  2  0
  9 10  1  0
 10 11  2  0
  3 12  1  6
 12 13  2  0
 12 14  1  0
  5  1  1  0
 11  6  1  0
M  END
>  <rName>  (4333) 
bPro_S_4Rpyrid3yl

>  <PQ_SYMBOL>  (4333) 
bPro_S_4Rpyrid3yl

>  <FULL_NAME>  (4333) 
(3S,4R)-4-pyridin-3-ylpyrrolidine-3-carboxylic acid

>  <IUPAC_CONDENSED>  (4333) 
bPro(S,4R-pyrid-3-yl)

>  <IUPAC>  (4333) 
(3S,4R)-4-(pyridin-3-yl)pyrrolidine-3-carboxylic acid

>  <TYPE>  (4333) 
Backbone

>  <CLASS>  (4333) 
beta

>  <ANALOG>  (4333) 
Pro

>  <MOL_WT>  (4333) 
192.218

>  <LOGP>  (4333) 
0.4691999999999998

>  <TPSA>  (4333) 
62.22

>  <POPULARITY>  (4333) 
4.8

>  <PROTECTED>  (4333) 
TRUE

>  <SMILES>  (4333) 
N1C[C@H]([C@@H](C1)c2(cccnc2))C(=O)O

>  <INCHIKEY>  (4333) 
BKFWMNFJNGQFKR-DTWKUNHWSA-N

$$$$
bPro_S_4Rthien3yl
     RDKit          2D

 13 14  0  0  0  0  0  0  0  0999 V2000
    2.2543   -2.2479    0.0000 N   0  0  0  0  0  0  0  0  0  0  0  0
    2.7038   -0.8168    0.0000 C   0  0  0  0  0  0  0  0  0  0  0  0
    1.4817    0.0529    0.0000 C   0  0  0  0  0  0  0  0  0  0  0  0
    0.2769   -0.8406    0.0000 C   0  0  0  0  0  0  0  0  0  0  0  0
    0.7544   -2.2626    0.0000 C   0  0  0  0  0  0  0  0  0  0  0  0
   -1.1542   -0.3911    0.0000 C   0  0  0  0  0  0  0  0  0  0  0  0
   -2.3590   -1.2846    0.0000 C   0  0  0  0  0  0  0  0  0  0  0  0
   -3.5811   -0.4149    0.0000 C   0  0  0  0  0  0  0  0  0  0  0  0
   -3.1316    1.0162    0.0000 S   0  0  0  0  0  0  0  0  0  0  0  0
   -1.6317    1.0309    0.0000 C   0  0  0  0  0  0  0  0  0  0  0  0
    1.4670    1.5529    0.0000 C   0  0  0  0  0  0  0  0  0  0  0  0
    0.1607    2.2901    0.0000 O   0  0  0  0  0  0  0  0  0  0  0  0
    2.7586    2.3156    0.0000 O   0  0  0  0  0  0  0  0  0  0  0  0
  1  2  1  0
  2  3  1  0
  3  4  1  0
  4  5  1  0
  4  6  1  1
  6  7  1  0
  7  8  2  0
  8  9  1  0
  9 10  1  0
  3 11  1  6
 11 12  2  0
 11 13  1  0
  5  1  1  0
 10  6  2  0
M  END
>  <rName>  (4334) 
bPro_S_4Rthien3yl

>  <PQ_SYMBOL>  (4334) 
bPro_S_4Rthien3yl

>  <FULL_NAME>  (4334) 
rac-(3R,4S)-4-(thiophen-3-yl)pyrrolidine-3-carboxylic acid

>  <IUPAC_CONDENSED>  (4334) 
bPro(S,4R-thien-3-yl)

>  <IUPAC>  (4334) 
(3S,4R)-4-(thiophen-3-yl)pyrrolidine-3-carboxylic acid

>  <TYPE>  (4334) 
Backbone

>  <CLASS>  (4334) 
beta

>  <ANALOG>  (4334) 
Pro

>  <MOL_WT>  (4334) 
197.259

>  <LOGP>  (4334) 
1.1357

>  <TPSA>  (4334) 
49.33

>  <POPULARITY>  (4334) 
3.0

>  <PROTECTED>  (4334) 
TRUE

>  <SMILES>  (4334) 
N1C[C@H]([C@@H](C1)c2(ccsc2))C(=O)O

>  <INCHIKEY>  (4334) 
QJBJLPGQLUJIES-JGVFFNPUSA-N

$$$$
bPro_S_4S1Meimidazol4yl
     RDKit          2D

 14 15  0  0  0  0  0  0  0  0999 V2000
    2.4277   -2.3870    0.0000 N   0  0  0  0  0  0  0  0  0  0  0  0
    2.9908   -0.9967    0.0000 C   0  0  0  0  0  0  0  0  0  0  0  0
    1.8425   -0.0315    0.0000 C   0  0  0  0  0  0  0  0  0  0  0  0
    0.5698   -0.8253    0.0000 C   0  0  0  0  0  0  0  0  0  0  0  0
    0.9314   -2.2811    0.0000 C   0  0  0  0  0  0  0  0  0  0  0  0
   -0.8205   -0.2622    0.0000 C   0  0  0  0  0  0  0  0  0  0  0  0
   -2.0933   -1.0561    0.0000 C   0  0  0  0  0  0  0  0  0  0  0  0
   -3.2415   -0.0909    0.0000 N   0  0  0  0  0  0  0  0  0  0  0  0
   -4.6973   -0.4526    0.0000 C   0  0  0  0  0  0  0  0  0  0  0  0
   -2.6784    1.2994    0.0000 C   0  0  0  0  0  0  0  0  0  0  0  0
   -1.1822    1.1935    0.0000 N   0  0  0  0  0  0  0  0  0  0  0  0
    1.9484    1.4647    0.0000 C   0  0  0  0  0  0  0  0  0  0  0  0
    0.7056    2.3046    0.0000 O   0  0  0  0  0  0  0  0  0  0  0  0
    3.2972    2.1212    0.0000 O   0  0  0  0  0  0  0  0  0  0  0  0
  1  2  1  0
  2  3  1  0
  3  4  1  0
  4  5  1  0
  4  6  1  1
  6  7  2  0
  7  8  1  0
  8  9  1  0
  8 10  1  0
 10 11  2  0
  3 12  1  6
 12 13  2  0
 12 14  1  0
  5  1  1  0
 11  6  1  0
M  END
>  <rName>  (4335) 
bPro_S_4S1Meimidazol4yl

>  <PQ_SYMBOL>  (4335) 
bPro_S_4S1Meimidazol4yl

>  <FULL_NAME>  (4335) 
rac-(3R,4R)-4-(1-methyl-1H-imidazol-4-yl)pyrrolidine-3-carboxylic acid

>  <IUPAC_CONDENSED>  (4335) 
bPro(S,4S-1-Me-imidazol-4-yl)

>  <IUPAC>  (4335) 
(3S,4S)-4-(1-methyl-1H-imidazol-4-yl)pyrrolidine-3-carboxylic acid

>  <TYPE>  (4335) 
Backbone

>  <CLASS>  (4335) 
beta

>  <ANALOG>  (4335) 
Pro

>  <MOL_WT>  (4335) 
195.222

>  <LOGP>  (4335) 
-0.19230000000000064

>  <TPSA>  (4335) 
67.15

>  <POPULARITY>  (4335) 
3.8

>  <PROTECTED>  (4335) 
TRUE

>  <SMILES>  (4335) 
N1C[C@H]([C@@H](C1)c2(cn(C)cn2))C(=O)O

>  <INCHIKEY>  (4335) 
MYHBNIOSYPFXIO-RNFRBKRXSA-N

$$$$
bPro_S_4S1Meimidazol5yl
     RDKit          2D

 14 15  0  0  0  0  0  0  0  0999 V2000
    2.4602   -2.2539    0.0000 N   0  0  0  0  0  0  0  0  0  0  0  0
    2.8159   -0.7966    0.0000 C   0  0  0  0  0  0  0  0  0  0  0  0
    1.5399   -0.0081    0.0000 C   0  0  0  0  0  0  0  0  0  0  0  0
    0.3956   -0.9779    0.0000 C   0  0  0  0  0  0  0  0  0  0  0  0
    0.9644   -2.3659    0.0000 C   0  0  0  0  0  0  0  0  0  0  0  0
   -1.0616   -0.6222    0.0000 C   0  0  0  0  0  0  0  0  0  0  0  0
   -2.2059   -1.5921    0.0000 C   0  0  0  0  0  0  0  0  0  0  0  0
   -3.4819   -0.8035    0.0000 N   0  0  0  0  0  0  0  0  0  0  0  0
   -3.1262    0.6537    0.0000 C   0  0  0  0  0  0  0  0  0  0  0  0
   -1.6304    0.7657    0.0000 N   0  0  0  0  0  0  0  0  0  0  0  0
   -0.8418    2.0417    0.0000 C   0  0  0  0  0  0  0  0  0  0  0  0
    1.4279    1.4878    0.0000 C   0  0  0  0  0  0  0  0  0  0  0  0
    0.0764    2.1386    0.0000 O   0  0  0  0  0  0  0  0  0  0  0  0
    2.6673    2.3327    0.0000 O   0  0  0  0  0  0  0  0  0  0  0  0
  1  2  1  0
  2  3  1  0
  3  4  1  0
  4  5  1  0
  4  6  1  1
  6  7  2  0
  7  8  1  0
  8  9  2  0
  9 10  1  0
 10 11  1  0
  3 12  1  6
 12 13  2  0
 12 14  1  0
  5  1  1  0
 10  6  1  0
M  END
>  <rName>  (4336) 
bPro_S_4S1Meimidazol5yl

>  <PQ_SYMBOL>  (4336) 
bPro_S_4S1Meimidazol5yl

>  <FULL_NAME>  (4336) 
rac-(3R,4R)-4-(1-methyl-1H-imidazol-5-yl)pyrrolidine-3-carboxylic acid

>  <IUPAC_CONDENSED>  (4336) 
bPro(S,4S-1-Me-imidazol-5-yl)

>  <IUPAC>  (4336) 
(3S,4S)-4-(1-methyl-1H-imidazol-5-yl)pyrrolidine-3-carboxylic acid

>  <TYPE>  (4336) 
Backbone

>  <CLASS>  (4336) 
beta

>  <ANALOG>  (4336) 
Pro

>  <MOL_WT>  (4336) 
195.22199999999998

>  <LOGP>  (4336) 
-0.1923000000000002

>  <TPSA>  (4336) 
67.15

>  <POPULARITY>  (4336) 
2.9

>  <PROTECTED>  (4336) 
TRUE

>  <SMILES>  (4336) 
N1C[C@H]([C@@H](C1)c2(cncn2C))C(=O)O

>  <INCHIKEY>  (4336) 
JFNIENPNGJOSRV-RNFRBKRXSA-N

$$$$
bPro_S_4SCF3
     RDKit          2D

 12 12  0  0  0  0  0  0  0  0999 V2000
    0.6038   -2.7255    0.0000 N   0  0  0  0  0  0  0  0  0  0  0  0
    1.6514   -1.6520    0.0000 C   0  0  0  0  0  0  0  0  0  0  0  0
    0.9542   -0.3239    0.0000 C   0  0  0  0  0  0  0  0  0  0  0  0
   -0.5244   -0.5766    0.0000 C   0  0  0  0  0  0  0  0  0  0  0  0
   -0.7409   -2.0609    0.0000 C   0  0  0  0  0  0  0  0  0  0  0  0
   -1.5979    0.4710    0.0000 C   0  0  0  0  0  0  0  0  0  0  0  0
   -2.6714    1.5187    0.0000 F   0  0  0  0  0  0  0  0  0  0  0  0
   -2.6455   -0.6025    0.0000 F   0  0  0  0  0  0  0  0  0  0  0  0
   -0.5503    1.5445    0.0000 F   0  0  0  0  0  0  0  0  0  0  0  0
    1.6188    1.0208    0.0000 C   0  0  0  0  0  0  0  0  0  0  0  0
    0.7866    2.2688    0.0000 O   0  0  0  0  0  0  0  0  0  0  0  0
    3.1157    1.1176    0.0000 O   0  0  0  0  0  0  0  0  0  0  0  0
  1  2  1  0
  2  3  1  0
  3  4  1  0
  4  5  1  0
  4  6  1  1
  6  7  1  0
  6  8  1  0
  6  9  1  0
  3 10  1  6
 10 11  2  0
 10 12  1  0
  5  1  1  0
M  END
>  <rName>  (4337) 
bPro_S_4SCF3

>  <PQ_SYMBOL>  (4337) 
bPro_S_4SCF3

>  <FULL_NAME>  (4337) 
(3S,4S)-4-(Trifluoromethyl)pyrrolidine-3-carboxylic acid

>  <IUPAC_CONDENSED>  (4337) 
bPro(S,4S-CF3)

>  <IUPAC>  (4337) 
(3S,4S)-4-(trifluoromethyl)pyrrolidine-3-carboxylic acid

>  <TYPE>  (4337) 
Backbone

>  <CLASS>  (4337) 
beta

>  <ANALOG>  (4337) 
Pro

>  <MOL_WT>  (4337) 
183.12900000000002

>  <LOGP>  (4337) 
0.4688999999999998

>  <TPSA>  (4337) 
49.33

>  <POPULARITY>  (4337) 
4.8

>  <PROTECTED>  (4337) 
TRUE

>  <SMILES>  (4337) 
N1C[C@H]([C@@H](C1)C(F)(F)F)C(=O)O

>  <INCHIKEY>  (4337) 
PDWZJYCKCFENCX-QWWZWVQMSA-N

$$$$
bPro_S_4SCH2CF3
     RDKit          2D

 13 13  0  0  0  0  0  0  0  0999 V2000
    1.0967   -2.5714    0.0000 N   0  0  0  0  0  0  0  0  0  0  0  0
    2.1868   -1.5410    0.0000 C   0  0  0  0  0  0  0  0  0  0  0  0
    1.5437   -0.1859    0.0000 C   0  0  0  0  0  0  0  0  0  0  0  0
    0.0561   -0.3787    0.0000 C   0  0  0  0  0  0  0  0  0  0  0  0
   -0.2201   -1.8531    0.0000 C   0  0  0  0  0  0  0  0  0  0  0  0
   -0.9743    0.7114    0.0000 C   0  0  0  0  0  0  0  0  0  0  0  0
   -2.4335    0.3641    0.0000 C   0  0  0  0  0  0  0  0  0  0  0  0
   -3.8927    0.0168    0.0000 F   0  0  0  0  0  0  0  0  0  0  0  0
   -2.7808    1.8233    0.0000 F   0  0  0  0  0  0  0  0  0  0  0  0
   -2.0862   -1.0952    0.0000 F   0  0  0  0  0  0  0  0  0  0  0  0
    2.2620    1.1310    0.0000 C   0  0  0  0  0  0  0  0  0  0  0  0
    1.4808    2.4115    0.0000 O   0  0  0  0  0  0  0  0  0  0  0  0
    3.7616    1.1673    0.0000 O   0  0  0  0  0  0  0  0  0  0  0  0
  1  2  1  0
  2  3  1  0
  3  4  1  0
  4  5  1  0
  4  6  1  1
  6  7  1  0
  7  8  1  0
  7  9  1  0
  7 10  1  0
  3 11  1  6
 11 12  2  0
 11 13  1  0
  5  1  1  0
M  END
>  <rName>  (4338) 
bPro_S_4SCH2CF3

>  <PQ_SYMBOL>  (4338) 
bPro_S_4SCH2CF3

>  <FULL_NAME>  (4338) 
rac-(3R,4R)-4-(2,2,2-trifluoroethyl)pyrrolidine-3-carboxylic acid

>  <IUPAC_CONDENSED>  (4338) 
bPro(S,4S-CH2CF3)

>  <IUPAC>  (4338) 
(3S,4S)-4-(2,2,2-trifluoroethyl)pyrrolidine-3-carboxylic acid

>  <TYPE>  (4338) 
Backbone

>  <CLASS>  (4338) 
beta

>  <ANALOG>  (4338) 
Pro

>  <MOL_WT>  (4338) 
197.156

>  <LOGP>  (4338) 
0.859

>  <TPSA>  (4338) 
49.33

>  <POPULARITY>  (4338) 
2.8

>  <PROTECTED>  (4338) 
TRUE

>  <SMILES>  (4338) 
N1C[C@H]([C@@H](C1)CC(F)(F)F)C(=O)O

>  <INCHIKEY>  (4338) 
WXHMHLWVQRTNMT-RFZPGFLSSA-N

$$$$
bPro_S_4SCHF2
     RDKit          2D

 11 11  0  0  0  0  0  0  0  0999 V2000
   -0.0000   -2.7216    0.0000 N   0  0  0  0  0  0  0  0  0  0  0  0
    1.2135   -1.8399    0.0000 C   0  0  0  0  0  0  0  0  0  0  0  0
    0.7500   -0.4133    0.0000 C   0  0  0  0  0  0  0  0  0  0  0  0
   -0.7500   -0.4133    0.0000 C   0  0  0  0  0  0  0  0  0  0  0  0
   -1.2135   -1.8399    0.0000 C   0  0  0  0  0  0  0  0  0  0  0  0
   -1.6317    0.8002    0.0000 C   0  0  0  0  0  0  0  0  0  0  0  0
   -3.1235    0.6434    0.0000 F   0  0  0  0  0  0  0  0  0  0  0  0
   -1.0216    2.1705    0.0000 F   0  0  0  0  0  0  0  0  0  0  0  0
    1.6317    0.8002    0.0000 C   0  0  0  0  0  0  0  0  0  0  0  0
    1.0216    2.1705    0.0000 O   0  0  0  0  0  0  0  0  0  0  0  0
    3.1235    0.6434    0.0000 O   0  0  0  0  0  0  0  0  0  0  0  0
  1  2  1  0
  2  3  1  0
  3  4  1  0
  4  5  1  0
  4  6  1  1
  6  7  1  0
  6  8  1  0
  3  9  1  6
  9 10  2  0
  9 11  1  0
  5  1  1  0
M  END
>  <rName>  (4339) 
bPro_S_4SCHF2

>  <PQ_SYMBOL>  (4339) 
bPro_S_4SCHF2

>  <FULL_NAME>  (4339) 
rac-(3R,4R)-4-(difluoromethyl)pyrrolidine-3-carboxylic acid

>  <IUPAC_CONDENSED>  (4339) 
bPro(S,4S-CHF2)

>  <IUPAC>  (4339) 
(3S,4S)-4-(difluoromethyl)pyrrolidine-3-carboxylic acid

>  <TYPE>  (4339) 
Backbone

>  <CLASS>  (4339) 
beta

>  <ANALOG>  (4339) 
Pro

>  <MOL_WT>  (4339) 
165.139

>  <LOGP>  (4339) 
0.1716999999999997

>  <TPSA>  (4339) 
49.33

>  <POPULARITY>  (4339) 
4.8

>  <PROTECTED>  (4339) 
TRUE

>  <SMILES>  (4339) 
N1C[C@H]([C@@H](C1)C(F)F)C(=O)O

>  <INCHIKEY>  (4339) 
GWUOTCZXZDZSIG-QWWZWVQMSA-N

$$$$
bPro_S_4SF
     RDKit          2D

  9  9  0  0  0  0  0  0  0  0999 V2000
   -2.1314   -1.2133    0.0000 N   0  0  0  0  0  0  0  0  0  0  0  0
   -0.6730   -1.5641    0.0000 C   0  0  0  0  0  0  0  0  0  0  0  0
    0.1113   -0.2855    0.0000 C   0  0  0  0  0  0  0  0  0  0  0  0
   -0.8624    0.8555    0.0000 C   0  0  0  0  0  0  0  0  0  0  0  0
   -0.5115    2.3139    0.0000 F   0  0  0  0  0  0  0  0  0  0  0  0
   -2.2485    0.2821    0.0000 C   0  0  0  0  0  0  0  0  0  0  0  0
    1.6067   -0.1685    0.0000 C   0  0  0  0  0  0  0  0  0  0  0  0
    2.2531    1.1851    0.0000 O   0  0  0  0  0  0  0  0  0  0  0  0
    2.4558   -1.4051    0.0000 O   0  0  0  0  0  0  0  0  0  0  0  0
  1  2  1  0
  2  3  1  0
  3  4  1  0
  4  5  1  1
  4  6  1  0
  3  7  1  6
  7  8  2  0
  7  9  1  0
  6  1  1  0
M  END
>  <rName>  (4340) 
bPro_S_4SF

>  <PQ_SYMBOL>  (4340) 
bPro_S_4SF

>  <FULL_NAME>  (4340) 
rac-(3R,4R)-4-fluoropyrrolidine-3-carboxylic acid

>  <IUPAC_CONDENSED>  (4340) 
bPro(S,4S-F)

>  <IUPAC>  (4340) 
(3S,4S)-4-fluoropyrrolidine-3-carboxylic acid

>  <TYPE>  (4340) 
Backbone

>  <CLASS>  (4340) 
beta

>  <ANALOG>  (4340) 
Pro

>  <MOL_WT>  (4340) 
133.122

>  <LOGP>  (4340) 
-0.3715000000000002

>  <TPSA>  (4340) 
49.33

>  <POPULARITY>  (4340) 
3.4

>  <PROTECTED>  (4340) 
TRUE

>  <SMILES>  (4340) 
N1C[C@H]([C@H](F)C1)C(=O)O

>  <INCHIKEY>  (4340) 
XTSQVEUVLPTXAG-QWWZWVQMSA-N

$$$$
bPro_S_4SMe
     RDKit          2D

  9  9  0  0  0  0  0  0  0  0999 V2000
   -2.1314   -1.2133    0.0000 N   0  0  0  0  0  0  0  0  0  0  0  0
   -0.6730   -1.5641    0.0000 C   0  0  0  0  0  0  0  0  0  0  0  0
    0.1113   -0.2855    0.0000 C   0  0  0  0  0  0  0  0  0  0  0  0
   -0.8624    0.8555    0.0000 C   0  0  0  0  0  0  0  0  0  0  0  0
   -0.5115    2.3139    0.0000 C   0  0  0  0  0  0  0  0  0  0  0  0
   -2.2485    0.2821    0.0000 C   0  0  0  0  0  0  0  0  0  0  0  0
    1.6067   -0.1685    0.0000 C   0  0  0  0  0  0  0  0  0  0  0  0
    2.2531    1.1851    0.0000 O   0  0  0  0  0  0  0  0  0  0  0  0
    2.4558   -1.4051    0.0000 O   0  0  0  0  0  0  0  0  0  0  0  0
  1  2  1  0
  2  3  1  0
  3  4  1  0
  4  5  1  1
  4  6  1  0
  3  7  1  6
  7  8  2  0
  7  9  1  0
  6  1  1  0
M  END
>  <rName>  (4341) 
bPro_S_4SMe

>  <PQ_SYMBOL>  (4341) 
bPro_S_4SMe

>  <FULL_NAME>  (4341) 
rac-(3R,4R)-4-methylpyrrolidine-3-carboxylic acid

>  <IUPAC_CONDENSED>  (4341) 
bPro(S,4S-Me)

>  <IUPAC>  (4341) 
(3S,4S)-4-methylpyrrolidine-3-carboxylic acid

>  <TYPE>  (4341) 
Backbone

>  <CLASS>  (4341) 
beta

>  <ANALOG>  (4341) 
Pro

>  <MOL_WT>  (4341) 
129.15900000000002

>  <LOGP>  (4341) 
-0.07349999999999995

>  <TPSA>  (4341) 
49.33

>  <POPULARITY>  (4341) 
10.0

>  <PROTECTED>  (4341) 
TRUE

>  <SMILES>  (4341) 
N1C[C@H]([C@H](C)C1)C(=O)O

>  <INCHIKEY>  (4341) 
FLYSYPZJEXSTBV-RFZPGFLSSA-N

$$$$
bPro_S_4SMe_4SCF3
     RDKit          2D

 13 13  0  0  0  0  0  0  0  0999 V2000
   -2.3778   -1.6069    0.0000 N   0  0  0  0  0  0  0  0  0  0  0  0
   -0.9541   -2.0793    0.0000 C   0  0  0  0  0  0  0  0  0  0  0  0
   -0.0649   -0.8713    0.0000 C   0  0  0  0  0  0  0  0  0  0  0  0
   -0.9389    0.3477    0.0000 C   0  0  0  0  0  0  0  0  0  0  0  0
   -1.5405    1.7218    0.0000 C   0  0  0  0  0  0  0  0  0  0  0  0
   -2.3684   -0.1069    0.0000 C   0  0  0  0  0  0  0  0  0  0  0  0
    0.3648    1.0895    0.0000 C   0  0  0  0  0  0  0  0  0  0  0  0
    1.6685    1.8314    0.0000 F   0  0  0  0  0  0  0  0  0  0  0  0
    1.0440    0.3774    0.0000 F   0  0  0  0  0  0  0  0  0  0  0  0
   -0.3771    2.3933    0.0000 F   0  0  0  0  0  0  0  0  0  0  0  0
    1.4351   -0.8807    0.0000 C   0  0  0  0  0  0  0  0  0  0  0  0
    1.9325   -0.0315    0.0000 O   0  0  0  0  0  0  0  0  0  0  0  0
    2.1769   -2.1844    0.0000 O   0  0  0  0  0  0  0  0  0  0  0  0
  1  2  1  0
  2  3  1  0
  3  4  1  0
  4  5  1  6
  4  6  1  0
  4  7  1  0
  7  8  1  0
  7  9  1  0
  7 10  1  0
  3 11  1  6
 11 12  2  0
 11 13  1  0
  6  1  1  0
M  END
>  <rName>  (4342) 
bPro_S_4SMe_4SCF3

>  <PQ_SYMBOL>  (4342) 
bPro_S_4SMe_4SCF3

>  <FULL_NAME>  (4342) 
(3S,4S)-4-methyl-4-(trifluoromethyl)pyrrolidine-3-carboxylic acid

>  <IUPAC_CONDENSED>  (4342) 
bPro(S,4S-Me,4S-CF3)

>  <IUPAC>  (4342) 
(3S,4S)-4-methyl-4-(trifluoromethyl)pyrrolidine-3-carboxylic acid

>  <TYPE>  (4342) 
Backbone

>  <CLASS>  (4342) 
beta

>  <ANALOG>  (4342) 
Pro

>  <MOL_WT>  (4342) 
197.15599999999998

>  <LOGP>  (4342) 
0.859

>  <TPSA>  (4342) 
49.33

>  <POPULARITY>  (4342) 
2.9

>  <PROTECTED>  (4342) 
TRUE

>  <SMILES>  (4342) 
N1C[C@H]([C@@](C)(C1)C(F)(F)F)C(=O)O

>  <INCHIKEY>  (4342) 
AKAMISPZMDFNEG-UJURSFKZSA-N

$$$$
bPro_S_4SPr
     RDKit          2D

 11 11  0  0  0  0  0  0  0  0999 V2000
    2.7630   -1.0971    0.0000 N   0  0  0  0  0  0  0  0  0  0  0  0
    2.3374    0.3413    0.0000 C   0  0  0  0  0  0  0  0  0  0  0  0
    0.8379    0.3810    0.0000 C   0  0  0  0  0  0  0  0  0  0  0  0
    0.3368   -1.0328    0.0000 C   0  0  0  0  0  0  0  0  0  0  0  0
   -1.1016   -1.4584    0.0000 C   0  0  0  0  0  0  0  0  0  0  0  0
   -2.1893   -0.4255    0.0000 C   0  0  0  0  0  0  0  0  0  0  0  0
   -3.6277   -0.8511    0.0000 C   0  0  0  0  0  0  0  0  0  0  0  0
    1.5265   -1.9463    0.0000 C   0  0  0  0  0  0  0  0  0  0  0  0
   -0.0113    1.6175    0.0000 C   0  0  0  0  0  0  0  0  0  0  0  0
   -1.5067    1.5002    0.0000 O   0  0  0  0  0  0  0  0  0  0  0  0
    0.6349    2.9711    0.0000 O   0  0  0  0  0  0  0  0  0  0  0  0
  1  2  1  0
  2  3  1  0
  3  4  1  0
  4  5  1  1
  5  6  1  0
  6  7  1  0
  4  8  1  0
  3  9  1  6
  9 10  2  0
  9 11  1  0
  8  1  1  0
M  END
>  <rName>  (4343) 
bPro_S_4SPr

>  <PQ_SYMBOL>  (4343) 
bPro_S_4SPr

>  <FULL_NAME>  (4343) 
rac-(3R,4R)-4-propylpyrrolidine-3-carboxylic acid

>  <IUPAC_CONDENSED>  (4343) 
bPro(S,4S-Pr)

>  <IUPAC>  (4343) 
(3S,4S)-4-propylpyrrolidine-3-carboxylic acid

>  <TYPE>  (4343) 
Backbone

>  <CLASS>  (4343) 
beta

>  <ANALOG>  (4343) 
Pro

>  <MOL_WT>  (4343) 
157.21300000000002

>  <LOGP>  (4343) 
0.7066999999999999

>  <TPSA>  (4343) 
49.33

>  <POPULARITY>  (4343) 
6.7

>  <PROTECTED>  (4343) 
TRUE

>  <SMILES>  (4343) 
N1C[C@H]([C@H](CCC)C1)C(=O)O

>  <INCHIKEY>  (4343) 
LFAIKXJBEQFLIL-RNFRBKRXSA-N

$$$$
bPro_S_4ScBu
     RDKit          2D

 12 13  0  0  0  0  0  0  0  0999 V2000
    1.9148   -2.2905    0.0000 N   0  0  0  0  0  0  0  0  0  0  0  0
    2.4106   -0.8748    0.0000 C   0  0  0  0  0  0  0  0  0  0  0  0
    1.2174    0.0342    0.0000 C   0  0  0  0  0  0  0  0  0  0  0  0
   -0.0159   -0.8197    0.0000 C   0  0  0  0  0  0  0  0  0  0  0  0
    0.4152   -2.2565    0.0000 C   0  0  0  0  0  0  0  0  0  0  0  0
   -1.4315   -0.3240    0.0000 C   0  0  0  0  0  0  0  0  0  0  0  0
   -2.0820    1.0277    0.0000 C   0  0  0  0  0  0  0  0  0  0  0  0
   -3.4336    0.3772    0.0000 C   0  0  0  0  0  0  0  0  0  0  0  0
   -2.7832   -0.9744    0.0000 C   0  0  0  0  0  0  0  0  0  0  0  0
    1.2514    1.5338    0.0000 C   0  0  0  0  0  0  0  0  0  0  0  0
   -0.0303    2.3131    0.0000 O   0  0  0  0  0  0  0  0  0  0  0  0
    2.5672    2.2541    0.0000 O   0  0  0  0  0  0  0  0  0  0  0  0
  1  2  1  0
  2  3  1  0
  3  4  1  0
  4  5  1  0
  4  6  1  1
  6  7  1  0
  7  8  1  0
  8  9  1  0
  3 10  1  6
 10 11  2  0
 10 12  1  0
  5  1  1  0
  9  6  1  0
M  END
>  <rName>  (4344) 
bPro_S_4ScBu

>  <PQ_SYMBOL>  (4344) 
bPro_S_4ScBu

>  <FULL_NAME>  (4344) 
O=C(O)[C@@H]1CNC[C@H]1C1CCC1

>  <IUPAC_CONDENSED>  (4344) 
bPro(S,4S-cBu)

>  <IUPAC>  (4344) 
(3S,4S)-4-cyclobutylpyrrolidine-3-carboxylic acid

>  <TYPE>  (4344) 
Backbone

>  <CLASS>  (4344) 
beta

>  <ANALOG>  (4344) 
Pro

>  <MOL_WT>  (4344) 
169.22400000000002

>  <LOGP>  (4344) 
0.7066999999999999

>  <TPSA>  (4344) 
49.33

>  <POPULARITY>  (4344) 
2.8

>  <PROTECTED>  (4344) 
TRUE

>  <SMILES>  (4344) 
N1C[C@H]([C@@H](C1)C2(CCC2))C(=O)O

>  <INCHIKEY>  (4344) 
QOPQRVBZRQTVNE-JGVFFNPUSA-N

$$$$
bPro_S_4ScHex
     RDKit          2D

 14 15  0  0  0  0  0  0  0  0999 V2000
   -2.5667    2.2179    0.0000 N   0  0  0  0  0  0  0  0  0  0  0  0
   -2.9834    0.7769    0.0000 C   0  0  0  0  0  0  0  0  0  0  0  0
   -1.7417   -0.0646    0.0000 C   0  0  0  0  0  0  0  0  0  0  0  0
   -0.5576    0.8562    0.0000 C   0  0  0  0  0  0  0  0  0  0  0  0
   -1.0675    2.2669    0.0000 C   0  0  0  0  0  0  0  0  0  0  0  0
    0.8833    0.4396    0.0000 C   0  0  0  0  0  0  0  0  0  0  0  0
    1.2430   -1.0167    0.0000 C   0  0  0  0  0  0  0  0  0  0  0  0
    2.6840   -1.4333    0.0000 C   0  0  0  0  0  0  0  0  0  0  0  0
    3.7653   -0.3937    0.0000 C   0  0  0  0  0  0  0  0  0  0  0  0
    3.4056    1.0625    0.0000 C   0  0  0  0  0  0  0  0  0  0  0  0
    1.9647    1.4792    0.0000 C   0  0  0  0  0  0  0  0  0  0  0  0
   -1.6927   -1.5638    0.0000 C   0  0  0  0  0  0  0  0  0  0  0  0
   -0.3698   -2.2710    0.0000 O   0  0  0  0  0  0  0  0  0  0  0  0
   -2.9665   -2.3559    0.0000 O   0  0  0  0  0  0  0  0  0  0  0  0
  1  2  1  0
  2  3  1  0
  3  4  1  0
  4  5  1  0
  4  6  1  1
  6  7  1  0
  7  8  1  0
  8  9  1  0
  9 10  1  0
 10 11  1  0
  3 12  1  6
 12 13  2  0
 12 14  1  0
  5  1  1  0
 11  6  1  0
M  END
>  <rName>  (4345) 
bPro_S_4ScHex

>  <PQ_SYMBOL>  (4345) 
bPro_S_4ScHex

>  <FULL_NAME>  (4345) 
rac-(3R,4R)-4-cyclohexylpyrrolidine-3-carboxylic acid

>  <IUPAC_CONDENSED>  (4345) 
bPro(S,4S-cHex)

>  <IUPAC>  (4345) 
(3S,4S)-4-cyclohexylpyrrolidine-3-carboxylic acid

>  <TYPE>  (4345) 
Backbone

>  <CLASS>  (4345) 
beta

>  <ANALOG>  (4345) 
Pro

>  <MOL_WT>  (4345) 
197.278

>  <LOGP>  (4345) 
1.4869

>  <TPSA>  (4345) 
49.33

>  <POPULARITY>  (4345) 
3.8

>  <PROTECTED>  (4345) 
TRUE

>  <SMILES>  (4345) 
N1C[C@H]([C@@H](C1)C2(CCCCC2))C(=O)O

>  <INCHIKEY>  (4345) 
OKFXFIAXJCYRML-VHSXEESVSA-N

$$$$
bPro_S_4ScPent
     RDKit          2D

 13 14  0  0  0  0  0  0  0  0999 V2000
    2.2543   -2.2479    0.0000 N   0  0  0  0  0  0  0  0  0  0  0  0
    2.7038   -0.8168    0.0000 C   0  0  0  0  0  0  0  0  0  0  0  0
    1.4817    0.0529    0.0000 C   0  0  0  0  0  0  0  0  0  0  0  0
    0.2769   -0.8406    0.0000 C   0  0  0  0  0  0  0  0  0  0  0  0
    0.7544   -2.2626    0.0000 C   0  0  0  0  0  0  0  0  0  0  0  0
   -1.1542   -0.3911    0.0000 C   0  0  0  0  0  0  0  0  0  0  0  0
   -2.3590   -1.2846    0.0000 C   0  0  0  0  0  0  0  0  0  0  0  0
   -3.5811   -0.4149    0.0000 C   0  0  0  0  0  0  0  0  0  0  0  0
   -3.1316    1.0162    0.0000 C   0  0  0  0  0  0  0  0  0  0  0  0
   -1.6317    1.0309    0.0000 C   0  0  0  0  0  0  0  0  0  0  0  0
    1.4670    1.5529    0.0000 C   0  0  0  0  0  0  0  0  0  0  0  0
    0.1607    2.2901    0.0000 O   0  0  0  0  0  0  0  0  0  0  0  0
    2.7586    2.3156    0.0000 O   0  0  0  0  0  0  0  0  0  0  0  0
  1  2  1  0
  2  3  1  0
  3  4  1  0
  4  5  1  0
  4  6  1  1
  6  7  1  0
  7  8  1  0
  8  9  1  0
  9 10  1  0
  3 11  1  6
 11 12  2  0
 11 13  1  0
  5  1  1  0
 10  6  1  0
M  END
>  <rName>  (4346) 
bPro_S_4ScPent

>  <PQ_SYMBOL>  (4346) 
bPro_S_4ScPent

>  <FULL_NAME>  (4346) 
(3S,4S)-4-cyclopentylpyrrolidine-3-carboxylic acid

>  <IUPAC_CONDENSED>  (4346) 
bPro(S,4S-cPent)

>  <IUPAC>  (4346) 
(3S,4S)-4-cyclopentylpyrrolidine-3-carboxylic acid

>  <TYPE>  (4346) 
Backbone

>  <CLASS>  (4346) 
beta

>  <ANALOG>  (4346) 
Pro

>  <MOL_WT>  (4346) 
183.251

>  <LOGP>  (4346) 
1.0967999999999998

>  <TPSA>  (4346) 
49.33

>  <POPULARITY>  (4346) 
3.6

>  <PROTECTED>  (4346) 
TRUE

>  <SMILES>  (4346) 
N1C[C@H]([C@@H](C1)C2(CCCC2))C(=O)O

>  <INCHIKEY>  (4346) 
MYNDDPCAJXVHHT-DTWKUNHWSA-N

$$$$
bPro_S_4ScPr
     RDKit          2D

 11 12  0  0  0  0  0  0  0  0999 V2000
    1.4981   -2.3691    0.0000 N   0  0  0  0  0  0  0  0  0  0  0  0
    2.0816   -0.9872    0.0000 C   0  0  0  0  0  0  0  0  0  0  0  0
    0.9477   -0.0053    0.0000 C   0  0  0  0  0  0  0  0  0  0  0  0
   -0.3366   -0.7802    0.0000 C   0  0  0  0  0  0  0  0  0  0  0  0
    0.0035   -2.2411    0.0000 C   0  0  0  0  0  0  0  0  0  0  0  0
   -1.7185   -0.1967    0.0000 C   0  0  0  0  0  0  0  0  0  0  0  0
   -3.2070   -0.3823    0.0000 C   0  0  0  0  0  0  0  0  0  0  0  0
   -2.6235    0.9996    0.0000 C   0  0  0  0  0  0  0  0  0  0  0  0
    1.0756    1.4893    0.0000 C   0  0  0  0  0  0  0  0  0  0  0  0
   -0.1547    2.3473    0.0000 O   0  0  0  0  0  0  0  0  0  0  0  0
    2.4339    2.1257    0.0000 O   0  0  0  0  0  0  0  0  0  0  0  0
  1  2  1  0
  2  3  1  0
  3  4  1  0
  4  5  1  0
  4  6  1  1
  6  7  1  0
  7  8  1  0
  3  9  1  6
  9 10  2  0
  9 11  1  0
  5  1  1  0
  8  6  1  0
M  END
>  <rName>  (4347) 
bPro_S_4ScPr

>  <PQ_SYMBOL>  (4347) 
bPro_S_4ScPr

>  <FULL_NAME>  (4347) 
(3S,4S)-4-Cyclopropylpyrrolidine-3-carboxylic acid

>  <IUPAC_CONDENSED>  (4347) 
bPro(S,4S-cPr)

>  <IUPAC>  (4347) 
(3S,4S)-4-cyclopropylpyrrolidine-3-carboxylic acid

>  <TYPE>  (4347) 
Backbone

>  <CLASS>  (4347) 
beta

>  <ANALOG>  (4347) 
Pro

>  <MOL_WT>  (4347) 
155.197

>  <LOGP>  (4347) 
0.31659999999999994

>  <TPSA>  (4347) 
49.33

>  <POPULARITY>  (4347) 
5.1

>  <PROTECTED>  (4347) 
TRUE

>  <SMILES>  (4347) 
N1C[C@H]([C@@H](C1)C2(CC2))C(=O)O

>  <INCHIKEY>  (4347) 
FVSSNRDCBCSLGC-NKWVEPMBSA-N

$$$$
bPro_S_4SiPr
     RDKit          2D

 11 11  0  0  0  0  0  0  0  0999 V2000
   -0.0000   -2.7216    0.0000 N   0  0  0  0  0  0  0  0  0  0  0  0
    1.2135   -1.8399    0.0000 C   0  0  0  0  0  0  0  0  0  0  0  0
    0.7500   -0.4133    0.0000 C   0  0  0  0  0  0  0  0  0  0  0  0
   -0.7500   -0.4133    0.0000 C   0  0  0  0  0  0  0  0  0  0  0  0
   -1.2135   -1.8399    0.0000 C   0  0  0  0  0  0  0  0  0  0  0  0
   -1.6317    0.8002    0.0000 C   0  0  0  0  0  0  0  0  0  0  0  0
   -1.0216    2.1705    0.0000 C   0  0  0  0  0  0  0  0  0  0  0  0
   -3.1235    0.6434    0.0000 C   0  0  0  0  0  0  0  0  0  0  0  0
    1.6317    0.8002    0.0000 C   0  0  0  0  0  0  0  0  0  0  0  0
    1.0216    2.1705    0.0000 O   0  0  0  0  0  0  0  0  0  0  0  0
    3.1235    0.6434    0.0000 O   0  0  0  0  0  0  0  0  0  0  0  0
  1  2  1  0
  2  3  1  0
  3  4  1  0
  4  5  1  0
  4  6  1  1
  6  7  1  0
  6  8  1  0
  3  9  1  6
  9 10  2  0
  9 11  1  0
  5  1  1  0
M  END
>  <rName>  (4348) 
bPro_S_4SiPr

>  <PQ_SYMBOL>  (4348) 
bPro_S_4SiPr

>  <FULL_NAME>  (4348) 
rac-(3R,4R)-4-(propan-2-yl)pyrrolidine-3-carboxylic acid

>  <IUPAC_CONDENSED>  (4348) 
bPro(S,4S-iPr)

>  <IUPAC>  (4348) 
(3S,4S)-4-(propan-2-yl)pyrrolidine-3-carboxylic acid

>  <TYPE>  (4348) 
Backbone

>  <CLASS>  (4348) 
beta

>  <ANALOG>  (4348) 
Pro

>  <MOL_WT>  (4348) 
157.213

>  <LOGP>  (4348) 
0.5626

>  <TPSA>  (4348) 
49.33

>  <POPULARITY>  (4348) 
6.5

>  <PROTECTED>  (4348) 
TRUE

>  <SMILES>  (4348) 
N1C[C@H]([C@@H](C1)C(C)C)C(=O)O

>  <INCHIKEY>  (4348) 
NQULSPPHDFWDLL-NKWVEPMBSA-N

$$$$
bPro_S_4Soxolan3yl
     RDKit          2D

 13 14  0  0  0  0  0  0  0  0999 V2000
    2.2543   -2.2479    0.0000 N   0  0  0  0  0  0  0  0  0  0  0  0
    2.7038   -0.8168    0.0000 C   0  0  0  0  0  0  0  0  0  0  0  0
    1.4817    0.0529    0.0000 C   0  0  0  0  0  0  0  0  0  0  0  0
    0.2769   -0.8406    0.0000 C   0  0  0  0  0  0  0  0  0  0  0  0
    0.7544   -2.2626    0.0000 C   0  0  0  0  0  0  0  0  0  0  0  0
   -1.1542   -0.3911    0.0000 C   0  0  0  0  0  0  0  0  0  0  0  0
   -2.3590   -1.2846    0.0000 C   0  0  0  0  0  0  0  0  0  0  0  0
   -3.5811   -0.4149    0.0000 C   0  0  0  0  0  0  0  0  0  0  0  0
   -3.1316    1.0162    0.0000 O   0  0  0  0  0  0  0  0  0  0  0  0
   -1.6317    1.0309    0.0000 C   0  0  0  0  0  0  0  0  0  0  0  0
    1.4670    1.5529    0.0000 C   0  0  0  0  0  0  0  0  0  0  0  0
    0.1607    2.2901    0.0000 O   0  0  0  0  0  0  0  0  0  0  0  0
    2.7586    2.3156    0.0000 O   0  0  0  0  0  0  0  0  0  0  0  0
  1  2  1  0
  2  3  1  0
  3  4  1  0
  4  5  1  0
  4  6  1  1
  6  7  1  0
  7  8  1  0
  8  9  1  0
  9 10  1  0
  3 11  1  6
 11 12  2  0
 11 13  1  0
  5  1  1  0
 10  6  1  0
M  END
>  <rName>  (4349) 
bPro_S_4Soxolan3yl

>  <PQ_SYMBOL>  (4349) 
bPro_S_4Soxolan3yl

>  <FULL_NAME>  (4349) 
rac-(3R,4R)-4-(oxolan-3-yl)pyrrolidine-3-carboxylic acid

>  <IUPAC_CONDENSED>  (4349) 
bPro(S,4S-oxolan-3-yl)

>  <IUPAC>  (4349) 
(3S,4S)-4-(oxolan-3-yl)pyrrolidine-3-carboxylic acid

>  <TYPE>  (4349) 
Backbone

>  <CLASS>  (4349) 
beta

>  <ANALOG>  (4349) 
Pro

>  <MOL_WT>  (4349) 
185.22299999999998

>  <LOGP>  (4349) 
-0.056900000000000006

>  <TPSA>  (4349) 
58.56

>  <POPULARITY>  (4349) 
2.9

>  <PROTECTED>  (4349) 
TRUE

>  <SMILES>  (4349) 
N1C[C@H]([C@@H](C1)C2(CCOC2))C(=O)O

>  <INCHIKEY>  (4349) 
RVXVUIWJSOZYOC-ZHFSPANRSA-N

$$$$
bPro_S_4Spyrid2yl_5Br
     RDKit          2D

 15 16  0  0  0  0  0  0  0  0999 V2000
   -3.0467    2.0903    0.0000 N   0  0  0  0  0  0  0  0  0  0  0  0
   -3.3749    0.6266    0.0000 C   0  0  0  0  0  0  0  0  0  0  0  0
   -2.0842   -0.1378    0.0000 C   0  0  0  0  0  0  0  0  0  0  0  0
   -0.9584    0.8535    0.0000 C   0  0  0  0  0  0  0  0  0  0  0  0
   -1.5533    2.2305    0.0000 C   0  0  0  0  0  0  0  0  0  0  0  0
    0.5052    0.5253    0.0000 C   0  0  0  0  0  0  0  0  0  0  0  0
    0.9529   -0.9063    0.0000 C   0  0  0  0  0  0  0  0  0  0  0  0
    2.4165   -1.2345    0.0000 C   0  0  0  0  0  0  0  0  0  0  0  0
    3.4325   -0.1310    0.0000 C   0  0  0  0  0  0  0  0  0  0  0  0
    4.8962   -0.4591    0.0000 Br  0  0  0  0  0  0  0  0  0  0  0  0
    2.9849    1.3007    0.0000 C   0  0  0  0  0  0  0  0  0  0  0  0
    1.5212    1.6288    0.0000 N   0  0  0  0  0  0  0  0  0  0  0  0
   -1.9440   -1.6312    0.0000 C   0  0  0  0  0  0  0  0  0  0  0  0
   -0.5806   -2.2565    0.0000 O   0  0  0  0  0  0  0  0  0  0  0  0
   -3.1673   -2.4993    0.0000 O   0  0  0  0  0  0  0  0  0  0  0  0
  1  2  1  0
  2  3  1  0
  3  4  1  0
  4  5  1  0
  4  6  1  1
  6  7  1  0
  7  8  2  0
  8  9  1  0
  9 10  1  0
  9 11  2  0
 11 12  1  0
  3 13  1  6
 13 14  2  0
 13 15  1  0
  5  1  1  0
 12  6  2  0
M  END
>  <rName>  (4350) 
bPro_S_4Spyrid2yl_5Br

>  <PQ_SYMBOL>  (4350) 
bPro_S_4Spyrid2yl_5Br

>  <FULL_NAME>  (4350) 
rac-(3R,4R)-4-(5-bromopyridin-2-yl)pyrrolidine-3-carboxylic acid

>  <IUPAC_CONDENSED>  (4350) 
bPro(S,4S-pyrid-2-yl(5-Br))

>  <IUPAC>  (4350) 
(3S,4S)-4-(5-bromopyridin-2-yl)pyrrolidine-3-carboxylic acid

>  <TYPE>  (4350) 
Backbone

>  <CLASS>  (4350) 
beta

>  <ANALOG>  (4350) 
Pro

>  <MOL_WT>  (4350) 
271.114

>  <LOGP>  (4350) 
1.2317

>  <TPSA>  (4350) 
62.22

>  <POPULARITY>  (4350) 
2.7

>  <PROTECTED>  (4350) 
TRUE

>  <SMILES>  (4350) 
N1C[C@H]([C@@H](C1)c2(ccc(Br)cn2))C(=O)O

>  <INCHIKEY>  (4350) 
QWYWARFPUQBEQX-HTQZYQBOSA-N

$$$$
bPro_S_4Stetrahydropyran4yl
     RDKit          2D

 14 15  0  0  0  0  0  0  0  0999 V2000
   -2.5667    2.2179    0.0000 N   0  0  0  0  0  0  0  0  0  0  0  0
   -2.9834    0.7769    0.0000 C   0  0  0  0  0  0  0  0  0  0  0  0
   -1.7417   -0.0646    0.0000 C   0  0  0  0  0  0  0  0  0  0  0  0
   -0.5576    0.8562    0.0000 C   0  0  0  0  0  0  0  0  0  0  0  0
   -1.0675    2.2669    0.0000 C   0  0  0  0  0  0  0  0  0  0  0  0
    0.8833    0.4396    0.0000 C   0  0  0  0  0  0  0  0  0  0  0  0
    1.2430   -1.0167    0.0000 C   0  0  0  0  0  0  0  0  0  0  0  0
    2.6840   -1.4333    0.0000 C   0  0  0  0  0  0  0  0  0  0  0  0
    3.7653   -0.3937    0.0000 O   0  0  0  0  0  0  0  0  0  0  0  0
    3.4056    1.0625    0.0000 C   0  0  0  0  0  0  0  0  0  0  0  0
    1.9647    1.4792    0.0000 C   0  0  0  0  0  0  0  0  0  0  0  0
   -1.6927   -1.5638    0.0000 C   0  0  0  0  0  0  0  0  0  0  0  0
   -0.3698   -2.2710    0.0000 O   0  0  0  0  0  0  0  0  0  0  0  0
   -2.9665   -2.3559    0.0000 O   0  0  0  0  0  0  0  0  0  0  0  0
  1  2  1  0
  2  3  1  0
  3  4  1  0
  4  5  1  0
  4  6  1  1
  6  7  1  0
  7  8  1  0
  8  9  1  0
  9 10  1  0
 10 11  1  0
  3 12  1  6
 12 13  2  0
 12 14  1  0
  5  1  1  0
 11  6  1  0
M  END
>  <rName>  (4351) 
bPro_S_4Stetrahydropyran4yl

>  <PQ_SYMBOL>  (4351) 
bPro_S_4Stetrahydropyran4yl

>  <FULL_NAME>  (4351) 
rac-(3R,4R)-4-(oxan-4-yl)pyrrolidine-3-carboxylic acid

>  <IUPAC_CONDENSED>  (4351) 
bPro(S,4S-tetrahydropyran-4-yl)

>  <IUPAC>  (4351) 
(3S,4S)-4-(oxan-4-yl)pyrrolidine-3-carboxylic acid

>  <TYPE>  (4351) 
Backbone

>  <CLASS>  (4351) 
beta

>  <ANALOG>  (4351) 
Pro

>  <MOL_WT>  (4351) 
199.24999999999997

>  <LOGP>  (4351) 
0.3331999999999999

>  <TPSA>  (4351) 
58.56

>  <POPULARITY>  (4351) 
2.8

>  <PROTECTED>  (4351) 
TRUE

>  <SMILES>  (4351) 
N1C[C@H]([C@@H](C1)C2(CCOCC2))C(=O)O

>  <INCHIKEY>  (4351) 
GCIYKJJPJNOXDO-DTWKUNHWSA-N

$$$$
bTyr_R
     RDKit          2D

 13 13  0  0  0  0  0  0  0  0999 V2000
   -1.5598   -1.8792    0.0000 N   0  0  0  0  0  0  0  0  0  0  0  0
   -1.0324   -0.4750    0.0000 C   0  0  0  0  0  0  0  0  0  0  0  0
    0.4474   -0.2297    0.0000 C   0  0  0  0  0  0  0  0  0  0  0  0
    0.9749    1.1745    0.0000 C   0  0  0  0  0  0  0  0  0  0  0  0
    2.4547    1.4199    0.0000 C   0  0  0  0  0  0  0  0  0  0  0  0
    3.4070    0.2610    0.0000 C   0  0  0  0  0  0  0  0  0  0  0  0
    4.8868    0.5063    0.0000 O   0  0  0  0  0  0  0  0  0  0  0  0
    2.8796   -1.1432    0.0000 C   0  0  0  0  0  0  0  0  0  0  0  0
    1.3998   -1.3886    0.0000 C   0  0  0  0  0  0  0  0  0  0  0  0
   -1.9847    0.6838    0.0000 C   0  0  0  0  0  0  0  0  0  0  0  0
   -3.4645    0.4385    0.0000 C   0  0  0  0  0  0  0  0  0  0  0  0
   -3.9920   -0.9657    0.0000 O   0  0  0  0  0  0  0  0  0  0  0  0
   -4.4169    1.5974    0.0000 O   0  0  0  0  0  0  0  0  0  0  0  0
  2  1  1  6
  2  3  1  0
  3  4  1  0
  4  5  2  0
  5  6  1  0
  6  7  1  0
  6  8  2  0
  8  9  1  0
  2 10  1  0
 10 11  1  0
 11 12  2  0
 11 13  1  0
  9  3  2  0
M  END
>  <rName>  (4352) 
bTyr_R

>  <PQ_SYMBOL>  (4352) 
bTyr_R

>  <FULL_NAME>  (4352) 
(R)-3-amino-3-(4-hydroxyphenyl)propanoic acid

>  <IUPAC_CONDENSED>  (4352) 
bTyr(R)

>  <IUPAC>  (4352) 
(3R)-3-amino-3-(4-hydroxyphenyl)propanoic acid

>  <TYPE>  (4352) 
Backbone

>  <CLASS>  (4352) 
beta

>  <ANALOG>  (4352) 
X

>  <MOL_WT>  (4352) 
181.19099999999995

>  <LOGP>  (4352) 
0.8667

>  <TPSA>  (4352) 
83.55

>  <POPULARITY>  (4352) 
11.4

>  <PROTECTED>  (4352) 
TRUE

>  <SMILES>  (4352) 
N[C@@H](c1(ccc(O)cc1))CC(=O)O

>  <INCHIKEY>  (4352) 
JYPHNHPXFNEZBR-MRVPVSSYSA-N

$$$$
bTyr_S
     RDKit          2D

 13 13  0  0  0  0  0  0  0  0999 V2000
   -1.5598   -1.8792    0.0000 N   0  0  0  0  0  0  0  0  0  0  0  0
   -1.0324   -0.4750    0.0000 C   0  0  0  0  0  0  0  0  0  0  0  0
    0.4474   -0.2297    0.0000 C   0  0  0  0  0  0  0  0  0  0  0  0
    0.9749    1.1745    0.0000 C   0  0  0  0  0  0  0  0  0  0  0  0
    2.4547    1.4199    0.0000 C   0  0  0  0  0  0  0  0  0  0  0  0
    3.4070    0.2610    0.0000 C   0  0  0  0  0  0  0  0  0  0  0  0
    4.8868    0.5063    0.0000 O   0  0  0  0  0  0  0  0  0  0  0  0
    2.8796   -1.1432    0.0000 C   0  0  0  0  0  0  0  0  0  0  0  0
    1.3998   -1.3886    0.0000 C   0  0  0  0  0  0  0  0  0  0  0  0
   -1.9847    0.6838    0.0000 C   0  0  0  0  0  0  0  0  0  0  0  0
   -3.4645    0.4385    0.0000 C   0  0  0  0  0  0  0  0  0  0  0  0
   -3.9920   -0.9657    0.0000 O   0  0  0  0  0  0  0  0  0  0  0  0
   -4.4169    1.5974    0.0000 O   0  0  0  0  0  0  0  0  0  0  0  0
  2  1  1  1
  2  3  1  0
  3  4  1  0
  4  5  2  0
  5  6  1  0
  6  7  1  0
  6  8  2  0
  8  9  1  0
  2 10  1  0
 10 11  1  0
 11 12  2  0
 11 13  1  0
  9  3  2  0
M  END
>  <rName>  (4353) 
bTyr_S

>  <PQ_SYMBOL>  (4353) 
bTyr_S

>  <FULL_NAME>  (4353) 
Beta-tyrosine

>  <IUPAC_CONDENSED>  (4353) 
bTyr(S)

>  <IUPAC>  (4353) 
(3S)-3-amino-3-(4-hydroxyphenyl)propanoic acid

>  <TYPE>  (4353) 
Backbone

>  <CLASS>  (4353) 
beta

>  <ANALOG>  (4353) 
X

>  <MOL_WT>  (4353) 
181.19099999999995

>  <LOGP>  (4353) 
0.8667

>  <TPSA>  (4353) 
83.55

>  <POPULARITY>  (4353) 
16.8

>  <PROTECTED>  (4353) 
TRUE

>  <SMILES>  (4353) 
N[C@H](c1(ccc(O)cc1))CC(=O)O

>  <INCHIKEY>  (4353) 
JYPHNHPXFNEZBR-QMMMGPOBSA-N

$$$$
bhArg
     RDKit          2D

 13 12  0  0  0  0  0  0  0  0999 V2000
    1.9669   -1.5369    0.0000 N   0  0  0  0  0  0  0  0  0  0  0  0
    1.8129   -0.0449    0.0000 C   0  0  0  0  0  0  0  0  0  0  0  0
    0.4437    0.5678    0.0000 C   0  0  0  0  0  0  0  0  0  0  0  0
   -0.7715   -0.3116    0.0000 C   0  0  0  0  0  0  0  0  0  0  0  0
   -2.1407    0.3010    0.0000 C   0  0  0  0  0  0  0  0  0  0  0  0
   -3.3558   -0.5784    0.0000 N   0  0  0  0  0  0  0  0  0  0  0  0
   -4.7250    0.0342    0.0000 C   0  0  0  0  0  0  0  0  0  0  0  0
   -4.8790    1.5263    0.0000 N   0  0  0  0  0  0  0  0  0  0  0  0
   -5.9402   -0.8452    0.0000 N   0  0  0  0  0  0  0  0  0  0  0  0
    3.0280    0.8346    0.0000 C   0  0  0  0  0  0  0  0  0  0  0  0
    4.3972    0.2219    0.0000 C   0  0  0  0  0  0  0  0  0  0  0  0
    4.5512   -1.2702    0.0000 O   0  0  0  0  0  0  0  0  0  0  0  0
    5.6124    1.1013    0.0000 O   0  0  0  0  0  0  0  0  0  0  0  0
  2  1  1  1
  2  3  1  0
  3  4  1  0
  4  5  1  0
  5  6  1  0
  6  7  1  0
  7  8  2  0
  7  9  1  0
  2 10  1  0
 10 11  1  0
 11 12  2  0
 11 13  1  0
M  END
>  <rName>  (4354) 
bhArg

>  <PQ_SYMBOL>  (4354) 
bhArg

>  <FULL_NAME>  (4354) 
Beta-Homoarginine, (S)-3-amino-6-Guanidinohexanoic acid

>  <IUPAC_CONDENSED>  (4354) 
bhArg

>  <IUPAC>  (4354) 
(3S)-3-amino-6-(((amino)(imino)methyl)amino)hexanoic acid

>  <TYPE>  (4354) 
Backbone

>  <CLASS>  (4354) 
beta

>  <ANALOG>  (4354) 
Arg

>  <MOL_WT>  (4354) 
188.231

>  <LOGP>  (4354) 
-0.948329999999999

>  <TPSA>  (4354) 
125.22000000000001

>  <POPULARITY>  (4354) 
22.1

>  <PROTECTED>  (4354) 
TRUE

>  <SMILES>  (4354) 
N[C@@H](CCCNC(=N)N)CC(=O)O

>  <INCHIKEY>  (4354) 
VNWXCGKMEWXYBP-YFKPBYRVSA-N

$$$$
bhGlu_Oallyl
     RDKit          2D

 14 13  0  0  0  0  0  0  0  0999 V2000
    2.2665    1.5946    0.0000 N   0  0  0  0  0  0  0  0  0  0  0  0
    2.1486    0.0993    0.0000 C   0  0  0  0  0  0  0  0  0  0  0  0
    0.7946   -0.5463    0.0000 C   0  0  0  0  0  0  0  0  0  0  0  0
   -0.4415    0.3035    0.0000 C   0  0  0  0  0  0  0  0  0  0  0  0
   -1.7954   -0.3421    0.0000 C   0  0  0  0  0  0  0  0  0  0  0  0
   -1.9133   -1.8374    0.0000 O   0  0  0  0  0  0  0  0  0  0  0  0
   -3.0315    0.5077    0.0000 O   0  0  0  0  0  0  0  0  0  0  0  0
   -4.3855   -0.1378    0.0000 C   0  0  0  0  0  0  0  0  0  0  0  0
   -5.6215    0.7119    0.0000 C   0  0  0  0  0  0  0  0  0  0  0  0
   -6.9755    0.0664    0.0000 C   0  0  0  0  0  0  0  0  0  0  0  0
    3.3846   -0.7505    0.0000 C   0  0  0  0  0  0  0  0  0  0  0  0
    4.7386   -0.1050    0.0000 C   0  0  0  0  0  0  0  0  0  0  0  0
    4.8565    1.3904    0.0000 O   0  0  0  0  0  0  0  0  0  0  0  0
    5.9747   -0.9547    0.0000 O   0  0  0  0  0  0  0  0  0  0  0  0
  2  1  1  6
  2  3  1  0
  3  4  1  0
  4  5  1  0
  5  6  2  0
  5  7  1  0
  7  8  1  0
  8  9  1  0
  9 10  2  0
  2 11  1  0
 11 12  1  0
 12 13  2  0
 12 14  1  0
M  END
>  <rName>  (4355) 
bhGlu_Oallyl

>  <PQ_SYMBOL>  (4355) 
bhGlu_Oallyl

>  <FULL_NAME>  (4355) 
(S)-6-(allyloxy)-3-amino-6-oxohexanoic acid

>  <IUPAC_CONDENSED>  (4355) 
bhGlu(Oallyl)

>  <IUPAC>  (4355) 
(3S)-3-amino-5-(((prop-2-en-1-yl)oxy)carbonyl)pentanoic acid

>  <TYPE>  (4355) 
Backbone

>  <CLASS>  (4355) 
beta

>  <ANALOG>  (4355) 
Glu

>  <MOL_WT>  (4355) 
201.22199999999995

>  <LOGP>  (4355) 
0.29779999999999957

>  <TPSA>  (4355) 
89.62000000000002

>  <POPULARITY>  (4355) 
3.1

>  <PROTECTED>  (4355) 
TRUE

>  <SMILES>  (4355) 
N[C@@H](CCC(=O)OCC=C)CC(=O)O

>  <INCHIKEY>  (4355) 
ZGRYWNXDCVYFFC-ZETCQYMHSA-N

$$$$
bhMet
     RDKit          2D

 10  9  0  0  0  0  0  0  0  0999 V2000
   -0.3386    1.4842    0.0000 N   0  0  0  0  0  0  0  0  0  0  0  0
   -0.2594   -0.0137    0.0000 C   0  0  0  0  0  0  0  0  0  0  0  0
    1.0773   -0.6941    0.0000 C   0  0  0  0  0  0  0  0  0  0  0  0
    2.3350    0.1233    0.0000 C   0  0  0  0  0  0  0  0  0  0  0  0
    3.6718   -0.5571    0.0000 S   0  0  0  0  0  0  0  0  0  0  0  0
    4.9295    0.2604    0.0000 C   0  0  0  0  0  0  0  0  0  0  0  0
   -1.5171   -0.8312    0.0000 C   0  0  0  0  0  0  0  0  0  0  0  0
   -2.8539   -0.1507    0.0000 C   0  0  0  0  0  0  0  0  0  0  0  0
   -2.9330    1.3472    0.0000 O   0  0  0  0  0  0  0  0  0  0  0  0
   -4.1116   -0.9682    0.0000 O   0  0  0  0  0  0  0  0  0  0  0  0
  2  1  1  1
  2  3  1  0
  3  4  1  0
  4  5  1  0
  5  6  1  0
  2  7  1  0
  7  8  1  0
  8  9  2  0
  8 10  1  0
M  END
>  <rName>  (4356) 
bhMet

>  <PQ_SYMBOL>  (4356) 
bhMet

>  <FULL_NAME>  (4356) 
L-beta-homomethionine

>  <IUPAC_CONDENSED>  (4356) 
bhMet

>  <IUPAC>  (4356) 
(3R)-3-amino-5-(methylsulfanyl)pentanoic acid

>  <TYPE>  (4356) 
Backbone

>  <CLASS>  (4356) 
beta

>  <ANALOG>  (4356) 
Met

>  <MOL_WT>  (4356) 
163.242

>  <LOGP>  (4356) 
0.5414999999999996

>  <TPSA>  (4356) 
63.32000000000001

>  <POPULARITY>  (4356) 
16.2

>  <PROTECTED>  (4356) 
TRUE

>  <SMILES>  (4356) 
N[C@@H](CCSC)CC(=O)O

>  <INCHIKEY>  (4356) 
QWVNCDVONVDGDV-YFKPBYRVSA-N

$$$$
bhMet_O2_3R
     RDKit          2D

 12 11  0  0  0  0  0  0  0  0999 V2000
    1.1008   -1.6127    0.0000 N   0  0  0  0  0  0  0  0  0  0  0  0
    0.8924   -0.1272    0.0000 C   0  0  0  0  0  0  0  0  0  0  0  0
   -0.4983    0.4350    0.0000 C   0  0  0  0  0  0  0  0  0  0  0  0
   -1.6805   -0.4883    0.0000 C   0  0  0  0  0  0  0  0  0  0  0  0
   -3.0712    0.0739    0.0000 S   0  0  0  0  0  0  0  0  0  0  0  0
   -3.6334   -1.3167    0.0000 O   0  0  0  0  0  0  0  0  0  0  0  0
   -2.5090    1.4646    0.0000 O   0  0  0  0  0  0  0  0  0  0  0  0
   -4.4618    0.6361    0.0000 C   0  0  0  0  0  0  0  0  0  0  0  0
    2.0746    0.7960    0.0000 C   0  0  0  0  0  0  0  0  0  0  0  0
    3.4652    0.2338    0.0000 C   0  0  0  0  0  0  0  0  0  0  0  0
    3.6737   -1.2516    0.0000 O   0  0  0  0  0  0  0  0  0  0  0  0
    4.6474    1.1571    0.0000 O   0  0  0  0  0  0  0  0  0  0  0  0
  2  1  1  1
  2  3  1  0
  3  4  1  0
  4  5  1  0
  5  6  2  0
  5  7  2  0
  5  8  1  0
  2  9  1  0
  9 10  1  0
 10 11  2  0
 10 12  1  0
M  END
>  <rName>  (4357) 
bhMet_O2_3R

>  <PQ_SYMBOL>  (4357) 
bhMet_O2_3R

>  <FULL_NAME>  (4357) 
CS(=O)(=O)CC[C@H](N)CC(=O)O

>  <IUPAC_CONDENSED>  (4357) 
bhMet(O2,3R)

>  <IUPAC>  (4357) 
(3R)-3-amino-5-(methylsulfonyl)pentanoic acid

>  <TYPE>  (4357) 
Backbone

>  <CLASS>  (4357) 
beta

>  <ANALOG>  (4357) 
X

>  <MOL_WT>  (4357) 
195.23999999999998

>  <LOGP>  (4357) 
-0.7769000000000004

>  <TPSA>  (4357) 
97.46000000000001

>  <POPULARITY>  (4357) 
3.3

>  <PROTECTED>  (4357) 
TRUE

>  <SMILES>  (4357) 
N[C@@H](CCS(=O)(=O)C)CC(=O)O

>  <INCHIKEY>  (4357) 
FQORKTGRHADWFZ-YFKPBYRVSA-N

$$$$
bhMet_O2_3S
     RDKit          2D

 12 11  0  0  0  0  0  0  0  0999 V2000
    1.1008   -1.6127    0.0000 N   0  0  0  0  0  0  0  0  0  0  0  0
    0.8924   -0.1272    0.0000 C   0  0  0  0  0  0  0  0  0  0  0  0
   -0.4983    0.4350    0.0000 C   0  0  0  0  0  0  0  0  0  0  0  0
   -1.6805   -0.4883    0.0000 C   0  0  0  0  0  0  0  0  0  0  0  0
   -3.0712    0.0739    0.0000 S   0  0  0  0  0  0  0  0  0  0  0  0
   -3.6334   -1.3167    0.0000 O   0  0  0  0  0  0  0  0  0  0  0  0
   -2.5090    1.4646    0.0000 O   0  0  0  0  0  0  0  0  0  0  0  0
   -4.4618    0.6361    0.0000 C   0  0  0  0  0  0  0  0  0  0  0  0
    2.0746    0.7960    0.0000 C   0  0  0  0  0  0  0  0  0  0  0  0
    3.4652    0.2338    0.0000 C   0  0  0  0  0  0  0  0  0  0  0  0
    3.6737   -1.2516    0.0000 O   0  0  0  0  0  0  0  0  0  0  0  0
    4.6474    1.1571    0.0000 O   0  0  0  0  0  0  0  0  0  0  0  0
  2  1  1  6
  2  3  1  0
  3  4  1  0
  4  5  1  0
  5  6  2  0
  5  7  2  0
  5  8  1  0
  2  9  1  0
  9 10  1  0
 10 11  2  0
 10 12  1  0
M  END
>  <rName>  (4358) 
bhMet_O2_3S

>  <PQ_SYMBOL>  (4358) 
bhMet_O2_3S

>  <FULL_NAME>  (4358) 
(3S)-3-amino-5-methylsulfonylpentanoic acid

>  <IUPAC_CONDENSED>  (4358) 
bhMet(O2,3S)

>  <IUPAC>  (4358) 
(3S)-3-amino-5-(methylsulfonyl)pentanoic acid

>  <TYPE>  (4358) 
Backbone

>  <CLASS>  (4358) 
beta

>  <ANALOG>  (4358) 
X

>  <MOL_WT>  (4358) 
195.23999999999998

>  <LOGP>  (4358) 
-0.7769000000000004

>  <TPSA>  (4358) 
97.46000000000001

>  <POPULARITY>  (4358) 
3.3

>  <PROTECTED>  (4358) 
TRUE

>  <SMILES>  (4358) 
N[C@H](CCS(=O)(=O)C)CC(=O)O

>  <INCHIKEY>  (4358) 
FQORKTGRHADWFZ-RXMQYKEDSA-N

$$$$
bhThr
     RDKit          2D

  9  8  0  0  0  0  0  0  0  0999 V2000
    0.2826    1.7410    0.0000 N   0  0  0  0  0  0  0  0  0  0  0  0
    0.5402    0.2633    0.0000 C   0  0  0  0  0  0  0  0  0  0  0  0
    1.9487   -0.2525    0.0000 C   0  0  0  0  0  0  0  0  0  0  0  0
    2.2062   -1.7302    0.0000 O   0  0  0  0  0  0  0  0  0  0  0  0
    3.0997    0.7094    0.0000 C   0  0  0  0  0  0  0  0  0  0  0  0
   -0.6108   -0.6986    0.0000 C   0  0  0  0  0  0  0  0  0  0  0  0
   -2.0193   -0.1828    0.0000 C   0  0  0  0  0  0  0  0  0  0  0  0
   -2.2769    1.2950    0.0000 O   0  0  0  0  0  0  0  0  0  0  0  0
   -3.1703   -1.1447    0.0000 O   0  0  0  0  0  0  0  0  0  0  0  0
  2  1  1  1
  2  3  1  0
  3  4  1  0
  3  5  1  1
  2  6  1  0
  6  7  1  0
  7  8  2  0
  7  9  1  0
M  END
>  <rName>  (4359) 
bhThr

>  <PQ_SYMBOL>  (4359) 
bhThr

>  <FULL_NAME>  (4359) 
L-beta-Homothreonine

>  <IUPAC_CONDENSED>  (4359) 
bhThr

>  <IUPAC>  (4359) 
(3R,4R)-3-amino-4-hydroxypentanoic acid

>  <TYPE>  (4359) 
Backbone

>  <CLASS>  (4359) 
beta

>  <ANALOG>  (4359) 
Thr

>  <MOL_WT>  (4359) 
133.14700000000002

>  <LOGP>  (4359) 
-0.8308000000000006

>  <TPSA>  (4359) 
83.55

>  <POPULARITY>  (4359) 
21.0

>  <PROTECTED>  (4359) 
TRUE

>  <SMILES>  (4359) 
N[C@@H]([C@H](O)C)CC(=O)O

>  <INCHIKEY>  (4359) 
NIVRJEWVLMOZNV-QWWZWVQMSA-N

$$$$
bhTrp
     RDKit          2D

 16 17  0  0  0  0  0  0  0  0999 V2000
   -2.2204   -1.3731    0.0000 N   0  0  0  0  0  0  0  0  0  0  0  0
   -2.0671    0.1190    0.0000 C   0  0  0  0  0  0  0  0  0  0  0  0
   -0.6982    0.7323    0.0000 C   0  0  0  0  0  0  0  0  0  0  0  0
    0.5173   -0.1465    0.0000 C   0  0  0  0  0  0  0  0  0  0  0  0
    0.5208   -1.6465    0.0000 C   0  0  0  0  0  0  0  0  0  0  0  0
    1.9485   -2.1067    0.0000 N   0  0  0  0  0  0  0  0  0  0  0  0
    2.8273   -0.8912    0.0000 C   0  0  0  0  0  0  0  0  0  0  0  0
    4.3188   -0.7309    0.0000 C   0  0  0  0  0  0  0  0  0  0  0  0
    4.9257    0.6408    0.0000 C   0  0  0  0  0  0  0  0  0  0  0  0
    4.0412    1.8523    0.0000 C   0  0  0  0  0  0  0  0  0  0  0  0
    2.5498    1.6920    0.0000 C   0  0  0  0  0  0  0  0  0  0  0  0
    1.9428    0.3203    0.0000 C   0  0  0  0  0  0  0  0  0  0  0  0
   -3.2827    0.9979    0.0000 C   0  0  0  0  0  0  0  0  0  0  0  0
   -4.6516    0.3846    0.0000 C   0  0  0  0  0  0  0  0  0  0  0  0
   -4.8049   -1.1076    0.0000 O   0  0  0  0  0  0  0  0  0  0  0  0
   -5.8672    1.2634    0.0000 O   0  0  0  0  0  0  0  0  0  0  0  0
  2  1  1  6
  2  3  1  0
  3  4  1  0
  4  5  2  0
  5  6  1  0
  6  7  1  0
  7  8  2  0
  8  9  1  0
  9 10  2  0
 10 11  1  0
 11 12  2  0
  2 13  1  0
 13 14  1  0
 14 15  2  0
 14 16  1  0
 12  4  1  0
 12  7  1  0
M  END
>  <rName>  (4360) 
bhTrp

>  <PQ_SYMBOL>  (4360) 
bhTrp

>  <FULL_NAME>  (4360) 
L-beta-homotryptophan

>  <IUPAC_CONDENSED>  (4360) 
bhTrp

>  <IUPAC>  (4360) 
(3S)-3-amino-4-(1H-indol-3-yl)butanoic acid

>  <TYPE>  (4360) 
Backbone

>  <CLASS>  (4360) 
beta

>  <ANALOG>  (4360) 
Trp

>  <MOL_WT>  (4360) 
218.25599999999997

>  <LOGP>  (4360) 
1.5124000000000004

>  <TPSA>  (4360) 
79.11

>  <POPULARITY>  (4360) 
19.5

>  <PROTECTED>  (4360) 
TRUE

>  <SMILES>  (4360) 
N[C@@H](Cc1(c[nH]c2(ccccc12)))CC(=O)O

>  <INCHIKEY>  (4360) 
DUVVFMLAHWNDJD-VIFPVBQESA-N

$$$$
bicyclo221heptan-1-yl_2amino_1R_2R_4S_Ac
     RDKit          2D

 12 13  0  0  0  0  0  0  0  0999 V2000
    0.6960    1.6657    0.0000 N   0  0  0  0  0  0  0  0  0  0  0  0
   -0.3881    0.7486    0.0000 C   0  0  0  0  0  0  0  0  0  0  0  0
   -0.1358   -0.6489    0.0000 C   0  0  0  0  0  0  0  0  0  0  0  0
   -1.2198   -1.5661    0.0000 C   0  0  0  0  0  0  0  0  0  0  0  0
   -2.5562   -1.0858    0.0000 C   0  0  0  0  0  0  0  0  0  0  0  0
   -2.8084    0.3116    0.0000 C   0  0  0  0  0  0  0  0  0  0  0  0
   -1.7244    1.2288    0.0000 C   0  0  0  0  0  0  0  0  0  0  0  0
   -1.3030    0.3019    0.0000 C   0  0  0  0  0  0  0  0  0  0  0  0
    0.9483    0.2683    0.0000 C   0  0  0  0  0  0  0  0  0  0  0  0
    2.3599   -0.2389    0.0000 C   0  0  0  0  0  0  0  0  0  0  0  0
    2.6264   -1.7151    0.0000 O   0  0  0  0  0  0  0  0  0  0  0  0
    3.5050    0.7299    0.0000 O   0  0  0  0  0  0  0  0  0  0  0  0
  2  1  1  1
  2  3  1  0
  3  4  1  0
  4  5  1  0
  6  5  1  6
  6  7  1  0
  6  8  1  0
  3  9  1  1
  9 10  1  0
 10 11  2  0
 10 12  1  0
  7  2  1  0
  8  3  1  0
M  END
>  <rName>  (4361) 
bicyclo221heptan-1-yl_2amino_1R_2R_4S_Ac

>  <PQ_SYMBOL>  (4361) 
bicyclo221heptan-1-yl_2amino_1R_2R_4S_Ac

>  <FULL_NAME>  (4361) 
N[C@@H]1C[C@H]2CC[C@]1(CC(=O)O)C2

>  <IUPAC_CONDENSED>  (4361) 
bicyclo[2.2.1]heptan-1-yl(2-amino,1R,2R,4S)Ac

>  <IUPAC>  (4361) 
2-((1R,2R,4S)-2-aminobicyclo[2.2.1]heptan-1-yl)acetic acid

>  <TYPE>  (4361) 
Backbone

>  <CLASS>  (4361) 
gamma

>  <ANALOG>  (4361) 
Leu

>  <MOL_WT>  (4361) 
169.224

>  <LOGP>  (4361) 
0.9785999999999997

>  <TPSA>  (4361) 
63.32000000000001

>  <POPULARITY>  (4361) 
2.6

>  <PROTECTED>  (4361) 
TRUE

>  <SMILES>  (4361) 
N[C@H]1[C@@]2(CC[C@H](C1)C2)CC(=O)O

>  <INCHIKEY>  (4361) 
RHEAXECEDWXZNV-ZXFLCMHBSA-N

$$$$
bicyclo221heptan-2-yl_2aminomethyl_Ac
     RDKit          2D

 13 14  0  0  0  0  0  0  0  0999 V2000
    1.4900    2.4680    0.0000 N   0  0  0  0  0  0  0  0  0  0  0  0
    0.0655    1.9978    0.0000 C   0  0  0  0  0  0  0  0  0  0  0  0
   -0.2232    0.6075    0.0000 C   0  0  0  0  0  0  0  0  0  0  0  0
   -1.5423    1.1333    0.0000 C   0  0  0  0  0  0  0  0  0  0  0  0
   -2.6572    0.2538    0.0000 C   0  0  0  0  0  0  0  0  0  0  0  0
   -2.4530   -1.1514    0.0000 C   0  0  0  0  0  0  0  0  0  0  0  0
   -1.1339   -1.6772    0.0000 C   0  0  0  0  0  0  0  0  0  0  0  0
   -0.0190   -0.7978    0.0000 C   0  0  0  0  0  0  0  0  0  0  0  0
   -1.1530    0.1925    0.0000 C   0  0  0  0  0  0  0  0  0  0  0  0
    1.1961    0.5645    0.0000 C   0  0  0  0  0  0  0  0  0  0  0  0
    1.9065   -0.7566    0.0000 C   0  0  0  0  0  0  0  0  0  0  0  0
    1.1176   -2.0324    0.0000 O   0  0  0  0  0  0  0  0  0  0  0  0
    3.4058   -0.8020    0.0000 O   0  0  0  0  0  0  0  0  0  0  0  0
  1  2  1  0
  2  3  1  0
  3  4  1  0
  4  5  1  0
  5  6  1  0
  6  7  1  0
  7  8  1  0
  8  9  1  0
  3 10  1  0
 10 11  1  0
 11 12  2  0
 11 13  1  0
  8  3  1  0
  9  5  1  0
M  END
>  <rName>  (4362) 
bicyclo221heptan-2-yl_2aminomethyl_Ac

>  <PQ_SYMBOL>  (4362) 
bicyclo221heptan-2-yl_2aminomethyl_Ac

>  <FULL_NAME>  (4362) 
2-[2-(Aminomethyl)bicyclo[2.2.1]heptan-2-yl]acetic acid

>  <IUPAC_CONDENSED>  (4362) 
bicyclo[2.2.1]heptan-2-yl(2-aminomethyl)Ac

>  <IUPAC>  (4362) 
2-(2-(aminomethyl)bicyclo[2.2.1]heptan-2-yl)acetic acid

>  <TYPE>  (4362) 
Backbone

>  <CLASS>  (4362) 
gamma

>  <ANALOG>  (4362) 
X

>  <MOL_WT>  (4362) 
183.25099999999998

>  <LOGP>  (4362) 
1.2262

>  <TPSA>  (4362) 
63.32000000000001

>  <POPULARITY>  (4362) 
2.9

>  <PROTECTED>  (4362) 
TRUE

>  <SMILES>  (4362) 
NCC1(CC2(CCC1C2))CC(=O)O

>  <INCHIKEY>  (4362) 
WLUPKNBWJNPXCK-UHFFFAOYSA-N

$$$$
bicyclo311heptan-2-yl_2amino_66diMe_1R_2S_5S_Ac
     RDKit          2D

 14 15  0  0  0  0  0  0  0  0999 V2000
   -1.5626    1.0763    0.0000 N   0  0  0  0  0  0  0  0  0  0  0  0
   -0.3575    0.3253    0.0000 C   0  0  0  0  0  0  0  0  0  0  0  0
    0.1728    1.6426    0.0000 C   0  0  0  0  0  0  0  0  0  0  0  0
    1.5788    1.8419    0.0000 C   0  0  0  0  0  0  0  0  0  0  0  0
    2.4544    0.7240    0.0000 C   0  0  0  0  0  0  0  0  0  0  0  0
    1.1780    0.3593    0.0000 C   0  0  0  0  0  0  0  0  0  0  0  0
    0.5181   -0.7926    0.0000 C   0  0  0  0  0  0  0  0  0  0  0  0
    1.9241   -0.5932    0.0000 C   0  0  0  0  0  0  0  0  0  0  0  0
    3.3134   -0.8868    0.0000 C   0  0  0  0  0  0  0  0  0  0  0  0
    1.8763   -2.0124    0.0000 C   0  0  0  0  0  0  0  0  0  0  0  0
   -1.3063   -0.7311    0.0000 C   0  0  0  0  0  0  0  0  0  0  0  0
   -2.7739   -0.4211    0.0000 C   0  0  0  0  0  0  0  0  0  0  0  0
   -3.2392    1.0049    0.0000 O   0  0  0  0  0  0  0  0  0  0  0  0
   -3.7763   -1.5370    0.0000 O   0  0  0  0  0  0  0  0  0  0  0  0
  2  1  1  6
  2  3  1  0
  3  4  1  0
  5  4  1  6
  5  6  1  0
  7  6  1  1
  7  8  1  0
  8  9  1  0
  8 10  1  0
  2 11  1  0
 11 12  1  0
 12 13  2  0
 12 14  1  0
  7  2  1  0
  8  5  1  0
M  END
>  <rName>  (4363) 
bicyclo311heptan-2-yl_2amino_66diMe_1R_2S_5S_Ac

>  <PQ_SYMBOL>  (4363) 
bicyclo311heptan-2-yl_2amino_66diMe_1R_2S_5S_Ac

>  <FULL_NAME>  (4363) 
[(1R,2S,5S)-2-amino-6,6-dimethylbicyclo[3.1.1]hept-2-yl]acetic acid

>  <IUPAC_CONDENSED>  (4363) 
bicyclo[3.1.1]heptan-2-yl(2-amino,6,6-diMe,1R,2S,5S)Ac

>  <IUPAC>  (4363) 
2-[(1R,2S,5S)-2-amino-6,6-dimethyl-2-bicyclo[3.1.1]heptanyl]acetic acid

>  <TYPE>  (4363) 
Backbone

>  <CLASS>  (4363) 
beta

>  <ANALOG>  (4363) 
X

>  <MOL_WT>  (4363) 
197.27799999999996

>  <LOGP>  (4363) 
1.6147

>  <TPSA>  (4363) 
63.32000000000001

>  <POPULARITY>  (4363) 
2.2

>  <PROTECTED>  (4363) 
TRUE

>  <SMILES>  (4363) 
N[C@@]1(CC[C@H]2(C[C@@H]1C2(C)C))CC(=O)O

>  <INCHIKEY>  (4363) 
JSICQVCNVIFZPF-RNSXUZJQSA-N

$$$$
biotinyl-Phe
     RDKit          2D

 27 29  0  0  0  0  0  0  0  0999 V2000
    2.5758   -1.1398    0.0000 N   0  0  0  0  0  0  0  0  0  0  0  0
    1.3361   -0.2954    0.0000 C   0  0  0  0  0  0  0  0  0  0  0  0
    1.4475    1.2005    0.0000 O   0  0  0  0  0  0  0  0  0  0  0  0
   -0.0151   -0.9468    0.0000 C   0  0  0  0  0  0  0  0  0  0  0  0
   -1.2548   -0.1023    0.0000 C   0  0  0  0  0  0  0  0  0  0  0  0
   -2.6060   -0.7538    0.0000 C   0  0  0  0  0  0  0  0  0  0  0  0
   -3.8457    0.0907    0.0000 C   0  0  0  0  0  0  0  0  0  0  0  0
   -5.1969   -0.5607    0.0000 C   0  0  0  0  0  0  0  0  0  0  0  0
   -5.4641   -2.0367    0.0000 S   0  0  0  0  0  0  0  0  0  0  0  0
   -6.9504   -2.2387    0.0000 C   0  0  0  0  0  0  0  0  0  0  0  0
   -7.6018   -0.8876    0.0000 C   0  0  0  0  0  0  0  0  0  0  0  0
   -8.9230   -0.1773    0.0000 N   0  0  0  0  0  0  0  0  0  0  0  0
   -8.6558    1.2987    0.0000 C   0  0  0  0  0  0  0  0  0  0  0  0
   -9.6929    2.3824    0.0000 O   0  0  0  0  0  0  0  0  0  0  0  0
   -7.1695    1.5007    0.0000 N   0  0  0  0  0  0  0  0  0  0  0  0
   -6.5181    0.1495    0.0000 C   0  0  0  0  0  0  0  0  0  0  0  0
    3.9270   -0.4884    0.0000 C   0  0  0  0  0  0  0  0  0  0  0  0
    5.1667   -1.3329    0.0000 C   0  0  0  0  0  0  0  0  0  0  0  0
    6.5179   -0.6814    0.0000 C   0  0  0  0  0  0  0  0  0  0  0  0
    7.7576   -1.5259    0.0000 C   0  0  0  0  0  0  0  0  0  0  0  0
    9.1088   -0.8745    0.0000 C   0  0  0  0  0  0  0  0  0  0  0  0
    9.2202    0.6214    0.0000 C   0  0  0  0  0  0  0  0  0  0  0  0
    7.9805    1.4658    0.0000 C   0  0  0  0  0  0  0  0  0  0  0  0
    6.6293    0.8144    0.0000 C   0  0  0  0  0  0  0  0  0  0  0  0
    4.0384    1.0074    0.0000 C   0  0  0  0  0  0  0  0  0  0  0  0
    2.7987    1.8519    0.0000 O   0  0  0  0  0  0  0  0  0  0  0  0
    5.3896    1.6589    0.0000 O   0  0  0  0  0  0  0  0  0  0  0  0
  1  2  1  0
  2  3  2  0
  2  4  1  0
  4  5  1  0
  5  6  1  0
  6  7  1  0
  8  7  1  6
  8  9  1  0
  9 10  1  0
 11 10  1  6
 11 12  1  0
 12 13  1  0
 13 14  2  0
 13 15  1  0
 16 15  1  6
  1 17  1  0
 17 18  1  6
 18 19  1  0
 19 20  2  0
 20 21  1  0
 21 22  2  0
 22 23  1  0
 23 24  2  0
 17 25  1  0
 25 26  2  0
 25 27  1  0
 16  8  1  0
 16 11  1  0
 24 19  1  0
M  END
>  <rName>  (4364) 
biotinyl-Phe

>  <PQ_SYMBOL>  (4364) 
biotinyl-Phe

>  <FULL_NAME>  (4364) 
(5-((3aS,4S,6aR)-2-oxohexahydro-1H-thieno[3,4-d]imidazol-4-yl)pentanoyl)-L-phenylalanine

>  <IUPAC_CONDENSED>  (4364) 
biotinyl-Phe

>  <IUPAC>  (4364) 
(2S)-2-(4-((1S,2S,5R)-7-oxo-3-thia-6,8-diazabicyclo[3.3.0]octan-2-yl)butylcarbonylamino)-3-phenylpropanoic acid

>  <TYPE>  (4364) 
Backbone

>  <CLASS>  (4364) 
alpha

>  <ANALOG>  (4364) 
Phe

>  <MOL_WT>  (4364) 
391.49300000000017

>  <LOGP>  (4364) 
1.5242999999999995

>  <TPSA>  (4364) 
107.53000000000002

>  <POPULARITY>  (4364) 
2.9

>  <PROTECTED>  (4364) 
TRUE

>  <SMILES>  (4364) 
N(C(=O)CCCC[C@@H]1(SC[C@@H]2(NC(=O)N[C@H]12)))[C@@H](Cc3(ccccc3))C(=O)O

>  <INCHIKEY>  (4364) 
MCMKASCMNHIQTP-JKQORVJESA-N

$$$$
butanoyl
     RDKit          2D

  6  5  0  0  0  0  0  0  0  0999 V2000
   -2.8748   -0.2197    0.0000 C   0  0  0  0  0  0  0  0  0  0  0  0
   -1.4825    0.3386    0.0000 C   0  0  0  0  0  0  0  0  0  0  0  0
   -0.3029   -0.5880    0.0000 C   0  0  0  0  0  0  0  0  0  0  0  0
    1.0893   -0.0297    0.0000 C   0  0  0  0  0  0  0  0  0  0  0  0
    1.3020    1.4551    0.0000 O   0  0  0  0  0  0  0  0  0  0  0  0
    2.2689   -0.9563    0.0000 O   0  0  0  0  0  0  0  0  0  0  0  0
  1  2  1  0
  2  3  1  0
  3  4  1  0
  4  5  2  0
  4  6  1  0
M  END
>  <rName>  (4365) 
butanoyl

>  <PQ_SYMBOL>  (4365) 
butanoyl

>  <FULL_NAME>  (4365) 
Butir, Butyric acid

>  <IUPAC_CONDENSED>  (4365) 
butanoyl

>  <IUPAC>  (4365) 
butanoic acid

>  <TYPE>  (4365) 
N-term cap

>  <CLASS>  (4365) 
n_cap

>  <ANALOG>  (4365) 
X

>  <MOL_WT>  (4365) 
88.10599999999998

>  <LOGP>  (4365) 
0.8711

>  <TPSA>  (4365) 
37.3

>  <POPULARITY>  (4365) 
15.0

>  <PROTECTED>  (4365) 
FALSE

>  <SMILES>  (4365) 
CCCC(=O)O

>  <INCHIKEY>  (4365) 
FERIUCNNQQJTOY-UHFFFAOYSA-N

$$$$
cHexCH2-Pro
     RDKit          2D

 15 16  0  0  0  0  0  0  0  0999 V2000
   -4.5467   -0.1364    0.0000 C   0  0  0  0  0  0  0  0  0  0  0  0
   -4.0779    1.2885    0.0000 C   0  0  0  0  0  0  0  0  0  0  0  0
   -2.6095    1.5949    0.0000 C   0  0  0  0  0  0  0  0  0  0  0  0
   -1.6099    0.4764    0.0000 C   0  0  0  0  0  0  0  0  0  0  0  0
   -2.0788   -0.9484    0.0000 C   0  0  0  0  0  0  0  0  0  0  0  0
   -3.5471   -1.2548    0.0000 C   0  0  0  0  0  0  0  0  0  0  0  0
   -0.1416    0.7829    0.0000 C   0  0  0  0  0  0  0  0  0  0  0  0
    0.8580   -0.3356    0.0000 N   0  0  0  0  0  0  0  0  0  0  0  0
    2.3503   -0.1843    0.0000 C   0  0  0  0  0  0  0  0  0  0  0  0
    2.9553   -1.5569    0.0000 C   0  0  0  0  0  0  0  0  0  0  0  0
    1.8369   -2.5565    0.0000 C   0  0  0  0  0  0  0  0  0  0  0  0
    0.5407   -1.8016    0.0000 C   0  0  0  0  0  0  0  0  0  0  0  0
    3.1052    1.1119    0.0000 C   0  0  0  0  0  0  0  0  0  0  0  0
    2.3600    2.4137    0.0000 O   0  0  0  0  0  0  0  0  0  0  0  0
    4.6051    1.1063    0.0000 O   0  0  0  0  0  0  0  0  0  0  0  0
  1  2  1  0
  2  3  1  0
  3  4  1  0
  4  5  1  0
  5  6  1  0
  4  7  1  0
  7  8  1  0
  8  9  1  0
  9 10  1  0
 10 11  1  0
 11 12  1  0
  9 13  1  6
 13 14  2  0
 13 15  1  0
 12  8  1  0
  6  1  1  0
M  END
>  <rName>  (4366) 
cHexCH2-Pro

>  <PQ_SYMBOL>  (4366) 
cHexCH2-Pro

>  <FULL_NAME>  (4366) 
1-(cyclohexylmethyl)-L-proline

>  <IUPAC_CONDENSED>  (4366) 
cHexCH2-Pro

>  <IUPAC>  (4366) 
(2S)-1-(cyclohexylmethyl)pyrrolidine-2-carboxylic acid

>  <TYPE>  (4366) 
N-term cap

>  <CLASS>  (4366) 
n_cap

>  <ANALOG>  (4366) 
X

>  <MOL_WT>  (4366) 
211.30499999999998

>  <LOGP>  (4366) 
2.1157

>  <TPSA>  (4366) 
40.540000000000006

>  <POPULARITY>  (4366) 
7.7

>  <PROTECTED>  (4366) 
FALSE

>  <SMILES>  (4366) 
C2CCC(CC2)CN1[C@@H](CCC1)C(=O)O

>  <INCHIKEY>  (4366) 
XRYRJXQJSTWFDB-NSHDSACASA-N

$$$$
cHexCO
     RDKit          2D

  9  9  0  0  0  0  0  0  0  0999 V2000
    2.6667   -0.0000    0.0000 C   0  0  0  0  0  0  0  0  0  0  0  0
    1.9167   -1.2990    0.0000 C   0  0  0  0  0  0  0  0  0  0  0  0
    0.4167   -1.2990    0.0000 C   0  0  0  0  0  0  0  0  0  0  0  0
   -0.3333    0.0000    0.0000 C   0  0  0  0  0  0  0  0  0  0  0  0
    0.4167    1.2990    0.0000 C   0  0  0  0  0  0  0  0  0  0  0  0
    1.9167    1.2990    0.0000 C   0  0  0  0  0  0  0  0  0  0  0  0
   -1.8333    0.0000    0.0000 C   0  0  0  0  0  0  0  0  0  0  0  0
   -2.5833   -1.2990    0.0000 O   0  0  0  0  0  0  0  0  0  0  0  0
   -2.5833    1.2990    0.0000 O   0  0  0  0  0  0  0  0  0  0  0  0
  1  2  1  0
  2  3  1  0
  3  4  1  0
  4  5  1  0
  5  6  1  0
  4  7  1  0
  7  8  2  0
  7  9  1  0
  6  1  1  0
M  END
>  <rName>  (4367) 
cHexCO

>  <PQ_SYMBOL>  (4367) 
cHexCO

>  <FULL_NAME>  (4367) 
Cyclohexanecarboxylic acid

>  <IUPAC_CONDENSED>  (4367) 
cHexCO

>  <IUPAC>  (4367) 
cyclohexanecarboxylic acid

>  <TYPE>  (4367) 
N-term cap

>  <CLASS>  (4367) 
n_cap

>  <ANALOG>  (4367) 
X

>  <MOL_WT>  (4367) 
128.171

>  <LOGP>  (4367) 
1.6513

>  <TPSA>  (4367) 
37.3

>  <POPULARITY>  (4367) 
16.5

>  <PROTECTED>  (4367) 
TRUE

>  <SMILES>  (4367) 
C1CCC(CC1)C(=O)O

>  <INCHIKEY>  (4367) 
NZNMSOFKMUBTKW-UHFFFAOYSA-N

$$$$
cPent-bAla
     RDKit          2D

 11 11  0  0  0  0  0  0  0  0999 V2000
    0.3442   -1.0108    0.0000 N   0  0  0  0  0  0  0  0  0  0  0  0
    1.7110   -0.3930    0.0000 C   0  0  0  0  0  0  0  0  0  0  0  0
    3.0143   -1.1357    0.0000 C   0  0  0  0  0  0  0  0  0  0  0  0
    4.1233   -0.1257    0.0000 C   0  0  0  0  0  0  0  0  0  0  0  0
    3.5055    1.2411    0.0000 C   0  0  0  0  0  0  0  0  0  0  0  0
    2.0146    1.0759    0.0000 C   0  0  0  0  0  0  0  0  0  0  0  0
   -0.8743   -0.1360    0.0000 C   0  0  0  0  0  0  0  0  0  0  0  0
   -2.2412   -0.7538    0.0000 C   0  0  0  0  0  0  0  0  0  0  0  0
   -3.4596    0.1211    0.0000 C   0  0  0  0  0  0  0  0  0  0  0  0
   -3.3112    1.6137    0.0000 O   0  0  0  0  0  0  0  0  0  0  0  0
   -4.8265   -0.4968    0.0000 O   0  0  0  0  0  0  0  0  0  0  0  0
  1  2  1  0
  2  3  1  0
  3  4  1  0
  4  5  1  0
  5  6  1  0
  1  7  1  0
  7  8  1  0
  8  9  1  0
  9 10  2  0
  9 11  1  0
  6  2  1  0
M  END
>  <rName>  (4368) 
cPent-bAla

>  <PQ_SYMBOL>  (4368) 
cPent-bAla

>  <FULL_NAME>  (4368) 
3-(Cyclopentylamino)propanoic acid

>  <IUPAC_CONDENSED>  (4368) 
cPent-bAla

>  <IUPAC>  (4368) 
3-(cyclopentylamino)propanoic acid

>  <TYPE>  (4368) 
Backbone

>  <CLASS>  (4368) 
beta

>  <ANALOG>  (4368) 
Gly

>  <MOL_WT>  (4368) 
157.21300000000002

>  <LOGP>  (4368) 
0.9932999999999998

>  <TPSA>  (4368) 
49.33

>  <POPULARITY>  (4368) 
9.6

>  <PROTECTED>  (4368) 
TRUE

>  <SMILES>  (4368) 
N(C1(CCCC1))CCC(=O)O

>  <INCHIKEY>  (4368) 
MWKAFAOTXUBGKV-UHFFFAOYSA-N

$$$$
cPent-bAla_b_bdiMe
     RDKit          2D

 13 13  0  0  0  0  0  0  0  0999 V2000
    0.6314   -0.5751    0.0000 N   0  0  0  0  0  0  0  0  0  0  0  0
    2.0949   -0.2465    0.0000 C   0  0  0  0  0  0  0  0  0  0  0  0
    3.2211   -1.2373    0.0000 C   0  0  0  0  0  0  0  0  0  0  0  0
    4.5114   -0.4725    0.0000 C   0  0  0  0  0  0  0  0  0  0  0  0
    4.1828    0.9911    0.0000 C   0  0  0  0  0  0  0  0  0  0  0  0
    2.6893    1.1307    0.0000 C   0  0  0  0  0  0  0  0  0  0  0  0
   -0.3850    0.5280    0.0000 C   0  0  0  0  0  0  0  0  0  0  0  0
   -1.8486    0.1994    0.0000 C   0  0  0  0  0  0  0  0  0  0  0  0
   -1.5199   -1.2642    0.0000 C   0  0  0  0  0  0  0  0  0  0  0  0
   -2.1772    1.6629    0.0000 C   0  0  0  0  0  0  0  0  0  0  0  0
   -3.3121   -0.1293    0.0000 C   0  0  0  0  0  0  0  0  0  0  0  0
   -4.3285    0.9739    0.0000 O   0  0  0  0  0  0  0  0  0  0  0  0
   -3.7593   -1.5611    0.0000 O   0  0  0  0  0  0  0  0  0  0  0  0
  1  2  1  0
  2  3  1  0
  3  4  1  0
  4  5  1  0
  5  6  1  0
  1  7  1  0
  7  8  1  0
  8  9  1  0
  8 10  1  0
  8 11  1  0
 11 12  2  0
 11 13  1  0
  6  2  1  0
M  END
>  <rName>  (4369) 
cPent-bAla_b_bdiMe

>  <PQ_SYMBOL>  (4369) 
cPent-bAla_b_bdiMe

>  <FULL_NAME>  (4369) 
3-(Cyclopentylamino)-2,2-dimethylpropanoic acid

>  <IUPAC_CONDENSED>  (4369) 
cPent-bAla(b,b-diMe)

>  <IUPAC>  (4369) 
3-(cyclopentylamino)-2,2-dimethylpropanoic acid

>  <TYPE>  (4369) 
Backbone

>  <CLASS>  (4369) 
beta

>  <ANALOG>  (4369) 
Ala

>  <MOL_WT>  (4369) 
185.267

>  <LOGP>  (4369) 
1.6294

>  <TPSA>  (4369) 
49.33

>  <POPULARITY>  (4369) 
6.6

>  <PROTECTED>  (4369) 
TRUE

>  <SMILES>  (4369) 
N(C1(CCCC1))CC(C)(C)C(=O)O

>  <INCHIKEY>  (4369) 
OPLUUJGNQOVXCE-UHFFFAOYSA-N

$$$$
cis-1-aminoindan-2-CO2H_R
     RDKit          2D

 13 14  0  0  0  0  0  0  0  0999 V2000
   -1.0632    2.3910    0.0000 N   0  0  0  0  0  0  0  0  0  0  0  0
   -0.5351    0.9871    0.0000 C   0  0  0  0  0  0  0  0  0  0  0  0
   -1.3605   -0.2654    0.0000 C   0  0  0  0  0  0  0  0  0  0  0  0
   -0.4244   -1.4375    0.0000 C   0  0  0  0  0  0  0  0  0  0  0  0
    0.9796   -0.9093    0.0000 C   0  0  0  0  0  0  0  0  0  0  0  0
    2.3115   -1.5993    0.0000 C   0  0  0  0  0  0  0  0  0  0  0  0
    3.5750   -0.7908    0.0000 C   0  0  0  0  0  0  0  0  0  0  0  0
    3.5065    0.7076    0.0000 C   0  0  0  0  0  0  0  0  0  0  0  0
    2.1746    1.3976    0.0000 C   0  0  0  0  0  0  0  0  0  0  0  0
    0.9112    0.5891    0.0000 C   0  0  0  0  0  0  0  0  0  0  0  0
   -2.8589   -0.3338    0.0000 C   0  0  0  0  0  0  0  0  0  0  0  0
   -3.5489   -1.6657    0.0000 O   0  0  0  0  0  0  0  0  0  0  0  0
   -3.6674    0.9296    0.0000 O   0  0  0  0  0  0  0  0  0  0  0  0
  2  1  1  6
  2  3  1  0
  3  4  1  0
  4  5  1  0
  5  6  2  0
  6  7  1  0
  7  8  2  0
  8  9  1  0
  9 10  2  0
  3 11  1  6
 11 12  2  0
 11 13  1  0
 10  2  1  0
 10  5  1  0
M  END
>  <rName>  (4370) 
cis-1-aminoindan-2-CO2H_R

>  <PQ_SYMBOL>  (4370) 
cis-1-aminoindan-2-CO2H_R

>  <FULL_NAME>  (4370) 
Cis-1-amino-2,3-dihydro-1H-indene-2-carboxylic acid

>  <IUPAC_CONDENSED>  (4370) 
cis-1-aminoindan-2-CO2H(R)

>  <IUPAC>  (4370) 
(1S,2S)-1-aminoindane-2-carboxylic acid

>  <TYPE>  (4370) 
Backbone

>  <CLASS>  (4370) 
beta

>  <ANALOG>  (4370) 
X

>  <MOL_WT>  (4370) 
177.20299999999997

>  <LOGP>  (4370) 
0.9433

>  <TPSA>  (4370) 
63.32000000000001

>  <POPULARITY>  (4370) 
4.8

>  <PROTECTED>  (4370) 
TRUE

>  <SMILES>  (4370) 
N[C@H]1[C@H](Cc2(ccccc12))C(=O)O

>  <INCHIKEY>  (4370) 
DNDUYUYIRYKACW-DTWKUNHWSA-N

$$$$
cis-1-aminoindan-2-CO2H_S
     RDKit          2D

 13 14  0  0  0  0  0  0  0  0999 V2000
   -1.0632    2.3910    0.0000 N   0  0  0  0  0  0  0  0  0  0  0  0
   -0.5351    0.9871    0.0000 C   0  0  0  0  0  0  0  0  0  0  0  0
   -1.3605   -0.2654    0.0000 C   0  0  0  0  0  0  0  0  0  0  0  0
   -0.4244   -1.4375    0.0000 C   0  0  0  0  0  0  0  0  0  0  0  0
    0.9796   -0.9093    0.0000 C   0  0  0  0  0  0  0  0  0  0  0  0
    2.3115   -1.5993    0.0000 C   0  0  0  0  0  0  0  0  0  0  0  0
    3.5750   -0.7908    0.0000 C   0  0  0  0  0  0  0  0  0  0  0  0
    3.5065    0.7076    0.0000 C   0  0  0  0  0  0  0  0  0  0  0  0
    2.1746    1.3976    0.0000 C   0  0  0  0  0  0  0  0  0  0  0  0
    0.9112    0.5891    0.0000 C   0  0  0  0  0  0  0  0  0  0  0  0
   -2.8589   -0.3338    0.0000 C   0  0  0  0  0  0  0  0  0  0  0  0
   -3.5489   -1.6657    0.0000 O   0  0  0  0  0  0  0  0  0  0  0  0
   -3.6674    0.9296    0.0000 O   0  0  0  0  0  0  0  0  0  0  0  0
  2  1  1  1
  2  3  1  0
  3  4  1  0
  4  5  1  0
  5  6  2  0
  6  7  1  0
  7  8  2  0
  8  9  1  0
  9 10  2  0
  3 11  1  1
 11 12  2  0
 11 13  1  0
 10  2  1  0
 10  5  1  0
M  END
>  <rName>  (4371) 
cis-1-aminoindan-2-CO2H_S

>  <PQ_SYMBOL>  (4371) 
cis-1-aminoindan-2-CO2H_S

>  <FULL_NAME>  (4371) 
cis-1-Amino-indan-2-carboxylic acid

>  <IUPAC_CONDENSED>  (4371) 
cis-1-aminoindan-2-CO2H(S)

>  <IUPAC>  (4371) 
(1R,2R)-1-aminoindane-2-carboxylic acid

>  <TYPE>  (4371) 
Backbone

>  <CLASS>  (4371) 
beta

>  <ANALOG>  (4371) 
X

>  <MOL_WT>  (4371) 
177.20299999999997

>  <LOGP>  (4371) 
0.9433

>  <TPSA>  (4371) 
63.32000000000001

>  <POPULARITY>  (4371) 
6.0

>  <PROTECTED>  (4371) 
TRUE

>  <SMILES>  (4371) 
N[C@@H]1[C@@H](Cc2(ccccc12))C(=O)O

>  <INCHIKEY>  (4371) 
DNDUYUYIRYKACW-BDAKNGLRSA-N

$$$$
cis-Ac4c_3OH
     RDKit          2D

  9  9  0  0  0  0  0  0  0  0999 V2000
    1.0010   -1.6755    0.0000 N   0  0  0  0  0  0  0  0  0  0  0  0
    0.1997   -0.4075    0.0000 C   0  0  0  0  0  0  0  0  0  0  0  0
   -1.0683   -1.2088    0.0000 C   0  0  0  0  0  0  0  0  0  0  0  0
   -1.8696    0.0593    0.0000 C   0  0  0  0  0  0  0  0  0  0  0  0
   -3.3328    0.3893    0.0000 O   0  0  0  0  0  0  0  0  0  0  0  0
   -0.6015    0.8606    0.0000 C   0  0  0  0  0  0  0  0  0  0  0  0
    1.4678    0.3938    0.0000 C   0  0  0  0  0  0  0  0  0  0  0  0
    1.4079    1.8926    0.0000 O   0  0  0  0  0  0  0  0  0  0  0  0
    2.7958   -0.3037    0.0000 O   0  0  0  0  0  0  0  0  0  0  0  0
  2  1  1  6
  2  3  1  0
  3  4  1  0
  4  5  1  6
  4  6  1  0
  2  7  1  0
  7  8  2  0
  7  9  1  0
  6  2  1  0
M  END
>  <rName>  (4372) 
cis-Ac4c_3OH

>  <PQ_SYMBOL>  (4372) 
cis-Ac4c_3OH

>  <FULL_NAME>  (4372) 
cis-1-Amino-3-hydroxycyclobutanecarboxylic acid, (1S,3S)-1-Amino-3-hydroxycyclobutane-1-carboxylic acid

>  <IUPAC_CONDENSED>  (4372) 
cis-Ac4c(3-OH)

>  <IUPAC>  (4372) 
(1R,3S)-1-amino-3-hydroxycyclobutane-1-carboxylic acid

>  <TYPE>  (4372) 
Backbone

>  <CLASS>  (4372) 
alpha

>  <ANALOG>  (4372) 
Ser

>  <MOL_WT>  (4372) 
131.131

>  <LOGP>  (4372) 
-1.0768000000000006

>  <TPSA>  (4372) 
83.55

>  <POPULARITY>  (4372) 
5.5

>  <PROTECTED>  (4372) 
TRUE

>  <SMILES>  (4372) 
N[C@@]1(C[C@H](O)C1)C(=O)O

>  <INCHIKEY>  (4372) 
OEQBVNDAVKXWBS-YUOXXFAHSA-N

$$$$
cis-Ac4c_3Ph_2Cl
     RDKit          2D

 15 16  0  0  0  0  0  0  0  0999 V2000
   -3.0866    1.5619    0.0000 N   0  0  0  0  0  0  0  0  0  0  0  0
   -2.1903    0.3591    0.0000 C   0  0  0  0  0  0  0  0  0  0  0  0
   -0.9876    1.2554    0.0000 C   0  0  0  0  0  0  0  0  0  0  0  0
   -0.0913    0.0527    0.0000 C   0  0  0  0  0  0  0  0  0  0  0  0
   -1.2940   -0.8436    0.0000 C   0  0  0  0  0  0  0  0  0  0  0  0
    1.3930   -0.1640    0.0000 C   0  0  0  0  0  0  0  0  0  0  0  0
    1.9475   -1.5578    0.0000 C   0  0  0  0  0  0  0  0  0  0  0  0
    3.4317   -1.7745    0.0000 C   0  0  0  0  0  0  0  0  0  0  0  0
    4.3615   -0.5974    0.0000 C   0  0  0  0  0  0  0  0  0  0  0  0
    3.8071    0.7963    0.0000 C   0  0  0  0  0  0  0  0  0  0  0  0
    2.3228    1.0130    0.0000 C   0  0  0  0  0  0  0  0  0  0  0  0
    1.7683    2.4068    0.0000 Cl  0  0  0  0  0  0  0  0  0  0  0  0
   -3.3931   -0.5372    0.0000 C   0  0  0  0  0  0  0  0  0  0  0  0
   -3.2183   -2.0270    0.0000 O   0  0  0  0  0  0  0  0  0  0  0  0
   -4.7707    0.0563    0.0000 O   0  0  0  0  0  0  0  0  0  0  0  0
  2  1  1  1
  2  3  1  0
  3  4  1  0
  4  5  1  0
  4  6  1  1
  6  7  2  0
  7  8  1  0
  8  9  2  0
  9 10  1  0
 10 11  2  0
 11 12  1  0
  2 13  1  0
 13 14  2  0
 13 15  1  0
  5  2  1  0
 11  6  1  0
M  END
>  <rName>  (4373) 
cis-Ac4c_3Ph_2Cl

>  <PQ_SYMBOL>  (4373) 
cis-Ac4c_3Ph_2Cl

>  <FULL_NAME>  (4373) 
1-Amino-3-(2-chlorophenyl)cyclobutane-1-carboxylic acid

>  <IUPAC_CONDENSED>  (4373) 
cis-Ac4c(3-Ph(2-Cl))

>  <IUPAC>  (4373) 
1-amino-3-(2-chlorophenyl)cyclobutane-1-carboxylic acid

>  <TYPE>  (4373) 
Backbone

>  <CLASS>  (4373) 
alpha

>  <ANALOG>  (4373) 
Phe

>  <MOL_WT>  (4373) 
225.67499999999998

>  <LOGP>  (4373) 
1.9994999999999998

>  <TPSA>  (4373) 
63.32000000000001

>  <POPULARITY>  (4373) 
2.9

>  <PROTECTED>  (4373) 
TRUE

>  <SMILES>  (4373) 
N[C@]1(C[C@H](C1)c2(ccccc2Cl))C(=O)O

>  <INCHIKEY>  (4373) 
JASUJAURSWAPTL-DGFRNANFSA-N

$$$$
cyclen-1-acetyl
     RDKit          2D

 16 16  0  0  0  0  0  0  0  0999 V2000
   -3.7065    0.0197    0.0000 N   0  0  0  0  0  0  0  0  0  0  0  0
   -3.6952    1.4397    0.0000 C   0  0  0  0  0  0  0  0  0  0  0  0
   -2.4598    2.1398    0.0000 C   0  0  0  0  0  0  0  0  0  0  0  0
   -1.2357    1.4199    0.0000 N   0  0  0  0  0  0  0  0  0  0  0  0
   -0.0003    2.1201    0.0000 C   0  0  0  0  0  0  0  0  0  0  0  0
    1.2237    1.4003    0.0000 C   0  0  0  0  0  0  0  0  0  0  0  0
    1.2123   -0.0197    0.0000 N   0  0  0  0  0  0  0  0  0  0  0  0
   -0.0231   -0.7198    0.0000 C   0  0  0  0  0  0  0  0  0  0  0  0
   -0.0345   -2.1398    0.0000 C   0  0  0  0  0  0  0  0  0  0  0  0
   -1.2699   -2.8400    0.0000 N   0  0  0  0  0  0  0  0  0  0  0  0
   -2.4939   -2.1201    0.0000 C   0  0  0  0  0  0  0  0  0  0  0  0
   -2.4825   -0.7001    0.0000 C   0  0  0  0  0  0  0  0  0  0  0  0
    2.4363   -0.7396    0.0000 C   0  0  0  0  0  0  0  0  0  0  0  0
    3.7414    0.0000    0.0000 C   0  0  0  0  0  0  0  0  0  0  0  0
    3.7534    1.5000    0.0000 O   0  0  0  0  0  0  0  0  0  0  0  0
    5.0343   -0.7604    0.0000 O   0  0  0  0  0  0  0  0  0  0  0  0
  1  2  1  0
  2  3  1  0
  3  4  1  0
  4  5  1  0
  5  6  1  0
  6  7  1  0
  7  8  1  0
  8  9  1  0
  9 10  1  0
 10 11  1  0
 11 12  1  0
  7 13  1  0
 13 14  1  0
 14 15  2  0
 14 16  1  0
 12  1  1  0
M  END
>  <rName>  (4374) 
cyclen-1-acetyl

>  <PQ_SYMBOL>  (4374) 
cyclen-1-acetyl

>  <FULL_NAME>  (4374) 
2-(1,4,7,10-tetrazacyclododec-1-yl)acetic acid

>  <IUPAC_CONDENSED>  (4374) 
cyclen-1-acetyl

>  <IUPAC>  (4374) 
2-(1,4,7,10-tetraazacyclododecan-1-yl)acetic acid

>  <TYPE>  (4374) 
N-term cap

>  <CLASS>  (4374) 
n_cap

>  <ANALOG>  (4374) 
X

>  <MOL_WT>  (4374) 
230.31199999999998

>  <LOGP>  (4374) 
-1.8445999999999954

>  <TPSA>  (4374) 
76.63

>  <POPULARITY>  (4374) 
10.2

>  <PROTECTED>  (4374) 
TRUE

>  <SMILES>  (4374) 
N1CCNCCN(CCNCC1)CC(=O)O

>  <INCHIKEY>  (4374) 
XDLOGHYCUQYEKA-UHFFFAOYSA-N

$$$$
cyclobutan-1-yl_1aminomethyl_Ac
     RDKit          2D

 10 10  0  0  0  0  0  0  0  0999 V2000
   -0.6887   -2.3229    0.0000 N   0  0  0  0  0  0  0  0  0  0  0  0
    0.0525   -1.0188    0.0000 C   0  0  0  0  0  0  0  0  0  0  0  0
   -0.7063    0.2751    0.0000 C   0  0  0  0  0  0  0  0  0  0  0  0
   -2.0002   -0.4836    0.0000 C   0  0  0  0  0  0  0  0  0  0  0  0
   -2.7590    0.8103    0.0000 C   0  0  0  0  0  0  0  0  0  0  0  0
   -1.4651    1.5691    0.0000 C   0  0  0  0  0  0  0  0  0  0  0  0
    0.5876    1.0339    0.0000 C   0  0  0  0  0  0  0  0  0  0  0  0
    1.8917    0.2927    0.0000 C   0  0  0  0  0  0  0  0  0  0  0  0
    1.9019   -1.2072    0.0000 O   0  0  0  0  0  0  0  0  0  0  0  0
    3.1856    1.0515    0.0000 O   0  0  0  0  0  0  0  0  0  0  0  0
  1  2  1  0
  2  3  1  0
  3  4  1  0
  4  5  1  0
  5  6  1  0
  3  7  1  0
  7  8  1  0
  8  9  2  0
  8 10  1  0
  6  3  1  0
M  END
>  <rName>  (4375) 
cyclobutan-1-yl_1aminomethyl_Ac

>  <PQ_SYMBOL>  (4375) 
cyclobutan-1-yl_1aminomethyl_Ac

>  <FULL_NAME>  (4375) 
2-[1-(aminomethyl)cyclobutyl]acetic acid

>  <IUPAC_CONDENSED>  (4375) 
cyclobutan-1-yl(1-aminomethyl)Ac

>  <IUPAC>  (4375) 
2-(1-(aminomethyl)cyclobutyl)acetic acid

>  <TYPE>  (4375) 
Backbone

>  <CLASS>  (4375) 
gamma

>  <ANALOG>  (4375) 
X

>  <MOL_WT>  (4375) 
143.186

>  <LOGP>  (4375) 
0.5901000000000001

>  <TPSA>  (4375) 
63.32000000000001

>  <POPULARITY>  (4375) 
9.3

>  <PROTECTED>  (4375) 
TRUE

>  <SMILES>  (4375) 
NCC1(CCC1)CC(=O)O

>  <INCHIKEY>  (4375) 
JPTZCXJSCJAXEE-UHFFFAOYSA-N

$$$$
cyclobutan-1-yl_2amino_1R_2R_Ac
     RDKit          2D

  9  9  0  0  0  0  0  0  0  0999 V2000
    2.7892   -1.5898    0.0000 N   0  0  0  0  0  0  0  0  0  0  0  0
    1.9714   -0.3324    0.0000 C   0  0  0  0  0  0  0  0  0  0  0  0
    0.5040   -0.0215    0.0000 C   0  0  0  0  0  0  0  0  0  0  0  0
    0.8148    1.4459    0.0000 C   0  0  0  0  0  0  0  0  0  0  0  0
    2.2823    1.1350    0.0000 C   0  0  0  0  0  0  0  0  0  0  0  0
   -0.7535   -0.8394    0.0000 C   0  0  0  0  0  0  0  0  0  0  0  0
   -2.0904   -0.1593    0.0000 C   0  0  0  0  0  0  0  0  0  0  0  0
   -2.1700    1.3386    0.0000 O   0  0  0  0  0  0  0  0  0  0  0  0
   -3.3479   -0.9771    0.0000 O   0  0  0  0  0  0  0  0  0  0  0  0
  2  1  1  1
  2  3  1  0
  3  4  1  0
  4  5  1  0
  3  6  1  1
  6  7  1  0
  7  8  2  0
  7  9  1  0
  5  2  1  0
M  END
>  <rName>  (4376) 
cyclobutan-1-yl_2amino_1R_2R_Ac

>  <PQ_SYMBOL>  (4376) 
cyclobutan-1-yl_2amino_1R_2R_Ac

>  <FULL_NAME>  (4376) 
2-((1R,2R)-2-Aminocyclobutyl)acetic acid

>  <IUPAC_CONDENSED>  (4376) 
cyclobutan-1-yl(2-amino,1R,2R)Ac

>  <IUPAC>  (4376) 
2-((1R,2R)-2-aminocyclobutyl)acetic acid

>  <TYPE>  (4376) 
Backbone

>  <CLASS>  (4376) 
gamma

>  <ANALOG>  (4376) 
Ala

>  <MOL_WT>  (4376) 
129.15900000000002

>  <LOGP>  (4376) 
0.19839999999999985

>  <TPSA>  (4376) 
63.32000000000001

>  <POPULARITY>  (4376) 
3.6

>  <PROTECTED>  (4376) 
TRUE

>  <SMILES>  (4376) 
N[C@H]1[C@H](CC1)CC(=O)O

>  <INCHIKEY>  (4376) 
YDXKXPHBTAVLIZ-RFZPGFLSSA-N

$$$$
cyclobutan-1-yl_2amino_1S_2R_Ac
     RDKit          2D

  9  9  0  0  0  0  0  0  0  0999 V2000
    2.7892   -1.5898    0.0000 N   0  0  0  0  0  0  0  0  0  0  0  0
    1.9714   -0.3324    0.0000 C   0  0  0  0  0  0  0  0  0  0  0  0
    0.5040   -0.0215    0.0000 C   0  0  0  0  0  0  0  0  0  0  0  0
    0.8148    1.4459    0.0000 C   0  0  0  0  0  0  0  0  0  0  0  0
    2.2823    1.1350    0.0000 C   0  0  0  0  0  0  0  0  0  0  0  0
   -0.7535   -0.8394    0.0000 C   0  0  0  0  0  0  0  0  0  0  0  0
   -2.0904   -0.1593    0.0000 C   0  0  0  0  0  0  0  0  0  0  0  0
   -2.1700    1.3386    0.0000 O   0  0  0  0  0  0  0  0  0  0  0  0
   -3.3479   -0.9771    0.0000 O   0  0  0  0  0  0  0  0  0  0  0  0
  2  1  1  1
  2  3  1  0
  3  4  1  0
  4  5  1  0
  3  6  1  6
  6  7  1  0
  7  8  2  0
  7  9  1  0
  5  2  1  0
M  END
>  <rName>  (4377) 
cyclobutan-1-yl_2amino_1S_2R_Ac

>  <PQ_SYMBOL>  (4377) 
cyclobutan-1-yl_2amino_1S_2R_Ac

>  <FULL_NAME>  (4377) 
N[C@@H]1CC[C@H]1CC(=O)O

>  <IUPAC_CONDENSED>  (4377) 
cyclobutan-1-yl(2-amino,1S,2R)Ac

>  <IUPAC>  (4377) 
2-((1S,2R)-2-aminocyclobutyl)acetic acid

>  <TYPE>  (4377) 
Backbone

>  <CLASS>  (4377) 
gamma

>  <ANALOG>  (4377) 
Ala

>  <MOL_WT>  (4377) 
129.15900000000002

>  <LOGP>  (4377) 
0.19839999999999985

>  <TPSA>  (4377) 
63.32000000000001

>  <POPULARITY>  (4377) 
3.6

>  <PROTECTED>  (4377) 
TRUE

>  <SMILES>  (4377) 
N[C@H]1[C@@H](CC1)CC(=O)O

>  <INCHIKEY>  (4377) 
YDXKXPHBTAVLIZ-CRCLSJGQSA-N

$$$$
cyclobutan-1-yl_2amino_Ac
     RDKit          2D

  9  9  0  0  0  0  0  0  0  0999 V2000
    2.7892   -1.5898    0.0000 N   0  0  0  0  0  0  0  0  0  0  0  0
    1.9714   -0.3324    0.0000 C   0  0  0  0  0  0  0  0  0  0  0  0
    0.5040   -0.0215    0.0000 C   0  0  0  0  0  0  0  0  0  0  0  0
    0.8148    1.4459    0.0000 C   0  0  0  0  0  0  0  0  0  0  0  0
    2.2823    1.1350    0.0000 C   0  0  0  0  0  0  0  0  0  0  0  0
   -0.7535   -0.8394    0.0000 C   0  0  0  0  0  0  0  0  0  0  0  0
   -2.0904   -0.1593    0.0000 C   0  0  0  0  0  0  0  0  0  0  0  0
   -2.1700    1.3386    0.0000 O   0  0  0  0  0  0  0  0  0  0  0  0
   -3.3479   -0.9771    0.0000 O   0  0  0  0  0  0  0  0  0  0  0  0
  1  2  1  0
  2  3  1  0
  3  4  1  0
  4  5  1  0
  3  6  1  0
  6  7  1  0
  7  8  2  0
  7  9  1  0
  5  2  1  0
M  END
>  <rName>  (4378) 
cyclobutan-1-yl_2amino_Ac

>  <PQ_SYMBOL>  (4378) 
cyclobutan-1-yl_2amino_Ac

>  <FULL_NAME>  (4378) 
2-(2-Aminocyclobutyl)acetic acid

>  <IUPAC_CONDENSED>  (4378) 
cyclobutan-1-yl(2-amino)Ac

>  <IUPAC>  (4378) 
2-(2-aminocyclobutyl)acetic acid

>  <TYPE>  (4378) 
Backbone

>  <CLASS>  (4378) 
gamma

>  <ANALOG>  (4378) 
Ala

>  <MOL_WT>  (4378) 
129.15900000000002

>  <LOGP>  (4378) 
0.19839999999999985

>  <TPSA>  (4378) 
63.32000000000001

>  <POPULARITY>  (4378) 
4.5

>  <PROTECTED>  (4378) 
TRUE

>  <SMILES>  (4378) 
NC1C(CC1)CC(=O)O

>  <INCHIKEY>  (4378) 
YDXKXPHBTAVLIZ-UHFFFAOYSA-N

$$$$
cyclobutan-1-yl_3amino_1Me_Ac
     RDKit          2D

 10 10  0  0  0  0  0  0  0  0999 V2000
   -2.9305   -1.5881    0.0000 N   0  0  0  0  0  0  0  0  0  0  0  0
   -1.8529   -0.5446    0.0000 C   0  0  0  0  0  0  0  0  0  0  0  0
   -1.8288    0.9552    0.0000 C   0  0  0  0  0  0  0  0  0  0  0  0
   -0.3290    0.9311    0.0000 C   0  0  0  0  0  0  0  0  0  0  0  0
   -0.3049    2.4309    0.0000 C   0  0  0  0  0  0  0  0  0  0  0  0
   -0.3531   -0.5687    0.0000 C   0  0  0  0  0  0  0  0  0  0  0  0
    1.1708    0.9070    0.0000 C   0  0  0  0  0  0  0  0  0  0  0  0
    1.8998   -0.4039    0.0000 C   0  0  0  0  0  0  0  0  0  0  0  0
    1.1291   -1.6907    0.0000 O   0  0  0  0  0  0  0  0  0  0  0  0
    3.3996   -0.4280    0.0000 O   0  0  0  0  0  0  0  0  0  0  0  0
  1  2  1  0
  2  3  1  0
  3  4  1  0
  4  5  1  0
  4  6  1  0
  4  7  1  0
  7  8  1  0
  8  9  2  0
  8 10  1  0
  6  2  1  0
M  END
>  <rName>  (4379) 
cyclobutan-1-yl_3amino_1Me_Ac

>  <PQ_SYMBOL>  (4379) 
cyclobutan-1-yl_3amino_1Me_Ac

>  <FULL_NAME>  (4379) 
CC1(CC(=O)O)CC(N)C1

>  <IUPAC_CONDENSED>  (4379) 
cyclobutan-1-yl(3-amino,1-Me)Ac

>  <IUPAC>  (4379) 
2-(3-amino-1-methylcyclobutyl)acetic acid

>  <TYPE>  (4379) 
Backbone

>  <CLASS>  (4379) 
delta

>  <ANALOG>  (4379) 
Ala

>  <MOL_WT>  (4379) 
143.186

>  <LOGP>  (4379) 
0.5884999999999998

>  <TPSA>  (4379) 
63.32000000000001

>  <POPULARITY>  (4379) 
5.1

>  <PROTECTED>  (4379) 
TRUE

>  <SMILES>  (4379) 
NC1CC(C)(C1)CC(=O)O

>  <INCHIKEY>  (4379) 
FKYIFIACIRHAKS-UHFFFAOYSA-N

$$$$
cyclobutan-1-yl_3amino_22diMe_1R_3S_Pr
     RDKit          2D

 12 12  0  0  0  0  0  0  0  0999 V2000
   -4.2332    0.1991    0.0000 N   0  0  0  0  0  0  0  0  0  0  0  0
   -2.7478    0.4080    0.0000 C   0  0  0  0  0  0  0  0  0  0  0  0
   -1.8451    1.6060    0.0000 C   0  0  0  0  0  0  0  0  0  0  0  0
   -0.6471    0.7033    0.0000 C   0  0  0  0  0  0  0  0  0  0  0  0
   -1.5498   -0.4947    0.0000 C   0  0  0  0  0  0  0  0  0  0  0  0
   -0.3518   -1.3973    0.0000 C   0  0  0  0  0  0  0  0  0  0  0  0
   -2.4524   -1.6927    0.0000 C   0  0  0  0  0  0  0  0  0  0  0  0
    0.8383    0.9122    0.0000 C   0  0  0  0  0  0  0  0  0  0  0  0
    1.7618   -0.2698    0.0000 C   0  0  0  0  0  0  0  0  0  0  0  0
    3.2472   -0.0610    0.0000 C   0  0  0  0  0  0  0  0  0  0  0  0
    3.8091    1.3299    0.0000 O   0  0  0  0  0  0  0  0  0  0  0  0
    4.1708   -1.2429    0.0000 O   0  0  0  0  0  0  0  0  0  0  0  0
  2  1  1  1
  2  3  1  0
  3  4  1  0
  4  5  1  0
  5  6  1  0
  5  7  1  0
  4  8  1  1
  8  9  1  0
  9 10  1  0
 10 11  2  0
 10 12  1  0
  5  2  1  0
M  END
>  <rName>  (4380) 
cyclobutan-1-yl_3amino_22diMe_1R_3S_Pr

>  <PQ_SYMBOL>  (4380) 
cyclobutan-1-yl_3amino_22diMe_1R_3S_Pr

>  <FULL_NAME>  (4380) 
3-[(1R,3S)-3-amino-2,2-dimethylcyclobutyl]propanoic acid

>  <IUPAC_CONDENSED>  (4380) 
cyclobutan-1-yl(3-amino,2,2-diMe,1R,3S)Pr

>  <IUPAC>  (4380) 
3-((1R,3S)-3-amino-2,2-dimethylcyclobutyl)propanoic acid

>  <TYPE>  (4380) 
Backbone

>  <CLASS>  (4380) 
epsilon

>  <ANALOG>  (4380) 
Val

>  <MOL_WT>  (4380) 
171.24

>  <LOGP>  (4380) 
1.2245999999999997

>  <TPSA>  (4380) 
63.32000000000001

>  <POPULARITY>  (4380) 
2.9

>  <PROTECTED>  (4380) 
TRUE

>  <SMILES>  (4380) 
N[C@H]1C[C@H](C1(C)C)CCC(=O)O

>  <INCHIKEY>  (4380) 
IFSZZMXHEGRJAQ-RQJHMYQMSA-N

$$$$
cyclobutan-1-yl_3amino_Ac
     RDKit          2D

  9  9  0  0  0  0  0  0  0  0999 V2000
   -3.7571   -0.5112    0.0000 N   0  0  0  0  0  0  0  0  0  0  0  0
   -2.3190   -0.0850    0.0000 C   0  0  0  0  0  0  0  0  0  0  0  0
   -1.6034    1.2333    0.0000 C   0  0  0  0  0  0  0  0  0  0  0  0
   -0.2851    0.5177    0.0000 C   0  0  0  0  0  0  0  0  0  0  0  0
   -1.0007   -0.8006    0.0000 C   0  0  0  0  0  0  0  0  0  0  0  0
    1.1531    0.9439    0.0000 C   0  0  0  0  0  0  0  0  0  0  0  0
    2.2413   -0.0885    0.0000 C   0  0  0  0  0  0  0  0  0  0  0  0
    1.8913   -1.5471    0.0000 O   0  0  0  0  0  0  0  0  0  0  0  0
    3.6795    0.3376    0.0000 O   0  0  0  0  0  0  0  0  0  0  0  0
  1  2  1  0
  2  3  1  0
  3  4  1  0
  4  5  1  0
  4  6  1  0
  6  7  1  0
  7  8  2  0
  7  9  1  0
  5  2  1  0
M  END
>  <rName>  (4381) 
cyclobutan-1-yl_3amino_Ac

>  <PQ_SYMBOL>  (4381) 
cyclobutan-1-yl_3amino_Ac

>  <FULL_NAME>  (4381) 
2-(3-Aminocyclobutyl)acetic acid

>  <IUPAC_CONDENSED>  (4381) 
cyclobutan-1-yl(3-amino)Ac

>  <IUPAC>  (4381) 
2-(3-aminocyclobutyl)acetic acid

>  <TYPE>  (4381) 
Backbone

>  <CLASS>  (4381) 
delta

>  <ANALOG>  (4381) 
Ala

>  <MOL_WT>  (4381) 
129.15900000000002

>  <LOGP>  (4381) 
0.19839999999999985

>  <TPSA>  (4381) 
63.32000000000001

>  <POPULARITY>  (4381) 
7.4

>  <PROTECTED>  (4381) 
TRUE

>  <SMILES>  (4381) 
NC1CC(C1)CC(=O)O

>  <INCHIKEY>  (4381) 
JZOKIDHQIVAHON-UHFFFAOYSA-N

$$$$
cyclobutan-1-yl_3amino_Pr
     RDKit          2D

 10 10  0  0  0  0  0  0  0  0999 V2000
   -4.4915   -0.4597    0.0000 N   0  0  0  0  0  0  0  0  0  0  0  0
   -3.0267   -0.1363    0.0000 C   0  0  0  0  0  0  0  0  0  0  0  0
   -2.2198    1.1282    0.0000 C   0  0  0  0  0  0  0  0  0  0  0  0
   -0.9553    0.3212    0.0000 C   0  0  0  0  0  0  0  0  0  0  0  0
   -1.7623   -0.9433    0.0000 C   0  0  0  0  0  0  0  0  0  0  0  0
    0.5094    0.6446    0.0000 C   0  0  0  0  0  0  0  0  0  0  0  0
    1.5218   -0.4621    0.0000 C   0  0  0  0  0  0  0  0  0  0  0  0
    2.9866   -0.1387    0.0000 C   0  0  0  0  0  0  0  0  0  0  0  0
    3.4388    1.2915    0.0000 O   0  0  0  0  0  0  0  0  0  0  0  0
    3.9990   -1.2454    0.0000 O   0  0  0  0  0  0  0  0  0  0  0  0
  1  2  1  0
  2  3  1  0
  3  4  1  0
  4  5  1  0
  4  6  1  0
  6  7  1  0
  7  8  1  0
  8  9  2  0
  8 10  1  0
  5  2  1  0
M  END
>  <rName>  (4382) 
cyclobutan-1-yl_3amino_Pr

>  <PQ_SYMBOL>  (4382) 
cyclobutan-1-yl_3amino_Pr

>  <FULL_NAME>  (4382) 
3-(3-Aminocyclobutyl)propanoic acid

>  <IUPAC_CONDENSED>  (4382) 
cyclobutan-1-yl(3-amino)Pr

>  <IUPAC>  (4382) 
3-(3-aminocyclobutyl)propanoic acid

>  <TYPE>  (4382) 
Backbone

>  <CLASS>  (4382) 
epsilon

>  <ANALOG>  (4382) 
Ala

>  <MOL_WT>  (4382) 
143.186

>  <LOGP>  (4382) 
0.5884999999999998

>  <TPSA>  (4382) 
63.32000000000001

>  <POPULARITY>  (4382) 
5.6

>  <PROTECTED>  (4382) 
TRUE

>  <SMILES>  (4382) 
NC1CC(C1)CCC(=O)O

>  <INCHIKEY>  (4382) 
PGMDZASUISLECW-UHFFFAOYSA-N

$$$$
cycloheptan-1-yl_1amino_Ac
     RDKit          2D

 12 12  0  0  0  0  0  0  0  0999 V2000
    1.1641   -1.0599    0.0000 N   0  0  0  0  0  0  0  0  0  0  0  0
    0.0510   -0.0544    0.0000 C   0  0  0  0  0  0  0  0  0  0  0  0
   -0.5156    1.3345    0.0000 C   0  0  0  0  0  0  0  0  0  0  0  0
   -1.9547    1.7574    0.0000 C   0  0  0  0  0  0  0  0  0  0  0  0
   -3.1827    0.8960    0.0000 C   0  0  0  0  0  0  0  0  0  0  0  0
   -3.2748   -0.6012    0.0000 C   0  0  0  0  0  0  0  0  0  0  0  0
   -2.1617   -1.6067    0.0000 C   0  0  0  0  0  0  0  0  0  0  0  0
   -0.6816   -1.3633    0.0000 C   0  0  0  0  0  0  0  0  0  0  0  0
    1.2790    0.8071    0.0000 C   0  0  0  0  0  0  0  0  0  0  0  0
    2.6390    0.1744    0.0000 C   0  0  0  0  0  0  0  0  0  0  0  0
    2.7711   -1.3198    0.0000 O   0  0  0  0  0  0  0  0  0  0  0  0
    3.8670    1.0358    0.0000 O   0  0  0  0  0  0  0  0  0  0  0  0
  1  2  1  0
  2  3  1  0
  3  4  1  0
  4  5  1  0
  5  6  1  0
  6  7  1  0
  7  8  1  0
  2  9  1  0
  9 10  1  0
 10 11  2  0
 10 12  1  0
  8  2  1  0
M  END
>  <rName>  (4383) 
cycloheptan-1-yl_1amino_Ac

>  <PQ_SYMBOL>  (4383) 
cycloheptan-1-yl_1amino_Ac

>  <FULL_NAME>  (4383) 
(1-Aminocycloheptyl)acetic acid

>  <IUPAC_CONDENSED>  (4383) 
cycloheptan-1-yl(1-amino)Ac

>  <IUPAC>  (4383) 
2-(1-aminocycloheptyl)acetic acid

>  <TYPE>  (4383) 
Backbone

>  <CLASS>  (4383) 
beta

>  <ANALOG>  (4383) 
X

>  <MOL_WT>  (4383) 
171.24

>  <LOGP>  (4383) 
1.5128

>  <TPSA>  (4383) 
63.32000000000001

>  <POPULARITY>  (4383) 
3.5

>  <PROTECTED>  (4383) 
TRUE

>  <SMILES>  (4383) 
NC1(CCCCCC1)CC(=O)O

>  <INCHIKEY>  (4383) 
XSBOVKBISBNWPQ-UHFFFAOYSA-N

$$$$
cyclohexan-1-yl_1_2aminoethyl_Ac
     RDKit          2D

 13 13  0  0  0  0  0  0  0  0999 V2000
   -3.5405   -1.9771    0.0000 N   0  0  0  0  0  0  0  0  0  0  0  0
   -2.3992   -1.0037    0.0000 C   0  0  0  0  0  0  0  0  0  0  0  0
   -0.9856   -1.5055    0.0000 C   0  0  0  0  0  0  0  0  0  0  0  0
    0.1558   -0.5322    0.0000 C   0  0  0  0  0  0  0  0  0  0  0  0
    0.8954    0.7727    0.0000 C   0  0  0  0  0  0  0  0  0  0  0  0
    2.3953    0.7847    0.0000 C   0  0  0  0  0  0  0  0  0  0  0  0
    3.1557   -0.5083    0.0000 C   0  0  0  0  0  0  0  0  0  0  0  0
    2.4160   -1.8133    0.0000 C   0  0  0  0  0  0  0  0  0  0  0  0
    0.9161   -1.8253    0.0000 C   0  0  0  0  0  0  0  0  0  0  0  0
   -1.0009    0.4228    0.0000 C   0  0  0  0  0  0  0  0  0  0  0  0
   -0.7523    1.9020    0.0000 C   0  0  0  0  0  0  0  0  0  0  0  0
    0.6532    2.4262    0.0000 O   0  0  0  0  0  0  0  0  0  0  0  0
   -1.9090    2.8570    0.0000 O   0  0  0  0  0  0  0  0  0  0  0  0
  1  2  1  0
  2  3  1  0
  3  4  1  0
  4  5  1  0
  5  6  1  0
  6  7  1  0
  7  8  1  0
  8  9  1  0
  4 10  1  0
 10 11  1  0
 11 12  2  0
 11 13  1  0
  9  4  1  0
M  END
>  <rName>  (4384) 
cyclohexan-1-yl_1_2aminoethyl_Ac

>  <PQ_SYMBOL>  (4384) 
cyclohexan-1-yl_1_2aminoethyl_Ac

>  <FULL_NAME>  (4384) 
Gabapentin Impurity G

>  <IUPAC_CONDENSED>  (4384) 
cyclohexan-1-yl(1-(2-aminoethyl))Ac

>  <IUPAC>  (4384) 
2-(1-(2-aminoethyl)cyclohexyl)acetic acid

>  <TYPE>  (4384) 
Backbone

>  <CLASS>  (4384) 
delta

>  <ANALOG>  (4384) 
X

>  <MOL_WT>  (4384) 
185.267

>  <LOGP>  (4384) 
1.7604000000000002

>  <TPSA>  (4384) 
63.32000000000001

>  <POPULARITY>  (4384) 
8.0

>  <PROTECTED>  (4384) 
TRUE

>  <SMILES>  (4384) 
NCCC1(CCCCC1)CC(=O)O

>  <INCHIKEY>  (4384) 
OFESFQMJGZJFQT-UHFFFAOYSA-N

$$$$
cyclohexan-1-yl_1aminomethyl_Ac
     RDKit          2D

 12 12  0  0  0  0  0  0  0  0999 V2000
    0.4929   -2.3374    0.0000 N   0  0  0  0  0  0  0  0  0  0  0  0
    0.8312   -0.8760    0.0000 C   0  0  0  0  0  0  0  0  0  0  0  0
   -0.2652    0.1477    0.0000 C   0  0  0  0  0  0  0  0  0  0  0  0
   -1.0830   -1.1098    0.0000 C   0  0  0  0  0  0  0  0  0  0  0  0
   -2.5808   -1.0304    0.0000 C   0  0  0  0  0  0  0  0  0  0  0  0
   -3.2610    0.3065    0.0000 C   0  0  0  0  0  0  0  0  0  0  0  0
   -2.4433    1.5640    0.0000 C   0  0  0  0  0  0  0  0  0  0  0  0
   -0.9454    1.4846    0.0000 C   0  0  0  0  0  0  0  0  0  0  0  0
    0.9333    1.0497    0.0000 C   0  0  0  0  0  0  0  0  0  0  0  0
    2.3137    0.4627    0.0000 C   0  0  0  0  0  0  0  0  0  0  0  0
    2.4956   -1.0262    0.0000 O   0  0  0  0  0  0  0  0  0  0  0  0
    3.5122    1.3647    0.0000 O   0  0  0  0  0  0  0  0  0  0  0  0
  1  2  1  0
  2  3  1  0
  3  4  1  0
  4  5  1  0
  5  6  1  0
  6  7  1  0
  7  8  1  0
  3  9  1  0
  9 10  1  0
 10 11  2  0
 10 12  1  0
  8  3  1  0
M  END
>  <rName>  (4385) 
cyclohexan-1-yl_1aminomethyl_Ac

>  <PQ_SYMBOL>  (4385) 
cyclohexan-1-yl_1aminomethyl_Ac

>  <FULL_NAME>  (4385) 
2-(1-(aminomethyl)cyclohexyl)acetic acid

>  <IUPAC_CONDENSED>  (4385) 
cyclohexan-1-yl(1-aminomethyl)Ac

>  <IUPAC>  (4385) 
2-(1-(aminomethyl)cyclohexyl)acetic acid

>  <TYPE>  (4385) 
Backbone

>  <CLASS>  (4385) 
gamma

>  <ANALOG>  (4385) 
X

>  <MOL_WT>  (4385) 
171.24

>  <LOGP>  (4385) 
1.3703000000000003

>  <TPSA>  (4385) 
63.32000000000001

>  <POPULARITY>  (4385) 
10.6

>  <PROTECTED>  (4385) 
TRUE

>  <SMILES>  (4385) 
NCC1(CCCCC1)CC(=O)O

>  <INCHIKEY>  (4385) 
UGJMXCAKCUNAIE-UHFFFAOYSA-N

$$$$
cyclohexan-1-yl_2amino_1R_2R_Ac
     RDKit          2D

 11 11  0  0  0  0  0  0  0  0999 V2000
    1.1586   -2.5866    0.0000 N   0  0  0  0  0  0  0  0  0  0  0  0
    1.3121   -1.0945    0.0000 C   0  0  0  0  0  0  0  0  0  0  0  0
    0.0966   -0.2156    0.0000 C   0  0  0  0  0  0  0  0  0  0  0  0
    0.2500    1.2766    0.0000 C   0  0  0  0  0  0  0  0  0  0  0  0
    1.6189    1.8898    0.0000 C   0  0  0  0  0  0  0  0  0  0  0  0
    2.8344    1.0108    0.0000 C   0  0  0  0  0  0  0  0  0  0  0  0
    2.6810   -0.4813    0.0000 C   0  0  0  0  0  0  0  0  0  0  0  0
   -1.2724   -0.8287    0.0000 C   0  0  0  0  0  0  0  0  0  0  0  0
   -2.4879    0.0502    0.0000 C   0  0  0  0  0  0  0  0  0  0  0  0
   -2.3345    1.5423    0.0000 O   0  0  0  0  0  0  0  0  0  0  0  0
   -3.8568   -0.5630    0.0000 O   0  0  0  0  0  0  0  0  0  0  0  0
  2  1  1  1
  2  3  1  0
  3  4  1  0
  4  5  1  0
  5  6  1  0
  6  7  1  0
  3  8  1  1
  8  9  1  0
  9 10  2  0
  9 11  1  0
  7  2  1  0
M  END
>  <rName>  (4386) 
cyclohexan-1-yl_2amino_1R_2R_Ac

>  <PQ_SYMBOL>  (4386) 
cyclohexan-1-yl_2amino_1R_2R_Ac

>  <FULL_NAME>  (4386) 
2-((1R,2R)-2-Aminocyclohexyl)acetic acid

>  <IUPAC_CONDENSED>  (4386) 
cyclohexan-1-yl(2-amino,1R,2R)Ac

>  <IUPAC>  (4386) 
2-((1R,2R)-2-aminocyclohexyl)acetic acid

>  <TYPE>  (4386) 
Backbone

>  <CLASS>  (4386) 
gamma

>  <ANALOG>  (4386) 
Leu

>  <MOL_WT>  (4386) 
157.21300000000002

>  <LOGP>  (4386) 
0.9785999999999997

>  <TPSA>  (4386) 
63.32000000000001

>  <POPULARITY>  (4386) 
5.8

>  <PROTECTED>  (4386) 
TRUE

>  <SMILES>  (4386) 
N[C@H]1[C@H](CCCC1)CC(=O)O

>  <INCHIKEY>  (4386) 
JZCXXLRGQVHYQJ-RNFRBKRXSA-N

$$$$
cyclohexan-1-yl_2amino_1S_2S_Ac
     RDKit          2D

 11 11  0  0  0  0  0  0  0  0999 V2000
    1.1586   -2.5866    0.0000 N   0  0  0  0  0  0  0  0  0  0  0  0
    1.3121   -1.0945    0.0000 C   0  0  0  0  0  0  0  0  0  0  0  0
    0.0966   -0.2156    0.0000 C   0  0  0  0  0  0  0  0  0  0  0  0
    0.2500    1.2766    0.0000 C   0  0  0  0  0  0  0  0  0  0  0  0
    1.6189    1.8898    0.0000 C   0  0  0  0  0  0  0  0  0  0  0  0
    2.8344    1.0108    0.0000 C   0  0  0  0  0  0  0  0  0  0  0  0
    2.6810   -0.4813    0.0000 C   0  0  0  0  0  0  0  0  0  0  0  0
   -1.2724   -0.8287    0.0000 C   0  0  0  0  0  0  0  0  0  0  0  0
   -2.4879    0.0502    0.0000 C   0  0  0  0  0  0  0  0  0  0  0  0
   -2.3345    1.5423    0.0000 O   0  0  0  0  0  0  0  0  0  0  0  0
   -3.8568   -0.5630    0.0000 O   0  0  0  0  0  0  0  0  0  0  0  0
  2  1  1  6
  2  3  1  0
  3  4  1  0
  4  5  1  0
  5  6  1  0
  6  7  1  0
  3  8  1  6
  8  9  1  0
  9 10  2  0
  9 11  1  0
  7  2  1  0
M  END
>  <rName>  (4387) 
cyclohexan-1-yl_2amino_1S_2S_Ac

>  <PQ_SYMBOL>  (4387) 
cyclohexan-1-yl_2amino_1S_2S_Ac

>  <FULL_NAME>  (4387) 
2-[(1S,2S)-2-Aminocyclohexyl]acetic acid

>  <IUPAC_CONDENSED>  (4387) 
cyclohexan-1-yl(2-amino,1S,2S)Ac

>  <IUPAC>  (4387) 
2-((1S,2S)-2-aminocyclohexyl)acetic acid

>  <TYPE>  (4387) 
Backbone

>  <CLASS>  (4387) 
gamma

>  <ANALOG>  (4387) 
Leu

>  <MOL_WT>  (4387) 
157.21300000000002

>  <LOGP>  (4387) 
0.9785999999999997

>  <TPSA>  (4387) 
63.32000000000001

>  <POPULARITY>  (4387) 
6.0

>  <PROTECTED>  (4387) 
TRUE

>  <SMILES>  (4387) 
N[C@@H]1[C@@H](CCCC1)CC(=O)O

>  <INCHIKEY>  (4387) 
JZCXXLRGQVHYQJ-BQBZGAKWSA-N

$$$$
cyclohexan-1-yl_2amino_Pr
     RDKit          2D

 12 12  0  0  0  0  0  0  0  0999 V2000
    1.4053   -2.5174    0.0000 N   0  0  0  0  0  0  0  0  0  0  0  0
    1.7516   -1.0580    0.0000 C   0  0  0  0  0  0  0  0  0  0  0  0
    0.6608   -0.0283    0.0000 C   0  0  0  0  0  0  0  0  0  0  0  0
    1.0071    1.4312    0.0000 C   0  0  0  0  0  0  0  0  0  0  0  0
    2.4442    1.8610    0.0000 C   0  0  0  0  0  0  0  0  0  0  0  0
    3.5350    0.8314    0.0000 C   0  0  0  0  0  0  0  0  0  0  0  0
    3.1887   -0.6281    0.0000 C   0  0  0  0  0  0  0  0  0  0  0  0
   -0.7763   -0.4582    0.0000 C   0  0  0  0  0  0  0  0  0  0  0  0
   -1.8671    0.5715    0.0000 C   0  0  0  0  0  0  0  0  0  0  0  0
   -3.3042    0.1416    0.0000 C   0  0  0  0  0  0  0  0  0  0  0  0
   -3.6504   -1.3178    0.0000 O   0  0  0  0  0  0  0  0  0  0  0  0
   -4.3950    1.1713    0.0000 O   0  0  0  0  0  0  0  0  0  0  0  0
  1  2  1  0
  2  3  1  0
  3  4  1  0
  4  5  1  0
  5  6  1  0
  6  7  1  0
  3  8  1  0
  8  9  1  0
  9 10  1  0
 10 11  2  0
 10 12  1  0
  7  2  1  0
M  END
>  <rName>  (4388) 
cyclohexan-1-yl_2amino_Pr

>  <PQ_SYMBOL>  (4388) 
cyclohexan-1-yl_2amino_Pr

>  <FULL_NAME>  (4388) 
3-(2-Aminocyclohexyl)propanoic acid

>  <IUPAC_CONDENSED>  (4388) 
cyclohexan-1-yl(2-amino)Pr

>  <IUPAC>  (4388) 
3-(2-aminocyclohexyl)propanoic acid

>  <TYPE>  (4388) 
Backbone

>  <CLASS>  (4388) 
delta

>  <ANALOG>  (4388) 
Leu

>  <MOL_WT>  (4388) 
171.24

>  <LOGP>  (4388) 
1.3687

>  <TPSA>  (4388) 
63.32000000000001

>  <POPULARITY>  (4388) 
11.3

>  <PROTECTED>  (4388) 
TRUE

>  <SMILES>  (4388) 
NC1C(CCCC1)CCC(=O)O

>  <INCHIKEY>  (4388) 
CZNVFYGEIHGWKV-UHFFFAOYSA-N

$$$$
cyclohexan-1-yl_3amino_1R_3R_Pr
     RDKit          2D

 12 12  0  0  0  0  0  0  0  0999 V2000
    4.1129   -1.5480    0.0000 N   0  0  0  0  0  0  0  0  0  0  0  0
    2.9774   -0.5679    0.0000 C   0  0  0  0  0  0  0  0  0  0  0  0
    1.5608   -1.0612    0.0000 C   0  0  0  0  0  0  0  0  0  0  0  0
    0.4253   -0.0811    0.0000 C   0  0  0  0  0  0  0  0  0  0  0  0
    0.7064    1.3923    0.0000 C   0  0  0  0  0  0  0  0  0  0  0  0
    2.1230    1.8856    0.0000 C   0  0  0  0  0  0  0  0  0  0  0  0
    3.2585    0.9055    0.0000 C   0  0  0  0  0  0  0  0  0  0  0  0
   -0.9912   -0.5745    0.0000 C   0  0  0  0  0  0  0  0  0  0  0  0
   -2.1267    0.4057    0.0000 C   0  0  0  0  0  0  0  0  0  0  0  0
   -3.5433   -0.0877    0.0000 C   0  0  0  0  0  0  0  0  0  0  0  0
   -3.8243   -1.5611    0.0000 O   0  0  0  0  0  0  0  0  0  0  0  0
   -4.6788    0.8925    0.0000 O   0  0  0  0  0  0  0  0  0  0  0  0
  2  1  1  1
  2  3  1  0
  3  4  1  0
  4  5  1  0
  5  6  1  0
  6  7  1  0
  4  8  1  1
  8  9  1  0
  9 10  1  0
 10 11  2  0
 10 12  1  0
  7  2  1  0
M  END
>  <rName>  (4389) 
cyclohexan-1-yl_3amino_1R_3R_Pr

>  <PQ_SYMBOL>  (4389) 
cyclohexan-1-yl_3amino_1R_3R_Pr

>  <FULL_NAME>  (4389) 
rac-3-[(1R,3R)-3-aminocyclohexyl]propanoic acid

>  <IUPAC_CONDENSED>  (4389) 
cyclohexan-1-yl(3-amino,1R,3R)Pr

>  <IUPAC>  (4389) 
3-((1R,3R)-3-aminocyclohexyl)propanoic acid

>  <TYPE>  (4389) 
Backbone

>  <CLASS>  (4389) 
epsilon

>  <ANALOG>  (4389) 
Val

>  <MOL_WT>  (4389) 
171.24

>  <LOGP>  (4389) 
1.3687

>  <TPSA>  (4389) 
63.32000000000001

>  <POPULARITY>  (4389) 
7.6

>  <PROTECTED>  (4389) 
TRUE

>  <SMILES>  (4389) 
N[C@H]1C[C@H](CCC1)CCC(=O)O

>  <INCHIKEY>  (4389) 
HSZWZTVUABCVCQ-HTQZYQBOSA-N

$$$$
cyclooctan-1-yl_1amino_Ac
     RDKit          2D

 13 13  0  0  0  0  0  0  0  0999 V2000
    1.4675   -1.0148    0.0000 N   0  0  0  0  0  0  0  0  0  0  0  0
    0.3201   -0.0487    0.0000 C   0  0  0  0  0  0  0  0  0  0  0  0
   -0.3162   -1.4070    0.0000 C   0  0  0  0  0  0  0  0  0  0  0  0
   -1.7266   -1.9176    0.0000 C   0  0  0  0  0  0  0  0  0  0  0  0
   -3.0850   -1.2813    0.0000 C   0  0  0  0  0  0  0  0  0  0  0  0
   -3.5956    0.1291    0.0000 C   0  0  0  0  0  0  0  0  0  0  0  0
   -2.9593    1.4875    0.0000 C   0  0  0  0  0  0  0  0  0  0  0  0
   -1.5489    1.9980    0.0000 C   0  0  0  0  0  0  0  0  0  0  0  0
   -0.1905    1.3618    0.0000 C   0  0  0  0  0  0  0  0  0  0  0  0
    1.5503    0.8096    0.0000 C   0  0  0  0  0  0  0  0  0  0  0  0
    2.9086    0.1733    0.0000 C   0  0  0  0  0  0  0  0  0  0  0  0
    3.0368   -1.3212    0.0000 O   0  0  0  0  0  0  0  0  0  0  0  0
    4.1389    1.0315    0.0000 O   0  0  0  0  0  0  0  0  0  0  0  0
  1  2  1  0
  2  3  1  0
  3  4  1  0
  4  5  1  0
  5  6  1  0
  6  7  1  0
  7  8  1  0
  8  9  1  0
  2 10  1  0
 10 11  1  0
 11 12  2  0
 11 13  1  0
  9  2  1  0
M  END
>  <rName>  (4390) 
cyclooctan-1-yl_1amino_Ac

>  <PQ_SYMBOL>  (4390) 
cyclooctan-1-yl_1amino_Ac

>  <FULL_NAME>  (4390) 
(1-Aminocyclooctyl)acetic acid

>  <IUPAC_CONDENSED>  (4390) 
cyclooctan-1-yl(1-amino)Ac

>  <IUPAC>  (4390) 
2-(1-aminocyclooctyl)acetic acid

>  <TYPE>  (4390) 
Backbone

>  <CLASS>  (4390) 
beta

>  <ANALOG>  (4390) 
X

>  <MOL_WT>  (4390) 
185.267

>  <LOGP>  (4390) 
1.9029

>  <TPSA>  (4390) 
63.32000000000001

>  <POPULARITY>  (4390) 
3.5

>  <PROTECTED>  (4390) 
TRUE

>  <SMILES>  (4390) 
NC1(CCCCCCC1)CC(=O)O

>  <INCHIKEY>  (4390) 
XFDQYMRVKKWZFF-UHFFFAOYSA-N

$$$$
cyclopent-2-en-1-yl_4amino_1S_4S_Ac
     RDKit          2D

 10 10  0  0  0  0  0  0  0  0999 V2000
   -3.2141   -1.5316    0.0000 N   0  0  0  0  0  0  0  0  0  0  0  0
   -2.1725   -0.4522    0.0000 C   0  0  0  0  0  0  0  0  0  0  0  0
   -0.6871   -0.6604    0.0000 C   0  0  0  0  0  0  0  0  0  0  0  0
   -0.0300    0.6881    0.0000 C   0  0  0  0  0  0  0  0  0  0  0  0
   -1.1095    1.7296    0.0000 C   0  0  0  0  0  0  0  0  0  0  0  0
   -2.4336    1.0249    0.0000 C   0  0  0  0  0  0  0  0  0  0  0  0
    1.4471    0.9491    0.0000 C   0  0  0  0  0  0  0  0  0  0  0  0
    2.4117   -0.1996    0.0000 C   0  0  0  0  0  0  0  0  0  0  0  0
    1.8992   -1.6093    0.0000 O   0  0  0  0  0  0  0  0  0  0  0  0
    3.8888    0.0615    0.0000 O   0  0  0  0  0  0  0  0  0  0  0  0
  2  1  1  6
  2  3  1  0
  3  4  1  0
  4  5  1  0
  5  6  2  0
  4  7  1  6
  7  8  1  0
  8  9  2  0
  8 10  1  0
  6  2  1  0
M  END
>  <rName>  (4391) 
cyclopent-2-en-1-yl_4amino_1S_4S_Ac

>  <PQ_SYMBOL>  (4391) 
cyclopent-2-en-1-yl_4amino_1S_4S_Ac

>  <FULL_NAME>  (4391) 
2-[(1S,4S)-4-aminocyclopent-2-en-1-yl]acetic acid

>  <IUPAC_CONDENSED>  (4391) 
cyclopent-2-en-1-yl(4-amino,1S,4S)Ac

>  <IUPAC>  (4391) 
2-((1S,4S)-4-aminocyclopent-2-en-1-yl)acetic acid

>  <TYPE>  (4391) 
Backbone

>  <CLASS>  (4391) 
delta

>  <ANALOG>  (4391) 
Ala

>  <MOL_WT>  (4391) 
141.17

>  <LOGP>  (4391) 
0.3645

>  <TPSA>  (4391) 
63.32000000000001

>  <POPULARITY>  (4391) 
3.9

>  <PROTECTED>  (4391) 
TRUE

>  <SMILES>  (4391) 
N[C@H]1C[C@H](C=C1)CC(=O)O

>  <INCHIKEY>  (4391) 
FGULSOCFFUOSNW-NTSWFWBYSA-N

$$$$
cyclopentan-1-yl_1aminomethyl_Ac
     RDKit          2D

 11 11  0  0  0  0  0  0  0  0999 V2000
   -0.0025   -2.3686    0.0000 N   0  0  0  0  0  0  0  0  0  0  0  0
    0.4848   -0.9500    0.0000 C   0  0  0  0  0  0  0  0  0  0  0  0
   -0.5002    0.1814    0.0000 C   0  0  0  0  0  0  0  0  0  0  0  0
   -1.2284    1.4927    0.0000 C   0  0  0  0  0  0  0  0  0  0  0  0
   -2.7006    1.2054    0.0000 C   0  0  0  0  0  0  0  0  0  0  0  0
   -2.8823   -0.2835    0.0000 C   0  0  0  0  0  0  0  0  0  0  0  0
   -1.5223   -0.9164    0.0000 C   0  0  0  0  0  0  0  0  0  0  0  0
    0.7279    1.0427    0.0000 C   0  0  0  0  0  0  0  0  0  0  0  0
    2.0879    0.4097    0.0000 C   0  0  0  0  0  0  0  0  0  0  0  0
    2.2197   -1.0844    0.0000 O   0  0  0  0  0  0  0  0  0  0  0  0
    3.3159    1.2710    0.0000 O   0  0  0  0  0  0  0  0  0  0  0  0
  1  2  1  0
  2  3  1  0
  3  4  1  0
  4  5  1  0
  5  6  1  0
  6  7  1  0
  3  8  1  0
  8  9  1  0
  9 10  2  0
  9 11  1  0
  7  3  1  0
M  END
>  <rName>  (4392) 
cyclopentan-1-yl_1aminomethyl_Ac

>  <PQ_SYMBOL>  (4392) 
cyclopentan-1-yl_1aminomethyl_Ac

>  <FULL_NAME>  (4392) 
Gababutin

>  <IUPAC_CONDENSED>  (4392) 
cyclopentan-1-yl(1-aminomethyl)Ac

>  <IUPAC>  (4392) 
2-(1-(aminomethyl)cyclopentyl)acetic acid

>  <TYPE>  (4392) 
Backbone

>  <CLASS>  (4392) 
gamma

>  <ANALOG>  (4392) 
X

>  <MOL_WT>  (4392) 
157.213

>  <LOGP>  (4392) 
0.9802

>  <TPSA>  (4392) 
63.32000000000001

>  <POPULARITY>  (4392) 
8.4

>  <PROTECTED>  (4392) 
TRUE

>  <SMILES>  (4392) 
NCC1(CCCC1)CC(=O)O

>  <INCHIKEY>  (4392) 
MKGSCDBHUPQQMX-UHFFFAOYSA-N

$$$$
cyclopentan-1-yl_2amino_1R_2R_Ac
     RDKit          2D

 10 10  0  0  0  0  0  0  0  0999 V2000
    0.0496   -1.9625    0.0000 N   0  0  0  0  0  0  0  0  0  0  0  0
   -0.8826   -0.7874    0.0000 C   0  0  0  0  0  0  0  0  0  0  0  0
   -0.4798    0.6575    0.0000 C   0  0  0  0  0  0  0  0  0  0  0  0
   -1.7295    1.4871    0.0000 C   0  0  0  0  0  0  0  0  0  0  0  0
   -2.9047    0.5550    0.0000 C   0  0  0  0  0  0  0  0  0  0  0  0
   -2.3813   -0.8508    0.0000 C   0  0  0  0  0  0  0  0  0  0  0  0
    0.9259    1.1809    0.0000 C   0  0  0  0  0  0  0  0  0  0  0  0
    2.0821    0.2253    0.0000 C   0  0  0  0  0  0  0  0  0  0  0  0
    1.8325   -1.2538    0.0000 O   0  0  0  0  0  0  0  0  0  0  0  0
    3.4878    0.7487    0.0000 O   0  0  0  0  0  0  0  0  0  0  0  0
  2  1  1  6
  2  3  1  0
  3  4  1  0
  4  5  1  0
  5  6  1  0
  3  7  1  6
  7  8  1  0
  8  9  2  0
  8 10  1  0
  6  2  1  0
M  END
>  <rName>  (4393) 
cyclopentan-1-yl_2amino_1R_2R_Ac

>  <PQ_SYMBOL>  (4393) 
cyclopentan-1-yl_2amino_1R_2R_Ac

>  <FULL_NAME>  (4393) 
rac-2-[(1R,2R)-2-aminocyclopentyl]acetic acid

>  <IUPAC_CONDENSED>  (4393) 
cyclopentan-1-yl(2-amino,1R,2R)Ac

>  <IUPAC>  (4393) 
2-((1R,2R)-2-aminocyclopentyl)acetic acid

>  <TYPE>  (4393) 
Backbone

>  <CLASS>  (4393) 
gamma

>  <ANALOG>  (4393) 
Val

>  <MOL_WT>  (4393) 
143.186

>  <LOGP>  (4393) 
0.5884999999999998

>  <TPSA>  (4393) 
63.32000000000001

>  <POPULARITY>  (4393) 
5.7

>  <PROTECTED>  (4393) 
TRUE

>  <SMILES>  (4393) 
N[C@H]1[C@H](CCC1)CC(=O)O

>  <INCHIKEY>  (4393) 
IMDAVSSIQLXONL-PHDIDXHHSA-N

$$$$
cyclopentan-1-yl_2amino_1S_2R_Ac
     RDKit          2D

 10 10  0  0  0  0  0  0  0  0999 V2000
    0.0496   -1.9625    0.0000 N   0  0  0  0  0  0  0  0  0  0  0  0
   -0.8826   -0.7874    0.0000 C   0  0  0  0  0  0  0  0  0  0  0  0
   -0.4798    0.6575    0.0000 C   0  0  0  0  0  0  0  0  0  0  0  0
   -1.7295    1.4871    0.0000 C   0  0  0  0  0  0  0  0  0  0  0  0
   -2.9047    0.5550    0.0000 C   0  0  0  0  0  0  0  0  0  0  0  0
   -2.3813   -0.8508    0.0000 C   0  0  0  0  0  0  0  0  0  0  0  0
    0.9259    1.1809    0.0000 C   0  0  0  0  0  0  0  0  0  0  0  0
    2.0821    0.2253    0.0000 C   0  0  0  0  0  0  0  0  0  0  0  0
    1.8325   -1.2538    0.0000 O   0  0  0  0  0  0  0  0  0  0  0  0
    3.4878    0.7487    0.0000 O   0  0  0  0  0  0  0  0  0  0  0  0
  2  1  1  6
  2  3  1  0
  3  4  1  0
  4  5  1  0
  5  6  1  0
  3  7  1  1
  7  8  1  0
  8  9  2  0
  8 10  1  0
  6  2  1  0
M  END
>  <rName>  (4394) 
cyclopentan-1-yl_2amino_1S_2R_Ac

>  <PQ_SYMBOL>  (4394) 
cyclopentan-1-yl_2amino_1S_2R_Ac

>  <FULL_NAME>  (4394) 
rac-2-[(1R,2S)-2-aminocyclopentyl]acetic acid

>  <IUPAC_CONDENSED>  (4394) 
cyclopentan-1-yl(2-amino,1S,2R)Ac

>  <IUPAC>  (4394) 
2-((1S,2R)-2-aminocyclopentyl)acetic acid

>  <TYPE>  (4394) 
Backbone

>  <CLASS>  (4394) 
gamma

>  <ANALOG>  (4394) 
Val

>  <MOL_WT>  (4394) 
143.186

>  <LOGP>  (4394) 
0.5884999999999998

>  <TPSA>  (4394) 
63.32000000000001

>  <POPULARITY>  (4394) 
5.6

>  <PROTECTED>  (4394) 
TRUE

>  <SMILES>  (4394) 
N[C@H]1[C@@H](CCC1)CC(=O)O

>  <INCHIKEY>  (4394) 
IMDAVSSIQLXONL-NTSWFWBYSA-N

$$$$
cyclopentan-1-yl_3amino_1R_3R_Pr
     RDKit          2D

 11 11  0  0  0  0  0  0  0  0999 V2000
   -3.9487   -1.5549    0.0000 N   0  0  0  0  0  0  0  0  0  0  0  0
   -2.8645   -0.5183    0.0000 C   0  0  0  0  0  0  0  0  0  0  0  0
   -1.3886   -0.7863    0.0000 C   0  0  0  0  0  0  0  0  0  0  0  0
   -0.6777    0.5346    0.0000 C   0  0  0  0  0  0  0  0  0  0  0  0
   -1.7143    1.6189    0.0000 C   0  0  0  0  0  0  0  0  0  0  0  0
   -3.0657    0.9681    0.0000 C   0  0  0  0  0  0  0  0  0  0  0  0
    0.8087    0.7359    0.0000 C   0  0  0  0  0  0  0  0  0  0  0  0
    1.7262   -0.4508    0.0000 C   0  0  0  0  0  0  0  0  0  0  0  0
    3.2127   -0.2495    0.0000 C   0  0  0  0  0  0  0  0  0  0  0  0
    3.7816    1.1384    0.0000 O   0  0  0  0  0  0  0  0  0  0  0  0
    4.1302   -1.4361    0.0000 O   0  0  0  0  0  0  0  0  0  0  0  0
  2  1  1  6
  2  3  1  0
  3  4  1  0
  4  5  1  0
  5  6  1  0
  4  7  1  6
  7  8  1  0
  8  9  1  0
  9 10  2  0
  9 11  1  0
  6  2  1  0
M  END
>  <rName>  (4395) 
cyclopentan-1-yl_3amino_1R_3R_Pr

>  <PQ_SYMBOL>  (4395) 
cyclopentan-1-yl_3amino_1R_3R_Pr

>  <FULL_NAME>  (4395) 
rac-3-[(1R,3R)-3-aminocyclopentyl]propanoic acid

>  <IUPAC_CONDENSED>  (4395) 
cyclopentan-1-yl(3-amino,1R,3R)Pr

>  <IUPAC>  (4395) 
3-((1R,3R)-3-aminocyclopentyl)propanoic acid

>  <TYPE>  (4395) 
Backbone

>  <CLASS>  (4395) 
epsilon

>  <ANALOG>  (4395) 
Ala

>  <MOL_WT>  (4395) 
157.21300000000002

>  <LOGP>  (4395) 
0.9785999999999997

>  <TPSA>  (4395) 
63.32000000000001

>  <POPULARITY>  (4395) 
5.3

>  <PROTECTED>  (4395) 
TRUE

>  <SMILES>  (4395) 
N[C@H]1C[C@H](CC1)CCC(=O)O

>  <INCHIKEY>  (4395) 
GGRUVOAXKSLODO-RNFRBKRXSA-N

$$$$
cyclopentan-1-yl_3amino_1S_3R_Ac
     RDKit          2D

 10 10  0  0  0  0  0  0  0  0999 V2000
   -3.2141   -1.5316    0.0000 N   0  0  0  0  0  0  0  0  0  0  0  0
   -2.1725   -0.4522    0.0000 C   0  0  0  0  0  0  0  0  0  0  0  0
   -0.6871   -0.6604    0.0000 C   0  0  0  0  0  0  0  0  0  0  0  0
   -0.0300    0.6881    0.0000 C   0  0  0  0  0  0  0  0  0  0  0  0
   -1.1095    1.7296    0.0000 C   0  0  0  0  0  0  0  0  0  0  0  0
   -2.4336    1.0249    0.0000 C   0  0  0  0  0  0  0  0  0  0  0  0
    1.4471    0.9491    0.0000 C   0  0  0  0  0  0  0  0  0  0  0  0
    2.4117   -0.1996    0.0000 C   0  0  0  0  0  0  0  0  0  0  0  0
    1.8992   -1.6093    0.0000 O   0  0  0  0  0  0  0  0  0  0  0  0
    3.8888    0.0615    0.0000 O   0  0  0  0  0  0  0  0  0  0  0  0
  2  1  1  6
  2  3  1  0
  3  4  1  0
  4  5  1  0
  5  6  1  0
  4  7  1  6
  7  8  1  0
  8  9  2  0
  8 10  1  0
  6  2  1  0
M  END
>  <rName>  (4396) 
cyclopentan-1-yl_3amino_1S_3R_Ac

>  <PQ_SYMBOL>  (4396) 
cyclopentan-1-yl_3amino_1S_3R_Ac

>  <FULL_NAME>  (4396) 
(1S,3R)-(3-Aminocyclopentyl)-acetic acid

>  <IUPAC_CONDENSED>  (4396) 
cyclopentan-1-yl(3-amino,1S,3R)Ac

>  <IUPAC>  (4396) 
2-((1S,3R)-3-aminocyclopentyl)acetic acid

>  <TYPE>  (4396) 
Backbone

>  <CLASS>  (4396) 
delta

>  <ANALOG>  (4396) 
Ala

>  <MOL_WT>  (4396) 
143.186

>  <LOGP>  (4396) 
0.5884999999999998

>  <TPSA>  (4396) 
63.32000000000001

>  <POPULARITY>  (4396) 
7.4

>  <PROTECTED>  (4396) 
TRUE

>  <SMILES>  (4396) 
N[C@H]1C[C@H](CC1)CC(=O)O

>  <INCHIKEY>  (4396) 
OZYOYXWJIWFPHA-NTSWFWBYSA-N

$$$$
cyclopropan-1-yl_1amino_Ac
     RDKit          2D

  8  8  0  0  0  0  0  0  0  0999 V2000
   -0.4780   -1.3697    0.0000 N   0  0  0  0  0  0  0  0  0  0  0  0
   -1.0599    0.0128    0.0000 C   0  0  0  0  0  0  0  0  0  0  0  0
   -2.0796    1.1130    0.0000 C   0  0  0  0  0  0  0  0  0  0  0  0
   -2.5225   -0.3202    0.0000 C   0  0  0  0  0  0  0  0  0  0  0  0
    0.2005    0.8260    0.0000 C   0  0  0  0  0  0  0  0  0  0  0  0
    1.5350    0.1410    0.0000 C   0  0  0  0  0  0  0  0  0  0  0  0
    1.6090   -1.3572    0.0000 O   0  0  0  0  0  0  0  0  0  0  0  0
    2.7955    0.9542    0.0000 O   0  0  0  0  0  0  0  0  0  0  0  0
  1  2  1  0
  2  3  1  0
  3  4  1  0
  2  5  1  0
  5  6  1  0
  6  7  2  0
  6  8  1  0
  4  2  1  0
M  END
>  <rName>  (4397) 
cyclopropan-1-yl_1amino_Ac

>  <PQ_SYMBOL>  (4397) 
cyclopropan-1-yl_1amino_Ac

>  <FULL_NAME>  (4397) 
2-(1-Aminocyclopropyl)acetic acid

>  <IUPAC_CONDENSED>  (4397) 
cyclopropan-1-yl(1-amino)Ac

>  <IUPAC>  (4397) 
2-(1-aminocyclopropyl)acetic acid

>  <TYPE>  (4397) 
Backbone

>  <CLASS>  (4397) 
beta

>  <ANALOG>  (4397) 
X

>  <MOL_WT>  (4397) 
115.13199999999999

>  <LOGP>  (4397) 
-0.04760000000000014

>  <TPSA>  (4397) 
63.32000000000001

>  <POPULARITY>  (4397) 
7.0

>  <PROTECTED>  (4397) 
TRUE

>  <SMILES>  (4397) 
NC1(CC1)CC(=O)O

>  <INCHIKEY>  (4397) 
MXXPCZIAOHMCKI-UHFFFAOYSA-N

$$$$
cyclopropan-1-yl_1aminomethyl_Ac
     RDKit          2D

  9  9  0  0  0  0  0  0  0  0999 V2000
   -1.6816   -1.9708    0.0000 N   0  0  0  0  0  0  0  0  0  0  0  0
   -0.5446   -0.9925    0.0000 C   0  0  0  0  0  0  0  0  0  0  0  0
   -0.8234    0.4814    0.0000 C   0  0  0  0  0  0  0  0  0  0  0  0
   -1.5895    1.7710    0.0000 C   0  0  0  0  0  0  0  0  0  0  0  0
   -2.3233    0.4628    0.0000 C   0  0  0  0  0  0  0  0  0  0  0  0
    0.5797    1.0119    0.0000 C   0  0  0  0  0  0  0  0  0  0  0  0
    1.7406    0.0620    0.0000 C   0  0  0  0  0  0  0  0  0  0  0  0
    1.4985   -1.4183    0.0000 O   0  0  0  0  0  0  0  0  0  0  0  0
    3.1437    0.5925    0.0000 O   0  0  0  0  0  0  0  0  0  0  0  0
  1  2  1  0
  2  3  1  0
  3  4  1  0
  4  5  1  0
  3  6  1  0
  6  7  1  0
  7  8  2  0
  7  9  1  0
  5  3  1  0
M  END
>  <rName>  (4398) 
cyclopropan-1-yl_1aminomethyl_Ac

>  <PQ_SYMBOL>  (4398) 
cyclopropan-1-yl_1aminomethyl_Ac

>  <FULL_NAME>  (4398) 
2-[1-(aminomethyl)cyclopropyl]acetic Acid

>  <IUPAC_CONDENSED>  (4398) 
cyclopropan-1-yl(1-aminomethyl)Ac

>  <IUPAC>  (4398) 
2-(1-(aminomethyl)cyclopropyl)acetic acid

>  <TYPE>  (4398) 
Backbone

>  <CLASS>  (4398) 
gamma

>  <ANALOG>  (4398) 
X

>  <MOL_WT>  (4398) 
129.159

>  <LOGP>  (4398) 
0.20000000000000012

>  <TPSA>  (4398) 
63.32000000000001

>  <POPULARITY>  (4398) 
6.8

>  <PROTECTED>  (4398) 
TRUE

>  <SMILES>  (4398) 
NCC1(CC1)CC(=O)O

>  <INCHIKEY>  (4398) 
IDKBFOVECMUFKX-UHFFFAOYSA-N

$$$$
cyclopropan-1-yl_1aminomethyl_Pr
     RDKit          2D

 10 10  0  0  0  0  0  0  0  0999 V2000
   -2.6075   -1.9268    0.0000 N   0  0  0  0  0  0  0  0  0  0  0  0
   -1.3407   -1.1235    0.0000 C   0  0  0  0  0  0  0  0  0  0  0  0
   -1.4030    0.3752    0.0000 C   0  0  0  0  0  0  0  0  0  0  0  0
   -1.9742    1.7622    0.0000 C   0  0  0  0  0  0  0  0  0  0  0  0
   -2.8898    0.5741    0.0000 C   0  0  0  0  0  0  0  0  0  0  0  0
    0.0621    0.6969    0.0000 C   0  0  0  0  0  0  0  0  0  0  0  0
    1.0732   -0.4112    0.0000 C   0  0  0  0  0  0  0  0  0  0  0  0
    2.5383   -0.0895    0.0000 C   0  0  0  0  0  0  0  0  0  0  0  0
    2.9923    1.3401    0.0000 O   0  0  0  0  0  0  0  0  0  0  0  0
    3.5494   -1.1976    0.0000 O   0  0  0  0  0  0  0  0  0  0  0  0
  1  2  1  0
  2  3  1  0
  3  4  1  0
  4  5  1  0
  3  6  1  0
  6  7  1  0
  7  8  1  0
  8  9  2  0
  8 10  1  0
  5  3  1  0
M  END
>  <rName>  (4399) 
cyclopropan-1-yl_1aminomethyl_Pr

>  <PQ_SYMBOL>  (4399) 
cyclopropan-1-yl_1aminomethyl_Pr

>  <FULL_NAME>  (4399) 
NCC1(CCC(=O)O)CC1

>  <IUPAC_CONDENSED>  (4399) 
cyclopropan-1-yl(1-aminomethyl)Pr

>  <IUPAC>  (4399) 
3-(1-(aminomethyl)cyclopropyl)propanoic acid

>  <TYPE>  (4399) 
Backbone

>  <CLASS>  (4399) 
delta

>  <ANALOG>  (4399) 
X

>  <MOL_WT>  (4399) 
143.186

>  <LOGP>  (4399) 
0.5901000000000001

>  <TPSA>  (4399) 
63.32000000000001

>  <POPULARITY>  (4399) 
8.3

>  <PROTECTED>  (4399) 
TRUE

>  <SMILES>  (4399) 
NCC1(CC1)CCC(=O)O

>  <INCHIKEY>  (4399) 
OGYHDPCWOMEASB-UHFFFAOYSA-N

$$$$
cyclopropan-1-yl_2amino_1S_2R_Ac
     RDKit          2D

  8  8  0  0  0  0  0  0  0  0999 V2000
   -2.3607   -1.5681    0.0000 N   0  0  0  0  0  0  0  0  0  0  0  0
   -1.8427   -0.1603    0.0000 C   0  0  0  0  0  0  0  0  0  0  0  0
   -0.6903    0.7998    0.0000 C   0  0  0  0  0  0  0  0  0  0  0  0
   -2.0981    1.3178    0.0000 C   0  0  0  0  0  0  0  0  0  0  0  0
    0.7878    1.0551    0.0000 C   0  0  0  0  0  0  0  0  0  0  0  0
    1.7480   -0.0973    0.0000 C   0  0  0  0  0  0  0  0  0  0  0  0
    1.2300   -1.5050    0.0000 O   0  0  0  0  0  0  0  0  0  0  0  0
    3.2261    0.1580    0.0000 O   0  0  0  0  0  0  0  0  0  0  0  0
  2  1  1  6
  2  3  1  0
  3  4  1  0
  3  5  1  1
  5  6  1  0
  6  7  2  0
  6  8  1  0
  4  2  1  0
M  END
>  <rName>  (4400) 
cyclopropan-1-yl_2amino_1S_2R_Ac

>  <PQ_SYMBOL>  (4400) 
cyclopropan-1-yl_2amino_1S_2R_Ac

>  <FULL_NAME>  (4400) 
2-(trans-2-Aminocyclopropyl)acetic acid

>  <IUPAC_CONDENSED>  (4400) 
cyclopropan-1-yl(2-amino,1S,2R)Ac

>  <IUPAC>  (4400) 
2-((1S,2R)-2-aminocyclopropyl)acetic acid

>  <TYPE>  (4400) 
Backbone

>  <CLASS>  (4400) 
gamma

>  <ANALOG>  (4400) 
Ala

>  <MOL_WT>  (4400) 
115.13199999999999

>  <LOGP>  (4400) 
-0.19170000000000004

>  <TPSA>  (4400) 
63.32000000000001

>  <POPULARITY>  (4400) 
4.9

>  <PROTECTED>  (4400) 
TRUE

>  <SMILES>  (4400) 
N[C@H]1[C@@H](C1)CC(=O)O

>  <INCHIKEY>  (4400) 
ZHRWZBGJTSPCGJ-IUYQGCFVSA-N

$$$$
cyclopropan-1-yl_2aminomethyl_1R_2R_Ac
     RDKit          2D

  9  9  0  0  0  0  0  0  0  0999 V2000
   -3.6561   -0.9504    0.0000 N   0  0  0  0  0  0  0  0  0  0  0  0
   -2.1564   -0.9775    0.0000 C   0  0  0  0  0  0  0  0  0  0  0  0
   -1.3830    0.3078    0.0000 C   0  0  0  0  0  0  0  0  0  0  0  0
   -0.0706    1.0341    0.0000 C   0  0  0  0  0  0  0  0  0  0  0  0
   -1.3559    1.8075    0.0000 C   0  0  0  0  0  0  0  0  0  0  0  0
    1.4291    1.0070    0.0000 C   0  0  0  0  0  0  0  0  0  0  0  0
    2.1555   -0.3054    0.0000 C   0  0  0  0  0  0  0  0  0  0  0  0
    1.3821   -1.5906    0.0000 O   0  0  0  0  0  0  0  0  0  0  0  0
    3.6553   -0.3325    0.0000 O   0  0  0  0  0  0  0  0  0  0  0  0
  1  2  1  0
  3  2  1  6
  3  4  1  0
  4  5  1  0
  4  6  1  6
  6  7  1  0
  7  8  2  0
  7  9  1  0
  5  3  1  0
M  END
>  <rName>  (4401) 
cyclopropan-1-yl_2aminomethyl_1R_2R_Ac

>  <PQ_SYMBOL>  (4401) 
cyclopropan-1-yl_2aminomethyl_1R_2R_Ac

>  <FULL_NAME>  (4401) 
2-((1R,2R)-2-(Aminomethyl)cyclopropyl)acetic acid

>  <IUPAC_CONDENSED>  (4401) 
cyclopropan-1-yl(2-aminomethyl,1R,2R)Ac

>  <IUPAC>  (4401) 
2-((1R,2R)-2-(aminomethyl)cyclopropyl)acetic acid

>  <TYPE>  (4401) 
Backbone

>  <CLASS>  (4401) 
delta

>  <ANALOG>  (4401) 
Ala

>  <MOL_WT>  (4401) 
129.15900000000002

>  <LOGP>  (4401) 
0.05590000000000023

>  <TPSA>  (4401) 
63.32000000000001

>  <POPULARITY>  (4401) 
9.3

>  <PROTECTED>  (4401) 
TRUE

>  <SMILES>  (4401) 
NC[C@H]1[C@H](C1)CC(=O)O

>  <INCHIKEY>  (4401) 
OAVJLYDBZUUIAK-UHNVWZDZSA-N

$$$$
dA
     RDKit          2D

  6  5  0  0  0  0  0  0  0  0999 V2000
    1.5000   -1.2990    0.0000 N   0  0  0  0  0  0  0  0  0  0  0  0
    0.7500    0.0000    0.0000 C   0  0  0  0  0  0  0  0  0  0  0  0
    1.5000    1.2990    0.0000 C   0  0  0  0  0  0  0  0  0  0  0  0
   -0.7500   -0.0000    0.0000 C   0  0  0  0  0  0  0  0  0  0  0  0
   -1.5000    1.2990    0.0000 O   0  0  0  0  0  0  0  0  0  0  0  0
   -1.5000   -1.2990    0.0000 O   0  0  0  0  0  0  0  0  0  0  0  0
  1  2  1  0
  2  3  1  1
  2  4  1  0
  4  5  2  0
  4  6  1  0
M  END
>  <rName>  (4402) 
dA

>  <PQ_SYMBOL>  (4402) 
dA

>  <FULL_NAME>  (4402) 
D-Alanine

>  <IUPAC_CONDENSED>  (4402) 
D-Ala

>  <IUPAC>  (4402) 
(2R)-2-aminopropanoic acid

>  <TYPE>  (4402) 
Backbone

>  <CLASS>  (4402) 
alpha

>  <ANALOG>  (4402) 
Ala

>  <MOL_WT>  (4402) 
89.09399999999998

>  <LOGP>  (4402) 
-0.5818000000000003

>  <TPSA>  (4402) 
63.32000000000001

>  <POPULARITY>  (4402) 
65.5

>  <PROTECTED>  (4402) 
TRUE

>  <SMILES>  (4402) 
N[C@H](C)C(=O)O

>  <INCHIKEY>  (4402) 
QNAYBMKLOCPYGJ-UWTATZPHSA-N

$$$$
dC
     RDKit          2D

  7  6  0  0  0  0  0  0  0  0999 V2000
    0.5797   -1.7367    0.0000 N   0  0  0  0  0  0  0  0  0  0  0  0
    0.2514   -0.2730    0.0000 C   0  0  0  0  0  0  0  0  0  0  0  0
    1.3548    0.7431    0.0000 C   0  0  0  0  0  0  0  0  0  0  0  0
    2.7865    0.2956    0.0000 S   0  0  0  0  0  0  0  0  0  0  0  0
   -1.1803    0.1745    0.0000 C   0  0  0  0  0  0  0  0  0  0  0  0
   -1.5086    1.6381    0.0000 O   0  0  0  0  0  0  0  0  0  0  0  0
   -2.2837   -0.8417    0.0000 O   0  0  0  0  0  0  0  0  0  0  0  0
  2  1  1  1
  2  3  1  0
  3  4  1  0
  2  5  1  0
  5  6  2  0
  5  7  1  0
M  END
>  <rName>  (4403) 
dC

>  <PQ_SYMBOL>  (4403) 
dC

>  <FULL_NAME>  (4403) 
D-Cysteine

>  <IUPAC_CONDENSED>  (4403) 
D-Cys

>  <IUPAC>  (4403) 
(2S)-2-amino-3-sulfanylpropanoic acid

>  <TYPE>  (4403) 
Backbone

>  <CLASS>  (4403) 
alpha

>  <ANALOG>  (4403) 
Cys

>  <MOL_WT>  (4403) 
121.16099999999997

>  <LOGP>  (4403) 
-0.6719000000000002

>  <TPSA>  (4403) 
63.32000000000001

>  <POPULARITY>  (4403) 
56.3

>  <PROTECTED>  (4403) 
TRUE

>  <SMILES>  (4403) 
N[C@H](CS)C(=O)O

>  <INCHIKEY>  (4403) 
XUJNEKJLAYXESH-UWTATZPHSA-N

$$$$
dD
     RDKit          2D

  9  8  0  0  0  0  0  0  0  0999 V2000
   -0.2826   -1.7410    0.0000 N   0  0  0  0  0  0  0  0  0  0  0  0
   -0.5402   -0.2633    0.0000 C   0  0  0  0  0  0  0  0  0  0  0  0
    0.6108    0.6986    0.0000 C   0  0  0  0  0  0  0  0  0  0  0  0
    2.0193    0.1828    0.0000 C   0  0  0  0  0  0  0  0  0  0  0  0
    2.2769   -1.2950    0.0000 O   0  0  0  0  0  0  0  0  0  0  0  0
    3.1703    1.1447    0.0000 O   0  0  0  0  0  0  0  0  0  0  0  0
   -1.9487    0.2525    0.0000 C   0  0  0  0  0  0  0  0  0  0  0  0
   -2.2062    1.7302    0.0000 O   0  0  0  0  0  0  0  0  0  0  0  0
   -3.0997   -0.7094    0.0000 O   0  0  0  0  0  0  0  0  0  0  0  0
  2  1  1  1
  2  3  1  0
  3  4  1  0
  4  5  2  0
  4  6  1  0
  2  7  1  0
  7  8  2  0
  7  9  1  0
M  END
>  <rName>  (4404) 
dD

>  <PQ_SYMBOL>  (4404) 
dD

>  <FULL_NAME>  (4404) 
D-Aspartic acid

>  <IUPAC_CONDENSED>  (4404) 
D-Asp

>  <IUPAC>  (4404) 
(2R)-2-aminobutanedioic acid

>  <TYPE>  (4404) 
Backbone

>  <CLASS>  (4404) 
alpha

>  <ANALOG>  (4404) 
Asp

>  <MOL_WT>  (4404) 
133.10299999999998

>  <LOGP>  (4404) 
-1.127

>  <TPSA>  (4404) 
100.62000000000002

>  <POPULARITY>  (4404) 
50.6

>  <PROTECTED>  (4404) 
TRUE

>  <SMILES>  (4404) 
N[C@H](CC(=O)O)C(=O)O

>  <INCHIKEY>  (4404) 
CKLJMWTZIZZHCS-UWTATZPHSA-N

$$$$
dE
     RDKit          2D

 10  9  0  0  0  0  0  0  0  0999 V2000
    1.2717   -1.9622    0.0000 N   0  0  0  0  0  0  0  0  0  0  0  0
    1.1946   -0.4642    0.0000 C   0  0  0  0  0  0  0  0  0  0  0  0
   -0.1413    0.2180    0.0000 C   0  0  0  0  0  0  0  0  0  0  0  0
   -1.4001   -0.5978    0.0000 C   0  0  0  0  0  0  0  0  0  0  0  0
   -2.7359    0.0845    0.0000 C   0  0  0  0  0  0  0  0  0  0  0  0
   -2.8131    1.5825    0.0000 O   0  0  0  0  0  0  0  0  0  0  0  0
   -3.9947   -0.7313    0.0000 O   0  0  0  0  0  0  0  0  0  0  0  0
    2.4533    0.3516    0.0000 C   0  0  0  0  0  0  0  0  0  0  0  0
    2.3762    1.8496    0.0000 O   0  0  0  0  0  0  0  0  0  0  0  0
    3.7892   -0.3306    0.0000 O   0  0  0  0  0  0  0  0  0  0  0  0
  2  1  1  6
  2  3  1  0
  3  4  1  0
  4  5  1  0
  5  6  2  0
  5  7  1  0
  2  8  1  0
  8  9  2  0
  8 10  1  0
M  END
>  <rName>  (4405) 
dE

>  <PQ_SYMBOL>  (4405) 
dE

>  <FULL_NAME>  (4405) 
D-Glutamic acid

>  <IUPAC_CONDENSED>  (4405) 
D-Glu

>  <IUPAC>  (4405) 
(2R)-2-aminopentanedioic acid

>  <TYPE>  (4405) 
Backbone

>  <CLASS>  (4405) 
alpha

>  <ANALOG>  (4405) 
Glu

>  <MOL_WT>  (4405) 
147.13

>  <LOGP>  (4405) 
-0.7368999999999997

>  <TPSA>  (4405) 
100.62000000000002

>  <POPULARITY>  (4405) 
54.2

>  <PROTECTED>  (4405) 
TRUE

>  <SMILES>  (4405) 
N[C@H](CCC(=O)O)C(=O)O

>  <INCHIKEY>  (4405) 
WHUUTDBJXJRKMK-GSVOUGTGSA-N

$$$$
dF
     RDKit          2D

 12 12  0  0  0  0  0  0  0  0999 V2000
   -1.2391    1.6805    0.0000 N   0  0  0  0  0  0  0  0  0  0  0  0
   -1.6184    0.2292    0.0000 C   0  0  0  0  0  0  0  0  0  0  0  0
   -0.5513   -0.8249    0.0000 C   0  0  0  0  0  0  0  0  0  0  0  0
    0.8952   -0.4278    0.0000 C   0  0  0  0  0  0  0  0  0  0  0  0
    1.2745    1.0235    0.0000 C   0  0  0  0  0  0  0  0  0  0  0  0
    2.7210    1.4206    0.0000 C   0  0  0  0  0  0  0  0  0  0  0  0
    3.7882    0.3665    0.0000 C   0  0  0  0  0  0  0  0  0  0  0  0
    3.4088   -1.0848    0.0000 C   0  0  0  0  0  0  0  0  0  0  0  0
    1.9624   -1.4819    0.0000 C   0  0  0  0  0  0  0  0  0  0  0  0
   -3.0649   -0.1679    0.0000 C   0  0  0  0  0  0  0  0  0  0  0  0
   -3.4442   -1.6191    0.0000 O   0  0  0  0  0  0  0  0  0  0  0  0
   -4.1321    0.8862    0.0000 O   0  0  0  0  0  0  0  0  0  0  0  0
  2  1  1  6
  2  3  1  0
  3  4  1  0
  4  5  2  0
  5  6  1  0
  6  7  2  0
  7  8  1  0
  8  9  2  0
  2 10  1  0
 10 11  2  0
 10 12  1  0
  9  4  1  0
M  END
>  <rName>  (4406) 
dF

>  <PQ_SYMBOL>  (4406) 
dF

>  <FULL_NAME>  (4406) 
D-Phenylalanine

>  <IUPAC_CONDENSED>  (4406) 
D-Phe

>  <IUPAC>  (4406) 
(2R)-2-amino-3-phenylpropanoic acid

>  <TYPE>  (4406) 
Backbone

>  <CLASS>  (4406) 
alpha

>  <ANALOG>  (4406) 
Phe

>  <MOL_WT>  (4406) 
165.19199999999995

>  <LOGP>  (4406) 
0.641

>  <TPSA>  (4406) 
63.32000000000001

>  <POPULARITY>  (4406) 
60.9

>  <PROTECTED>  (4406) 
TRUE

>  <SMILES>  (4406) 
N[C@H](Cc1(ccccc1))C(=O)O

>  <INCHIKEY>  (4406) 
COLNVLDHVKWLRT-MRVPVSSYSA-N

$$$$
dH
     RDKit          2D

 11 11  0  0  0  0  0  0  0  0999 V2000
   -0.9461    1.6947    0.0000 N   0  0  0  0  0  0  0  0  0  0  0  0
   -1.3100    0.2395    0.0000 C   0  0  0  0  0  0  0  0  0  0  0  0
   -0.2317   -0.8032    0.0000 C   0  0  0  0  0  0  0  0  0  0  0  0
    1.2105   -0.3908    0.0000 C   0  0  0  0  0  0  0  0  0  0  0  0
    2.3919   -1.3151    0.0000 C   0  0  0  0  0  0  0  0  0  0  0  0
    3.6360   -0.4772    0.0000 N   0  0  0  0  0  0  0  0  0  0  0  0
    3.2236    0.9650    0.0000 C   0  0  0  0  0  0  0  0  0  0  0  0
    1.7245    1.0184    0.0000 N   0  0  0  0  0  0  0  0  0  0  0  0
   -2.7522   -0.1729    0.0000 C   0  0  0  0  0  0  0  0  0  0  0  0
   -3.1161   -1.6281    0.0000 O   0  0  0  0  0  0  0  0  0  0  0  0
   -3.8304    0.8698    0.0000 O   0  0  0  0  0  0  0  0  0  0  0  0
  2  1  1  6
  2  3  1  0
  3  4  1  0
  4  5  2  0
  5  6  1  0
  6  7  2  0
  7  8  1  0
  2  9  1  0
  9 10  2  0
  9 11  1  0
  8  4  1  0
M  END
>  <rName>  (4407) 
dH

>  <PQ_SYMBOL>  (4407) 
dH

>  <FULL_NAME>  (4407) 
D-Histidine

>  <IUPAC_CONDENSED>  (4407) 
D-His

>  <IUPAC>  (4407) 
(2R)-2-amino-3-(1H-imidazol-5-yl)propanoic acid

>  <TYPE>  (4407) 
Backbone

>  <CLASS>  (4407) 
alpha

>  <ANALOG>  (4407) 
His

>  <MOL_WT>  (4407) 
155.15699999999998

>  <LOGP>  (4407) 
-0.6359000000000001

>  <TPSA>  (4407) 
92.0

>  <POPULARITY>  (4407) 
45.7

>  <PROTECTED>  (4407) 
TRUE

>  <SMILES>  (4407) 
N[C@H](Cc1(cnc[nH]1))C(=O)O

>  <INCHIKEY>  (4407) 
HNDVDQJCIGZPNO-RXMQYKEDSA-N

$$$$
dI
     RDKit          2D

  9  8  0  0  0  0  0  0  0  0999 V2000
    0.0000    2.3333    0.0000 N   0  0  0  0  0  0  0  0  0  0  0  0
    0.0000    0.8333    0.0000 C   0  0  0  0  0  0  0  0  0  0  0  0
   -1.2990    0.0833    0.0000 C   0  0  0  0  0  0  0  0  0  0  0  0
   -2.5981    0.8333    0.0000 C   0  0  0  0  0  0  0  0  0  0  0  0
   -1.2990   -1.4167    0.0000 C   0  0  0  0  0  0  0  0  0  0  0  0
   -0.0000   -2.1667    0.0000 C   0  0  0  0  0  0  0  0  0  0  0  0
    1.2990    0.0833    0.0000 C   0  0  0  0  0  0  0  0  0  0  0  0
    1.2990   -1.4167    0.0000 O   0  0  0  0  0  0  0  0  0  0  0  0
    2.5981    0.8333    0.0000 O   0  0  0  0  0  0  0  0  0  0  0  0
  2  1  1  1
  2  3  1  0
  3  4  1  1
  3  5  1  0
  5  6  1  0
  2  7  1  0
  7  8  2  0
  7  9  1  0
M  END
>  <rName>  (4408) 
dI

>  <PQ_SYMBOL>  (4408) 
dI

>  <FULL_NAME>  (4408) 
D-Isoleucine, (2R,3S)-Isoleucine

>  <IUPAC_CONDENSED>  (4408) 
D-Ile

>  <IUPAC>  (4408) 
(2R,3R)-2-amino-3-methylpentanoic acid

>  <TYPE>  (4408) 
Backbone

>  <CLASS>  (4408) 
alpha

>  <ANALOG>  (4408) 
Ile

>  <MOL_WT>  (4408) 
131.175

>  <LOGP>  (4408) 
0.44439999999999985

>  <TPSA>  (4408) 
63.32000000000001

>  <POPULARITY>  (4408) 
45.4

>  <PROTECTED>  (4408) 
TRUE

>  <SMILES>  (4408) 
N[C@H]([C@H](C)CC)C(=O)O

>  <INCHIKEY>  (4408) 
AGPKZVBTJJNPAG-RFZPGFLSSA-N

$$$$
dK
     RDKit          2D

 10  9  0  0  0  0  0  0  0  0999 V2000
   -1.4166    1.8843    0.0000 N   0  0  0  0  0  0  0  0  0  0  0  0
   -1.4265    0.3844    0.0000 C   0  0  0  0  0  0  0  0  0  0  0  0
   -0.1324   -0.3741    0.0000 C   0  0  0  0  0  0  0  0  0  0  0  0
    1.1716    0.3673    0.0000 C   0  0  0  0  0  0  0  0  0  0  0  0
    2.4657   -0.3912    0.0000 C   0  0  0  0  0  0  0  0  0  0  0  0
    3.7696    0.3503    0.0000 C   0  0  0  0  0  0  0  0  0  0  0  0
    5.0637   -0.4082    0.0000 N   0  0  0  0  0  0  0  0  0  0  0  0
   -2.7304   -0.3571    0.0000 C   0  0  0  0  0  0  0  0  0  0  0  0
   -2.7402   -1.8571    0.0000 O   0  0  0  0  0  0  0  0  0  0  0  0
   -4.0245    0.4014    0.0000 O   0  0  0  0  0  0  0  0  0  0  0  0
  2  1  1  6
  2  3  1  0
  3  4  1  0
  4  5  1  0
  5  6  1  0
  6  7  1  0
  2  8  1  0
  8  9  2  0
  8 10  1  0
M  END
>  <rName>  (4409) 
dK

>  <PQ_SYMBOL>  (4409) 
dK

>  <FULL_NAME>  (4409) 
D-Lysine

>  <IUPAC_CONDENSED>  (4409) 
D-Lys

>  <IUPAC>  (4409) 
(2R)-2,6-diaminohexanoic acid

>  <TYPE>  (4409) 
Backbone

>  <CLASS>  (4409) 
alpha

>  <ANALOG>  (4409) 
Lys

>  <MOL_WT>  (4409) 
146.19000000000003

>  <LOGP>  (4409) 
-0.4727000000000004

>  <TPSA>  (4409) 
89.34

>  <POPULARITY>  (4409) 
55.6

>  <PROTECTED>  (4409) 
TRUE

>  <SMILES>  (4409) 
N[C@H](CCCCN)C(=O)O

>  <INCHIKEY>  (4409) 
KDXKERNSBIXSRK-RXMQYKEDSA-N

$$$$
dL
     RDKit          2D

  9  8  0  0  0  0  0  0  0  0999 V2000
    0.2826   -1.7410    0.0000 N   0  0  0  0  0  0  0  0  0  0  0  0
    0.5402   -0.2633    0.0000 C   0  0  0  0  0  0  0  0  0  0  0  0
   -0.6108    0.6986    0.0000 C   0  0  0  0  0  0  0  0  0  0  0  0
   -2.0193    0.1828    0.0000 C   0  0  0  0  0  0  0  0  0  0  0  0
   -3.1703    1.1447    0.0000 C   0  0  0  0  0  0  0  0  0  0  0  0
   -2.2769   -1.2950    0.0000 C   0  0  0  0  0  0  0  0  0  0  0  0
    1.9487    0.2525    0.0000 C   0  0  0  0  0  0  0  0  0  0  0  0
    2.2062    1.7302    0.0000 O   0  0  0  0  0  0  0  0  0  0  0  0
    3.0997   -0.7094    0.0000 O   0  0  0  0  0  0  0  0  0  0  0  0
  2  1  1  6
  2  3  1  0
  3  4  1  0
  4  5  1  0
  4  6  1  0
  2  7  1  0
  7  8  2  0
  7  9  1  0
M  END
>  <rName>  (4410) 
dL

>  <PQ_SYMBOL>  (4410) 
dL

>  <FULL_NAME>  (4410) 
D-Leucine

>  <IUPAC_CONDENSED>  (4410) 
D-Leu

>  <IUPAC>  (4410) 
(2R)-2-amino-4-methylpentanoic acid

>  <TYPE>  (4410) 
Backbone

>  <CLASS>  (4410) 
alpha

>  <ANALOG>  (4410) 
Leu

>  <MOL_WT>  (4410) 
131.175

>  <LOGP>  (4410) 
0.44439999999999985

>  <TPSA>  (4410) 
63.32000000000001

>  <POPULARITY>  (4410) 
57.7

>  <PROTECTED>  (4410) 
TRUE

>  <SMILES>  (4410) 
N[C@H](CC(C)C)C(=O)O

>  <INCHIKEY>  (4410) 
ROHFNLRQFUQHCH-RXMQYKEDSA-N

$$$$
dM
     RDKit          2D

  9  8  0  0  0  0  0  0  0  0999 V2000
    0.7616   -1.8791    0.0000 N   0  0  0  0  0  0  0  0  0  0  0  0
    0.8459   -0.3815    0.0000 C   0  0  0  0  0  0  0  0  0  0  0  0
   -0.4089    0.4403    0.0000 C   0  0  0  0  0  0  0  0  0  0  0  0
   -1.7480   -0.2354    0.0000 C   0  0  0  0  0  0  0  0  0  0  0  0
   -3.0029    0.5864    0.0000 S   0  0  0  0  0  0  0  0  0  0  0  0
   -4.3420   -0.0894    0.0000 C   0  0  0  0  0  0  0  0  0  0  0  0
    2.1851    0.2943    0.0000 C   0  0  0  0  0  0  0  0  0  0  0  0
    2.2694    1.7919    0.0000 O   0  0  0  0  0  0  0  0  0  0  0  0
    3.4399   -0.5275    0.0000 O   0  0  0  0  0  0  0  0  0  0  0  0
  2  1  1  6
  2  3  1  0
  3  4  1  0
  4  5  1  0
  5  6  1  0
  2  7  1  0
  7  8  2  0
  7  9  1  0
M  END
>  <rName>  (4411) 
dM

>  <PQ_SYMBOL>  (4411) 
dM

>  <FULL_NAME>  (4411) 
D-Methionine

>  <IUPAC_CONDENSED>  (4411) 
D-Met

>  <IUPAC>  (4411) 
(2R)-2-amino-4-(methylsulfanyl)butanoic acid

>  <TYPE>  (4411) 
Backbone

>  <CLASS>  (4411) 
alpha

>  <ANALOG>  (4411) 
Met

>  <MOL_WT>  (4411) 
149.215

>  <LOGP>  (4411) 
0.1513999999999997

>  <TPSA>  (4411) 
63.32000000000001

>  <POPULARITY>  (4411) 
41.5

>  <PROTECTED>  (4411) 
TRUE

>  <SMILES>  (4411) 
N[C@H](CCSC)C(=O)O

>  <INCHIKEY>  (4411) 
FFEARJCKVFRZRR-SCSAIBSYSA-N

$$$$
dN
     RDKit          2D

  9  8  0  0  0  0  0  0  0  0999 V2000
   -0.2826   -1.7410    0.0000 N   0  0  0  0  0  0  0  0  0  0  0  0
   -0.5402   -0.2633    0.0000 C   0  0  0  0  0  0  0  0  0  0  0  0
    0.6108    0.6986    0.0000 C   0  0  0  0  0  0  0  0  0  0  0  0
    2.0193    0.1828    0.0000 C   0  0  0  0  0  0  0  0  0  0  0  0
    2.2769   -1.2950    0.0000 O   0  0  0  0  0  0  0  0  0  0  0  0
    3.1703    1.1447    0.0000 N   0  0  0  0  0  0  0  0  0  0  0  0
   -1.9487    0.2525    0.0000 C   0  0  0  0  0  0  0  0  0  0  0  0
   -2.2062    1.7302    0.0000 O   0  0  0  0  0  0  0  0  0  0  0  0
   -3.0997   -0.7094    0.0000 O   0  0  0  0  0  0  0  0  0  0  0  0
  2  1  1  1
  2  3  1  0
  3  4  1  0
  4  5  2  0
  4  6  1  0
  2  7  1  0
  7  8  2  0
  7  9  1  0
M  END
>  <rName>  (4412) 
dN

>  <PQ_SYMBOL>  (4412) 
dN

>  <FULL_NAME>  (4412) 
D-Asparagine

>  <IUPAC_CONDENSED>  (4412) 
D-Asn

>  <IUPAC>  (4412) 
(2R)-2-amino-3-carbamoylpropanoic acid

>  <TYPE>  (4412) 
Backbone

>  <CLASS>  (4412) 
alpha

>  <ANALOG>  (4412) 
Asn

>  <MOL_WT>  (4412) 
132.119

>  <LOGP>  (4412) 
-1.7263000000000002

>  <TPSA>  (4412) 
106.41000000000001

>  <POPULARITY>  (4412) 
48.3

>  <PROTECTED>  (4412) 
TRUE

>  <SMILES>  (4412) 
N[C@H](CC(=O)N)C(=O)O

>  <INCHIKEY>  (4412) 
DCXYFEDJOCDNAF-UWTATZPHSA-N

$$$$
dP
     RDKit          2D

  8  8  0  0  0  0  0  0  0  0999 V2000
   -0.8342   -1.2135    0.0000 N   0  0  0  0  0  0  0  0  0  0  0  0
    0.0475   -0.0000    0.0000 C   0  0  0  0  0  0  0  0  0  0  0  0
   -0.8342    1.2135    0.0000 C   0  0  0  0  0  0  0  0  0  0  0  0
   -2.2608    0.7500    0.0000 C   0  0  0  0  0  0  0  0  0  0  0  0
   -2.2608   -0.7500    0.0000 C   0  0  0  0  0  0  0  0  0  0  0  0
    1.5475    0.0000    0.0000 C   0  0  0  0  0  0  0  0  0  0  0  0
    2.2975    1.2990    0.0000 O   0  0  0  0  0  0  0  0  0  0  0  0
    2.2975   -1.2990    0.0000 O   0  0  0  0  0  0  0  0  0  0  0  0
  1  2  1  0
  2  3  1  0
  3  4  1  0
  4  5  1  0
  2  6  1  6
  6  7  2  0
  6  8  1  0
  5  1  1  0
M  END
>  <rName>  (4413) 
dP

>  <PQ_SYMBOL>  (4413) 
dP

>  <FULL_NAME>  (4413) 
D-Proline

>  <IUPAC_CONDENSED>  (4413) 
D-Pro

>  <IUPAC>  (4413) 
(2R)-pyrrolidine-2-carboxylic acid

>  <TYPE>  (4413) 
Backbone

>  <CLASS>  (4413) 
alpha

>  <ANALOG>  (4413) 
Pro

>  <MOL_WT>  (4413) 
115.13199999999999

>  <LOGP>  (4413) 
-0.17700000000000032

>  <TPSA>  (4413) 
49.33

>  <POPULARITY>  (4413) 
59.9

>  <PROTECTED>  (4413) 
TRUE

>  <SMILES>  (4413) 
N1[C@H](CCC1)C(=O)O

>  <INCHIKEY>  (4413) 
ONIBWKKTOPOVIA-SCSAIBSYSA-N

$$$$
dQ
     RDKit          2D

 10  9  0  0  0  0  0  0  0  0999 V2000
    1.2717   -1.9622    0.0000 N   0  0  0  0  0  0  0  0  0  0  0  0
    1.1946   -0.4642    0.0000 C   0  0  0  0  0  0  0  0  0  0  0  0
   -0.1413    0.2180    0.0000 C   0  0  0  0  0  0  0  0  0  0  0  0
   -1.4001   -0.5978    0.0000 C   0  0  0  0  0  0  0  0  0  0  0  0
   -2.7359    0.0845    0.0000 C   0  0  0  0  0  0  0  0  0  0  0  0
   -2.8131    1.5825    0.0000 O   0  0  0  0  0  0  0  0  0  0  0  0
   -3.9947   -0.7313    0.0000 N   0  0  0  0  0  0  0  0  0  0  0  0
    2.4533    0.3516    0.0000 C   0  0  0  0  0  0  0  0  0  0  0  0
    2.3762    1.8496    0.0000 O   0  0  0  0  0  0  0  0  0  0  0  0
    3.7892   -0.3306    0.0000 O   0  0  0  0  0  0  0  0  0  0  0  0
  2  1  1  6
  2  3  1  0
  3  4  1  0
  4  5  1  0
  5  6  2  0
  5  7  1  0
  2  8  1  0
  8  9  2  0
  8 10  1  0
M  END
>  <rName>  (4414) 
dQ

>  <PQ_SYMBOL>  (4414) 
dQ

>  <FULL_NAME>  (4414) 
D-Glutamine

>  <IUPAC_CONDENSED>  (4414) 
D-Gln

>  <IUPAC>  (4414) 
(2R)-2-amino-4-carbamoylbutanoic acid

>  <TYPE>  (4414) 
Backbone

>  <CLASS>  (4414) 
alpha

>  <ANALOG>  (4414) 
Gln

>  <MOL_WT>  (4414) 
146.14600000000002

>  <LOGP>  (4414) 
-1.336199999999999

>  <TPSA>  (4414) 
106.41000000000001

>  <POPULARITY>  (4414) 
52.2

>  <PROTECTED>  (4414) 
TRUE

>  <SMILES>  (4414) 
N[C@H](CCC(=O)N)C(=O)O

>  <INCHIKEY>  (4414) 
ZDXPYRJPNDTMRX-GSVOUGTGSA-N

$$$$
dR
     RDKit          2D

 12 11  0  0  0  0  0  0  0  0999 V2000
    2.4617   -1.9005    0.0000 N   0  0  0  0  0  0  0  0  0  0  0  0
    2.4001   -0.4018    0.0000 C   0  0  0  0  0  0  0  0  0  0  0  0
    1.0713    0.2943    0.0000 C   0  0  0  0  0  0  0  0  0  0  0  0
   -0.1958   -0.5085    0.0000 C   0  0  0  0  0  0  0  0  0  0  0  0
   -1.5245    0.1875    0.0000 C   0  0  0  0  0  0  0  0  0  0  0  0
   -2.7917   -0.6152    0.0000 N   0  0  0  0  0  0  0  0  0  0  0  0
   -4.1204    0.0808    0.0000 C   0  0  0  0  0  0  0  0  0  0  0  0
   -4.1820    1.5796    0.0000 N   0  0  0  0  0  0  0  0  0  0  0  0
   -5.3876   -0.7219    0.0000 N   0  0  0  0  0  0  0  0  0  0  0  0
    3.6672    0.4010    0.0000 C   0  0  0  0  0  0  0  0  0  0  0  0
    3.6056    1.8997    0.0000 O   0  0  0  0  0  0  0  0  0  0  0  0
    4.9960   -0.2950    0.0000 O   0  0  0  0  0  0  0  0  0  0  0  0
  2  1  1  6
  2  3  1  0
  3  4  1  0
  4  5  1  0
  5  6  1  0
  6  7  1  0
  7  8  2  0
  7  9  1  0
  2 10  1  0
 10 11  2  0
 10 12  1  0
M  END
>  <rName>  (4415) 
dR

>  <PQ_SYMBOL>  (4415) 
dR

>  <FULL_NAME>  (4415) 
D-Arginine

>  <IUPAC_CONDENSED>  (4415) 
D-Arg

>  <IUPAC>  (4415) 
(2R)-2-amino-5-(((amino)(imino)methyl)amino)pentanoic acid

>  <TYPE>  (4415) 
Backbone

>  <CLASS>  (4415) 
alpha

>  <ANALOG>  (4415) 
Arg

>  <MOL_WT>  (4415) 
174.204

>  <LOGP>  (4415) 
-1.338429999999999

>  <TPSA>  (4415) 
125.22000000000001

>  <POPULARITY>  (4415) 
53.9

>  <PROTECTED>  (4415) 
TRUE

>  <SMILES>  (4415) 
N[C@H](CCCNC(=N)N)C(=O)O

>  <INCHIKEY>  (4415) 
ODKSFYDXXFIFQN-SCSAIBSYSA-N

$$$$
dS
     RDKit          2D

  7  6  0  0  0  0  0  0  0  0999 V2000
    0.5797   -1.7367    0.0000 N   0  0  0  0  0  0  0  0  0  0  0  0
    0.2514   -0.2730    0.0000 C   0  0  0  0  0  0  0  0  0  0  0  0
    1.3548    0.7431    0.0000 C   0  0  0  0  0  0  0  0  0  0  0  0
    2.7865    0.2956    0.0000 O   0  0  0  0  0  0  0  0  0  0  0  0
   -1.1803    0.1745    0.0000 C   0  0  0  0  0  0  0  0  0  0  0  0
   -1.5086    1.6381    0.0000 O   0  0  0  0  0  0  0  0  0  0  0  0
   -2.2837   -0.8417    0.0000 O   0  0  0  0  0  0  0  0  0  0  0  0
  2  1  1  1
  2  3  1  0
  3  4  1  0
  2  5  1  0
  5  6  2  0
  5  7  1  0
M  END
>  <rName>  (4416) 
dS

>  <PQ_SYMBOL>  (4416) 
dS

>  <FULL_NAME>  (4416) 
D-Serine

>  <IUPAC_CONDENSED>  (4416) 
D-Ser

>  <IUPAC>  (4416) 
(2R)-2-amino-3-hydroxypropanoic acid

>  <TYPE>  (4416) 
Backbone

>  <CLASS>  (4416) 
alpha

>  <ANALOG>  (4416) 
Ser

>  <MOL_WT>  (4416) 
105.09299999999999

>  <LOGP>  (4416) 
-1.6093999999999997

>  <TPSA>  (4416) 
83.55

>  <POPULARITY>  (4416) 
53.5

>  <PROTECTED>  (4416) 
TRUE

>  <SMILES>  (4416) 
N[C@H](CO)C(=O)O

>  <INCHIKEY>  (4416) 
MTCFGRXMJLQNBG-UWTATZPHSA-N

$$$$
dT
     RDKit          2D

  8  7  0  0  0  0  0  0  0  0999 V2000
    0.0000   -2.0625    0.0000 N   0  0  0  0  0  0  0  0  0  0  0  0
    0.0000   -0.5625    0.0000 C   0  0  0  0  0  0  0  0  0  0  0  0
   -1.2990    0.1875    0.0000 C   0  0  0  0  0  0  0  0  0  0  0  0
   -1.2990    1.6875    0.0000 O   0  0  0  0  0  0  0  0  0  0  0  0
   -2.5981   -0.5625    0.0000 C   0  0  0  0  0  0  0  0  0  0  0  0
    1.2990    0.1875    0.0000 C   0  0  0  0  0  0  0  0  0  0  0  0
    1.2990    1.6875    0.0000 O   0  0  0  0  0  0  0  0  0  0  0  0
    2.5981   -0.5625    0.0000 O   0  0  0  0  0  0  0  0  0  0  0  0
  2  1  1  6
  2  3  1  0
  3  4  1  0
  3  5  1  6
  2  6  1  0
  6  7  2  0
  6  8  1  0
M  END
>  <rName>  (4417) 
dT

>  <PQ_SYMBOL>  (4417) 
dT

>  <FULL_NAME>  (4417) 
D-Threonine, (2R,3S)-Threonine

>  <IUPAC_CONDENSED>  (4417) 
D-Thr

>  <IUPAC>  (4417) 
(2R,3S)-2-amino-3-hydroxybutanoic acid

>  <TYPE>  (4417) 
Backbone

>  <CLASS>  (4417) 
alpha

>  <ANALOG>  (4417) 
Thr

>  <MOL_WT>  (4417) 
119.11999999999999

>  <LOGP>  (4417) 
-1.2209

>  <TPSA>  (4417) 
83.55

>  <POPULARITY>  (4417) 
47.0

>  <PROTECTED>  (4417) 
TRUE

>  <SMILES>  (4417) 
N[C@H]([C@@H](O)C)C(=O)O

>  <INCHIKEY>  (4417) 
AYFVYJQAPQTCCC-STHAYSLISA-N

$$$$
dV
     RDKit          2D

  8  7  0  0  0  0  0  0  0  0999 V2000
    0.0000    2.0625    0.0000 N   0  0  0  0  0  0  0  0  0  0  0  0
    0.0000    0.5625    0.0000 C   0  0  0  0  0  0  0  0  0  0  0  0
   -1.2990   -0.1875    0.0000 C   0  0  0  0  0  0  0  0  0  0  0  0
   -2.5981    0.5625    0.0000 C   0  0  0  0  0  0  0  0  0  0  0  0
   -1.2990   -1.6875    0.0000 C   0  0  0  0  0  0  0  0  0  0  0  0
    1.2990   -0.1875    0.0000 C   0  0  0  0  0  0  0  0  0  0  0  0
    1.2990   -1.6875    0.0000 O   0  0  0  0  0  0  0  0  0  0  0  0
    2.5981    0.5625    0.0000 O   0  0  0  0  0  0  0  0  0  0  0  0
  2  1  1  1
  2  3  1  0
  3  4  1  0
  3  5  1  0
  2  6  1  0
  6  7  2  0
  6  8  1  0
M  END
>  <rName>  (4418) 
dV

>  <PQ_SYMBOL>  (4418) 
dV

>  <FULL_NAME>  (4418) 
D-Valine

>  <IUPAC_CONDENSED>  (4418) 
D-Val

>  <IUPAC>  (4418) 
(2R)-2-amino-3-methylbutanoic acid

>  <TYPE>  (4418) 
Backbone

>  <CLASS>  (4418) 
alpha

>  <ANALOG>  (4418) 
Val

>  <MOL_WT>  (4418) 
117.14799999999998

>  <LOGP>  (4418) 
0.05429999999999996

>  <TPSA>  (4418) 
63.32000000000001

>  <POPULARITY>  (4418) 
57.3

>  <PROTECTED>  (4418) 
TRUE

>  <SMILES>  (4418) 
N[C@H](C(C)C)C(=O)O

>  <INCHIKEY>  (4418) 
KZSNJWFQEVHDMF-SCSAIBSYSA-N

$$$$
dW
     RDKit          2D

 15 16  0  0  0  0  0  0  0  0999 V2000
   -2.6183   -1.7023    0.0000 N   0  0  0  0  0  0  0  0  0  0  0  0
   -2.5622   -0.2034    0.0000 C   0  0  0  0  0  0  0  0  0  0  0  0
   -1.2360    0.4975    0.0000 C   0  0  0  0  0  0  0  0  0  0  0  0
    0.0341   -0.3006    0.0000 C   0  0  0  0  0  0  0  0  0  0  0  0
    0.1349   -1.7972    0.0000 C   0  0  0  0  0  0  0  0  0  0  0  0
    1.5895   -2.1637    0.0000 N   0  0  0  0  0  0  0  0  0  0  0  0
    2.3875   -0.8937    0.0000 C   0  0  0  0  0  0  0  0  0  0  0  0
    3.8654   -0.6369    0.0000 C   0  0  0  0  0  0  0  0  0  0  0  0
    4.3820    0.7713    0.0000 C   0  0  0  0  0  0  0  0  0  0  0  0
    3.4207    1.9228    0.0000 C   0  0  0  0  0  0  0  0  0  0  0  0
    1.9429    1.6661    0.0000 C   0  0  0  0  0  0  0  0  0  0  0  0
    1.4263    0.2578    0.0000 C   0  0  0  0  0  0  0  0  0  0  0  0
   -3.8322    0.5947    0.0000 C   0  0  0  0  0  0  0  0  0  0  0  0
   -3.7761    2.0937    0.0000 O   0  0  0  0  0  0  0  0  0  0  0  0
   -5.1584   -0.1061    0.0000 O   0  0  0  0  0  0  0  0  0  0  0  0
  2  1  1  1
  2  3  1  0
  3  4  1  0
  4  5  2  0
  5  6  1  0
  6  7  1  0
  7  8  2  0
  8  9  1  0
  9 10  2  0
 10 11  1  0
 11 12  2  0
  2 13  1  0
 13 14  2  0
 13 15  1  0
 12  4  1  0
 12  7  1  0
M  END
>  <rName>  (4419) 
dW

>  <PQ_SYMBOL>  (4419) 
dW

>  <FULL_NAME>  (4419) 
D-Tryptophan

>  <IUPAC_CONDENSED>  (4419) 
D-Trp

>  <IUPAC>  (4419) 
(2R)-2-amino-3-(1H-indol-3-yl)propanoic acid

>  <TYPE>  (4419) 
Backbone

>  <CLASS>  (4419) 
alpha

>  <ANALOG>  (4419) 
Trp

>  <MOL_WT>  (4419) 
204.22899999999998

>  <LOGP>  (4419) 
1.1223000000000003

>  <TPSA>  (4419) 
79.11

>  <POPULARITY>  (4419) 
55.8

>  <PROTECTED>  (4419) 
TRUE

>  <SMILES>  (4419) 
N[C@H](Cc1(c[nH]c2(ccccc12)))C(=O)O

>  <INCHIKEY>  (4419) 
QIVBCDIJIAJPQS-SECBINFHSA-N

$$$$
dY
     RDKit          2D

 13 13  0  0  0  0  0  0  0  0999 V2000
   -1.5766    1.6851    0.0000 N   0  0  0  0  0  0  0  0  0  0  0  0
   -2.0128    0.2500    0.0000 C   0  0  0  0  0  0  0  0  0  0  0  0
   -0.9880   -0.8454    0.0000 C   0  0  0  0  0  0  0  0  0  0  0  0
    0.4730   -0.5055    0.0000 C   0  0  0  0  0  0  0  0  0  0  0  0
    0.9092    0.9296    0.0000 C   0  0  0  0  0  0  0  0  0  0  0  0
    2.3702    1.2695    0.0000 C   0  0  0  0  0  0  0  0  0  0  0  0
    3.3950    0.1741    0.0000 C   0  0  0  0  0  0  0  0  0  0  0  0
    4.8560    0.5140    0.0000 O   0  0  0  0  0  0  0  0  0  0  0  0
    2.9588   -1.2611    0.0000 C   0  0  0  0  0  0  0  0  0  0  0  0
    1.4978   -1.6009    0.0000 C   0  0  0  0  0  0  0  0  0  0  0  0
   -3.4738   -0.0899    0.0000 C   0  0  0  0  0  0  0  0  0  0  0  0
   -3.9100   -1.5250    0.0000 O   0  0  0  0  0  0  0  0  0  0  0  0
   -4.4986    1.0055    0.0000 O   0  0  0  0  0  0  0  0  0  0  0  0
  2  1  1  6
  2  3  1  0
  3  4  1  0
  4  5  1  0
  5  6  2  0
  6  7  1  0
  7  8  1  0
  7  9  2  0
  9 10  1  0
  2 11  1  0
 11 12  2  0
 11 13  1  0
 10  4  2  0
M  END
>  <rName>  (4420) 
dY

>  <PQ_SYMBOL>  (4420) 
dY

>  <FULL_NAME>  (4420) 
D-Tyrosine

>  <IUPAC_CONDENSED>  (4420) 
D-Tyr

>  <IUPAC>  (4420) 
(2R)-2-amino-3-(4-hydroxyphenyl)propanoic acid

>  <TYPE>  (4420) 
Backbone

>  <CLASS>  (4420) 
alpha

>  <ANALOG>  (4420) 
Tyr

>  <MOL_WT>  (4420) 
181.19099999999997

>  <LOGP>  (4420) 
0.3466

>  <TPSA>  (4420) 
83.55

>  <POPULARITY>  (4420) 
53.1

>  <PROTECTED>  (4420) 
TRUE

>  <SMILES>  (4420) 
N[C@H](Cc1(ccc(O)cc1))C(=O)O

>  <INCHIKEY>  (4420) 
OUYCCCASQSFEME-MRVPVSSYSA-N

$$$$
deamino-Ala_OH
     RDKit          2D

  6  5  0  0  0  0  0  0  0  0999 V2000
    1.5000   -1.2990    0.0000 O   0  0  0  0  0  0  0  0  0  0  0  0
    0.7500    0.0000    0.0000 C   0  0  0  0  0  0  0  0  0  0  0  0
    1.5000    1.2990    0.0000 C   0  0  0  0  0  0  0  0  0  0  0  0
   -0.7500   -0.0000    0.0000 C   0  0  0  0  0  0  0  0  0  0  0  0
   -1.5000    1.2990    0.0000 O   0  0  0  0  0  0  0  0  0  0  0  0
   -1.5000   -1.2990    0.0000 O   0  0  0  0  0  0  0  0  0  0  0  0
  1  2  1  0
  2  3  1  6
  2  4  1  0
  4  5  2  0
  4  6  1  0
M  END
>  <rName>  (4421) 
deamino-Ala_OH

>  <PQ_SYMBOL>  (4421) 
deamino-Ala_OH

>  <FULL_NAME>  (4421) 
(2S)-2-hydroxypropanoic acid

>  <IUPAC_CONDENSED>  (4421) 
deamino-Ala(OH)

>  <IUPAC>  (4421) 
(2S)-2-hydroxypropanoic acid

>  <TYPE>  (4421) 
N-term cap

>  <CLASS>  (4421) 
n_cap

>  <ANALOG>  (4421) 
X

>  <MOL_WT>  (4421) 
90.07799999999999

>  <LOGP>  (4421) 
-0.5482

>  <TPSA>  (4421) 
57.53

>  <POPULARITY>  (4421) 
15.0

>  <PROTECTED>  (4421) 
FALSE

>  <SMILES>  (4421) 
O[C@@H](C)C(=O)O

>  <INCHIKEY>  (4421) 
JVTAAEKCZFNVCJ-REOHCLBHSA-N

$$$$
deamino-Chg
     RDKit          2D

 10 10  0  0  0  0  0  0  0  0999 V2000
   -3.0048   -0.4910    0.0000 C   0  0  0  0  0  0  0  0  0  0  0  0
   -2.7213    0.9820    0.0000 C   0  0  0  0  0  0  0  0  0  0  0  0
   -1.3040    1.4730    0.0000 C   0  0  0  0  0  0  0  0  0  0  0  0
   -0.1701    0.4910    0.0000 C   0  0  0  0  0  0  0  0  0  0  0  0
   -0.4536   -0.9820    0.0000 C   0  0  0  0  0  0  0  0  0  0  0  0
   -1.8709   -1.4730    0.0000 C   0  0  0  0  0  0  0  0  0  0  0  0
    1.2473    0.9820    0.0000 C   0  0  0  0  0  0  0  0  0  0  0  0
    2.3812   -0.0000    0.0000 C   0  0  0  0  0  0  0  0  0  0  0  0
    2.0977   -1.4730    0.0000 O   0  0  0  0  0  0  0  0  0  0  0  0
    3.7985    0.4910    0.0000 O   0  0  0  0  0  0  0  0  0  0  0  0
  1  2  1  0
  2  3  1  0
  3  4  1  0
  4  5  1  0
  5  6  1  0
  4  7  1  0
  7  8  1  0
  8  9  2  0
  8 10  1  0
  6  1  1  0
M  END
>  <rName>  (4422) 
deamino-Chg

>  <PQ_SYMBOL>  (4422) 
deamino-Chg

>  <FULL_NAME>  (4422) 
2-cyclohexylacetic acid

>  <IUPAC_CONDENSED>  (4422) 
deamino-Chg

>  <IUPAC>  (4422) 
2-cyclohexylacetic acid

>  <TYPE>  (4422) 
N-term cap

>  <CLASS>  (4422) 
n_cap

>  <ANALOG>  (4422) 
X

>  <MOL_WT>  (4422) 
142.198

>  <LOGP>  (4422) 
2.0414

>  <TPSA>  (4422) 
37.3

>  <POPULARITY>  (4422) 
15.0

>  <PROTECTED>  (4422) 
FALSE

>  <SMILES>  (4422) 
C1CCC(CC1)CC(=O)O

>  <INCHIKEY>  (4422) 
LJOODBDWMQKMFB-UHFFFAOYSA-N

$$$$
deamino-Cys
     RDKit          2D

  6  5  0  0  0  0  0  0  0  0999 V2000
    2.8748   -0.2197    0.0000 S   0  0  0  0  0  0  0  0  0  0  0  0
    1.4825    0.3386    0.0000 C   0  0  0  0  0  0  0  0  0  0  0  0
    0.3029   -0.5880    0.0000 C   0  0  0  0  0  0  0  0  0  0  0  0
   -1.0893   -0.0297    0.0000 C   0  0  0  0  0  0  0  0  0  0  0  0
   -1.3020    1.4551    0.0000 O   0  0  0  0  0  0  0  0  0  0  0  0
   -2.2689   -0.9563    0.0000 O   0  0  0  0  0  0  0  0  0  0  0  0
  1  2  1  0
  2  3  1  0
  3  4  1  0
  4  5  2  0
  4  6  1  0
M  END
>  <rName>  (4423) 
deamino-Cys

>  <PQ_SYMBOL>  (4423) 
deamino-Cys

>  <FULL_NAME>  (4423) 
Deamino-Cysteine

>  <IUPAC_CONDENSED>  (4423) 
deamino-Cys

>  <IUPAC>  (4423) 
3-sulfanylpropanoic acid

>  <TYPE>  (4423) 
N-term cap

>  <CLASS>  (4423) 
n_cap

>  <ANALOG>  (4423) 
X

>  <MOL_WT>  (4423) 
106.14599999999999

>  <LOGP>  (4423) 
0.39089999999999997

>  <TPSA>  (4423) 
37.3

>  <POPULARITY>  (4423) 
14.9

>  <PROTECTED>  (4423) 
FALSE

>  <SMILES>  (4423) 
SCCC(=O)O

>  <INCHIKEY>  (4423) 
DKIDEFUBRARXTE-UHFFFAOYSA-N

$$$$
deamino-D-Ala_OH
     RDKit          2D

  6  5  0  0  0  0  0  0  0  0999 V2000
    1.5000   -1.2990    0.0000 O   0  0  0  0  0  0  0  0  0  0  0  0
    0.7500    0.0000    0.0000 C   0  0  0  0  0  0  0  0  0  0  0  0
    1.5000    1.2990    0.0000 C   0  0  0  0  0  0  0  0  0  0  0  0
   -0.7500   -0.0000    0.0000 C   0  0  0  0  0  0  0  0  0  0  0  0
   -1.5000    1.2990    0.0000 O   0  0  0  0  0  0  0  0  0  0  0  0
   -1.5000   -1.2990    0.0000 O   0  0  0  0  0  0  0  0  0  0  0  0
  1  2  1  0
  2  3  1  1
  2  4  1  0
  4  5  2  0
  4  6  1  0
M  END
>  <rName>  (4424) 
deamino-D-Ala_OH

>  <PQ_SYMBOL>  (4424) 
deamino-D-Ala_OH

>  <FULL_NAME>  (4424) 
(2R)-2-hydroxypropanoic acid

>  <IUPAC_CONDENSED>  (4424) 
deamino-D-Ala(OH)

>  <IUPAC>  (4424) 
(2R)-2-hydroxypropanoic acid

>  <TYPE>  (4424) 
N-term cap

>  <CLASS>  (4424) 
n_cap

>  <ANALOG>  (4424) 
X

>  <MOL_WT>  (4424) 
90.07799999999999

>  <LOGP>  (4424) 
-0.5482

>  <TPSA>  (4424) 
57.53

>  <POPULARITY>  (4424) 
15.0

>  <PROTECTED>  (4424) 
FALSE

>  <SMILES>  (4424) 
O[C@H](C)C(=O)O

>  <INCHIKEY>  (4424) 
JVTAAEKCZFNVCJ-UWTATZPHSA-N

$$$$
deamino-D-Phe_OH
     RDKit          2D

 12 12  0  0  0  0  0  0  0  0999 V2000
   -3.7882   -0.3665    0.0000 C   0  0  0  0  0  0  0  0  0  0  0  0
   -3.4088    1.0848    0.0000 C   0  0  0  0  0  0  0  0  0  0  0  0
   -1.9624    1.4819    0.0000 C   0  0  0  0  0  0  0  0  0  0  0  0
   -0.8952    0.4278    0.0000 C   0  0  0  0  0  0  0  0  0  0  0  0
   -1.2745   -1.0235    0.0000 C   0  0  0  0  0  0  0  0  0  0  0  0
   -2.7210   -1.4206    0.0000 C   0  0  0  0  0  0  0  0  0  0  0  0
    0.5513    0.8249    0.0000 C   0  0  0  0  0  0  0  0  0  0  0  0
    1.6184   -0.2292    0.0000 C   0  0  0  0  0  0  0  0  0  0  0  0
    1.2391   -1.6805    0.0000 O   0  0  0  0  0  0  0  0  0  0  0  0
    3.0649    0.1679    0.0000 C   0  0  0  0  0  0  0  0  0  0  0  0
    3.4442    1.6191    0.0000 O   0  0  0  0  0  0  0  0  0  0  0  0
    4.1321   -0.8862    0.0000 O   0  0  0  0  0  0  0  0  0  0  0  0
  1  2  2  0
  2  3  1  0
  3  4  2  0
  4  5  1  0
  5  6  2  0
  4  7  1  0
  7  8  1  0
  8  9  1  6
  8 10  1  0
 10 11  2  0
 10 12  1  0
  6  1  1  0
M  END
>  <rName>  (4425) 
deamino-D-Phe_OH

>  <PQ_SYMBOL>  (4425) 
deamino-D-Phe_OH

>  <FULL_NAME>  (4425) 
(2R)-2-hydroxy-3-phenylpropanoic acid

>  <IUPAC_CONDENSED>  (4425) 
deamino-D-Phe(OH)

>  <IUPAC>  (4425) 
(2R)-2-hydroxy-3-phenylpropanoic acid

>  <TYPE>  (4425) 
N-term cap

>  <CLASS>  (4425) 
n_cap

>  <ANALOG>  (4425) 
X

>  <MOL_WT>  (4425) 
166.17599999999996

>  <LOGP>  (4425) 
0.6745999999999999

>  <TPSA>  (4425) 
57.53

>  <POPULARITY>  (4425) 
12.5

>  <PROTECTED>  (4425) 
FALSE

>  <SMILES>  (4425) 
c1ccc(cc1)C[C@@H](O)C(=O)O

>  <INCHIKEY>  (4425) 
VOXXWSYKYCBWHO-MRVPVSSYSA-N

$$$$
deamino-D-Val_OH
     RDKit          2D

  8  7  0  0  0  0  0  0  0  0999 V2000
   -2.5981    0.5625    0.0000 C   0  0  0  0  0  0  0  0  0  0  0  0
   -1.2990   -0.1875    0.0000 C   0  0  0  0  0  0  0  0  0  0  0  0
   -1.2990   -1.6875    0.0000 C   0  0  0  0  0  0  0  0  0  0  0  0
    0.0000    0.5625    0.0000 C   0  0  0  0  0  0  0  0  0  0  0  0
    0.0000    2.0625    0.0000 O   0  0  0  0  0  0  0  0  0  0  0  0
    1.2990   -0.1875    0.0000 C   0  0  0  0  0  0  0  0  0  0  0  0
    1.2990   -1.6875    0.0000 O   0  0  0  0  0  0  0  0  0  0  0  0
    2.5981    0.5625    0.0000 O   0  0  0  0  0  0  0  0  0  0  0  0
  1  2  1  0
  2  3  1  0
  2  4  1  0
  4  5  1  1
  4  6  1  0
  6  7  2  0
  6  8  1  0
M  END
>  <rName>  (4426) 
deamino-D-Val_OH

>  <PQ_SYMBOL>  (4426) 
deamino-D-Val_OH

>  <FULL_NAME>  (4426) 
DEAMINOHYDROXYVALINE

>  <IUPAC_CONDENSED>  (4426) 
deamino-D-Val(OH)

>  <IUPAC>  (4426) 
(2R)-2-hydroxy-3-methylbutanoic acid

>  <TYPE>  (4426) 
N-term cap

>  <CLASS>  (4426) 
n_cap

>  <ANALOG>  (4426) 
X

>  <MOL_WT>  (4426) 
118.13199999999998

>  <LOGP>  (4426) 
0.08789999999999998

>  <TPSA>  (4426) 
57.53

>  <POPULARITY>  (4426) 
22.7

>  <PROTECTED>  (4426) 
FALSE

>  <SMILES>  (4426) 
CC(C)[C@@H](O)C(=O)O

>  <INCHIKEY>  (4426) 
NGEWQZIDQIYUNV-SCSAIBSYSA-N

$$$$
deamino-Dip
     RDKit          2D

 17 18  0  0  0  0  0  0  0  0999 V2000
    4.5202   -0.4372    0.0000 C   0  0  0  0  0  0  0  0  0  0  0  0
    3.4922   -1.5296    0.0000 C   0  0  0  0  0  0  0  0  0  0  0  0
    2.0322   -1.1855    0.0000 C   0  0  0  0  0  0  0  0  0  0  0  0
    1.6002    0.2509    0.0000 C   0  0  0  0  0  0  0  0  0  0  0  0
    2.6282    1.3433    0.0000 C   0  0  0  0  0  0  0  0  0  0  0  0
    4.0882    0.9992    0.0000 C   0  0  0  0  0  0  0  0  0  0  0  0
    0.1402    0.5950    0.0000 C   0  0  0  0  0  0  0  0  0  0  0  0
   -0.8878   -0.4973    0.0000 C   0  0  0  0  0  0  0  0  0  0  0  0
   -2.3478   -0.1533    0.0000 C   0  0  0  0  0  0  0  0  0  0  0  0
   -3.3757   -1.2456    0.0000 C   0  0  0  0  0  0  0  0  0  0  0  0
   -2.9437   -2.6821    0.0000 C   0  0  0  0  0  0  0  0  0  0  0  0
   -1.4837   -3.0261    0.0000 C   0  0  0  0  0  0  0  0  0  0  0  0
   -0.4557   -1.9338    0.0000 C   0  0  0  0  0  0  0  0  0  0  0  0
   -0.2918    2.0315    0.0000 C   0  0  0  0  0  0  0  0  0  0  0  0
   -1.7518    2.3755    0.0000 C   0  0  0  0  0  0  0  0  0  0  0  0
   -2.7798    1.2832    0.0000 O   0  0  0  0  0  0  0  0  0  0  0  0
   -2.1838    3.8120    0.0000 O   0  0  0  0  0  0  0  0  0  0  0  0
  1  2  2  0
  2  3  1  0
  3  4  2  0
  4  5  1  0
  5  6  2  0
  4  7  1  0
  7  8  1  0
  8  9  2  0
  9 10  1  0
 10 11  2  0
 11 12  1  0
 12 13  2  0
  7 14  1  0
 14 15  1  0
 15 16  2  0
 15 17  1  0
 13  8  1  0
  6  1  1  0
M  END
>  <rName>  (4427) 
deamino-Dip

>  <PQ_SYMBOL>  (4427) 
deamino-Dip

>  <FULL_NAME>  (4427) 
3,3-diphenylpropanoic acid

>  <IUPAC_CONDENSED>  (4427) 
deamino-Dip

>  <IUPAC>  (4427) 
3,3-diphenylpropanoic acid

>  <TYPE>  (4427) 
N-term cap

>  <CLASS>  (4427) 
n_cap

>  <ANALOG>  (4427) 
X

>  <MOL_WT>  (4427) 
226.27499999999995

>  <LOGP>  (4427) 
3.2932000000000015

>  <TPSA>  (4427) 
37.3

>  <POPULARITY>  (4427) 
10.3

>  <PROTECTED>  (4427) 
FALSE

>  <SMILES>  (4427) 
c2ccc(cc2)C(c1(ccccc1))CC(=O)O

>  <INCHIKEY>  (4427) 
BZQGAPWJKAYCHR-UHFFFAOYSA-N

$$$$
deamino-Gly_CN
     RDKit          2D

  6  5  0  0  0  0  0  0  0  0999 V2000
   -2.8748   -0.2197    0.0000 N   0  0  0  0  0  0  0  0  0  0  0  0
   -1.4825    0.3386    0.0000 C   0  0  0  0  0  0  0  0  0  0  0  0
   -0.0903    0.8969    0.0000 C   0  0  0  0  0  0  0  0  0  0  0  0
    1.0893   -0.0297    0.0000 C   0  0  0  0  0  0  0  0  0  0  0  0
    0.8767   -1.5146    0.0000 O   0  0  0  0  0  0  0  0  0  0  0  0
    2.4816    0.5285    0.0000 O   0  0  0  0  0  0  0  0  0  0  0  0
  1  2  3  0
  2  3  1  0
  3  4  1  0
  4  5  2  0
  4  6  1  0
M  END
>  <rName>  (4428) 
deamino-Gly_CN

>  <PQ_SYMBOL>  (4428) 
deamino-Gly_CN

>  <FULL_NAME>  (4428) 
2-cyanoacetic acid

>  <IUPAC_CONDENSED>  (4428) 
deamino-Gly(CN)

>  <IUPAC>  (4428) 
2-cyanoacetic acid

>  <TYPE>  (4428) 
N-term cap

>  <CLASS>  (4428) 
n_cap

>  <ANALOG>  (4428) 
X

>  <MOL_WT>  (4428) 
85.06199999999998

>  <LOGP>  (4428) 
-0.015320000000000056

>  <TPSA>  (4428) 
61.09

>  <POPULARITY>  (4428) 
11.5

>  <PROTECTED>  (4428) 
FALSE

>  <SMILES>  (4428) 
N#CCC(=O)O

>  <INCHIKEY>  (4428) 
MLIREBYILWEBDM-UHFFFAOYSA-N

$$$$
deamino-Gly_OH
     RDKit          2D

  5  4  0  0  0  0  0  0  0  0999 V2000
    0.5196    1.5000    0.0000 O   0  0  0  0  0  0  0  0  0  0  0  0
    0.5196   -0.0000    0.0000 C   0  0  0  0  0  0  0  0  0  0  0  0
    1.8187   -0.7500    0.0000 O   0  0  0  0  0  0  0  0  0  0  0  0
   -0.7794   -0.7500    0.0000 C   0  0  0  0  0  0  0  0  0  0  0  0
   -2.0785    0.0000    0.0000 O   0  0  0  0  0  0  0  0  0  0  0  0
  1  2  2  0
  2  3  1  0
  2  4  1  0
  4  5  1  0
M  END
>  <rName>  (4429) 
deamino-Gly_OH

>  <PQ_SYMBOL>  (4429) 
deamino-Gly_OH

>  <FULL_NAME>  (4429) 
2-hydroxyacetic acid

>  <IUPAC_CONDENSED>  (4429) 
deamino-Gly(OH)

>  <IUPAC>  (4429) 
2-hydroxyacetic acid

>  <TYPE>  (4429) 
C-term cap

>  <CLASS>  (4429) 
c_cap

>  <ANALOG>  (4429) 
X

>  <MOL_WT>  (4429) 
76.051

>  <LOGP>  (4429) 
-0.9367000000000001

>  <TPSA>  (4429) 
57.53

>  <POPULARITY>  (4429) 
14.9

>  <PROTECTED>  (4429) 
FALSE

>  <SMILES>  (4429) 
O=C(O)CO

>  <INCHIKEY>  (4429) 
AEMRFAOFKBGASW-UHFFFAOYSA-N

$$$$
deamino-Gly_cPent
     RDKit          2D

  9  9  0  0  0  0  0  0  0  0999 V2000
   -2.3794   -1.0606    0.0000 C   0  0  0  0  0  0  0  0  0  0  0  0
   -0.8806   -1.0024    0.0000 C   0  0  0  0  0  0  0  0  0  0  0  0
   -0.4728    0.4411    0.0000 C   0  0  0  0  0  0  0  0  0  0  0  0
   -1.7196    1.2750    0.0000 C   0  0  0  0  0  0  0  0  0  0  0  0
   -2.8980    0.3469    0.0000 C   0  0  0  0  0  0  0  0  0  0  0  0
    0.9347    0.9597    0.0000 C   0  0  0  0  0  0  0  0  0  0  0  0
    2.0876   -0.0000    0.0000 C   0  0  0  0  0  0  0  0  0  0  0  0
    1.8329   -1.4782    0.0000 O   0  0  0  0  0  0  0  0  0  0  0  0
    3.4951    0.5186    0.0000 O   0  0  0  0  0  0  0  0  0  0  0  0
  1  2  1  0
  2  3  1  0
  3  4  1  0
  4  5  1  0
  3  6  1  0
  6  7  1  0
  7  8  2  0
  7  9  1  0
  5  1  1  0
M  END
>  <rName>  (4430) 
deamino-Gly_cPent

>  <PQ_SYMBOL>  (4430) 
deamino-Gly_cPent

>  <FULL_NAME>  (4430) 
2-cyclopentylacetic acid

>  <IUPAC_CONDENSED>  (4430) 
deamino-Gly(cPent)

>  <IUPAC>  (4430) 
2-cyclopentylacetic acid

>  <TYPE>  (4430) 
N-term cap

>  <CLASS>  (4430) 
n_cap

>  <ANALOG>  (4430) 
X

>  <MOL_WT>  (4430) 
128.171

>  <LOGP>  (4430) 
1.6513

>  <TPSA>  (4430) 
37.3

>  <POPULARITY>  (4430) 
12.3

>  <PROTECTED>  (4430) 
FALSE

>  <SMILES>  (4430) 
C1CC(CC1)CC(=O)O

>  <INCHIKEY>  (4430) 
YVHAIVPPUIZFBA-UHFFFAOYSA-N

$$$$
deamino-Gly_tBu
     RDKit          2D

  8  7  0  0  0  0  0  0  0  0999 V2000
   -1.8975    1.3780    0.0000 C   0  0  0  0  0  0  0  0  0  0  0  0
   -1.1374    0.0849    0.0000 C   0  0  0  0  0  0  0  0  0  0  0  0
   -0.3772   -1.2083    0.0000 C   0  0  0  0  0  0  0  0  0  0  0  0
   -2.4305   -0.6752    0.0000 C   0  0  0  0  0  0  0  0  0  0  0  0
    0.1558    0.8450    0.0000 C   0  0  0  0  0  0  0  0  0  0  0  0
    1.4606    0.1051    0.0000 C   0  0  0  0  0  0  0  0  0  0  0  0
    1.4723   -1.3948    0.0000 O   0  0  0  0  0  0  0  0  0  0  0  0
    2.7538    0.8653    0.0000 O   0  0  0  0  0  0  0  0  0  0  0  0
  1  2  1  0
  2  3  1  0
  2  4  1  0
  2  5  1  0
  5  6  1  0
  6  7  2  0
  6  8  1  0
M  END
>  <rName>  (4431) 
deamino-Gly_tBu

>  <PQ_SYMBOL>  (4431) 
deamino-Gly_tBu

>  <FULL_NAME>  (4431) 
3,3-dimethylbutanoic acid

>  <IUPAC_CONDENSED>  (4431) 
deamino-Gly(tBu)

>  <IUPAC>  (4431) 
3,3-dimethylbutanoic acid

>  <TYPE>  (4431) 
N-term cap

>  <CLASS>  (4431) 
n_cap

>  <ANALOG>  (4431) 
X

>  <MOL_WT>  (4431) 
116.15999999999998

>  <LOGP>  (4431) 
1.5072

>  <TPSA>  (4431) 
37.3

>  <POPULARITY>  (4431) 
15.0

>  <PROTECTED>  (4431) 
FALSE

>  <SMILES>  (4431) 
CC(C)(C)CC(=O)O

>  <INCHIKEY>  (4431) 
MLMQPDHYNJCQAO-UHFFFAOYSA-N

$$$$
deamino-Gly_thien2yl
     RDKit          2D

  9  9  0  0  0  0  0  0  0  0999 V2000
   -2.3794   -1.0606    0.0000 C   0  0  0  0  0  0  0  0  0  0  0  0
   -0.8806   -1.0024    0.0000 S   0  0  0  0  0  0  0  0  0  0  0  0
   -0.4728    0.4411    0.0000 C   0  0  0  0  0  0  0  0  0  0  0  0
   -1.7196    1.2750    0.0000 C   0  0  0  0  0  0  0  0  0  0  0  0
   -2.8980    0.3469    0.0000 C   0  0  0  0  0  0  0  0  0  0  0  0
    0.9347    0.9597    0.0000 C   0  0  0  0  0  0  0  0  0  0  0  0
    2.0876   -0.0000    0.0000 C   0  0  0  0  0  0  0  0  0  0  0  0
    1.8329   -1.4782    0.0000 O   0  0  0  0  0  0  0  0  0  0  0  0
    3.4951    0.5186    0.0000 O   0  0  0  0  0  0  0  0  0  0  0  0
  1  2  1  0
  2  3  1  0
  3  4  2  0
  4  5  1  0
  3  6  1  0
  6  7  1  0
  7  8  2  0
  7  9  1  0
  5  1  2  0
M  END
>  <rName>  (4432) 
deamino-Gly_thien2yl

>  <PQ_SYMBOL>  (4432) 
deamino-Gly_thien2yl

>  <FULL_NAME>  (4432) 
2-(thiophen-2-yl)acetic acid

>  <IUPAC_CONDENSED>  (4432) 
deamino-Gly(thien-2-yl)

>  <IUPAC>  (4432) 
2-(thiophen-2-yl)acetic acid

>  <TYPE>  (4432) 
N-term cap

>  <CLASS>  (4432) 
n_cap

>  <ANALOG>  (4432) 
X

>  <MOL_WT>  (4432) 
142.17899999999997

>  <LOGP>  (4432) 
1.3752

>  <TPSA>  (4432) 
37.3

>  <POPULARITY>  (4432) 
10.3

>  <PROTECTED>  (4432) 
FALSE

>  <SMILES>  (4432) 
c1sc(cc1)CC(=O)O

>  <INCHIKEY>  (4432) 
SMJRBWINMFUUDS-UHFFFAOYSA-N

$$$$
deamino-Leu
     RDKit          2D

  8  7  0  0  0  0  0  0  0  0999 V2000
   -3.1182    0.9820    0.0000 C   0  0  0  0  0  0  0  0  0  0  0  0
   -1.9843    0.0000    0.0000 C   0  0  0  0  0  0  0  0  0  0  0  0
   -2.2678   -1.4730    0.0000 C   0  0  0  0  0  0  0  0  0  0  0  0
   -0.5669    0.4910    0.0000 C   0  0  0  0  0  0  0  0  0  0  0  0
    0.5669   -0.4910    0.0000 C   0  0  0  0  0  0  0  0  0  0  0  0
    1.9843    0.0000    0.0000 C   0  0  0  0  0  0  0  0  0  0  0  0
    2.2678    1.4730    0.0000 O   0  0  0  0  0  0  0  0  0  0  0  0
    3.1182   -0.9820    0.0000 O   0  0  0  0  0  0  0  0  0  0  0  0
  1  2  1  0
  2  3  1  0
  2  4  1  0
  4  5  1  0
  5  6  1  0
  6  7  2  0
  6  8  1  0
M  END
>  <rName>  (4433) 
deamino-Leu

>  <PQ_SYMBOL>  (4433) 
deamino-Leu

>  <FULL_NAME>  (4433) 
Deamino-Leucine

>  <IUPAC_CONDENSED>  (4433) 
deamino-Leu

>  <IUPAC>  (4433) 
4-methylpentanoic acid

>  <TYPE>  (4433) 
N-term cap

>  <CLASS>  (4433) 
n_cap

>  <ANALOG>  (4433) 
X

>  <MOL_WT>  (4433) 
116.15999999999998

>  <LOGP>  (4433) 
1.5072

>  <TPSA>  (4433) 
37.3

>  <POPULARITY>  (4433) 
14.6

>  <PROTECTED>  (4433) 
FALSE

>  <SMILES>  (4433) 
CC(C)CCC(=O)O

>  <INCHIKEY>  (4433) 
FGKJLKRYENPLQH-UHFFFAOYSA-N

$$$$
deamino-Leu_OH
     RDKit          2D

  9  8  0  0  0  0  0  0  0  0999 V2000
   -3.1703    1.1447    0.0000 C   0  0  0  0  0  0  0  0  0  0  0  0
   -2.0193    0.1828    0.0000 C   0  0  0  0  0  0  0  0  0  0  0  0
   -2.2769   -1.2950    0.0000 C   0  0  0  0  0  0  0  0  0  0  0  0
   -0.6108    0.6986    0.0000 C   0  0  0  0  0  0  0  0  0  0  0  0
    0.5402   -0.2633    0.0000 C   0  0  0  0  0  0  0  0  0  0  0  0
    0.2826   -1.7410    0.0000 O   0  0  0  0  0  0  0  0  0  0  0  0
    1.9487    0.2525    0.0000 C   0  0  0  0  0  0  0  0  0  0  0  0
    2.2062    1.7302    0.0000 O   0  0  0  0  0  0  0  0  0  0  0  0
    3.0997   -0.7094    0.0000 O   0  0  0  0  0  0  0  0  0  0  0  0
  1  2  1  0
  2  3  1  0
  2  4  1  0
  4  5  1  0
  5  6  1  1
  5  7  1  0
  7  8  2  0
  7  9  1  0
M  END
>  <rName>  (4434) 
deamino-Leu_OH

>  <PQ_SYMBOL>  (4434) 
deamino-Leu_OH

>  <FULL_NAME>  (4434) 
(2S)-2-hydroxy-4-methylpentanoic acid

>  <IUPAC_CONDENSED>  (4434) 
deamino-Leu(OH)

>  <IUPAC>  (4434) 
(2S)-2-hydroxy-4-methylpentanoic acid

>  <TYPE>  (4434) 
N-term cap

>  <CLASS>  (4434) 
n_cap

>  <ANALOG>  (4434) 
X

>  <MOL_WT>  (4434) 
132.159

>  <LOGP>  (4434) 
0.478

>  <TPSA>  (4434) 
57.53

>  <POPULARITY>  (4434) 
11.0

>  <PROTECTED>  (4434) 
FALSE

>  <SMILES>  (4434) 
CC(C)C[C@H](O)C(=O)O

>  <INCHIKEY>  (4434) 
LVRFTAZAXQPQHI-YFKPBYRVSA-N

$$$$
deamino-Ncy
     RDKit          2D

  5  4  0  0  0  0  0  0  0  0999 V2000
   -2.0785    0.0000    0.0000 S   0  0  0  0  0  0  0  0  0  0  0  0
   -0.7794   -0.7500    0.0000 C   0  0  0  0  0  0  0  0  0  0  0  0
    0.5196   -0.0000    0.0000 C   0  0  0  0  0  0  0  0  0  0  0  0
    0.5196    1.5000    0.0000 O   0  0  0  0  0  0  0  0  0  0  0  0
    1.8187   -0.7500    0.0000 O   0  0  0  0  0  0  0  0  0  0  0  0
  1  2  1  0
  2  3  1  0
  3  4  2  0
  3  5  1  0
M  END
>  <rName>  (4435) 
deamino-Ncy

>  <PQ_SYMBOL>  (4435) 
deamino-Ncy

>  <FULL_NAME>  (4435) 
2-sulfanylacetic acid

>  <IUPAC_CONDENSED>  (4435) 
deamino-Ncy

>  <IUPAC>  (4435) 
2-sulfanylacetic acid

>  <TYPE>  (4435) 
N-term cap

>  <CLASS>  (4435) 
n_cap

>  <ANALOG>  (4435) 
X

>  <MOL_WT>  (4435) 
92.11899999999999

>  <LOGP>  (4435) 
0.0007999999999999674

>  <TPSA>  (4435) 
37.3

>  <POPULARITY>  (4435) 
12.9

>  <PROTECTED>  (4435) 
FALSE

>  <SMILES>  (4435) 
SCC(=O)O

>  <INCHIKEY>  (4435) 
CWERGRDVMFNCDR-UHFFFAOYSA-N

$$$$
deamino-Nva_OH
     RDKit          2D

  8  7  0  0  0  0  0  0  0  0999 V2000
    3.5551    0.5134    0.0000 C   0  0  0  0  0  0  0  0  0  0  0  0
    2.2862   -0.2864    0.0000 C   0  0  0  0  0  0  0  0  0  0  0  0
    0.9590    0.4126    0.0000 C   0  0  0  0  0  0  0  0  0  0  0  0
   -0.3100   -0.3873    0.0000 C   0  0  0  0  0  0  0  0  0  0  0  0
   -0.2517   -1.8862    0.0000 O   0  0  0  0  0  0  0  0  0  0  0  0
   -1.6371    0.3117    0.0000 C   0  0  0  0  0  0  0  0  0  0  0  0
   -1.6954    1.8105    0.0000 O   0  0  0  0  0  0  0  0  0  0  0  0
   -2.9061   -0.4882    0.0000 O   0  0  0  0  0  0  0  0  0  0  0  0
  1  2  1  0
  2  3  1  0
  3  4  1  0
  4  5  1  6
  4  6  1  0
  6  7  2  0
  6  8  1  0
M  END
>  <rName>  (4436) 
deamino-Nva_OH

>  <PQ_SYMBOL>  (4436) 
deamino-Nva_OH

>  <FULL_NAME>  (4436) 
2-Hydroxypentanoic acid

>  <IUPAC_CONDENSED>  (4436) 
deamino-Nva(OH)

>  <IUPAC>  (4436) 
(2S)-2-hydroxypentanoic acid

>  <TYPE>  (4436) 
N-term cap

>  <CLASS>  (4436) 
n_cap

>  <ANALOG>  (4436) 
X

>  <MOL_WT>  (4436) 
118.13199999999998

>  <LOGP>  (4436) 
0.23199999999999998

>  <TPSA>  (4436) 
57.53

>  <POPULARITY>  (4436) 
14.6

>  <PROTECTED>  (4436) 
FALSE

>  <SMILES>  (4436) 
CCC[C@H](O)C(=O)O

>  <INCHIKEY>  (4436) 
JRHWHSJDIILJAT-BYPYZUCNSA-N

$$$$
deamino-Phe_OH
     RDKit          2D

 12 12  0  0  0  0  0  0  0  0999 V2000
   -3.7882   -0.3665    0.0000 C   0  0  0  0  0  0  0  0  0  0  0  0
   -3.4088    1.0848    0.0000 C   0  0  0  0  0  0  0  0  0  0  0  0
   -1.9624    1.4819    0.0000 C   0  0  0  0  0  0  0  0  0  0  0  0
   -0.8952    0.4278    0.0000 C   0  0  0  0  0  0  0  0  0  0  0  0
   -1.2745   -1.0235    0.0000 C   0  0  0  0  0  0  0  0  0  0  0  0
   -2.7210   -1.4206    0.0000 C   0  0  0  0  0  0  0  0  0  0  0  0
    0.5513    0.8249    0.0000 C   0  0  0  0  0  0  0  0  0  0  0  0
    1.6184   -0.2292    0.0000 C   0  0  0  0  0  0  0  0  0  0  0  0
    1.2391   -1.6805    0.0000 O   0  0  0  0  0  0  0  0  0  0  0  0
    3.0649    0.1679    0.0000 C   0  0  0  0  0  0  0  0  0  0  0  0
    3.4442    1.6191    0.0000 O   0  0  0  0  0  0  0  0  0  0  0  0
    4.1321   -0.8862    0.0000 O   0  0  0  0  0  0  0  0  0  0  0  0
  1  2  2  0
  2  3  1  0
  3  4  2  0
  4  5  1  0
  5  6  2  0
  4  7  1  0
  7  8  1  0
  8  9  1  1
  8 10  1  0
 10 11  2  0
 10 12  1  0
  6  1  1  0
M  END
>  <rName>  (4437) 
deamino-Phe_OH

>  <PQ_SYMBOL>  (4437) 
deamino-Phe_OH

>  <FULL_NAME>  (4437) 
ALPHA-HYDROXY-BETA-PHENYL-PROPIONIC ACID

>  <IUPAC_CONDENSED>  (4437) 
deamino-Phe(OH)

>  <IUPAC>  (4437) 
(2S)-2-hydroxy-3-phenylpropanoic acid

>  <TYPE>  (4437) 
N-term cap

>  <CLASS>  (4437) 
n_cap

>  <ANALOG>  (4437) 
X

>  <MOL_WT>  (4437) 
166.17599999999996

>  <LOGP>  (4437) 
0.6745999999999999

>  <TPSA>  (4437) 
57.53

>  <POPULARITY>  (4437) 
18.7

>  <PROTECTED>  (4437) 
FALSE

>  <SMILES>  (4437) 
c1ccc(cc1)C[C@H](O)C(=O)O

>  <INCHIKEY>  (4437) 
VOXXWSYKYCBWHO-QMMMGPOBSA-N

$$$$
deamino-Phg_35diMe
     RDKit          2D

 12 12  0  0  0  0  0  0  0  0999 V2000
   -2.4852   -0.5113    0.0000 C   0  0  0  0  0  0  0  0  0  0  0  0
   -2.2622    0.9720    0.0000 C   0  0  0  0  0  0  0  0  0  0  0  0
   -3.4353    1.9068    0.0000 C   0  0  0  0  0  0  0  0  0  0  0  0
   -0.8661    1.5206    0.0000 C   0  0  0  0  0  0  0  0  0  0  0  0
    0.3070    0.5859    0.0000 C   0  0  0  0  0  0  0  0  0  0  0  0
    0.0840   -0.8975    0.0000 C   0  0  0  0  0  0  0  0  0  0  0  0
   -1.3120   -1.4460    0.0000 C   0  0  0  0  0  0  0  0  0  0  0  0
   -1.5350   -2.9294    0.0000 C   0  0  0  0  0  0  0  0  0  0  0  0
    1.7031    1.1345    0.0000 C   0  0  0  0  0  0  0  0  0  0  0  0
    2.8762    0.1997    0.0000 C   0  0  0  0  0  0  0  0  0  0  0  0
    2.6533   -1.2836    0.0000 O   0  0  0  0  0  0  0  0  0  0  0  0
    4.2723    0.7483    0.0000 O   0  0  0  0  0  0  0  0  0  0  0  0
  1  2  2  0
  2  3  1  0
  2  4  1  0
  4  5  2  0
  5  6  1  0
  6  7  2  0
  7  8  1  0
  5  9  1  0
  9 10  1  0
 10 11  2  0
 10 12  1  0
  7  1  1  0
M  END
>  <rName>  (4438) 
deamino-Phg_35diMe

>  <PQ_SYMBOL>  (4438) 
deamino-Phg_35diMe

>  <FULL_NAME>  (4438) 
2-(3,5-dimethylphenyl)acetic acid

>  <IUPAC_CONDENSED>  (4438) 
deamino-Phg(3,5-diMe)

>  <IUPAC>  (4438) 
2-(3,5-dimethylphenyl)acetic acid

>  <TYPE>  (4438) 
N-term cap

>  <CLASS>  (4438) 
n_cap

>  <ANALOG>  (4438) 
X

>  <MOL_WT>  (4438) 
164.20399999999998

>  <LOGP>  (4438) 
1.93054

>  <TPSA>  (4438) 
37.3

>  <POPULARITY>  (4438) 
8.7

>  <PROTECTED>  (4438) 
FALSE

>  <SMILES>  (4438) 
c1c(C)cc(cc1C)CC(=O)O

>  <INCHIKEY>  (4438) 
HDNBKTWQBJJYPD-UHFFFAOYSA-N

$$$$
deamino-Phg_4Cl
     RDKit          2D

 11 11  0  0  0  0  0  0  0  0999 V2000
   -4.0738   -0.6025    0.0000 Cl  0  0  0  0  0  0  0  0  0  0  0  0
   -2.6249   -0.2143    0.0000 C   0  0  0  0  0  0  0  0  0  0  0  0
   -2.2367    1.2346    0.0000 C   0  0  0  0  0  0  0  0  0  0  0  0
   -0.7878    1.6228    0.0000 C   0  0  0  0  0  0  0  0  0  0  0  0
    0.2729    0.5622    0.0000 C   0  0  0  0  0  0  0  0  0  0  0  0
   -0.1153   -0.8867    0.0000 C   0  0  0  0  0  0  0  0  0  0  0  0
   -1.5642   -1.2750    0.0000 C   0  0  0  0  0  0  0  0  0  0  0  0
    1.7218    0.9504    0.0000 C   0  0  0  0  0  0  0  0  0  0  0  0
    2.7824   -0.1103    0.0000 C   0  0  0  0  0  0  0  0  0  0  0  0
    2.3942   -1.5592    0.0000 O   0  0  0  0  0  0  0  0  0  0  0  0
    4.2313    0.2780    0.0000 O   0  0  0  0  0  0  0  0  0  0  0  0
  1  2  1  0
  2  3  1  0
  3  4  2  0
  4  5  1  0
  5  6  2  0
  6  7  1  0
  5  8  1  0
  8  9  1  0
  9 10  2  0
  9 11  1  0
  7  2  2  0
M  END
>  <rName>  (4439) 
deamino-Phg_4Cl

>  <PQ_SYMBOL>  (4439) 
deamino-Phg_4Cl

>  <FULL_NAME>  (4439) 
2-(4-chlorophenyl)acetic acid

>  <IUPAC_CONDENSED>  (4439) 
deamino-Phg(4-Cl)

>  <IUPAC>  (4439) 
2-(4-chlorophenyl)acetic acid

>  <TYPE>  (4439) 
N-term cap

>  <CLASS>  (4439) 
n_cap

>  <ANALOG>  (4439) 
X

>  <MOL_WT>  (4439) 
170.59499999999997

>  <LOGP>  (4439) 
1.9670999999999996

>  <TPSA>  (4439) 
37.3

>  <POPULARITY>  (4439) 
10.4

>  <PROTECTED>  (4439) 
FALSE

>  <SMILES>  (4439) 
Clc1ccc(cc1)CC(=O)O

>  <INCHIKEY>  (4439) 
CDPKJZJVTHSESZ-UHFFFAOYSA-N

$$$$
deamino-Phg_4OMe
     RDKit          2D

 12 12  0  0  0  0  0  0  0  0999 V2000
   -4.7162    0.2919    0.0000 C   0  0  0  0  0  0  0  0  0  0  0  0
   -3.6271   -0.7396    0.0000 O   0  0  0  0  0  0  0  0  0  0  0  0
   -2.1893   -0.3121    0.0000 C   0  0  0  0  0  0  0  0  0  0  0  0
   -1.8406    1.1468    0.0000 C   0  0  0  0  0  0  0  0  0  0  0  0
   -0.4028    1.5743    0.0000 C   0  0  0  0  0  0  0  0  0  0  0  0
    0.6863    0.5428    0.0000 C   0  0  0  0  0  0  0  0  0  0  0  0
    0.3376   -0.9161    0.0000 C   0  0  0  0  0  0  0  0  0  0  0  0
   -1.1002   -1.3435    0.0000 C   0  0  0  0  0  0  0  0  0  0  0  0
    2.1241    0.9703    0.0000 C   0  0  0  0  0  0  0  0  0  0  0  0
    3.2132   -0.0611    0.0000 C   0  0  0  0  0  0  0  0  0  0  0  0
    2.8645   -1.5200    0.0000 O   0  0  0  0  0  0  0  0  0  0  0  0
    4.6510    0.3663    0.0000 O   0  0  0  0  0  0  0  0  0  0  0  0
  1  2  1  0
  2  3  1  0
  3  4  1  0
  4  5  2  0
  5  6  1  0
  6  7  2  0
  7  8  1  0
  6  9  1  0
  9 10  1  0
 10 11  2  0
 10 12  1  0
  8  3  2  0
M  END
>  <rName>  (4440) 
deamino-Phg_4OMe

>  <PQ_SYMBOL>  (4440) 
deamino-Phg_4OMe

>  <FULL_NAME>  (4440) 
2-(4-methoxyphenyl)acetic acid

>  <IUPAC_CONDENSED>  (4440) 
deamino-Phg(4-OMe)

>  <IUPAC>  (4440) 
2-(4-methoxyphenyl)acetic acid

>  <TYPE>  (4440) 
N-term cap

>  <CLASS>  (4440) 
n_cap

>  <ANALOG>  (4440) 
X

>  <MOL_WT>  (4440) 
166.176

>  <LOGP>  (4440) 
1.3223

>  <TPSA>  (4440) 
46.53

>  <POPULARITY>  (4440) 
12.2

>  <PROTECTED>  (4440) 
FALSE

>  <SMILES>  (4440) 
COc1ccc(cc1)CC(=O)O

>  <INCHIKEY>  (4440) 
NRPFNQUDKRYCNX-UHFFFAOYSA-N

$$$$
deamino-Val_OH
     RDKit          2D

  8  7  0  0  0  0  0  0  0  0999 V2000
   -2.5981    0.5625    0.0000 C   0  0  0  0  0  0  0  0  0  0  0  0
   -1.2990   -0.1875    0.0000 C   0  0  0  0  0  0  0  0  0  0  0  0
   -1.2990   -1.6875    0.0000 C   0  0  0  0  0  0  0  0  0  0  0  0
    0.0000    0.5625    0.0000 C   0  0  0  0  0  0  0  0  0  0  0  0
    0.0000    2.0625    0.0000 O   0  0  0  0  0  0  0  0  0  0  0  0
    1.2990   -0.1875    0.0000 C   0  0  0  0  0  0  0  0  0  0  0  0
    1.2990   -1.6875    0.0000 O   0  0  0  0  0  0  0  0  0  0  0  0
    2.5981    0.5625    0.0000 O   0  0  0  0  0  0  0  0  0  0  0  0
  1  2  1  0
  2  3  1  0
  2  4  1  0
  4  5  1  6
  4  6  1  0
  6  7  2  0
  6  8  1  0
M  END
>  <rName>  (4441) 
deamino-Val_OH

>  <PQ_SYMBOL>  (4441) 
deamino-Val_OH

>  <FULL_NAME>  (4441) 
(2S)-2-hydroxy-3-methylbutanoic acid

>  <IUPAC_CONDENSED>  (4441) 
deamino-Val(OH)

>  <IUPAC>  (4441) 
(2S)-2-hydroxy-3-methylbutanoic acid

>  <TYPE>  (4441) 
N-term cap

>  <CLASS>  (4441) 
n_cap

>  <ANALOG>  (4441) 
X

>  <MOL_WT>  (4441) 
118.13199999999998

>  <LOGP>  (4441) 
0.08789999999999998

>  <TPSA>  (4441) 
57.53

>  <POPULARITY>  (4441) 
12.2

>  <PROTECTED>  (4441) 
FALSE

>  <SMILES>  (4441) 
CC(C)[C@H](O)C(=O)O

>  <INCHIKEY>  (4441) 
NGEWQZIDQIYUNV-BYPYZUCNSA-N

$$$$
deamino-hPhe
     RDKit          2D

 12 12  0  0  0  0  0  0  0  0999 V2000
   -4.1178   -0.7050    0.0000 C   0  0  0  0  0  0  0  0  0  0  0  0
   -3.9402    0.7845    0.0000 C   0  0  0  0  0  0  0  0  0  0  0  0
   -2.5615    1.3754    0.0000 C   0  0  0  0  0  0  0  0  0  0  0  0
   -1.3604    0.4769    0.0000 C   0  0  0  0  0  0  0  0  0  0  0  0
   -1.5380   -1.0126    0.0000 C   0  0  0  0  0  0  0  0  0  0  0  0
   -2.9167   -1.6035    0.0000 C   0  0  0  0  0  0  0  0  0  0  0  0
    0.0183    1.0678    0.0000 C   0  0  0  0  0  0  0  0  0  0  0  0
    1.2194    0.1693    0.0000 C   0  0  0  0  0  0  0  0  0  0  0  0
    2.5981    0.7603    0.0000 C   0  0  0  0  0  0  0  0  0  0  0  0
    3.7992   -0.1382    0.0000 C   0  0  0  0  0  0  0  0  0  0  0  0
    3.6216   -1.6277    0.0000 O   0  0  0  0  0  0  0  0  0  0  0  0
    5.1779    0.4527    0.0000 O   0  0  0  0  0  0  0  0  0  0  0  0
  1  2  2  0
  2  3  1  0
  3  4  2  0
  4  5  1  0
  5  6  2  0
  4  7  1  0
  7  8  1  0
  8  9  1  0
  9 10  1  0
 10 11  2  0
 10 12  1  0
  6  1  1  0
M  END
>  <rName>  (4442) 
deamino-hPhe

>  <PQ_SYMBOL>  (4442) 
deamino-hPhe

>  <FULL_NAME>  (4442) 
4-phenylbutanoic acid

>  <IUPAC_CONDENSED>  (4442) 
deamino-hPhe

>  <IUPAC>  (4442) 
4-phenylbutanoic acid

>  <TYPE>  (4442) 
N-term cap

>  <CLASS>  (4442) 
n_cap

>  <ANALOG>  (4442) 
X

>  <MOL_WT>  (4442) 
164.20399999999998

>  <LOGP>  (4442) 
2.0939

>  <TPSA>  (4442) 
37.3

>  <POPULARITY>  (4442) 
14.5

>  <PROTECTED>  (4442) 
FALSE

>  <SMILES>  (4442) 
c1ccc(cc1)CCCC(=O)O

>  <INCHIKEY>  (4442) 
OBKXEAXTFZPCHS-UHFFFAOYSA-N

$$$$
decahydroisoquinoline-3-CO2H
     RDKit          2D

 13 14  0  0  0  0  0  0  0  0999 V2000
   -1.2457    1.5283    0.0000 N   0  0  0  0  0  0  0  0  0  0  0  0
   -1.6339    0.0794    0.0000 C   0  0  0  0  0  0  0  0  0  0  0  0
   -0.5733   -0.9812    0.0000 C   0  0  0  0  0  0  0  0  0  0  0  0
    0.8756   -0.5930    0.0000 C   0  0  0  0  0  0  0  0  0  0  0  0
    1.9363   -1.6536    0.0000 C   0  0  0  0  0  0  0  0  0  0  0  0
    3.3852   -1.2654    0.0000 C   0  0  0  0  0  0  0  0  0  0  0  0
    3.7734    0.1835    0.0000 C   0  0  0  0  0  0  0  0  0  0  0  0
    2.7127    1.2441    0.0000 C   0  0  0  0  0  0  0  0  0  0  0  0
    1.2638    0.8559    0.0000 C   0  0  0  0  0  0  0  0  0  0  0  0
    0.2032    1.9166    0.0000 C   0  0  0  0  0  0  0  0  0  0  0  0
   -3.0828   -0.3088    0.0000 C   0  0  0  0  0  0  0  0  0  0  0  0
   -3.4710   -1.7577    0.0000 O   0  0  0  0  0  0  0  0  0  0  0  0
   -4.1435    0.7519    0.0000 O   0  0  0  0  0  0  0  0  0  0  0  0
  1  2  1  0
  2  3  1  0
  4  3  1  1
  4  5  1  0
  5  6  1  0
  6  7  1  0
  7  8  1  0
  9  8  1  1
  9 10  1  0
  2 11  1  1
 11 12  2  0
 11 13  1  0
  9  4  1  0
 10  1  1  0
M  END
>  <rName>  (4443) 
decahydroisoquinoline-3-CO2H

>  <PQ_SYMBOL>  (4443) 
decahydroisoquinoline-3-CO2H

>  <FULL_NAME>  (4443) 
(3S,4aS,8aS)-1,2,3,4,4a,5,6,7,8,8a-decahydroisoquinoline-3-carboxylic acid

>  <IUPAC_CONDENSED>  (4443) 
decahydroisoquinoline-3-CO2H

>  <IUPAC>  (4443) 
(1S,4S,6S)-3-azabicyclo[4.4.0]decane-4-carboxylic acid

>  <TYPE>  (4443) 
N-term cap

>  <CLASS>  (4443) 
n_cap

>  <ANALOG>  (4443) 
X

>  <MOL_WT>  (4443) 
183.251

>  <LOGP>  (4443) 
1.2392999999999998

>  <TPSA>  (4443) 
49.33

>  <POPULARITY>  (4443) 
10.5

>  <PROTECTED>  (4443) 
TRUE

>  <SMILES>  (4443) 
N2[C@@H](C[C@@H]1(CCCC[C@@H]1C2))C(=O)O

>  <INCHIKEY>  (4443) 
NSENYWQRQUNUGD-YIZRAAEISA-N

$$$$
dimethylcatechol-Cys-gemdiol
     RDKit          2D

 17 17  0  0  0  0  0  0  0  0999 V2000
   -3.6881   -1.8757    0.0000 N   0  0  0  0  0  0  0  0  0  0  0  0
   -3.4155   -0.4007    0.0000 C   0  0  0  0  0  0  0  0  0  0  0  0
   -4.5566    0.5729    0.0000 C   0  0  0  0  0  0  0  0  0  0  0  0
   -5.9703    0.0714    0.0000 O   0  0  0  0  0  0  0  0  0  0  0  0
   -4.2840    2.0479    0.0000 O   0  0  0  0  0  0  0  0  0  0  0  0
   -2.0018    0.1007    0.0000 C   0  0  0  0  0  0  0  0  0  0  0  0
   -0.8607   -0.8728    0.0000 S   0  0  0  0  0  0  0  0  0  0  0  0
    0.5530   -0.3714    0.0000 C   0  0  0  0  0  0  0  0  0  0  0  0
    0.8256    1.1036    0.0000 C   0  0  0  0  0  0  0  0  0  0  0  0
    2.2393    1.6051    0.0000 C   0  0  0  0  0  0  0  0  0  0  0  0
    2.5119    3.0801    0.0000 C   0  0  0  0  0  0  0  0  0  0  0  0
    3.3804    0.6315    0.0000 C   0  0  0  0  0  0  0  0  0  0  0  0
    3.1079   -0.8435    0.0000 C   0  0  0  0  0  0  0  0  0  0  0  0
    4.2490   -1.8171    0.0000 O   0  0  0  0  0  0  0  0  0  0  0  0
    1.6942   -1.3450    0.0000 C   0  0  0  0  0  0  0  0  0  0  0  0
    1.4216   -2.8200    0.0000 O   0  0  0  0  0  0  0  0  0  0  0  0
    4.7941    1.1330    0.0000 C   0  0  0  0  0  0  0  0  0  0  0  0
  2  1  1  6
  2  3  1  0
  3  4  1  0
  3  5  1  0
  2  6  1  0
  6  7  1  0
  7  8  1  0
  8  9  1  0
  9 10  2  0
 10 11  1  0
 10 12  1  0
 12 13  2  0
 13 14  1  0
 13 15  1  0
 15 16  1  0
 12 17  1  0
 15  8  2  0
M  END
>  <rName>  (4444) 
dimethylcatechol-Cys-gemdiol

>  <PQ_SYMBOL>  (4444) 
dimethylcatechol-Cys-gemdiol

>  <FULL_NAME>  (4444) 
3,4-dimethylcatechol cysteine

>  <IUPAC_CONDENSED>  (4444) 
dimethylcatechol-Cys-gemdiol

>  <IUPAC>  (4444) 
6-(((2R)-2-amino-3,3-dihydroxypropyl)sulfanyl)-3,4-dimethylbenzene-1,2-diol

>  <TYPE>  (4444) 
C-term cap

>  <CLASS>  (4444) 
c_cap

>  <ANALOG>  (4444) 
X

>  <MOL_WT>  (4444) 
259.327

>  <LOGP>  (4444) 
0.44474

>  <TPSA>  (4444) 
106.94000000000001

>  <POPULARITY>  (4444) 
3.2

>  <PROTECTED>  (4444) 
FALSE

>  <SMILES>  (4444) 
N[C@H](C(O)O)CSc1cc(C)c(c(O)c1O)C

>  <INCHIKEY>  (4444) 
XKYPIZZJDXSTGC-ZETCQYMHSA-N

$$$$
gGlu
     RDKit          2D

 10  9  0  0  0  0  0  0  0  0999 V2000
    1.2717   -1.9622    0.0000 N   0  0  0  0  0  0  0  0  0  0  0  0
    1.1946   -0.4642    0.0000 C   0  0  0  0  0  0  0  0  0  0  0  0
    2.4533    0.3516    0.0000 C   0  0  0  0  0  0  0  0  0  0  0  0
    2.3762    1.8496    0.0000 O   0  0  0  0  0  0  0  0  0  0  0  0
    3.7892   -0.3306    0.0000 O   0  0  0  0  0  0  0  0  0  0  0  0
   -0.1413    0.2180    0.0000 C   0  0  0  0  0  0  0  0  0  0  0  0
   -1.4001   -0.5978    0.0000 C   0  0  0  0  0  0  0  0  0  0  0  0
   -2.7359    0.0845    0.0000 C   0  0  0  0  0  0  0  0  0  0  0  0
   -2.8131    1.5825    0.0000 O   0  0  0  0  0  0  0  0  0  0  0  0
   -3.9947   -0.7313    0.0000 O   0  0  0  0  0  0  0  0  0  0  0  0
  2  1  1  1
  2  3  1  0
  3  4  2  0
  3  5  1  0
  2  6  1  0
  6  7  1  0
  7  8  1  0
  8  9  2  0
  8 10  1  0
M  END
>  <rName>  (4445) 
gGlu

>  <PQ_SYMBOL>  (4445) 
gGlu

>  <FULL_NAME>  (4445) 
Gamma-L-Glutamic acid

>  <IUPAC_CONDENSED>  (4445) 
gGlu

>  <IUPAC>  (4445) 
(2S)-2-aminopentanedioic acid

>  <TYPE>  (4445) 
Backbone

>  <CLASS>  (4445) 
gamma

>  <ANALOG>  (4445) 
Glu

>  <MOL_WT>  (4445) 
147.13

>  <LOGP>  (4445) 
-0.7369000000000001

>  <TPSA>  (4445) 
100.62000000000002

>  <POPULARITY>  (4445) 
28.9

>  <PROTECTED>  (4445) 
FALSE

>  <SMILES>  (4445) 
N[C@H](C(=O)O)CCC(=O)O

>  <INCHIKEY>  (4445) 
WHUUTDBJXJRKMK-VKHMYHEASA-N

$$$$
ghGlu
     RDKit          2D

 12 11  0  0  0  0  0  0  0  0999 V2000
    0.0000    2.0000    0.0000 N   0  0  0  0  0  0  0  0  0  0  0  0
    0.0000    0.5000    0.0000 C   0  0  0  0  0  0  0  0  0  0  0  0
    1.2990   -0.2500    0.0000 C   0  0  0  0  0  0  0  0  0  0  0  0
    2.5981    0.5000    0.0000 C   0  0  0  0  0  0  0  0  0  0  0  0
    3.8971   -0.2500    0.0000 C   0  0  0  0  0  0  0  0  0  0  0  0
    3.8971   -1.7500    0.0000 O   0  0  0  0  0  0  0  0  0  0  0  0
    5.1962    0.5000    0.0000 O   0  0  0  0  0  0  0  0  0  0  0  0
   -1.2990   -0.2500    0.0000 C   0  0  0  0  0  0  0  0  0  0  0  0
   -2.5981    0.5000    0.0000 C   0  0  0  0  0  0  0  0  0  0  0  0
   -3.8971   -0.2500    0.0000 C   0  0  0  0  0  0  0  0  0  0  0  0
   -3.8971   -1.7500    0.0000 O   0  0  0  0  0  0  0  0  0  0  0  0
   -5.1962    0.5000    0.0000 O   0  0  0  0  0  0  0  0  0  0  0  0
  1  2  1  0
  2  3  1  0
  3  4  1  0
  4  5  1  0
  5  6  2  0
  5  7  1  0
  2  8  1  0
  8  9  1  0
  9 10  1  0
 10 11  2  0
 10 12  1  0
M  END
>  <rName>  (4446) 
ghGlu

>  <PQ_SYMBOL>  (4446) 
ghGlu

>  <FULL_NAME>  (4446) 
L-4-Aminoheptanedioic acid

>  <IUPAC_CONDENSED>  (4446) 
ghGlu

>  <IUPAC>  (4446) 
4-aminoheptanedioic acid

>  <TYPE>  (4446) 
Backbone

>  <CLASS>  (4446) 
gamma

>  <ANALOG>  (4446) 
Glu

>  <MOL_WT>  (4446) 
175.18399999999997

>  <LOGP>  (4446) 
0.04329999999999962

>  <TPSA>  (4446) 
100.62000000000002

>  <POPULARITY>  (4446) 
8.3

>  <PROTECTED>  (4446) 
TRUE

>  <SMILES>  (4446) 
NC(CCC(=O)O)CCC(=O)O

>  <INCHIKEY>  (4446) 
DMAJAXIBHLWSQM-UHFFFAOYSA-N

$$$$
hArg
     RDKit          2D

 13 12  0  0  0  0  0  0  0  0999 V2000
   -2.9072    1.8790    0.0000 N   0  0  0  0  0  0  0  0  0  0  0  0
   -2.9824    0.3808    0.0000 C   0  0  0  0  0  0  0  0  0  0  0  0
   -1.7226   -0.4334    0.0000 C   0  0  0  0  0  0  0  0  0  0  0  0
   -0.3876    0.2505    0.0000 C   0  0  0  0  0  0  0  0  0  0  0  0
    0.8722   -0.5637    0.0000 C   0  0  0  0  0  0  0  0  0  0  0  0
    2.2072    0.1202    0.0000 C   0  0  0  0  0  0  0  0  0  0  0  0
    3.4670   -0.6940    0.0000 N   0  0  0  0  0  0  0  0  0  0  0  0
    4.8020   -0.0101    0.0000 C   0  0  0  0  0  0  0  0  0  0  0  0
    4.8772    1.4880    0.0000 N   0  0  0  0  0  0  0  0  0  0  0  0
    6.0618   -0.8243    0.0000 N   0  0  0  0  0  0  0  0  0  0  0  0
   -4.3175   -0.3030    0.0000 C   0  0  0  0  0  0  0  0  0  0  0  0
   -4.3927   -1.8012    0.0000 O   0  0  0  0  0  0  0  0  0  0  0  0
   -5.5772    0.5112    0.0000 O   0  0  0  0  0  0  0  0  0  0  0  0
  2  1  1  1
  2  3  1  0
  3  4  1  0
  4  5  1  0
  5  6  1  0
  6  7  1  0
  7  8  1  0
  8  9  2  0
  8 10  1  0
  2 11  1  0
 11 12  2  0
 11 13  1  0
M  END
>  <rName>  (4447) 
hArg

>  <PQ_SYMBOL>  (4447) 
hArg

>  <FULL_NAME>  (4447) 
Homo-L-Arginine

>  <IUPAC_CONDENSED>  (4447) 
hArg

>  <IUPAC>  (4447) 
(2S)-2-amino-6-(((amino)(imino)methyl)amino)hexanoic acid

>  <TYPE>  (4447) 
Backbone

>  <CLASS>  (4447) 
alpha

>  <ANALOG>  (4447) 
Arg

>  <MOL_WT>  (4447) 
188.231

>  <LOGP>  (4447) 
-0.9483299999999986

>  <TPSA>  (4447) 
125.22000000000001

>  <POPULARITY>  (4447) 
36.0

>  <PROTECTED>  (4447) 
TRUE

>  <SMILES>  (4447) 
N[C@@H](CCCCNC(=N)N)C(=O)O

>  <INCHIKEY>  (4447) 
QUOGESRFPZDMMT-YFKPBYRVSA-N

$$$$
hArg_Et
     RDKit          2D

 15 14  0  0  0  0  0  0  0  0999 V2000
   -4.0303    1.8403    0.0000 N   0  0  0  0  0  0  0  0  0  0  0  0
   -4.0637    0.3406    0.0000 C   0  0  0  0  0  0  0  0  0  0  0  0
   -2.7817   -0.4381    0.0000 C   0  0  0  0  0  0  0  0  0  0  0  0
   -1.4663    0.2827    0.0000 C   0  0  0  0  0  0  0  0  0  0  0  0
   -0.1843   -0.4960    0.0000 C   0  0  0  0  0  0  0  0  0  0  0  0
    1.1311    0.2249    0.0000 C   0  0  0  0  0  0  0  0  0  0  0  0
    2.4131   -0.5539    0.0000 N   0  0  0  0  0  0  0  0  0  0  0  0
    3.7286    0.1670    0.0000 C   0  0  0  0  0  0  0  0  0  0  0  0
    3.7620    1.6666    0.0000 N   0  0  0  0  0  0  0  0  0  0  0  0
    5.0106   -0.6118    0.0000 N   0  0  0  0  0  0  0  0  0  0  0  0
    6.3260    0.1091    0.0000 C   0  0  0  0  0  0  0  0  0  0  0  0
    7.6080   -0.6697    0.0000 C   0  0  0  0  0  0  0  0  0  0  0  0
   -5.3792   -0.3802    0.0000 C   0  0  0  0  0  0  0  0  0  0  0  0
   -5.4126   -1.8799    0.0000 O   0  0  0  0  0  0  0  0  0  0  0  0
   -6.6612    0.3985    0.0000 O   0  0  0  0  0  0  0  0  0  0  0  0
  2  1  1  1
  2  3  1  0
  3  4  1  0
  4  5  1  0
  5  6  1  0
  6  7  1  0
  7  8  1  0
  8  9  1  0
  8 10  2  0
 10 11  1  0
 11 12  1  0
  2 13  1  0
 13 14  2  0
 13 15  1  0
M  END
>  <rName>  (4448) 
hArg_Et

>  <PQ_SYMBOL>  (4448) 
hArg_Et

>  <FULL_NAME>  (4448) 
(2S)-2-amino-6-[[amino(ethylamino)methylidene]amino]hexanoic acid

>  <IUPAC_CONDENSED>  (4448) 
hArg(Et)

>  <IUPAC>  (4448) 
(2S)-2-amino-6-[[amino(ethylamino)methylidene]amino]hexanoic acid

>  <TYPE>  (4448) 
Backbone

>  <CLASS>  (4448) 
alpha

>  <ANALOG>  (4448) 
Arg

>  <MOL_WT>  (4448) 
216.285

>  <LOGP>  (4448) 
-0.5071999999999985

>  <TPSA>  (4448) 
113.73

>  <POPULARITY>  (4448) 
2.2

>  <PROTECTED>  (4448) 
TRUE

>  <SMILES>  (4448) 
N[C@@H](CCCCN/C(/N)=N/CC)C(=O)O

>  <INCHIKEY>  (4448) 
HIGNBDUZVLUIPS-ZETCQYMHSA-N

$$$$
hArg_Et_Et
     RDKit          2D

 17 16  0  0  0  0  0  0  0  0999 V2000
    4.2245   -1.5752    0.0000 N   0  0  0  0  0  0  0  0  0  0  0  0
    4.2042   -0.0754    0.0000 C   0  0  0  0  0  0  0  0  0  0  0  0
    2.8951    0.6570    0.0000 C   0  0  0  0  0  0  0  0  0  0  0  0
    1.6063   -0.1106    0.0000 C   0  0  0  0  0  0  0  0  0  0  0  0
    0.2973    0.6217    0.0000 C   0  0  0  0  0  0  0  0  0  0  0  0
   -0.9915   -0.1458    0.0000 C   0  0  0  0  0  0  0  0  0  0  0  0
   -2.3006    0.5865    0.0000 N   0  0  0  0  0  0  0  0  0  0  0  0
   -3.5893   -0.1810    0.0000 C   0  0  0  0  0  0  0  0  0  0  0  0
   -4.8984    0.5513    0.0000 N   0  0  0  0  0  0  0  0  0  0  0  0
   -4.9188    2.0511    0.0000 C   0  0  0  0  0  0  0  0  0  0  0  0
   -6.2278    2.7835    0.0000 C   0  0  0  0  0  0  0  0  0  0  0  0
   -3.5690   -1.6809    0.0000 N   0  0  0  0  0  0  0  0  0  0  0  0
   -2.2599   -2.4132    0.0000 C   0  0  0  0  0  0  0  0  0  0  0  0
   -2.2396   -3.9131    0.0000 C   0  0  0  0  0  0  0  0  0  0  0  0
    5.4929    0.6922    0.0000 C   0  0  0  0  0  0  0  0  0  0  0  0
    5.4726    2.1920    0.0000 O   0  0  0  0  0  0  0  0  0  0  0  0
    6.8020   -0.0401    0.0000 O   0  0  0  0  0  0  0  0  0  0  0  0
  2  1  1  1
  2  3  1  0
  3  4  1  0
  4  5  1  0
  5  6  1  0
  6  7  1  0
  7  8  1  0
  8  9  2  3
  9 10  1  0
 10 11  1  0
  8 12  1  0
 12 13  1  0
 13 14  1  0
  2 15  1  0
 15 16  2  0
 15 17  1  0
M  END
>  <rName>  (4449) 
hArg_Et_Et

>  <PQ_SYMBOL>  (4449) 
hArg_Et_Et

>  <FULL_NAME>  (4449) 
N6-(Bis(ethylamino)methylene)-L-lysine

>  <IUPAC_CONDENSED>  (4449) 
hArg(Et,Et)

>  <IUPAC>  (4449) 
(2S)-2-amino-6-(((ethylamino)(ethylimino)methyl)amino)hexanoic acid

>  <TYPE>  (4449) 
Backbone

>  <CLASS>  (4449) 
alpha

>  <ANALOG>  (4449) 
Arg

>  <MOL_WT>  (4449) 
244.339

>  <LOGP>  (4449) 
0.143600000000001

>  <TPSA>  (4449) 
99.74

>  <POPULARITY>  (4449) 
12.5

>  <PROTECTED>  (4449) 
TRUE

>  <SMILES>  (4449) 
N[C@@H](CCCCNC(=NCC)NCC)C(=O)O

>  <INCHIKEY>  (4449) 
PWLYCRQCVMQUBU-VIFPVBQESA-N

$$$$
hArg_Me
     RDKit          2D

 14 13  0  0  0  0  0  0  0  0999 V2000
    3.4434   -1.8746    0.0000 N   0  0  0  0  0  0  0  0  0  0  0  0
    3.5124   -0.3762    0.0000 C   0  0  0  0  0  0  0  0  0  0  0  0
    2.2492    0.4328    0.0000 C   0  0  0  0  0  0  0  0  0  0  0  0
    0.9171   -0.2567    0.0000 C   0  0  0  0  0  0  0  0  0  0  0  0
   -0.3461    0.5522    0.0000 C   0  0  0  0  0  0  0  0  0  0  0  0
   -1.6783   -0.1373    0.0000 C   0  0  0  0  0  0  0  0  0  0  0  0
   -2.9415    0.6717    0.0000 N   0  0  0  0  0  0  0  0  0  0  0  0
   -4.2736   -0.0178    0.0000 C   0  0  0  0  0  0  0  0  0  0  0  0
   -4.3426   -1.5162    0.0000 N   0  0  0  0  0  0  0  0  0  0  0  0
   -5.5368    0.7911    0.0000 N   0  0  0  0  0  0  0  0  0  0  0  0
   -6.8689    0.1016    0.0000 C   0  0  0  0  0  0  0  0  0  0  0  0
    4.8445    0.3133    0.0000 C   0  0  0  0  0  0  0  0  0  0  0  0
    4.9135    1.8117    0.0000 O   0  0  0  0  0  0  0  0  0  0  0  0
    6.1077   -0.4956    0.0000 O   0  0  0  0  0  0  0  0  0  0  0  0
  2  1  1  1
  2  3  1  0
  3  4  1  0
  4  5  1  0
  5  6  1  0
  6  7  1  0
  7  8  1  0
  8  9  2  0
  8 10  1  0
 10 11  1  0
  2 12  1  0
 12 13  2  0
 12 14  1  0
M  END
>  <rName>  (4450) 
hArg_Me

>  <PQ_SYMBOL>  (4450) 
hArg_Me

>  <FULL_NAME>  (4450) 
(2S)-2-amino-6-[(N'-methylcarbamimidoyl)amino]hexanoic acid

>  <IUPAC_CONDENSED>  (4450) 
hArg(Me)

>  <IUPAC>  (4450) 
(2S)-2-amino-6-(((imino)(methylamino)methyl)amino)hexanoic acid

>  <TYPE>  (4450) 
Backbone

>  <CLASS>  (4450) 
alpha

>  <ANALOG>  (4450) 
Arg

>  <MOL_WT>  (4450) 
202.258

>  <LOGP>  (4450) 
-0.6876299999999986

>  <TPSA>  (4450) 
111.23

>  <POPULARITY>  (4450) 
8.0

>  <PROTECTED>  (4450) 
TRUE

>  <SMILES>  (4450) 
N[C@@H](CCCCNC(=N)NC)C(=O)O

>  <INCHIKEY>  (4450) 
BISBENXUJVLWNC-LURJTMIESA-N

$$$$
hArg_OH
     RDKit          2D

 14 13  0  0  0  0  0  0  0  0999 V2000
   -3.4434    1.8746    0.0000 N   0  0  0  0  0  0  0  0  0  0  0  0
   -3.5124    0.3762    0.0000 C   0  0  0  0  0  0  0  0  0  0  0  0
   -2.2492   -0.4328    0.0000 C   0  0  0  0  0  0  0  0  0  0  0  0
   -0.9171    0.2567    0.0000 C   0  0  0  0  0  0  0  0  0  0  0  0
    0.3461   -0.5522    0.0000 C   0  0  0  0  0  0  0  0  0  0  0  0
    1.6783    0.1373    0.0000 C   0  0  0  0  0  0  0  0  0  0  0  0
    2.9415   -0.6717    0.0000 N   0  0  0  0  0  0  0  0  0  0  0  0
    4.2736    0.0178    0.0000 C   0  0  0  0  0  0  0  0  0  0  0  0
    4.3426    1.5162    0.0000 N   0  0  0  0  0  0  0  0  0  0  0  0
    5.5368   -0.7911    0.0000 N   0  0  0  0  0  0  0  0  0  0  0  0
    6.8689   -0.1016    0.0000 O   0  0  0  0  0  0  0  0  0  0  0  0
   -4.8445   -0.3133    0.0000 C   0  0  0  0  0  0  0  0  0  0  0  0
   -4.9135   -1.8117    0.0000 O   0  0  0  0  0  0  0  0  0  0  0  0
   -6.1077    0.4956    0.0000 O   0  0  0  0  0  0  0  0  0  0  0  0
  2  1  1  1
  2  3  1  0
  3  4  1  0
  4  5  1  0
  5  6  1  0
  6  7  1  0
  7  8  1  0
  8  9  1  0
  8 10  2  0
 10 11  1  0
  2 12  1  0
 12 13  2  0
 12 14  1  0
M  END
>  <rName>  (4451) 
hArg_OH

>  <PQ_SYMBOL>  (4451) 
hArg_OH

>  <FULL_NAME>  (4451) 
(2S)-2-amino-6-[[amino-(hydroxyamino)methylidene]amino]hexanoic acid

>  <IUPAC_CONDENSED>  (4451) 
hArg(OH)

>  <IUPAC>  (4451) 
(2S)-2-amino-6-[[amino-(hydroxyamino)methylidene]amino]hexanoic acid

>  <TYPE>  (4451) 
Backbone

>  <CLASS>  (4451) 
alpha

>  <ANALOG>  (4451) 
Arg

>  <MOL_WT>  (4451) 
204.23000000000002

>  <LOGP>  (4451) 
-1.1378999999999984

>  <TPSA>  (4451) 
133.95999999999998

>  <POPULARITY>  (4451) 
3.5

>  <PROTECTED>  (4451) 
TRUE

>  <SMILES>  (4451) 
N[C@@H](CCCCN/C(/N)=N/O)C(=O)O

>  <INCHIKEY>  (4451) 
ZRHZMTIGDNNBIE-YFKPBYRVSA-N

$$$$
hCit
     RDKit          2D

 13 12  0  0  0  0  0  0  0  0999 V2000
   -2.9072    1.8790    0.0000 N   0  0  0  0  0  0  0  0  0  0  0  0
   -2.9824    0.3808    0.0000 C   0  0  0  0  0  0  0  0  0  0  0  0
   -1.7226   -0.4334    0.0000 C   0  0  0  0  0  0  0  0  0  0  0  0
   -0.3876    0.2505    0.0000 C   0  0  0  0  0  0  0  0  0  0  0  0
    0.8722   -0.5637    0.0000 C   0  0  0  0  0  0  0  0  0  0  0  0
    2.2072    0.1202    0.0000 C   0  0  0  0  0  0  0  0  0  0  0  0
    3.4670   -0.6940    0.0000 N   0  0  0  0  0  0  0  0  0  0  0  0
    4.8020   -0.0101    0.0000 C   0  0  0  0  0  0  0  0  0  0  0  0
    4.8772    1.4880    0.0000 O   0  0  0  0  0  0  0  0  0  0  0  0
    6.0618   -0.8243    0.0000 N   0  0  0  0  0  0  0  0  0  0  0  0
   -4.3175   -0.3030    0.0000 C   0  0  0  0  0  0  0  0  0  0  0  0
   -4.3927   -1.8012    0.0000 O   0  0  0  0  0  0  0  0  0  0  0  0
   -5.5772    0.5112    0.0000 O   0  0  0  0  0  0  0  0  0  0  0  0
  2  1  1  1
  2  3  1  0
  3  4  1  0
  4  5  1  0
  5  6  1  0
  6  7  1  0
  7  8  1  0
  8  9  2  0
  8 10  1  0
  2 11  1  0
 11 12  2  0
 11 13  1  0
M  END
>  <rName>  (4452) 
hCit

>  <PQ_SYMBOL>  (4452) 
hCit

>  <FULL_NAME>  (4452) 
L-Homocitrulline

>  <IUPAC_CONDENSED>  (4452) 
hCit

>  <IUPAC>  (4452) 
(2S)-2-amino-6-(carbamoylamino)hexanoic acid

>  <TYPE>  (4452) 
Backbone

>  <CLASS>  (4452) 
alpha

>  <ANALOG>  (4452) 
Arg

>  <MOL_WT>  (4452) 
189.215

>  <LOGP>  (4452) 
-0.7630999999999994

>  <TPSA>  (4452) 
118.44000000000001

>  <POPULARITY>  (4452) 
16.8

>  <PROTECTED>  (4452) 
TRUE

>  <SMILES>  (4452) 
N[C@@H](CCCCNC(=O)N)C(=O)O

>  <INCHIKEY>  (4452) 
XIGSAGMEBXLVJJ-YFKPBYRVSA-N

$$$$
hCit_OH
     RDKit          2D

 14 13  0  0  0  0  0  0  0  0999 V2000
   -3.4434    1.8746    0.0000 N   0  0  0  0  0  0  0  0  0  0  0  0
   -3.5124    0.3762    0.0000 C   0  0  0  0  0  0  0  0  0  0  0  0
   -2.2492   -0.4328    0.0000 C   0  0  0  0  0  0  0  0  0  0  0  0
   -0.9171    0.2567    0.0000 C   0  0  0  0  0  0  0  0  0  0  0  0
    0.3461   -0.5522    0.0000 C   0  0  0  0  0  0  0  0  0  0  0  0
    1.6783    0.1373    0.0000 C   0  0  0  0  0  0  0  0  0  0  0  0
    2.9415   -0.6717    0.0000 N   0  0  0  0  0  0  0  0  0  0  0  0
    4.2736    0.0178    0.0000 C   0  0  0  0  0  0  0  0  0  0  0  0
    4.3426    1.5162    0.0000 O   0  0  0  0  0  0  0  0  0  0  0  0
    5.5368   -0.7911    0.0000 N   0  0  0  0  0  0  0  0  0  0  0  0
    6.8689   -0.1016    0.0000 O   0  0  0  0  0  0  0  0  0  0  0  0
   -4.8445   -0.3133    0.0000 C   0  0  0  0  0  0  0  0  0  0  0  0
   -4.9135   -1.8117    0.0000 O   0  0  0  0  0  0  0  0  0  0  0  0
   -6.1077    0.4956    0.0000 O   0  0  0  0  0  0  0  0  0  0  0  0
  2  1  1  1
  2  3  1  0
  3  4  1  0
  4  5  1  0
  5  6  1  0
  6  7  1  0
  7  8  1  0
  8  9  2  0
  8 10  1  0
 10 11  1  0
  2 12  1  0
 12 13  2  0
 12 14  1  0
M  END
>  <rName>  (4453) 
hCit_OH

>  <PQ_SYMBOL>  (4453) 
hCit_OH

>  <FULL_NAME>  (4453) 
hCit(OH)

>  <IUPAC_CONDENSED>  (4453) 
hCit(OH)

>  <IUPAC>  (4453) 
(2S)-2-amino-6-(hydroxycarbamoylamino)hexanoic acid

>  <TYPE>  (4453) 
Backbone

>  <CLASS>  (4453) 
alpha

>  <ANALOG>  (4453) 
Arg

>  <MOL_WT>  (4453) 
205.21400000000003

>  <LOGP>  (4453) 
-0.7429999999999992

>  <TPSA>  (4453) 
124.67999999999999

>  <POPULARITY>  (4453) 
3.5

>  <PROTECTED>  (4453) 
TRUE

>  <SMILES>  (4453) 
N[C@@H](CCCCNC(=O)NO)C(=O)O

>  <INCHIKEY>  (4453) 
OYYSQMULPYLJNM-YFKPBYRVSA-N

$$$$
hGln
     RDKit          2D

 11 10  0  0  0  0  0  0  0  0999 V2000
   -1.6269    1.8430    0.0000 N   0  0  0  0  0  0  0  0  0  0  0  0
   -1.7489    0.3480    0.0000 C   0  0  0  0  0  0  0  0  0  0  0  0
   -0.5152   -0.5052    0.0000 C   0  0  0  0  0  0  0  0  0  0  0  0
    0.8406    0.1366    0.0000 C   0  0  0  0  0  0  0  0  0  0  0  0
    2.0743   -0.7166    0.0000 C   0  0  0  0  0  0  0  0  0  0  0  0
    3.4300   -0.0748    0.0000 C   0  0  0  0  0  0  0  0  0  0  0  0
    3.5521    1.4203    0.0000 O   0  0  0  0  0  0  0  0  0  0  0  0
    4.6637   -0.9280    0.0000 N   0  0  0  0  0  0  0  0  0  0  0  0
   -3.1047   -0.2938    0.0000 C   0  0  0  0  0  0  0  0  0  0  0  0
   -3.2267   -1.7889    0.0000 O   0  0  0  0  0  0  0  0  0  0  0  0
   -4.3384    0.5594    0.0000 O   0  0  0  0  0  0  0  0  0  0  0  0
  2  1  1  1
  2  3  1  0
  3  4  1  0
  4  5  1  0
  5  6  1  0
  6  7  2  0
  6  8  1  0
  2  9  1  0
  9 10  2  0
  9 11  1  0
M  END
>  <rName>  (4454) 
hGln

>  <PQ_SYMBOL>  (4454) 
hGln

>  <FULL_NAME>  (4454) 
Homo-L-Glutamine

>  <IUPAC_CONDENSED>  (4454) 
hGln

>  <IUPAC>  (4454) 
(2S)-2-amino-5-carbamoylpentanoic acid

>  <TYPE>  (4454) 
Backbone

>  <CLASS>  (4454) 
alpha

>  <ANALOG>  (4454) 
Lys

>  <MOL_WT>  (4454) 
160.173

>  <LOGP>  (4454) 
-0.9460999999999993

>  <TPSA>  (4454) 
106.41000000000001

>  <POPULARITY>  (4454) 
10.1

>  <PROTECTED>  (4454) 
TRUE

>  <SMILES>  (4454) 
N[C@@H](CCCC(=O)N)C(=O)O

>  <INCHIKEY>  (4454) 
YZJSUQQZGCHHNQ-BYPYZUCNSA-N

$$$$
hHis
     RDKit          2D

 12 12  0  0  0  0  0  0  0  0999 V2000
   -2.2999   -1.9362    0.0000 N   0  0  0  0  0  0  0  0  0  0  0  0
   -2.0700   -0.4539    0.0000 C   0  0  0  0  0  0  0  0  0  0  0  0
   -0.6714    0.0881    0.0000 C   0  0  0  0  0  0  0  0  0  0  0  0
    0.4974   -0.8521    0.0000 C   0  0  0  0  0  0  0  0  0  0  0  0
    1.8960   -0.3101    0.0000 C   0  0  0  0  0  0  0  0  0  0  0  0
    3.1566   -1.1230    0.0000 C   0  0  0  0  0  0  0  0  0  0  0  0
    4.3193   -0.1753    0.0000 N   0  0  0  0  0  0  0  0  0  0  0  0
    3.7773    1.2234    0.0000 C   0  0  0  0  0  0  0  0  0  0  0  0
    2.2796    1.1400    0.0000 N   0  0  0  0  0  0  0  0  0  0  0  0
   -3.2387    0.4863    0.0000 C   0  0  0  0  0  0  0  0  0  0  0  0
   -3.0088    1.9686    0.0000 O   0  0  0  0  0  0  0  0  0  0  0  0
   -4.6374   -0.0557    0.0000 O   0  0  0  0  0  0  0  0  0  0  0  0
  2  1  1  6
  2  3  1  0
  3  4  1  0
  4  5  1  0
  5  6  2  0
  6  7  1  0
  7  8  2  0
  8  9  1  0
  2 10  1  0
 10 11  2  0
 10 12  1  0
  9  5  1  0
M  END
>  <rName>  (4455) 
hHis

>  <PQ_SYMBOL>  (4455) 
hHis

>  <FULL_NAME>  (4455) 
L-Homohistidine

>  <IUPAC_CONDENSED>  (4455) 
hHis

>  <IUPAC>  (4455) 
(2S)-2-amino-4-(1H-imidazol-5-yl)butanoic acid

>  <TYPE>  (4455) 
Backbone

>  <CLASS>  (4455) 
alpha

>  <ANALOG>  (4455) 
His

>  <MOL_WT>  (4455) 
169.184

>  <LOGP>  (4455) 
-0.24580000000000074

>  <TPSA>  (4455) 
92.0

>  <POPULARITY>  (4455) 
4.3

>  <PROTECTED>  (4455) 
TRUE

>  <SMILES>  (4455) 
N[C@@H](CCc1(cnc[nH]1))C(=O)O

>  <INCHIKEY>  (4455) 
MSECZMWQBBVGEN-LURJTMIESA-N

$$$$
hLeu
     RDKit          2D

 10  9  0  0  0  0  0  0  0  0999 V2000
    1.2717    1.9622    0.0000 N   0  0  0  0  0  0  0  0  0  0  0  0
    1.1946    0.4642    0.0000 C   0  0  0  0  0  0  0  0  0  0  0  0
   -0.1413   -0.2180    0.0000 C   0  0  0  0  0  0  0  0  0  0  0  0
   -1.4001    0.5978    0.0000 C   0  0  0  0  0  0  0  0  0  0  0  0
   -2.7359   -0.0845    0.0000 C   0  0  0  0  0  0  0  0  0  0  0  0
   -3.9947    0.7313    0.0000 C   0  0  0  0  0  0  0  0  0  0  0  0
   -2.8131   -1.5825    0.0000 C   0  0  0  0  0  0  0  0  0  0  0  0
    2.4533   -0.3516    0.0000 C   0  0  0  0  0  0  0  0  0  0  0  0
    2.3762   -1.8496    0.0000 O   0  0  0  0  0  0  0  0  0  0  0  0
    3.7892    0.3306    0.0000 O   0  0  0  0  0  0  0  0  0  0  0  0
  2  1  1  6
  2  3  1  0
  3  4  1  0
  4  5  1  0
  5  6  1  0
  5  7  1  0
  2  8  1  0
  8  9  2  0
  8 10  1  0
M  END
>  <rName>  (4456) 
hLeu

>  <PQ_SYMBOL>  (4456) 
hLeu

>  <FULL_NAME>  (4456) 
Homo-L-Leucine

>  <IUPAC_CONDENSED>  (4456) 
hLeu

>  <IUPAC>  (4456) 
(2S)-2-amino-5-methylhexanoic acid

>  <TYPE>  (4456) 
Backbone

>  <CLASS>  (4456) 
alpha

>  <ANALOG>  (4456) 
Leu

>  <MOL_WT>  (4456) 
145.202

>  <LOGP>  (4456) 
0.8344999999999998

>  <TPSA>  (4456) 
63.32000000000001

>  <POPULARITY>  (4456) 
35.4

>  <PROTECTED>  (4456) 
TRUE

>  <SMILES>  (4456) 
N[C@@H](CCC(C)C)C(=O)O

>  <INCHIKEY>  (4456) 
FMUMEWVNYMUECA-LURJTMIESA-N

$$$$
hLeu_45dehydro
     RDKit          2D

 10  9  0  0  0  0  0  0  0  0999 V2000
    1.2717    1.9622    0.0000 N   0  0  0  0  0  0  0  0  0  0  0  0
    1.1946    0.4642    0.0000 C   0  0  0  0  0  0  0  0  0  0  0  0
   -0.1413   -0.2180    0.0000 C   0  0  0  0  0  0  0  0  0  0  0  0
   -1.4001    0.5978    0.0000 C   0  0  0  0  0  0  0  0  0  0  0  0
   -2.7359   -0.0845    0.0000 C   0  0  0  0  0  0  0  0  0  0  0  0
   -3.9947    0.7313    0.0000 C   0  0  0  0  0  0  0  0  0  0  0  0
   -2.8131   -1.5825    0.0000 C   0  0  0  0  0  0  0  0  0  0  0  0
    2.4533   -0.3516    0.0000 C   0  0  0  0  0  0  0  0  0  0  0  0
    2.3762   -1.8496    0.0000 O   0  0  0  0  0  0  0  0  0  0  0  0
    3.7892    0.3306    0.0000 O   0  0  0  0  0  0  0  0  0  0  0  0
  2  1  1  6
  2  3  1  0
  3  4  1  0
  4  5  2  0
  5  6  1  0
  5  7  1  0
  2  8  1  0
  8  9  2  0
  8 10  1  0
M  END
>  <rName>  (4457) 
hLeu_45dehydro

>  <PQ_SYMBOL>  (4457) 
hLeu_45dehydro

>  <FULL_NAME>  (4457) 
(S)-2-amino-5-methylhex-4-enoic acid

>  <IUPAC_CONDENSED>  (4457) 
hLeu(4,5-dehydro)

>  <IUPAC>  (4457) 
(2S)-2-amino-5-methylhex-4-enoic acid

>  <TYPE>  (4457) 
Backbone

>  <CLASS>  (4457) 
alpha

>  <ANALOG>  (4457) 
Leu

>  <MOL_WT>  (4457) 
143.186

>  <LOGP>  (4457) 
0.7545999999999999

>  <TPSA>  (4457) 
63.32000000000001

>  <POPULARITY>  (4457) 
7.9

>  <PROTECTED>  (4457) 
TRUE

>  <SMILES>  (4457) 
N[C@@H](CC=C(C)C)C(=O)O

>  <INCHIKEY>  (4457) 
XRARHOAIGIRUNR-LURJTMIESA-N

$$$$
hLeu_Et_Et
     RDKit          2D

 14 13  0  0  0  0  0  0  0  0999 V2000
    1.5443    2.5247    0.0000 N   0  0  0  0  0  0  0  0  0  0  0  0
    1.8602    1.0584    0.0000 C   0  0  0  0  0  0  0  0  0  0  0  0
    0.7482    0.0516    0.0000 C   0  0  0  0  0  0  0  0  0  0  0  0
   -0.6796    0.5112    0.0000 C   0  0  0  0  0  0  0  0  0  0  0  0
   -1.7916   -0.4956    0.0000 C   0  0  0  0  0  0  0  0  0  0  0  0
   -3.2194   -0.0360    0.0000 C   0  0  0  0  0  0  0  0  0  0  0  0
   -3.5353    1.4304    0.0000 C   0  0  0  0  0  0  0  0  0  0  0  0
   -4.9632    1.8900    0.0000 C   0  0  0  0  0  0  0  0  0  0  0  0
   -1.4757   -1.9619    0.0000 C   0  0  0  0  0  0  0  0  0  0  0  0
   -0.0478   -2.4215    0.0000 C   0  0  0  0  0  0  0  0  0  0  0  0
    0.2681   -3.8879    0.0000 C   0  0  0  0  0  0  0  0  0  0  0  0
    3.2880    0.5988    0.0000 C   0  0  0  0  0  0  0  0  0  0  0  0
    3.6039   -0.8676    0.0000 O   0  0  0  0  0  0  0  0  0  0  0  0
    4.4000    1.6055    0.0000 O   0  0  0  0  0  0  0  0  0  0  0  0
  2  1  1  6
  2  3  1  0
  3  4  1  0
  4  5  1  0
  5  6  1  0
  6  7  1  0
  7  8  1  0
  5  9  1  0
  9 10  1  0
 10 11  1  0
  2 12  1  0
 12 13  2  0
 12 14  1  0
M  END
>  <rName>  (4458) 
hLeu_Et_Et

>  <PQ_SYMBOL>  (4458) 
hLeu_Et_Et

>  <FULL_NAME>  (4458) 
hLeu(Et,Et)

>  <IUPAC_CONDENSED>  (4458) 
hLeu(Et,Et)

>  <IUPAC>  (4458) 
(2S)-2-amino-5-propyloctanoic acid

>  <TYPE>  (4458) 
Backbone

>  <CLASS>  (4458) 
alpha

>  <ANALOG>  (4458) 
X

>  <MOL_WT>  (4458) 
201.30999999999997

>  <LOGP>  (4458) 
2.3949

>  <TPSA>  (4458) 
63.32000000000001

>  <POPULARITY>  (4458) 
2.2

>  <PROTECTED>  (4458) 
TRUE

>  <SMILES>  (4458) 
N[C@@H](CCC(CCC)CCC)C(=O)O

>  <INCHIKEY>  (4458) 
OKVCRQOEYRJXSZ-JTQLQIEISA-N

$$$$
hLeu_Me
     RDKit          2D

 11 10  0  0  0  0  0  0  0  0999 V2000
    1.5275    1.9644    0.0000 N   0  0  0  0  0  0  0  0  0  0  0  0
    1.4450    0.4666    0.0000 C   0  0  0  0  0  0  0  0  0  0  0  0
    0.1067   -0.2107    0.0000 C   0  0  0  0  0  0  0  0  0  0  0  0
   -1.1491    0.6096    0.0000 C   0  0  0  0  0  0  0  0  0  0  0  0
   -2.4875   -0.0678    0.0000 C   0  0  0  0  0  0  0  0  0  0  0  0
   -3.1649    1.2706    0.0000 C   0  0  0  0  0  0  0  0  0  0  0  0
   -1.8101   -1.4061    0.0000 C   0  0  0  0  0  0  0  0  0  0  0  0
   -3.8258   -0.7452    0.0000 C   0  0  0  0  0  0  0  0  0  0  0  0
    2.7008   -0.3537    0.0000 C   0  0  0  0  0  0  0  0  0  0  0  0
    2.6183   -1.8514    0.0000 O   0  0  0  0  0  0  0  0  0  0  0  0
    4.0391    0.3237    0.0000 O   0  0  0  0  0  0  0  0  0  0  0  0
  2  1  1  6
  2  3  1  0
  3  4  1  0
  4  5  1  0
  5  6  1  0
  5  7  1  0
  5  8  1  0
  2  9  1  0
  9 10  2  0
  9 11  1  0
M  END
>  <rName>  (4459) 
hLeu_Me

>  <PQ_SYMBOL>  (4459) 
hLeu_Me

>  <FULL_NAME>  (4459) 
(S)-2-amino-5,5-dimethylhexanoic acid

>  <IUPAC_CONDENSED>  (4459) 
hLeu(Me)

>  <IUPAC>  (4459) 
(2S)-2-amino-5,5-dimethylhexanoic acid

>  <TYPE>  (4459) 
Backbone

>  <CLASS>  (4459) 
alpha

>  <ANALOG>  (4459) 
Leu

>  <MOL_WT>  (4459) 
159.22899999999998

>  <LOGP>  (4459) 
1.2245999999999997

>  <TPSA>  (4459) 
63.32000000000001

>  <POPULARITY>  (4459) 
10.0

>  <PROTECTED>  (4459) 
TRUE

>  <SMILES>  (4459) 
N[C@@H](CCC(C)(C)C)C(=O)O

>  <INCHIKEY>  (4459) 
HMQBHFUPSBOCOE-LURJTMIESA-N

$$$$
hLeu_Me_Me
     RDKit          2D

 12 11  0  0  0  0  0  0  0  0999 V2000
   -1.5428    2.1238    0.0000 N   0  0  0  0  0  0  0  0  0  0  0  0
   -1.6008    0.6249    0.0000 C   0  0  0  0  0  0  0  0  0  0  0  0
   -0.3318   -0.1748    0.0000 C   0  0  0  0  0  0  0  0  0  0  0  0
    0.9953    0.5244    0.0000 C   0  0  0  0  0  0  0  0  0  0  0  0
    2.2644   -0.2753    0.0000 C   0  0  0  0  0  0  0  0  0  0  0  0
    3.5914    0.4239    0.0000 C   0  0  0  0  0  0  0  0  0  0  0  0
    3.6495    1.9227    0.0000 C   0  0  0  0  0  0  0  0  0  0  0  0
    2.2063   -1.7742    0.0000 C   0  0  0  0  0  0  0  0  0  0  0  0
    0.8792   -2.4734    0.0000 C   0  0  0  0  0  0  0  0  0  0  0  0
   -2.9279   -0.0743    0.0000 C   0  0  0  0  0  0  0  0  0  0  0  0
   -2.9859   -1.5732    0.0000 O   0  0  0  0  0  0  0  0  0  0  0  0
   -4.1969    0.7254    0.0000 O   0  0  0  0  0  0  0  0  0  0  0  0
  2  1  1  1
  2  3  1  0
  3  4  1  0
  4  5  1  0
  5  6  1  0
  6  7  1  0
  5  8  1  0
  8  9  1  0
  2 10  1  0
 10 11  2  0
 10 12  1  0
M  END
>  <rName>  (4460) 
hLeu_Me_Me

>  <PQ_SYMBOL>  (4460) 
hLeu_Me_Me

>  <FULL_NAME>  (4460) 
(S)-2-Amino-5-ethyl-heptanoic acid

>  <IUPAC_CONDENSED>  (4460) 
hLeu(Me,Me)

>  <IUPAC>  (4460) 
(2S)-2-amino-5-ethylheptanoic acid

>  <TYPE>  (4460) 
Backbone

>  <CLASS>  (4460) 
alpha

>  <ANALOG>  (4460) 
X

>  <MOL_WT>  (4460) 
173.25599999999997

>  <LOGP>  (4460) 
1.6147

>  <TPSA>  (4460) 
63.32000000000001

>  <POPULARITY>  (4460) 
2.2

>  <PROTECTED>  (4460) 
TRUE

>  <SMILES>  (4460) 
N[C@@H](CCC(CC)CC)C(=O)O

>  <INCHIKEY>  (4460) 
VEWYTBONEOPOMT-QMMMGPOBSA-N

$$$$
hLys
     RDKit          2D

 11 10  0  0  0  0  0  0  0  0999 V2000
   -1.9630    1.8884    0.0000 N   0  0  0  0  0  0  0  0  0  0  0  0
   -1.9989    0.3888    0.0000 C   0  0  0  0  0  0  0  0  0  0  0  0
   -0.7181   -0.3920    0.0000 C   0  0  0  0  0  0  0  0  0  0  0  0
    0.5985    0.3267    0.0000 C   0  0  0  0  0  0  0  0  0  0  0  0
    1.8792   -0.4541    0.0000 C   0  0  0  0  0  0  0  0  0  0  0  0
    3.1958    0.2646    0.0000 C   0  0  0  0  0  0  0  0  0  0  0  0
    4.4765   -0.5162    0.0000 C   0  0  0  0  0  0  0  0  0  0  0  0
    5.7931    0.2025    0.0000 N   0  0  0  0  0  0  0  0  0  0  0  0
   -3.3155   -0.3299    0.0000 C   0  0  0  0  0  0  0  0  0  0  0  0
   -3.3513   -1.8295    0.0000 O   0  0  0  0  0  0  0  0  0  0  0  0
   -4.5962    0.4509    0.0000 O   0  0  0  0  0  0  0  0  0  0  0  0
  2  1  1  1
  2  3  1  0
  3  4  1  0
  4  5  1  0
  5  6  1  0
  6  7  1  0
  7  8  1  0
  2  9  1  0
  9 10  2  0
  9 11  1  0
M  END
>  <rName>  (4461) 
hLys

>  <PQ_SYMBOL>  (4461) 
hLys

>  <FULL_NAME>  (4461) 
(2S)-2,7-diaminoheptanoic acid

>  <IUPAC_CONDENSED>  (4461) 
hLys

>  <IUPAC>  (4461) 
(2S)-2,7-diaminoheptanoic acid

>  <TYPE>  (4461) 
Backbone

>  <CLASS>  (4461) 
alpha

>  <ANALOG>  (4461) 
Lys

>  <MOL_WT>  (4461) 
160.217

>  <LOGP>  (4461) 
-0.08260000000000067

>  <TPSA>  (4461) 
89.34

>  <POPULARITY>  (4461) 
18.1

>  <PROTECTED>  (4461) 
TRUE

>  <SMILES>  (4461) 
N[C@@H](CCCCCN)C(=O)O

>  <INCHIKEY>  (4461) 
NMDDZEVVQDPECF-LURJTMIESA-N

$$$$
hLys_Ac
     RDKit          2D

 14 13  0  0  0  0  0  0  0  0999 V2000
   -3.6801    1.8657    0.0000 N   0  0  0  0  0  0  0  0  0  0  0  0
   -3.6323    0.3665    0.0000 C   0  0  0  0  0  0  0  0  0  0  0  0
   -2.3100   -0.3417    0.0000 C   0  0  0  0  0  0  0  0  0  0  0  0
   -1.0355    0.4493    0.0000 C   0  0  0  0  0  0  0  0  0  0  0  0
    0.2868   -0.2588    0.0000 C   0  0  0  0  0  0  0  0  0  0  0  0
    1.5612    0.5322    0.0000 C   0  0  0  0  0  0  0  0  0  0  0  0
    2.8835   -0.1760    0.0000 C   0  0  0  0  0  0  0  0  0  0  0  0
    4.1580    0.6151    0.0000 N   0  0  0  0  0  0  0  0  0  0  0  0
    5.4803   -0.0931    0.0000 C   0  0  0  0  0  0  0  0  0  0  0  0
    5.5281   -1.5923    0.0000 O   0  0  0  0  0  0  0  0  0  0  0  0
    6.7547    0.6980    0.0000 C   0  0  0  0  0  0  0  0  0  0  0  0
   -4.9067   -0.4246    0.0000 C   0  0  0  0  0  0  0  0  0  0  0  0
   -4.8589   -1.9238    0.0000 O   0  0  0  0  0  0  0  0  0  0  0  0
   -6.2290    0.2836    0.0000 O   0  0  0  0  0  0  0  0  0  0  0  0
  2  1  1  1
  2  3  1  0
  3  4  1  0
  4  5  1  0
  5  6  1  0
  6  7  1  0
  7  8  1  0
  8  9  1  0
  9 10  2  0
  9 11  1  0
  2 12  1  0
 12 13  2  0
 12 14  1  0
M  END
>  <rName>  (4462) 
hLys_Ac

>  <PQ_SYMBOL>  (4462) 
hLys_Ac

>  <FULL_NAME>  (4462) 
(2S)-7-acetamido-2-aminoheptanoic acid

>  <IUPAC_CONDENSED>  (4462) 
hLys(Ac)

>  <IUPAC>  (4462) 
(2S)-7-acetamido-2-aminoheptanoic acid

>  <TYPE>  (4462) 
Backbone

>  <CLASS>  (4462) 
alpha

>  <ANALOG>  (4462) 
Lys

>  <MOL_WT>  (4462) 
202.254

>  <LOGP>  (4462) 
0.09479999999999994

>  <TPSA>  (4462) 
92.42

>  <POPULARITY>  (4462) 
2.2

>  <PROTECTED>  (4462) 
TRUE

>  <SMILES>  (4462) 
N[C@@H](CCCCCNC(=O)C)C(=O)O

>  <INCHIKEY>  (4462) 
LRELGJPGKZDSNM-QMMMGPOBSA-N

$$$$
hLys_amidino
     RDKit          2D

 14 13  0  0  0  0  0  0  0  0999 V2000
    3.6801   -1.8657    0.0000 N   0  0  0  0  0  0  0  0  0  0  0  0
    3.6323   -0.3665    0.0000 C   0  0  0  0  0  0  0  0  0  0  0  0
    2.3100    0.3417    0.0000 C   0  0  0  0  0  0  0  0  0  0  0  0
    1.0355   -0.4493    0.0000 C   0  0  0  0  0  0  0  0  0  0  0  0
   -0.2868    0.2588    0.0000 C   0  0  0  0  0  0  0  0  0  0  0  0
   -1.5612   -0.5322    0.0000 C   0  0  0  0  0  0  0  0  0  0  0  0
   -2.8835    0.1760    0.0000 C   0  0  0  0  0  0  0  0  0  0  0  0
   -4.1580   -0.6151    0.0000 N   0  0  0  0  0  0  0  0  0  0  0  0
   -5.4803    0.0931    0.0000 C   0  0  0  0  0  0  0  0  0  0  0  0
   -5.5281    1.5923    0.0000 N   0  0  0  0  0  0  0  0  0  0  0  0
   -6.7547   -0.6980    0.0000 N   0  0  0  0  0  0  0  0  0  0  0  0
    4.9067    0.4246    0.0000 C   0  0  0  0  0  0  0  0  0  0  0  0
    4.8589    1.9238    0.0000 O   0  0  0  0  0  0  0  0  0  0  0  0
    6.2290   -0.2836    0.0000 O   0  0  0  0  0  0  0  0  0  0  0  0
  2  1  1  1
  2  3  1  0
  3  4  1  0
  4  5  1  0
  5  6  1  0
  6  7  1  0
  7  8  1  0
  8  9  1  0
  9 10  2  0
  9 11  1  0
  2 12  1  0
 12 13  2  0
 12 14  1  0
M  END
>  <rName>  (4463) 
hLys_amidino

>  <PQ_SYMBOL>  (4463) 
hLys_amidino

>  <FULL_NAME>  (4463) 
(2S)-2-amino-7-(diaminomethylideneamino)heptanoic acid

>  <IUPAC_CONDENSED>  (4463) 
hLys(amidino)

>  <IUPAC>  (4463) 
(2S)-2-amino-7-(diaminomethylideneamino)heptanoic acid

>  <TYPE>  (4463) 
Backbone

>  <CLASS>  (4463) 
alpha

>  <ANALOG>  (4463) 
Arg

>  <MOL_WT>  (4463) 
202.258

>  <LOGP>  (4463) 
-0.5582299999999989

>  <TPSA>  (4463) 
125.22000000000001

>  <POPULARITY>  (4463) 
2.2

>  <PROTECTED>  (4463) 
TRUE

>  <SMILES>  (4463) 
N[C@@H](CCCCCNC(=N)N)C(=O)O

>  <INCHIKEY>  (4463) 
MGYMAQNYUCNEEO-LURJTMIESA-N

$$$$
hMet
     RDKit          2D

 10  9  0  0  0  0  0  0  0  0999 V2000
   -1.4166   -1.8843    0.0000 N   0  0  0  0  0  0  0  0  0  0  0  0
   -1.4265   -0.3844    0.0000 C   0  0  0  0  0  0  0  0  0  0  0  0
   -0.1324    0.3741    0.0000 C   0  0  0  0  0  0  0  0  0  0  0  0
    1.1716   -0.3673    0.0000 C   0  0  0  0  0  0  0  0  0  0  0  0
    2.4657    0.3912    0.0000 C   0  0  0  0  0  0  0  0  0  0  0  0
    3.7696   -0.3503    0.0000 S   0  0  0  0  0  0  0  0  0  0  0  0
    5.0637    0.4082    0.0000 C   0  0  0  0  0  0  0  0  0  0  0  0
   -2.7304    0.3571    0.0000 C   0  0  0  0  0  0  0  0  0  0  0  0
   -2.7402    1.8571    0.0000 O   0  0  0  0  0  0  0  0  0  0  0  0
   -4.0245   -0.4014    0.0000 O   0  0  0  0  0  0  0  0  0  0  0  0
  2  1  1  6
  2  3  1  0
  3  4  1  0
  4  5  1  0
  5  6  1  0
  6  7  1  0
  2  8  1  0
  8  9  2  0
  8 10  1  0
M  END
>  <rName>  (4464) 
hMet

>  <PQ_SYMBOL>  (4464) 
hMet

>  <FULL_NAME>  (4464) 
L-Homomethionine, 5-(methylsulfanyl)-L-Norvaline

>  <IUPAC_CONDENSED>  (4464) 
hMet

>  <IUPAC>  (4464) 
(2S)-2-amino-5-(methylsulfanyl)pentanoic acid

>  <TYPE>  (4464) 
Backbone

>  <CLASS>  (4464) 
alpha

>  <ANALOG>  (4464) 
X

>  <MOL_WT>  (4464) 
163.242

>  <LOGP>  (4464) 
0.5415000000000001

>  <TPSA>  (4464) 
63.32000000000001

>  <POPULARITY>  (4464) 
12.5

>  <PROTECTED>  (4464) 
TRUE

>  <SMILES>  (4464) 
N[C@@H](CCCSC)C(=O)O

>  <INCHIKEY>  (4464) 
SFSJZXMDTNDWIX-YFKPBYRVSA-N

$$$$
hNle_N3
     RDKit          2D

 13 12  0  0  0  0  0  0  0  0999 V2000
    3.2701   -1.8382    0.0000 N   0  0  0  0  0  0  0  0  0  0  0  0
    3.2129   -0.3393    0.0000 C   0  0  0  0  0  0  0  0  0  0  0  0
    1.8862    0.3606    0.0000 C   0  0  0  0  0  0  0  0  0  0  0  0
    0.6167   -0.4383    0.0000 C   0  0  0  0  0  0  0  0  0  0  0  0
   -0.7100    0.2616    0.0000 C   0  0  0  0  0  0  0  0  0  0  0  0
   -1.9795   -0.5374    0.0000 C   0  0  0  0  0  0  0  0  0  0  0  0
   -3.3062    0.1625    0.0000 C   0  0  0  0  0  0  0  0  0  0  0  0
   -4.5757   -0.6364    0.0000 N   0  0  0  0  0  0  0  0  0  0  0  0
   -5.9023    0.0635    0.0000 N   0  0  0  0  0  0  0  0  0  0  0  0
   -7.2290    0.7634    0.0000 N   0  0  0  0  0  0  0  0  0  0  0  0
    4.4824    0.4597    0.0000 C   0  0  0  0  0  0  0  0  0  0  0  0
    4.4252    1.9586    0.0000 O   0  0  0  0  0  0  0  0  0  0  0  0
    5.8091   -0.2402    0.0000 O   0  0  0  0  0  0  0  0  0  0  0  0
  2  1  1  1
  2  3  1  0
  3  4  1  0
  4  5  1  0
  5  6  1  0
  6  7  1  0
  7  8  1  0
  8  9  2  0
  9 10  2  0
  2 11  1  0
 11 12  2  0
 11 13  1  0
M  CHG  2   9   1  10  -1
M  END
>  <rName>  (4465) 
hNle_N3

>  <PQ_SYMBOL>  (4465) 
hNle_N3

>  <FULL_NAME>  (4465) 
(2S)-2-amino-7-azidoheptanoic acid

>  <IUPAC_CONDENSED>  (4465) 
hNle(N3)

>  <IUPAC>  (4465) 
(2S)-2-amino-7-azidoheptanoic acid

>  <TYPE>  (4465) 
Backbone

>  <CLASS>  (4465) 
alpha

>  <ANALOG>  (4465) 
Lys

>  <MOL_WT>  (4465) 
186.215

>  <LOGP>  (4465) 
1.269

>  <TPSA>  (4465) 
112.08

>  <POPULARITY>  (4465) 
2.2

>  <PROTECTED>  (4465) 
TRUE

>  <SMILES>  (4465) 
N[C@@H](CCCCCN=[N+]=[N-])C(=O)O

>  <INCHIKEY>  (4465) 
XLOMVFZQAXTGIA-LURJTMIESA-N

$$$$
hPhe
     RDKit          2D

 13 13  0  0  0  0  0  0  0  0999 V2000
   -2.6715   -1.9340    0.0000 N   0  0  0  0  0  0  0  0  0  0  0  0
   -2.4130   -0.4565    0.0000 C   0  0  0  0  0  0  0  0  0  0  0  0
   -1.0042    0.0585    0.0000 C   0  0  0  0  0  0  0  0  0  0  0  0
    0.1462   -0.9041    0.0000 C   0  0  0  0  0  0  0  0  0  0  0  0
    1.5550   -0.3891    0.0000 C   0  0  0  0  0  0  0  0  0  0  0  0
    1.8135    1.0885    0.0000 C   0  0  0  0  0  0  0  0  0  0  0  0
    3.2223    1.6034    0.0000 C   0  0  0  0  0  0  0  0  0  0  0  0
    4.3727    0.6408    0.0000 C   0  0  0  0  0  0  0  0  0  0  0  0
    4.1143   -0.8367    0.0000 C   0  0  0  0  0  0  0  0  0  0  0  0
    2.7054   -1.3517    0.0000 C   0  0  0  0  0  0  0  0  0  0  0  0
   -3.5634    0.5061    0.0000 C   0  0  0  0  0  0  0  0  0  0  0  0
   -3.3050    1.9837    0.0000 O   0  0  0  0  0  0  0  0  0  0  0  0
   -4.9723   -0.0089    0.0000 O   0  0  0  0  0  0  0  0  0  0  0  0
  2  1  1  6
  2  3  1  0
  3  4  1  0
  4  5  1  0
  5  6  2  0
  6  7  1  0
  7  8  2  0
  8  9  1  0
  9 10  2  0
  2 11  1  0
 11 12  2  0
 11 13  1  0
 10  5  1  0
M  END
>  <rName>  (4466) 
hPhe

>  <PQ_SYMBOL>  (4466) 
hPhe

>  <FULL_NAME>  (4466) 
Homo-L-Phenylalanine

>  <IUPAC_CONDENSED>  (4466) 
hPhe

>  <IUPAC>  (4466) 
(2S)-2-amino-4-phenylbutanoic acid

>  <TYPE>  (4466) 
Backbone

>  <CLASS>  (4466) 
alpha

>  <ANALOG>  (4466) 
Phe

>  <MOL_WT>  (4466) 
179.21899999999997

>  <LOGP>  (4466) 
1.0311

>  <TPSA>  (4466) 
63.32000000000001

>  <POPULARITY>  (4466) 
37.6

>  <PROTECTED>  (4466) 
TRUE

>  <SMILES>  (4466) 
N[C@@H](CCc1(ccccc1))C(=O)O

>  <INCHIKEY>  (4466) 
JTTHKOPSMAVJFE-VIFPVBQESA-N

$$$$
hPhe-Me
     RDKit          2D

 13 13  0  0  0  0  0  0  0  0999 V2000
   -2.6715   -1.9340    0.0000 N   0  0  0  0  0  0  0  0  0  0  0  0
   -2.4130   -0.4565    0.0000 C   0  0  0  0  0  0  0  0  0  0  0  0
   -3.5634    0.5061    0.0000 C   0  0  0  0  0  0  0  0  0  0  0  0
   -3.3050    1.9837    0.0000 O   0  0  0  0  0  0  0  0  0  0  0  0
   -4.9723   -0.0089    0.0000 C   0  0  0  0  0  0  0  0  0  0  0  0
   -1.0042    0.0585    0.0000 C   0  0  0  0  0  0  0  0  0  0  0  0
    0.1462   -0.9041    0.0000 C   0  0  0  0  0  0  0  0  0  0  0  0
    1.5550   -0.3891    0.0000 C   0  0  0  0  0  0  0  0  0  0  0  0
    1.8135    1.0885    0.0000 C   0  0  0  0  0  0  0  0  0  0  0  0
    3.2223    1.6034    0.0000 C   0  0  0  0  0  0  0  0  0  0  0  0
    4.3727    0.6408    0.0000 C   0  0  0  0  0  0  0  0  0  0  0  0
    4.1143   -0.8367    0.0000 C   0  0  0  0  0  0  0  0  0  0  0  0
    2.7054   -1.3517    0.0000 C   0  0  0  0  0  0  0  0  0  0  0  0
  2  1  1  6
  2  3  1  0
  3  4  2  0
  3  5  1  0
  2  6  1  0
  6  7  1  0
  7  8  1  0
  8  9  2  0
  9 10  1  0
 10 11  2  0
 11 12  1  0
 12 13  2  0
 13  8  1  0
M  END
>  <rName>  (4467) 
hPhe-Me

>  <PQ_SYMBOL>  (4467) 
hPhe-Me

>  <FULL_NAME>  (4467) 
HOMOPHENYLALANINYLMETHANE

>  <IUPAC_CONDENSED>  (4467) 
hPhe-Me

>  <IUPAC>  (4467) 
(3S)-3-amino-5-phenylpentan-2-one

>  <TYPE>  (4467) 
C-term cap

>  <CLASS>  (4467) 
c_cap

>  <ANALOG>  (4467) 
X

>  <MOL_WT>  (4467) 
177.247

>  <LOGP>  (4467) 
1.5354999999999999

>  <TPSA>  (4467) 
43.09

>  <POPULARITY>  (4467) 
5.7

>  <PROTECTED>  (4467) 
FALSE

>  <SMILES>  (4467) 
N[C@H](C(=O)C)CCc1ccccc1

>  <INCHIKEY>  (4467) 
ZDTWNRLBYDWRII-NSHDSACASA-N

$$$$
hPhe-OBn
     RDKit          2D

 20 21  0  0  0  0  0  0  0  0999 V2000
    0.3179   -1.9587    0.0000 N   0  0  0  0  0  0  0  0  0  0  0  0
    0.5755   -0.4809    0.0000 C   0  0  0  0  0  0  0  0  0  0  0  0
    1.9840    0.0349    0.0000 C   0  0  0  0  0  0  0  0  0  0  0  0
    3.1350   -0.9270    0.0000 C   0  0  0  0  0  0  0  0  0  0  0  0
    4.5435   -0.4112    0.0000 C   0  0  0  0  0  0  0  0  0  0  0  0
    5.6945   -1.3731    0.0000 C   0  0  0  0  0  0  0  0  0  0  0  0
    7.1030   -0.8573    0.0000 C   0  0  0  0  0  0  0  0  0  0  0  0
    7.3605    0.6205    0.0000 C   0  0  0  0  0  0  0  0  0  0  0  0
    6.2096    1.5824    0.0000 C   0  0  0  0  0  0  0  0  0  0  0  0
    4.8010    1.0665    0.0000 C   0  0  0  0  0  0  0  0  0  0  0  0
   -0.5755    0.4809    0.0000 C   0  0  0  0  0  0  0  0  0  0  0  0
   -0.3179    1.9587    0.0000 O   0  0  0  0  0  0  0  0  0  0  0  0
   -1.9840   -0.0349    0.0000 O   0  0  0  0  0  0  0  0  0  0  0  0
   -3.1350    0.9270    0.0000 C   0  0  0  0  0  0  0  0  0  0  0  0
   -4.5435    0.4112    0.0000 C   0  0  0  0  0  0  0  0  0  0  0  0
   -5.6945    1.3731    0.0000 C   0  0  0  0  0  0  0  0  0  0  0  0
   -7.1030    0.8573    0.0000 C   0  0  0  0  0  0  0  0  0  0  0  0
   -7.3605   -0.6205    0.0000 C   0  0  0  0  0  0  0  0  0  0  0  0
   -6.2096   -1.5824    0.0000 C   0  0  0  0  0  0  0  0  0  0  0  0
   -4.8010   -1.0665    0.0000 C   0  0  0  0  0  0  0  0  0  0  0  0
  2  1  1  6
  2  3  1  0
  3  4  1  0
  4  5  1  0
  5  6  2  0
  6  7  1  0
  7  8  2  0
  8  9  1  0
  9 10  2  0
  2 11  1  0
 11 12  2  0
 11 13  1  0
 13 14  1  0
 14 15  1  0
 15 16  2  0
 16 17  1  0
 17 18  2  0
 18 19  1  0
 19 20  2  0
 20 15  1  0
 10  5  1  0
M  END
>  <rName>  (4468) 
hPhe-OBn

>  <PQ_SYMBOL>  (4468) 
hPhe-OBn

>  <FULL_NAME>  (4468) 
Homophenylalanine benzyl ester

>  <IUPAC_CONDENSED>  (4468) 
hPhe-OBn

>  <IUPAC>  (4468) 
benzyl (2S)-2-amino-4-phenylbutanoate

>  <TYPE>  (4468) 
C-term cap

>  <CLASS>  (4468) 
c_cap

>  <ANALOG>  (4468) 
X

>  <MOL_WT>  (4468) 
269.34399999999994

>  <LOGP>  (4468) 
2.6899000000000006

>  <TPSA>  (4468) 
52.32000000000001

>  <POPULARITY>  (4468) 
7.3

>  <PROTECTED>  (4468) 
TRUE

>  <SMILES>  (4468) 
N[C@@H](CCc2(ccccc2))C(=O)OCc1ccccc1

>  <INCHIKEY>  (4468) 
VYEIIPLQOBKTAZ-INIZCTEOSA-N

$$$$
hPhe-OEt
     RDKit          2D

 15 15  0  0  0  0  0  0  0  0999 V2000
   -1.6744   -2.0992    0.0000 N   0  0  0  0  0  0  0  0  0  0  0  0
   -1.4783   -0.6120    0.0000 C   0  0  0  0  0  0  0  0  0  0  0  0
   -2.6682    0.3013    0.0000 C   0  0  0  0  0  0  0  0  0  0  0  0
   -2.4721    1.7885    0.0000 O   0  0  0  0  0  0  0  0  0  0  0  0
   -4.0541   -0.2724    0.0000 O   0  0  0  0  0  0  0  0  0  0  0  0
   -5.2440    0.6409    0.0000 C   0  0  0  0  0  0  0  0  0  0  0  0
   -6.6299    0.0672    0.0000 C   0  0  0  0  0  0  0  0  0  0  0  0
   -0.0924   -0.0383    0.0000 C   0  0  0  0  0  0  0  0  0  0  0  0
    1.0975   -0.9516    0.0000 C   0  0  0  0  0  0  0  0  0  0  0  0
    2.4834   -0.3778    0.0000 C   0  0  0  0  0  0  0  0  0  0  0  0
    2.6795    1.1093    0.0000 C   0  0  0  0  0  0  0  0  0  0  0  0
    4.0654    1.6831    0.0000 C   0  0  0  0  0  0  0  0  0  0  0  0
    5.2552    0.7697    0.0000 C   0  0  0  0  0  0  0  0  0  0  0  0
    5.0592   -0.7174    0.0000 C   0  0  0  0  0  0  0  0  0  0  0  0
    3.6733   -1.2912    0.0000 C   0  0  0  0  0  0  0  0  0  0  0  0
  2  1  1  6
  2  3  1  0
  3  4  2  0
  3  5  1  0
  5  6  1  0
  6  7  1  0
  2  8  1  0
  8  9  1  0
  9 10  1  0
 10 11  2  0
 11 12  1  0
 12 13  2  0
 13 14  1  0
 14 15  2  0
 15 10  1  0
M  END
>  <rName>  (4469) 
hPhe-OEt

>  <PQ_SYMBOL>  (4469) 
hPhe-OEt

>  <FULL_NAME>  (4469) 
ethyl (2S)-2-amino-4-phenylbutanoate

>  <IUPAC_CONDENSED>  (4469) 
hPhe-OEt

>  <IUPAC>  (4469) 
ethyl (2S)-2-amino-4-phenylbutanoate

>  <TYPE>  (4469) 
C-term cap

>  <CLASS>  (4469) 
c_cap

>  <ANALOG>  (4469) 
X

>  <MOL_WT>  (4469) 
207.27300000000002

>  <LOGP>  (4469) 
1.5095999999999996

>  <TPSA>  (4469) 
52.32000000000001

>  <POPULARITY>  (4469) 
12.2

>  <PROTECTED>  (4469) 
TRUE

>  <SMILES>  (4469) 
N[C@H](C(=O)OCC)CCc1ccccc1

>  <INCHIKEY>  (4469) 
WFLQXECQLHZKMV-NSHDSACASA-N

$$$$
hPhe-OMe
     RDKit          2D

 14 14  0  0  0  0  0  0  0  0999 V2000
   -2.1551   -2.0870    0.0000 N   0  0  0  0  0  0  0  0  0  0  0  0
   -1.9539   -0.6006    0.0000 C   0  0  0  0  0  0  0  0  0  0  0  0
   -3.1407    0.3168    0.0000 C   0  0  0  0  0  0  0  0  0  0  0  0
   -2.9396    1.8033    0.0000 O   0  0  0  0  0  0  0  0  0  0  0  0
   -4.5286   -0.2522    0.0000 O   0  0  0  0  0  0  0  0  0  0  0  0
   -5.7153    0.6652    0.0000 C   0  0  0  0  0  0  0  0  0  0  0  0
   -0.5661   -0.0315    0.0000 C   0  0  0  0  0  0  0  0  0  0  0  0
    0.6207   -0.9489    0.0000 C   0  0  0  0  0  0  0  0  0  0  0  0
    2.0085   -0.3799    0.0000 C   0  0  0  0  0  0  0  0  0  0  0  0
    2.2097    1.1066    0.0000 C   0  0  0  0  0  0  0  0  0  0  0  0
    3.5975    1.6756    0.0000 C   0  0  0  0  0  0  0  0  0  0  0  0
    4.7843    0.7582    0.0000 C   0  0  0  0  0  0  0  0  0  0  0  0
    4.5832   -0.7282    0.0000 C   0  0  0  0  0  0  0  0  0  0  0  0
    3.1953   -1.2973    0.0000 C   0  0  0  0  0  0  0  0  0  0  0  0
  2  1  1  6
  2  3  1  0
  3  4  2  0
  3  5  1  0
  5  6  1  0
  2  7  1  0
  7  8  1  0
  8  9  1  0
  9 10  2  0
 10 11  1  0
 11 12  2  0
 12 13  1  0
 13 14  2  0
 14  9  1  0
M  END
>  <rName>  (4470) 
hPhe-OMe

>  <PQ_SYMBOL>  (4470) 
hPhe-OMe

>  <FULL_NAME>  (4470) 
Homophenylalanine methyl ester

>  <IUPAC_CONDENSED>  (4470) 
hPhe-OMe

>  <IUPAC>  (4470) 
methyl (2S)-2-amino-4-phenylbutanoate

>  <TYPE>  (4470) 
C-term cap

>  <CLASS>  (4470) 
c_cap

>  <ANALOG>  (4470) 
X

>  <MOL_WT>  (4470) 
193.24600000000004

>  <LOGP>  (4470) 
1.1194999999999997

>  <TPSA>  (4470) 
52.32000000000001

>  <POPULARITY>  (4470) 
12.7

>  <PROTECTED>  (4470) 
TRUE

>  <SMILES>  (4470) 
N[C@H](C(=O)OC)CCc1ccccc1

>  <INCHIKEY>  (4470) 
YEPNFOMBMXWUOG-JTQLQIEISA-N

$$$$
hPhe_23diF
     RDKit          2D

 15 15  0  0  0  0  0  0  0  0999 V2000
   -2.9888   -1.9640    0.0000 N   0  0  0  0  0  0  0  0  0  0  0  0
   -2.8934   -0.4670    0.0000 C   0  0  0  0  0  0  0  0  0  0  0  0
   -1.5493    0.1989    0.0000 C   0  0  0  0  0  0  0  0  0  0  0  0
   -0.3006   -0.6322    0.0000 C   0  0  0  0  0  0  0  0  0  0  0  0
    1.0435    0.0337    0.0000 C   0  0  0  0  0  0  0  0  0  0  0  0
    1.1388    1.5307    0.0000 C   0  0  0  0  0  0  0  0  0  0  0  0
    2.4829    2.1966    0.0000 C   0  0  0  0  0  0  0  0  0  0  0  0
    3.7317    1.3655    0.0000 C   0  0  0  0  0  0  0  0  0  0  0  0
    3.6363   -0.1314    0.0000 C   0  0  0  0  0  0  0  0  0  0  0  0
    4.8850   -0.9625    0.0000 F   0  0  0  0  0  0  0  0  0  0  0  0
    2.2922   -0.7973    0.0000 C   0  0  0  0  0  0  0  0  0  0  0  0
    2.1969   -2.2943    0.0000 F   0  0  0  0  0  0  0  0  0  0  0  0
   -4.1422    0.3641    0.0000 C   0  0  0  0  0  0  0  0  0  0  0  0
   -4.0468    1.8610    0.0000 O   0  0  0  0  0  0  0  0  0  0  0  0
   -5.4862   -0.3018    0.0000 O   0  0  0  0  0  0  0  0  0  0  0  0
  2  1  1  6
  2  3  1  0
  3  4  1  0
  4  5  1  0
  5  6  2  0
  6  7  1  0
  7  8  2  0
  8  9  1  0
  9 10  1  0
  9 11  2  0
 11 12  1  0
  2 13  1  0
 13 14  2  0
 13 15  1  0
 11  5  1  0
M  END
>  <rName>  (4471) 
hPhe_23diF

>  <PQ_SYMBOL>  (4471) 
hPhe_23diF

>  <FULL_NAME>  (4471) 
2,3-Difluoro-L-homophenylalanine

>  <IUPAC_CONDENSED>  (4471) 
hPhe(2,3-diF)

>  <IUPAC>  (4471) 
(2S)-2-amino-4-(2,3-difluorophenyl)butanoic acid

>  <TYPE>  (4471) 
Backbone

>  <CLASS>  (4471) 
alpha

>  <ANALOG>  (4471) 
Phe

>  <MOL_WT>  (4471) 
215.19899999999996

>  <LOGP>  (4471) 
1.3093

>  <TPSA>  (4471) 
63.32000000000001

>  <POPULARITY>  (4471) 
2.2

>  <PROTECTED>  (4471) 
TRUE

>  <SMILES>  (4471) 
N[C@@H](CCc1(cccc(F)c1F))C(=O)O

>  <INCHIKEY>  (4471) 
AFVGCJVDUOPQPA-QMMMGPOBSA-N

$$$$
hPhe_24diCl
     RDKit          2D

 15 15  0  0  0  0  0  0  0  0999 V2000
   -3.2293   -1.8059    0.0000 N   0  0  0  0  0  0  0  0  0  0  0  0
   -2.9633   -0.3297    0.0000 C   0  0  0  0  0  0  0  0  0  0  0  0
   -1.5519    0.1780    0.0000 C   0  0  0  0  0  0  0  0  0  0  0  0
   -0.4064   -0.7904    0.0000 C   0  0  0  0  0  0  0  0  0  0  0  0
    1.0050   -0.2827    0.0000 C   0  0  0  0  0  0  0  0  0  0  0  0
    1.2710    1.1935    0.0000 C   0  0  0  0  0  0  0  0  0  0  0  0
    2.6825    1.7012    0.0000 C   0  0  0  0  0  0  0  0  0  0  0  0
    3.8279    0.7327    0.0000 C   0  0  0  0  0  0  0  0  0  0  0  0
    5.2394    1.2405    0.0000 Cl  0  0  0  0  0  0  0  0  0  0  0  0
    3.5619   -0.7435    0.0000 C   0  0  0  0  0  0  0  0  0  0  0  0
    2.1505   -1.2512    0.0000 C   0  0  0  0  0  0  0  0  0  0  0  0
    1.8844   -2.7274    0.0000 Cl  0  0  0  0  0  0  0  0  0  0  0  0
   -4.1088    0.6388    0.0000 C   0  0  0  0  0  0  0  0  0  0  0  0
   -3.8427    2.1150    0.0000 O   0  0  0  0  0  0  0  0  0  0  0  0
   -5.5202    0.1311    0.0000 O   0  0  0  0  0  0  0  0  0  0  0  0
  2  1  1  6
  2  3  1  0
  3  4  1  0
  4  5  1  0
  5  6  1  0
  6  7  2  0
  7  8  1  0
  8  9  1  0
  8 10  2  0
 10 11  1  0
 11 12  1  0
  2 13  1  0
 13 14  2  0
 13 15  1  0
 11  5  2  0
M  END
>  <rName>  (4472) 
hPhe_24diCl

>  <PQ_SYMBOL>  (4472) 
hPhe_24diCl

>  <FULL_NAME>  (4472) 
(S)-2-amino-4-(2,4-dichlorophenyl)butanoic acid

>  <IUPAC_CONDENSED>  (4472) 
hPhe(2,4-diCl)

>  <IUPAC>  (4472) 
(2S)-2-amino-4-(2,4-dichlorophenyl)butanoic acid

>  <TYPE>  (4472) 
Backbone

>  <CLASS>  (4472) 
alpha

>  <ANALOG>  (4472) 
Phe

>  <MOL_WT>  (4472) 
248.10899999999998

>  <LOGP>  (4472) 
2.3379

>  <TPSA>  (4472) 
63.32000000000001

>  <POPULARITY>  (4472) 
6.2

>  <PROTECTED>  (4472) 
TRUE

>  <SMILES>  (4472) 
N[C@@H](CCc1(ccc(Cl)cc1Cl))C(=O)O

>  <INCHIKEY>  (4472) 
VSJIELYJPAYOJA-VIFPVBQESA-N

$$$$
hPhe_24diF
     RDKit          2D

 15 15  0  0  0  0  0  0  0  0999 V2000
   -3.2293   -1.8059    0.0000 N   0  0  0  0  0  0  0  0  0  0  0  0
   -2.9633   -0.3297    0.0000 C   0  0  0  0  0  0  0  0  0  0  0  0
   -1.5519    0.1780    0.0000 C   0  0  0  0  0  0  0  0  0  0  0  0
   -0.4064   -0.7904    0.0000 C   0  0  0  0  0  0  0  0  0  0  0  0
    1.0050   -0.2827    0.0000 C   0  0  0  0  0  0  0  0  0  0  0  0
    1.2710    1.1935    0.0000 C   0  0  0  0  0  0  0  0  0  0  0  0
    2.6825    1.7012    0.0000 C   0  0  0  0  0  0  0  0  0  0  0  0
    3.8279    0.7327    0.0000 C   0  0  0  0  0  0  0  0  0  0  0  0
    5.2394    1.2405    0.0000 F   0  0  0  0  0  0  0  0  0  0  0  0
    3.5619   -0.7435    0.0000 C   0  0  0  0  0  0  0  0  0  0  0  0
    2.1505   -1.2512    0.0000 C   0  0  0  0  0  0  0  0  0  0  0  0
    1.8844   -2.7274    0.0000 F   0  0  0  0  0  0  0  0  0  0  0  0
   -4.1088    0.6388    0.0000 C   0  0  0  0  0  0  0  0  0  0  0  0
   -3.8427    2.1150    0.0000 O   0  0  0  0  0  0  0  0  0  0  0  0
   -5.5202    0.1311    0.0000 O   0  0  0  0  0  0  0  0  0  0  0  0
  2  1  1  6
  2  3  1  0
  3  4  1  0
  4  5  1  0
  5  6  1  0
  6  7  2  0
  7  8  1  0
  8  9  1  0
  8 10  2  0
 10 11  1  0
 11 12  1  0
  2 13  1  0
 13 14  2  0
 13 15  1  0
 11  5  2  0
M  END
>  <rName>  (4473) 
hPhe_24diF

>  <PQ_SYMBOL>  (4473) 
hPhe_24diF

>  <FULL_NAME>  (4473) 
2,4-Difluoro-L-homophenylalanine

>  <IUPAC_CONDENSED>  (4473) 
hPhe(2,4-diF)

>  <IUPAC>  (4473) 
(2S)-2-amino-4-(2,4-difluorophenyl)butanoic acid

>  <TYPE>  (4473) 
Backbone

>  <CLASS>  (4473) 
alpha

>  <ANALOG>  (4473) 
Phe

>  <MOL_WT>  (4473) 
215.19899999999998

>  <LOGP>  (4473) 
1.3093

>  <TPSA>  (4473) 
63.32000000000001

>  <POPULARITY>  (4473) 
2.2

>  <PROTECTED>  (4473) 
TRUE

>  <SMILES>  (4473) 
N[C@@H](CCc1(ccc(F)cc1F))C(=O)O

>  <INCHIKEY>  (4473) 
RXTYJIYAYABQKD-VIFPVBQESA-N

$$$$
hPhe_24diF_3Cl
     RDKit          2D

 16 16  0  0  0  0  0  0  0  0999 V2000
   -3.4337   -1.8738    0.0000 N   0  0  0  0  0  0  0  0  0  0  0  0
   -3.2422   -0.3861    0.0000 C   0  0  0  0  0  0  0  0  0  0  0  0
   -1.8581    0.1919    0.0000 C   0  0  0  0  0  0  0  0  0  0  0  0
   -0.6654   -0.7178    0.0000 C   0  0  0  0  0  0  0  0  0  0  0  0
    0.7187   -0.1398    0.0000 C   0  0  0  0  0  0  0  0  0  0  0  0
    0.9102    1.3479    0.0000 C   0  0  0  0  0  0  0  0  0  0  0  0
    2.2944    1.9260    0.0000 C   0  0  0  0  0  0  0  0  0  0  0  0
    3.4871    1.0163    0.0000 C   0  0  0  0  0  0  0  0  0  0  0  0
    4.8712    1.5943    0.0000 F   0  0  0  0  0  0  0  0  0  0  0  0
    3.2956   -0.4715    0.0000 C   0  0  0  0  0  0  0  0  0  0  0  0
    4.4882   -1.3812    0.0000 Cl  0  0  0  0  0  0  0  0  0  0  0  0
    1.9114   -1.0495    0.0000 C   0  0  0  0  0  0  0  0  0  0  0  0
    1.7199   -2.5372    0.0000 F   0  0  0  0  0  0  0  0  0  0  0  0
   -4.4349    0.5236    0.0000 C   0  0  0  0  0  0  0  0  0  0  0  0
   -4.2434    2.0113    0.0000 O   0  0  0  0  0  0  0  0  0  0  0  0
   -5.8190   -0.0544    0.0000 O   0  0  0  0  0  0  0  0  0  0  0  0
  2  1  1  6
  2  3  1  0
  3  4  1  0
  4  5  1  0
  5  6  1  0
  6  7  2  0
  7  8  1  0
  8  9  1  0
  8 10  2  0
 10 11  1  0
 10 12  1  0
 12 13  1  0
  2 14  1  0
 14 15  2  0
 14 16  1  0
 12  5  2  0
M  END
>  <rName>  (4474) 
hPhe_24diF_3Cl

>  <PQ_SYMBOL>  (4474) 
hPhe_24diF_3Cl

>  <FULL_NAME>  (4474) 
2,4-Difluoro-3-chloro-L-homophenylalanine

>  <IUPAC_CONDENSED>  (4474) 
hPhe(2,4-diF,3-Cl)

>  <IUPAC>  (4474) 
(2S)-2-amino-4-(3-chloro-2,4-difluorophenyl)butanoic acid

>  <TYPE>  (4474) 
Backbone

>  <CLASS>  (4474) 
alpha

>  <ANALOG>  (4474) 
Phe

>  <MOL_WT>  (4474) 
249.64399999999998

>  <LOGP>  (4474) 
1.9627

>  <TPSA>  (4474) 
63.32000000000001

>  <POPULARITY>  (4474) 
2.2

>  <PROTECTED>  (4474) 
TRUE

>  <SMILES>  (4474) 
N[C@@H](CCc1(ccc(F)c(Cl)c1F))C(=O)O

>  <INCHIKEY>  (4474) 
DDKDUTXIYQOJFP-ZETCQYMHSA-N

$$$$
hPhe_25diCl
     RDKit          2D

 15 15  0  0  0  0  0  0  0  0999 V2000
   -3.1338   -1.8409    0.0000 N   0  0  0  0  0  0  0  0  0  0  0  0
   -2.8232   -0.3734    0.0000 C   0  0  0  0  0  0  0  0  0  0  0  0
   -1.3970    0.0913    0.0000 C   0  0  0  0  0  0  0  0  0  0  0  0
   -0.2815   -0.9115    0.0000 C   0  0  0  0  0  0  0  0  0  0  0  0
    1.1447   -0.4467    0.0000 C   0  0  0  0  0  0  0  0  0  0  0  0
    1.4554    1.0207    0.0000 C   0  0  0  0  0  0  0  0  0  0  0  0
    2.8816    1.4855    0.0000 C   0  0  0  0  0  0  0  0  0  0  0  0
    3.1922    2.9530    0.0000 Cl  0  0  0  0  0  0  0  0  0  0  0  0
    3.9971    0.4827    0.0000 C   0  0  0  0  0  0  0  0  0  0  0  0
    3.6865   -0.9848    0.0000 C   0  0  0  0  0  0  0  0  0  0  0  0
    2.2603   -1.4495    0.0000 C   0  0  0  0  0  0  0  0  0  0  0  0
    1.9497   -2.9170    0.0000 Cl  0  0  0  0  0  0  0  0  0  0  0  0
   -3.9388    0.6293    0.0000 C   0  0  0  0  0  0  0  0  0  0  0  0
   -3.6281    2.0968    0.0000 O   0  0  0  0  0  0  0  0  0  0  0  0
   -5.3650    0.1646    0.0000 O   0  0  0  0  0  0  0  0  0  0  0  0
  2  1  1  6
  2  3  1  0
  3  4  1  0
  4  5  1  0
  5  6  1  0
  6  7  2  0
  7  8  1  0
  7  9  1  0
  9 10  2  0
 10 11  1  0
 11 12  1  0
  2 13  1  0
 13 14  2  0
 13 15  1  0
 11  5  2  0
M  END
>  <rName>  (4475) 
hPhe_25diCl

>  <PQ_SYMBOL>  (4475) 
hPhe_25diCl

>  <FULL_NAME>  (4475) 
(S)-2-Amino-4-(2,5-dichloro-phenyl)-butyric acid

>  <IUPAC_CONDENSED>  (4475) 
hPhe(2,5-diCl)

>  <IUPAC>  (4475) 
(2S)-2-amino-4-(2,5-dichlorophenyl)butanoic acid

>  <TYPE>  (4475) 
Backbone

>  <CLASS>  (4475) 
alpha

>  <ANALOG>  (4475) 
Phe

>  <MOL_WT>  (4475) 
248.10899999999998

>  <LOGP>  (4475) 
2.3379

>  <TPSA>  (4475) 
63.32000000000001

>  <POPULARITY>  (4475) 
2.2

>  <PROTECTED>  (4475) 
TRUE

>  <SMILES>  (4475) 
N[C@@H](CCc1(cc(Cl)ccc1Cl))C(=O)O

>  <INCHIKEY>  (4475) 
RJEDYAFWGILHRM-VIFPVBQESA-N

$$$$
hPhe_25diF
     RDKit          2D

 15 15  0  0  0  0  0  0  0  0999 V2000
   -3.1338   -1.8409    0.0000 N   0  0  0  0  0  0  0  0  0  0  0  0
   -2.8232   -0.3734    0.0000 C   0  0  0  0  0  0  0  0  0  0  0  0
   -1.3970    0.0913    0.0000 C   0  0  0  0  0  0  0  0  0  0  0  0
   -0.2815   -0.9115    0.0000 C   0  0  0  0  0  0  0  0  0  0  0  0
    1.1447   -0.4467    0.0000 C   0  0  0  0  0  0  0  0  0  0  0  0
    1.4554    1.0207    0.0000 C   0  0  0  0  0  0  0  0  0  0  0  0
    2.8816    1.4855    0.0000 C   0  0  0  0  0  0  0  0  0  0  0  0
    3.1922    2.9530    0.0000 F   0  0  0  0  0  0  0  0  0  0  0  0
    3.9971    0.4827    0.0000 C   0  0  0  0  0  0  0  0  0  0  0  0
    3.6865   -0.9848    0.0000 C   0  0  0  0  0  0  0  0  0  0  0  0
    2.2603   -1.4495    0.0000 C   0  0  0  0  0  0  0  0  0  0  0  0
    1.9497   -2.9170    0.0000 F   0  0  0  0  0  0  0  0  0  0  0  0
   -3.9388    0.6293    0.0000 C   0  0  0  0  0  0  0  0  0  0  0  0
   -3.6281    2.0968    0.0000 O   0  0  0  0  0  0  0  0  0  0  0  0
   -5.3650    0.1646    0.0000 O   0  0  0  0  0  0  0  0  0  0  0  0
  2  1  1  6
  2  3  1  0
  3  4  1  0
  4  5  1  0
  5  6  1  0
  6  7  2  0
  7  8  1  0
  7  9  1  0
  9 10  2  0
 10 11  1  0
 11 12  1  0
  2 13  1  0
 13 14  2  0
 13 15  1  0
 11  5  2  0
M  END
>  <rName>  (4476) 
hPhe_25diF

>  <PQ_SYMBOL>  (4476) 
hPhe_25diF

>  <FULL_NAME>  (4476) 
(S)-2-amino-4-(2,5-difluorophenyl)butanoic acid

>  <IUPAC_CONDENSED>  (4476) 
hPhe(2,5-diF)

>  <IUPAC>  (4476) 
(2S)-2-amino-4-(2,5-difluorophenyl)butanoic acid

>  <TYPE>  (4476) 
Backbone

>  <CLASS>  (4476) 
alpha

>  <ANALOG>  (4476) 
Phe

>  <MOL_WT>  (4476) 
215.19899999999998

>  <LOGP>  (4476) 
1.3093

>  <TPSA>  (4476) 
63.32000000000001

>  <POPULARITY>  (4476) 
6.7

>  <PROTECTED>  (4476) 
TRUE

>  <SMILES>  (4476) 
N[C@@H](CCc1(cc(F)ccc1F))C(=O)O

>  <INCHIKEY>  (4476) 
XEHBWDCZWQCJRP-VIFPVBQESA-N

$$$$
hPhe_26diCl
     RDKit          2D

 15 15  0  0  0  0  0  0  0  0999 V2000
   -2.7730   -2.0349    0.0000 N   0  0  0  0  0  0  0  0  0  0  0  0
   -2.5947   -0.5455    0.0000 C   0  0  0  0  0  0  0  0  0  0  0  0
   -1.2157    0.0448    0.0000 C   0  0  0  0  0  0  0  0  0  0  0  0
   -0.0150   -0.8543    0.0000 C   0  0  0  0  0  0  0  0  0  0  0  0
    1.3639   -0.2640    0.0000 C   0  0  0  0  0  0  0  0  0  0  0  0
    1.5422    1.2254    0.0000 C   0  0  0  0  0  0  0  0  0  0  0  0
    0.3415    2.1245    0.0000 Cl  0  0  0  0  0  0  0  0  0  0  0  0
    2.9212    1.8157    0.0000 C   0  0  0  0  0  0  0  0  0  0  0  0
    4.1219    0.9166    0.0000 C   0  0  0  0  0  0  0  0  0  0  0  0
    3.9436   -0.5727    0.0000 C   0  0  0  0  0  0  0  0  0  0  0  0
    2.5646   -1.1630    0.0000 C   0  0  0  0  0  0  0  0  0  0  0  0
    2.3864   -2.6524    0.0000 Cl  0  0  0  0  0  0  0  0  0  0  0  0
   -3.7954    0.3536    0.0000 C   0  0  0  0  0  0  0  0  0  0  0  0
   -3.6171    1.8429    0.0000 O   0  0  0  0  0  0  0  0  0  0  0  0
   -5.1744   -0.2367    0.0000 O   0  0  0  0  0  0  0  0  0  0  0  0
  2  1  1  6
  2  3  1  0
  3  4  1  0
  4  5  1  0
  5  6  2  0
  6  7  1  0
  6  8  1  0
  8  9  2  0
  9 10  1  0
 10 11  2  0
 11 12  1  0
  2 13  1  0
 13 14  2  0
 13 15  1  0
 11  5  1  0
M  END
>  <rName>  (4477) 
hPhe_26diCl

>  <PQ_SYMBOL>  (4477) 
hPhe_26diCl

>  <FULL_NAME>  (4477) 
(S)-2-amino-4-(2,6-dichlorophenyl)butanoic acid

>  <IUPAC_CONDENSED>  (4477) 
hPhe(2,6-diCl)

>  <IUPAC>  (4477) 
(2S)-2-amino-4-(2,6-dichlorophenyl)butanoic acid

>  <TYPE>  (4477) 
Backbone

>  <CLASS>  (4477) 
alpha

>  <ANALOG>  (4477) 
Phe

>  <MOL_WT>  (4477) 
248.109

>  <LOGP>  (4477) 
2.3378999999999994

>  <TPSA>  (4477) 
63.32000000000001

>  <POPULARITY>  (4477) 
5.1

>  <PROTECTED>  (4477) 
TRUE

>  <SMILES>  (4477) 
N[C@@H](CCc1(c(Cl)cccc1Cl))C(=O)O

>  <INCHIKEY>  (4477) 
ZUJMOCTVPCVSRM-VIFPVBQESA-N

$$$$
hPhe_26diF
     RDKit          2D

 15 15  0  0  0  0  0  0  0  0999 V2000
   -2.7730   -2.0349    0.0000 N   0  0  0  0  0  0  0  0  0  0  0  0
   -2.5947   -0.5455    0.0000 C   0  0  0  0  0  0  0  0  0  0  0  0
   -1.2157    0.0448    0.0000 C   0  0  0  0  0  0  0  0  0  0  0  0
   -0.0150   -0.8543    0.0000 C   0  0  0  0  0  0  0  0  0  0  0  0
    1.3639   -0.2640    0.0000 C   0  0  0  0  0  0  0  0  0  0  0  0
    1.5422    1.2254    0.0000 C   0  0  0  0  0  0  0  0  0  0  0  0
    0.3415    2.1245    0.0000 F   0  0  0  0  0  0  0  0  0  0  0  0
    2.9212    1.8157    0.0000 C   0  0  0  0  0  0  0  0  0  0  0  0
    4.1219    0.9166    0.0000 C   0  0  0  0  0  0  0  0  0  0  0  0
    3.9436   -0.5727    0.0000 C   0  0  0  0  0  0  0  0  0  0  0  0
    2.5646   -1.1630    0.0000 C   0  0  0  0  0  0  0  0  0  0  0  0
    2.3864   -2.6524    0.0000 F   0  0  0  0  0  0  0  0  0  0  0  0
   -3.7954    0.3536    0.0000 C   0  0  0  0  0  0  0  0  0  0  0  0
   -3.6171    1.8429    0.0000 O   0  0  0  0  0  0  0  0  0  0  0  0
   -5.1744   -0.2367    0.0000 O   0  0  0  0  0  0  0  0  0  0  0  0
  2  1  1  6
  2  3  1  0
  3  4  1  0
  4  5  1  0
  5  6  2  0
  6  7  1  0
  6  8  1  0
  8  9  2  0
  9 10  1  0
 10 11  2  0
 11 12  1  0
  2 13  1  0
 13 14  2  0
 13 15  1  0
 11  5  1  0
M  END
>  <rName>  (4478) 
hPhe_26diF

>  <PQ_SYMBOL>  (4478) 
hPhe_26diF

>  <FULL_NAME>  (4478) 
(S)-2-amino-4-(2,6-difluorophenyl)butanoic acid

>  <IUPAC_CONDENSED>  (4478) 
hPhe(2,6-diF)

>  <IUPAC>  (4478) 
(2S)-2-amino-4-(2,6-difluorophenyl)butanoic acid

>  <TYPE>  (4478) 
Backbone

>  <CLASS>  (4478) 
alpha

>  <ANALOG>  (4478) 
Phe

>  <MOL_WT>  (4478) 
215.19899999999998

>  <LOGP>  (4478) 
1.3093

>  <TPSA>  (4478) 
63.32000000000001

>  <POPULARITY>  (4478) 
6.3

>  <PROTECTED>  (4478) 
TRUE

>  <SMILES>  (4478) 
N[C@@H](CCc1(c(F)cccc1F))C(=O)O

>  <INCHIKEY>  (4478) 
OWSJVBLJVRUDJX-VIFPVBQESA-N

$$$$
hPhe_2CF3
     RDKit          2D

 17 17  0  0  0  0  0  0  0  0999 V2000
   -2.8723   -1.8951    0.0000 N   0  0  0  0  0  0  0  0  0  0  0  0
   -2.9617   -0.3978    0.0000 C   0  0  0  0  0  0  0  0  0  0  0  0
   -1.7097    0.4283    0.0000 C   0  0  0  0  0  0  0  0  0  0  0  0
   -0.3682   -0.2430    0.0000 C   0  0  0  0  0  0  0  0  0  0  0  0
    0.8838    0.5831    0.0000 C   0  0  0  0  0  0  0  0  0  0  0  0
    0.7944    2.0805    0.0000 C   0  0  0  0  0  0  0  0  0  0  0  0
    2.0464    2.9065    0.0000 C   0  0  0  0  0  0  0  0  0  0  0  0
    3.3879    2.2353    0.0000 C   0  0  0  0  0  0  0  0  0  0  0  0
    3.4772    0.7379    0.0000 C   0  0  0  0  0  0  0  0  0  0  0  0
    2.2252   -0.0881    0.0000 C   0  0  0  0  0  0  0  0  0  0  0  0
    2.3146   -1.5855    0.0000 C   0  0  0  0  0  0  0  0  0  0  0  0
    2.4040   -3.0828    0.0000 F   0  0  0  0  0  0  0  0  0  0  0  0
    3.8119   -1.4961    0.0000 F   0  0  0  0  0  0  0  0  0  0  0  0
    0.8173   -1.6749    0.0000 F   0  0  0  0  0  0  0  0  0  0  0  0
   -4.3031    0.2735    0.0000 C   0  0  0  0  0  0  0  0  0  0  0  0
   -4.3925    1.7708    0.0000 O   0  0  0  0  0  0  0  0  0  0  0  0
   -5.5552   -0.5526    0.0000 O   0  0  0  0  0  0  0  0  0  0  0  0
  2  1  1  6
  2  3  1  0
  3  4  1  0
  4  5  1  0
  5  6  2  0
  6  7  1  0
  7  8  2  0
  8  9  1  0
  9 10  2  0
 10 11  1  0
 11 12  1  0
 11 13  1  0
 11 14  1  0
  2 15  1  0
 15 16  2  0
 15 17  1  0
 10  5  1  0
M  END
>  <rName>  (4479) 
hPhe_2CF3

>  <PQ_SYMBOL>  (4479) 
hPhe_2CF3

>  <FULL_NAME>  (4479) 
(S)-2-amino-4-(2-(trifluoromethyl)phenyl)butanoic acid

>  <IUPAC_CONDENSED>  (4479) 
hPhe(2-CF3)

>  <IUPAC>  (4479) 
(2S)-2-amino-4-(2-(trifluoromethyl)phenyl)butanoic acid

>  <TYPE>  (4479) 
Backbone

>  <CLASS>  (4479) 
alpha

>  <ANALOG>  (4479) 
Phe

>  <MOL_WT>  (4479) 
247.21599999999992

>  <LOGP>  (4479) 
2.0499

>  <TPSA>  (4479) 
63.32000000000001

>  <POPULARITY>  (4479) 
4.7

>  <PROTECTED>  (4479) 
TRUE

>  <SMILES>  (4479) 
N[C@@H](CCc1(ccccc1C(F)(F)F))C(=O)O

>  <INCHIKEY>  (4479) 
BCXGVVUDFMBXEM-VIFPVBQESA-N

$$$$
hPhe_2Cl
     RDKit          2D

 14 14  0  0  0  0  0  0  0  0999 V2000
   -2.7345   -1.9034    0.0000 N   0  0  0  0  0  0  0  0  0  0  0  0
   -2.5673   -0.4128    0.0000 C   0  0  0  0  0  0  0  0  0  0  0  0
   -1.1928    0.1877    0.0000 C   0  0  0  0  0  0  0  0  0  0  0  0
    0.0146   -0.7024    0.0000 C   0  0  0  0  0  0  0  0  0  0  0  0
    1.3891   -0.1019    0.0000 C   0  0  0  0  0  0  0  0  0  0  0  0
    1.5563    1.3887    0.0000 C   0  0  0  0  0  0  0  0  0  0  0  0
    2.9309    1.9892    0.0000 C   0  0  0  0  0  0  0  0  0  0  0  0
    4.1382    1.0991    0.0000 C   0  0  0  0  0  0  0  0  0  0  0  0
    3.9710   -0.3916    0.0000 C   0  0  0  0  0  0  0  0  0  0  0  0
    2.5965   -0.9921    0.0000 C   0  0  0  0  0  0  0  0  0  0  0  0
    2.4292   -2.4827    0.0000 Cl  0  0  0  0  0  0  0  0  0  0  0  0
   -3.7746    0.4773    0.0000 C   0  0  0  0  0  0  0  0  0  0  0  0
   -3.6074    1.9680    0.0000 O   0  0  0  0  0  0  0  0  0  0  0  0
   -5.1492   -0.1232    0.0000 O   0  0  0  0  0  0  0  0  0  0  0  0
  2  1  1  6
  2  3  1  0
  3  4  1  0
  4  5  1  0
  5  6  2  0
  6  7  1  0
  7  8  2  0
  8  9  1  0
  9 10  2  0
 10 11  1  0
  2 12  1  0
 12 13  2  0
 12 14  1  0
 10  5  1  0
M  END
>  <rName>  (4480) 
hPhe_2Cl

>  <PQ_SYMBOL>  (4480) 
hPhe_2Cl

>  <FULL_NAME>  (4480) 
2-chloro-L-homophenylalanine

>  <IUPAC_CONDENSED>  (4480) 
hPhe(2-Cl)

>  <IUPAC>  (4480) 
(2S)-2-amino-4-(2-chlorophenyl)butanoic acid

>  <TYPE>  (4480) 
Backbone

>  <CLASS>  (4480) 
alpha

>  <ANALOG>  (4480) 
Phe

>  <MOL_WT>  (4480) 
213.66399999999996

>  <LOGP>  (4480) 
1.6844999999999999

>  <TPSA>  (4480) 
63.32000000000001

>  <POPULARITY>  (4480) 
6.6

>  <PROTECTED>  (4480) 
TRUE

>  <SMILES>  (4480) 
N[C@@H](CCc1(ccccc1Cl))C(=O)O

>  <INCHIKEY>  (4480) 
ZYQDUOLAVXZHAL-VIFPVBQESA-N

$$$$
hPhe_2Cl_4CF3
     RDKit          2D

 18 18  0  0  0  0  0  0  0  0999 V2000
   -4.3508   -1.6481    0.0000 N   0  0  0  0  0  0  0  0  0  0  0  0
   -3.9503   -0.2025    0.0000 C   0  0  0  0  0  0  0  0  0  0  0  0
   -2.4982    0.1734    0.0000 C   0  0  0  0  0  0  0  0  0  0  0  0
   -1.4466   -0.8963    0.0000 C   0  0  0  0  0  0  0  0  0  0  0  0
    0.0056   -0.5204    0.0000 C   0  0  0  0  0  0  0  0  0  0  0  0
    0.4061    0.9251    0.0000 C   0  0  0  0  0  0  0  0  0  0  0  0
    1.8583    1.3010    0.0000 C   0  0  0  0  0  0  0  0  0  0  0  0
    2.9099    0.2314    0.0000 C   0  0  0  0  0  0  0  0  0  0  0  0
    2.5093   -1.2141    0.0000 C   0  0  0  0  0  0  0  0  0  0  0  0
    1.0572   -1.5900    0.0000 C   0  0  0  0  0  0  0  0  0  0  0  0
    0.6567   -3.0356    0.0000 Cl  0  0  0  0  0  0  0  0  0  0  0  0
    4.3620    0.6073    0.0000 C   0  0  0  0  0  0  0  0  0  0  0  0
    5.8141    0.9832    0.0000 F   0  0  0  0  0  0  0  0  0  0  0  0
    4.7379   -0.8448    0.0000 F   0  0  0  0  0  0  0  0  0  0  0  0
    3.9861    2.0594    0.0000 F   0  0  0  0  0  0  0  0  0  0  0  0
   -5.0019    0.8671    0.0000 C   0  0  0  0  0  0  0  0  0  0  0  0
   -4.6014    2.3126    0.0000 O   0  0  0  0  0  0  0  0  0  0  0  0
   -6.4540    0.4912    0.0000 O   0  0  0  0  0  0  0  0  0  0  0  0
  2  1  1  6
  2  3  1  0
  3  4  1  0
  4  5  1  0
  5  6  1  0
  6  7  2  0
  7  8  1  0
  8  9  2  0
  9 10  1  0
 10 11  1  0
  8 12  1  0
 12 13  1  0
 12 14  1  0
 12 15  1  0
  2 16  1  0
 16 17  2  0
 16 18  1  0
 10  5  2  0
M  END
>  <rName>  (4481) 
hPhe_2Cl_4CF3

>  <PQ_SYMBOL>  (4481) 
hPhe_2Cl_4CF3

>  <FULL_NAME>  (4481) 
hPhe(2-Cl,4-CF3)

>  <IUPAC_CONDENSED>  (4481) 
hPhe(2-Cl,4-CF3)

>  <IUPAC>  (4481) 
(2S)-2-amino-4-(2-chloro-4-(trifluoromethyl)phenyl)butanoic acid

>  <TYPE>  (4481) 
Backbone

>  <CLASS>  (4481) 
alpha

>  <ANALOG>  (4481) 
Phe

>  <MOL_WT>  (4481) 
281.66099999999994

>  <LOGP>  (4481) 
2.7033000000000005

>  <TPSA>  (4481) 
63.32000000000001

>  <POPULARITY>  (4481) 
2.2

>  <PROTECTED>  (4481) 
TRUE

>  <SMILES>  (4481) 
N[C@@H](CCc1(ccc(cc1Cl)C(F)(F)F))C(=O)O

>  <INCHIKEY>  (4481) 
UZEZJFZAMIFIBZ-VIFPVBQESA-N

$$$$
hPhe_2F
     RDKit          2D

 14 14  0  0  0  0  0  0  0  0999 V2000
   -2.7345   -1.9034    0.0000 N   0  0  0  0  0  0  0  0  0  0  0  0
   -2.5673   -0.4128    0.0000 C   0  0  0  0  0  0  0  0  0  0  0  0
   -1.1928    0.1877    0.0000 C   0  0  0  0  0  0  0  0  0  0  0  0
    0.0146   -0.7024    0.0000 C   0  0  0  0  0  0  0  0  0  0  0  0
    1.3891   -0.1019    0.0000 C   0  0  0  0  0  0  0  0  0  0  0  0
    1.5563    1.3887    0.0000 C   0  0  0  0  0  0  0  0  0  0  0  0
    2.9309    1.9892    0.0000 C   0  0  0  0  0  0  0  0  0  0  0  0
    4.1382    1.0991    0.0000 C   0  0  0  0  0  0  0  0  0  0  0  0
    3.9710   -0.3916    0.0000 C   0  0  0  0  0  0  0  0  0  0  0  0
    2.5965   -0.9921    0.0000 C   0  0  0  0  0  0  0  0  0  0  0  0
    2.4292   -2.4827    0.0000 F   0  0  0  0  0  0  0  0  0  0  0  0
   -3.7746    0.4773    0.0000 C   0  0  0  0  0  0  0  0  0  0  0  0
   -3.6074    1.9680    0.0000 O   0  0  0  0  0  0  0  0  0  0  0  0
   -5.1492   -0.1232    0.0000 O   0  0  0  0  0  0  0  0  0  0  0  0
  2  1  1  6
  2  3  1  0
  3  4  1  0
  4  5  1  0
  5  6  2  0
  6  7  1  0
  7  8  2  0
  8  9  1  0
  9 10  2  0
 10 11  1  0
  2 12  1  0
 12 13  2  0
 12 14  1  0
 10  5  1  0
M  END
>  <rName>  (4482) 
hPhe_2F

>  <PQ_SYMBOL>  (4482) 
hPhe_2F

>  <FULL_NAME>  (4482) 
(S)-2-amino-4-(2-fluorophenyl)butanoic acid

>  <IUPAC_CONDENSED>  (4482) 
hPhe(2-F)

>  <IUPAC>  (4482) 
(2S)-2-amino-4-(2-fluorophenyl)butanoic acid

>  <TYPE>  (4482) 
Backbone

>  <CLASS>  (4482) 
alpha

>  <ANALOG>  (4482) 
Phe

>  <MOL_WT>  (4482) 
197.20899999999995

>  <LOGP>  (4482) 
1.1702

>  <TPSA>  (4482) 
63.32000000000001

>  <POPULARITY>  (4482) 
7.8

>  <PROTECTED>  (4482) 
TRUE

>  <SMILES>  (4482) 
N[C@@H](CCc1(ccccc1F))C(=O)O

>  <INCHIKEY>  (4482) 
HKDDGWLHCOPIQU-VIFPVBQESA-N

$$$$
hPhe_2F_3Cl
     RDKit          2D

 15 15  0  0  0  0  0  0  0  0999 V2000
   -2.9888   -1.9640    0.0000 N   0  0  0  0  0  0  0  0  0  0  0  0
   -2.8934   -0.4670    0.0000 C   0  0  0  0  0  0  0  0  0  0  0  0
   -1.5493    0.1989    0.0000 C   0  0  0  0  0  0  0  0  0  0  0  0
   -0.3006   -0.6322    0.0000 C   0  0  0  0  0  0  0  0  0  0  0  0
    1.0435    0.0337    0.0000 C   0  0  0  0  0  0  0  0  0  0  0  0
    1.1388    1.5307    0.0000 C   0  0  0  0  0  0  0  0  0  0  0  0
    2.4829    2.1966    0.0000 C   0  0  0  0  0  0  0  0  0  0  0  0
    3.7317    1.3655    0.0000 C   0  0  0  0  0  0  0  0  0  0  0  0
    3.6363   -0.1314    0.0000 C   0  0  0  0  0  0  0  0  0  0  0  0
    4.8850   -0.9625    0.0000 Cl  0  0  0  0  0  0  0  0  0  0  0  0
    2.2922   -0.7973    0.0000 C   0  0  0  0  0  0  0  0  0  0  0  0
    2.1969   -2.2943    0.0000 F   0  0  0  0  0  0  0  0  0  0  0  0
   -4.1422    0.3641    0.0000 C   0  0  0  0  0  0  0  0  0  0  0  0
   -4.0468    1.8610    0.0000 O   0  0  0  0  0  0  0  0  0  0  0  0
   -5.4862   -0.3018    0.0000 O   0  0  0  0  0  0  0  0  0  0  0  0
  2  1  1  6
  2  3  1  0
  3  4  1  0
  4  5  1  0
  5  6  2  0
  6  7  1  0
  7  8  2  0
  8  9  1  0
  9 10  1  0
  9 11  2  0
 11 12  1  0
  2 13  1  0
 13 14  2  0
 13 15  1  0
 11  5  1  0
M  END
>  <rName>  (4483) 
hPhe_2F_3Cl

>  <PQ_SYMBOL>  (4483) 
hPhe_2F_3Cl

>  <FULL_NAME>  (4483) 
2-Fluoro-3-chloro-L-homophenylalanine

>  <IUPAC_CONDENSED>  (4483) 
hPhe(2-F,3-Cl)

>  <IUPAC>  (4483) 
(2S)-2-amino-4-(3-chloro-2-fluorophenyl)butanoic acid

>  <TYPE>  (4483) 
Backbone

>  <CLASS>  (4483) 
alpha

>  <ANALOG>  (4483) 
Phe

>  <MOL_WT>  (4483) 
231.65399999999997

>  <LOGP>  (4483) 
1.8235999999999999

>  <TPSA>  (4483) 
63.32000000000001

>  <POPULARITY>  (4483) 
2.2

>  <PROTECTED>  (4483) 
TRUE

>  <SMILES>  (4483) 
N[C@@H](CCc1(cccc(Cl)c1F))C(=O)O

>  <INCHIKEY>  (4483) 
LSUVQAUHLIGXHF-QMMMGPOBSA-N

$$$$
hPhe_2F_5Cl
     RDKit          2D

 15 15  0  0  0  0  0  0  0  0999 V2000
   -3.1338   -1.8409    0.0000 N   0  0  0  0  0  0  0  0  0  0  0  0
   -2.8232   -0.3734    0.0000 C   0  0  0  0  0  0  0  0  0  0  0  0
   -1.3970    0.0913    0.0000 C   0  0  0  0  0  0  0  0  0  0  0  0
   -0.2815   -0.9115    0.0000 C   0  0  0  0  0  0  0  0  0  0  0  0
    1.1447   -0.4467    0.0000 C   0  0  0  0  0  0  0  0  0  0  0  0
    1.4554    1.0207    0.0000 C   0  0  0  0  0  0  0  0  0  0  0  0
    2.8816    1.4855    0.0000 C   0  0  0  0  0  0  0  0  0  0  0  0
    3.1922    2.9530    0.0000 Cl  0  0  0  0  0  0  0  0  0  0  0  0
    3.9971    0.4827    0.0000 C   0  0  0  0  0  0  0  0  0  0  0  0
    3.6865   -0.9848    0.0000 C   0  0  0  0  0  0  0  0  0  0  0  0
    2.2603   -1.4495    0.0000 C   0  0  0  0  0  0  0  0  0  0  0  0
    1.9497   -2.9170    0.0000 F   0  0  0  0  0  0  0  0  0  0  0  0
   -3.9388    0.6293    0.0000 C   0  0  0  0  0  0  0  0  0  0  0  0
   -3.6281    2.0968    0.0000 O   0  0  0  0  0  0  0  0  0  0  0  0
   -5.3650    0.1646    0.0000 O   0  0  0  0  0  0  0  0  0  0  0  0
  2  1  1  6
  2  3  1  0
  3  4  1  0
  4  5  1  0
  5  6  1  0
  6  7  2  0
  7  8  1  0
  7  9  1  0
  9 10  2  0
 10 11  1  0
 11 12  1  0
  2 13  1  0
 13 14  2  0
 13 15  1  0
 11  5  2  0
M  END
>  <rName>  (4484) 
hPhe_2F_5Cl

>  <PQ_SYMBOL>  (4484) 
hPhe_2F_5Cl

>  <FULL_NAME>  (4484) 
2-Fluoro-5-chloro-L-homophenylalanine

>  <IUPAC_CONDENSED>  (4484) 
hPhe(2-F,5-Cl)

>  <IUPAC>  (4484) 
(2S)-2-amino-4-(5-chloro-2-fluorophenyl)butanoic acid

>  <TYPE>  (4484) 
Backbone

>  <CLASS>  (4484) 
alpha

>  <ANALOG>  (4484) 
Phe

>  <MOL_WT>  (4484) 
231.65399999999997

>  <LOGP>  (4484) 
1.8235999999999999

>  <TPSA>  (4484) 
63.32000000000001

>  <POPULARITY>  (4484) 
2.2

>  <PROTECTED>  (4484) 
TRUE

>  <SMILES>  (4484) 
N[C@@H](CCc1(cc(Cl)ccc1F))C(=O)O

>  <INCHIKEY>  (4484) 
VFVCPGHKYSZHDG-VIFPVBQESA-N

$$$$
hPhe_2I
     RDKit          2D

 14 14  0  0  0  0  0  0  0  0999 V2000
   -2.7345   -1.9034    0.0000 N   0  0  0  0  0  0  0  0  0  0  0  0
   -2.5673   -0.4128    0.0000 C   0  0  0  0  0  0  0  0  0  0  0  0
   -1.1928    0.1877    0.0000 C   0  0  0  0  0  0  0  0  0  0  0  0
    0.0146   -0.7024    0.0000 C   0  0  0  0  0  0  0  0  0  0  0  0
    1.3891   -0.1019    0.0000 C   0  0  0  0  0  0  0  0  0  0  0  0
    1.5563    1.3887    0.0000 C   0  0  0  0  0  0  0  0  0  0  0  0
    2.9309    1.9892    0.0000 C   0  0  0  0  0  0  0  0  0  0  0  0
    4.1382    1.0991    0.0000 C   0  0  0  0  0  0  0  0  0  0  0  0
    3.9710   -0.3916    0.0000 C   0  0  0  0  0  0  0  0  0  0  0  0
    2.5965   -0.9921    0.0000 C   0  0  0  0  0  0  0  0  0  0  0  0
    2.4292   -2.4827    0.0000 I   0  0  0  0  0  0  0  0  0  0  0  0
   -3.7746    0.4773    0.0000 C   0  0  0  0  0  0  0  0  0  0  0  0
   -3.6074    1.9680    0.0000 O   0  0  0  0  0  0  0  0  0  0  0  0
   -5.1492   -0.1232    0.0000 O   0  0  0  0  0  0  0  0  0  0  0  0
  2  1  1  6
  2  3  1  0
  3  4  1  0
  4  5  1  0
  5  6  2  0
  6  7  1  0
  7  8  2  0
  8  9  1  0
  9 10  2  0
 10 11  1  0
  2 12  1  0
 12 13  2  0
 12 14  1  0
 10  5  1  0
M  END
>  <rName>  (4485) 
hPhe_2I

>  <PQ_SYMBOL>  (4485) 
hPhe_2I

>  <FULL_NAME>  (4485) 
hPhe(2-I)

>  <IUPAC_CONDENSED>  (4485) 
hPhe(2-I)

>  <IUPAC>  (4485) 
(2S)-2-amino-4-(2-iodophenyl)butanoic acid

>  <TYPE>  (4485) 
Backbone

>  <CLASS>  (4485) 
alpha

>  <ANALOG>  (4485) 
Phe

>  <MOL_WT>  (4485) 
305.115

>  <LOGP>  (4485) 
1.6357

>  <TPSA>  (4485) 
63.32000000000001

>  <POPULARITY>  (4485) 
2.2

>  <PROTECTED>  (4485) 
TRUE

>  <SMILES>  (4485) 
N[C@@H](CCc1(ccccc1I))C(=O)O

>  <INCHIKEY>  (4485) 
NKJIEEHFBPICAV-VIFPVBQESA-N

$$$$
hPhe_2Me
     RDKit          2D

 14 14  0  0  0  0  0  0  0  0999 V2000
   -2.7345   -1.9034    0.0000 N   0  0  0  0  0  0  0  0  0  0  0  0
   -2.5673   -0.4128    0.0000 C   0  0  0  0  0  0  0  0  0  0  0  0
   -1.1928    0.1877    0.0000 C   0  0  0  0  0  0  0  0  0  0  0  0
    0.0146   -0.7024    0.0000 C   0  0  0  0  0  0  0  0  0  0  0  0
    1.3891   -0.1019    0.0000 C   0  0  0  0  0  0  0  0  0  0  0  0
    1.5563    1.3887    0.0000 C   0  0  0  0  0  0  0  0  0  0  0  0
    2.9309    1.9892    0.0000 C   0  0  0  0  0  0  0  0  0  0  0  0
    4.1382    1.0991    0.0000 C   0  0  0  0  0  0  0  0  0  0  0  0
    3.9710   -0.3916    0.0000 C   0  0  0  0  0  0  0  0  0  0  0  0
    2.5965   -0.9921    0.0000 C   0  0  0  0  0  0  0  0  0  0  0  0
    2.4292   -2.4827    0.0000 C   0  0  0  0  0  0  0  0  0  0  0  0
   -3.7746    0.4773    0.0000 C   0  0  0  0  0  0  0  0  0  0  0  0
   -3.6074    1.9680    0.0000 O   0  0  0  0  0  0  0  0  0  0  0  0
   -5.1492   -0.1232    0.0000 O   0  0  0  0  0  0  0  0  0  0  0  0
  2  1  1  6
  2  3  1  0
  3  4  1  0
  4  5  1  0
  5  6  2  0
  6  7  1  0
  7  8  2  0
  8  9  1  0
  9 10  2  0
 10 11  1  0
  2 12  1  0
 12 13  2  0
 12 14  1  0
 10  5  1  0
M  END
>  <rName>  (4486) 
hPhe_2Me

>  <PQ_SYMBOL>  (4486) 
hPhe_2Me

>  <FULL_NAME>  (4486) 
(S)-2-amino-4-(o-tolyl)butanoic acid

>  <IUPAC_CONDENSED>  (4486) 
hPhe(2-Me)

>  <IUPAC>  (4486) 
(2S)-2-amino-4-(2-methylphenyl)butanoic acid

>  <TYPE>  (4486) 
Backbone

>  <CLASS>  (4486) 
alpha

>  <ANALOG>  (4486) 
Phe

>  <MOL_WT>  (4486) 
193.24599999999995

>  <LOGP>  (4486) 
1.3395199999999998

>  <TPSA>  (4486) 
63.32000000000001

>  <POPULARITY>  (4486) 
9.4

>  <PROTECTED>  (4486) 
TRUE

>  <SMILES>  (4486) 
N[C@@H](CCc1(ccccc1C))C(=O)O

>  <INCHIKEY>  (4486) 
UIINSJBTFLRMLY-JTQLQIEISA-N

$$$$
hPhe_2OCF3
     RDKit          2D

 18 18  0  0  0  0  0  0  0  0999 V2000
   -3.0669   -2.2009    0.0000 N   0  0  0  0  0  0  0  0  0  0  0  0
   -3.3852   -0.7351    0.0000 C   0  0  0  0  0  0  0  0  0  0  0  0
   -2.2749    0.2735    0.0000 C   0  0  0  0  0  0  0  0  0  0  0  0
   -0.8463   -0.1838    0.0000 C   0  0  0  0  0  0  0  0  0  0  0  0
    0.2640    0.8248    0.0000 C   0  0  0  0  0  0  0  0  0  0  0  0
   -0.0543    2.2906    0.0000 C   0  0  0  0  0  0  0  0  0  0  0  0
    1.0560    3.2992    0.0000 C   0  0  0  0  0  0  0  0  0  0  0  0
    2.4846    2.8420    0.0000 C   0  0  0  0  0  0  0  0  0  0  0  0
    2.8029    1.3761    0.0000 C   0  0  0  0  0  0  0  0  0  0  0  0
    1.6926    0.3676    0.0000 C   0  0  0  0  0  0  0  0  0  0  0  0
    2.0109   -1.0983    0.0000 O   0  0  0  0  0  0  0  0  0  0  0  0
    3.4395   -1.5555    0.0000 C   0  0  0  0  0  0  0  0  0  0  0  0
    4.8681   -2.0128    0.0000 F   0  0  0  0  0  0  0  0  0  0  0  0
    2.9823   -2.9841    0.0000 F   0  0  0  0  0  0  0  0  0  0  0  0
    3.8968   -0.1269    0.0000 F   0  0  0  0  0  0  0  0  0  0  0  0
   -4.8138   -0.2779    0.0000 C   0  0  0  0  0  0  0  0  0  0  0  0
   -5.1321    1.1880    0.0000 O   0  0  0  0  0  0  0  0  0  0  0  0
   -5.9241   -1.2864    0.0000 O   0  0  0  0  0  0  0  0  0  0  0  0
  2  1  1  6
  2  3  1  0
  3  4  1  0
  4  5  1  0
  5  6  2  0
  6  7  1  0
  7  8  2  0
  8  9  1  0
  9 10  2  0
 10 11  1  0
 11 12  1  0
 12 13  1  0
 12 14  1  0
 12 15  1  0
  2 16  1  0
 16 17  2  0
 16 18  1  0
 10  5  1  0
M  END
>  <rName>  (4487) 
hPhe_2OCF3

>  <PQ_SYMBOL>  (4487) 
hPhe_2OCF3

>  <FULL_NAME>  (4487) 
(S)-2-amino-4-(2-(trifluoromethoxy)phenyl)butanoic acid

>  <IUPAC_CONDENSED>  (4487) 
hPhe(2-OCF3)

>  <IUPAC>  (4487) 
(2S)-2-amino-4-(2-((trifluoromethyl)oxy)phenyl)butanoic acid

>  <TYPE>  (4487) 
Backbone

>  <CLASS>  (4487) 
alpha

>  <ANALOG>  (4487) 
Tyr

>  <MOL_WT>  (4487) 
263.2149999999999

>  <LOGP>  (4487) 
1.9297

>  <TPSA>  (4487) 
72.55

>  <POPULARITY>  (4487) 
4.1

>  <PROTECTED>  (4487) 
TRUE

>  <SMILES>  (4487) 
N[C@@H](CCc1(ccccc1OC(F)(F)F))C(=O)O

>  <INCHIKEY>  (4487) 
AKBSJHPDJHJGOW-QMMMGPOBSA-N

$$$$
hPhe_2OMe
     RDKit          2D

 15 15  0  0  0  0  0  0  0  0999 V2000
   -2.7831   -1.9835    0.0000 N   0  0  0  0  0  0  0  0  0  0  0  0
   -2.7742   -0.4835    0.0000 C   0  0  0  0  0  0  0  0  0  0  0  0
   -1.4707    0.2588    0.0000 C   0  0  0  0  0  0  0  0  0  0  0  0
   -0.1762   -0.4990    0.0000 C   0  0  0  0  0  0  0  0  0  0  0  0
    1.1273    0.2433    0.0000 C   0  0  0  0  0  0  0  0  0  0  0  0
    1.1362    1.7433    0.0000 C   0  0  0  0  0  0  0  0  0  0  0  0
    2.4397    2.4855    0.0000 C   0  0  0  0  0  0  0  0  0  0  0  0
    3.7343    1.7278    0.0000 C   0  0  0  0  0  0  0  0  0  0  0  0
    3.7253    0.2278    0.0000 C   0  0  0  0  0  0  0  0  0  0  0  0
    2.4219   -0.5144    0.0000 C   0  0  0  0  0  0  0  0  0  0  0  0
    2.4129   -2.0144    0.0000 O   0  0  0  0  0  0  0  0  0  0  0  0
    3.7075   -2.7721    0.0000 C   0  0  0  0  0  0  0  0  0  0  0  0
   -4.0688    0.2742    0.0000 C   0  0  0  0  0  0  0  0  0  0  0  0
   -4.0598    1.7742    0.0000 O   0  0  0  0  0  0  0  0  0  0  0  0
   -5.3722   -0.4680    0.0000 O   0  0  0  0  0  0  0  0  0  0  0  0
  2  1  1  6
  2  3  1  0
  3  4  1  0
  4  5  1  0
  5  6  2  0
  6  7  1  0
  7  8  2  0
  8  9  1  0
  9 10  2  0
 10 11  1  0
 11 12  1  0
  2 13  1  0
 13 14  2  0
 13 15  1  0
 10  5  1  0
M  END
>  <rName>  (4488) 
hPhe_2OMe

>  <PQ_SYMBOL>  (4488) 
hPhe_2OMe

>  <FULL_NAME>  (4488) 
(S)-2-amino-4-(2-methoxyphenyl)butanoic acid

>  <IUPAC_CONDENSED>  (4488) 
hPhe(2-OMe)

>  <IUPAC>  (4488) 
(2S)-2-amino-4-(2-methoxyphenyl)butanoic acid

>  <TYPE>  (4488) 
Backbone

>  <CLASS>  (4488) 
alpha

>  <ANALOG>  (4488) 
Tyr

>  <MOL_WT>  (4488) 
209.24499999999995

>  <LOGP>  (4488) 
1.0396999999999998

>  <TPSA>  (4488) 
72.55

>  <POPULARITY>  (4488) 
6.9

>  <PROTECTED>  (4488) 
TRUE

>  <SMILES>  (4488) 
N[C@@H](CCc1(ccccc1OC))C(=O)O

>  <INCHIKEY>  (4488) 
XHMOJLCCRFYKKC-VIFPVBQESA-N

$$$$
hPhe_2OMe_4CF3
     RDKit          2D

 19 19  0  0  0  0  0  0  0  0999 V2000
   -4.3898   -1.5812    0.0000 N   0  0  0  0  0  0  0  0  0  0  0  0
   -4.0384   -0.1230    0.0000 C   0  0  0  0  0  0  0  0  0  0  0  0
   -2.5997    0.3018    0.0000 C   0  0  0  0  0  0  0  0  0  0  0  0
   -1.5126   -0.7317    0.0000 C   0  0  0  0  0  0  0  0  0  0  0  0
   -0.0740   -0.3070    0.0000 C   0  0  0  0  0  0  0  0  0  0  0  0
    0.2775    1.1512    0.0000 C   0  0  0  0  0  0  0  0  0  0  0  0
    1.7161    1.5760    0.0000 C   0  0  0  0  0  0  0  0  0  0  0  0
    2.8032    0.5425    0.0000 C   0  0  0  0  0  0  0  0  0  0  0  0
    2.4518   -0.9158    0.0000 C   0  0  0  0  0  0  0  0  0  0  0  0
    1.0131   -1.3405    0.0000 C   0  0  0  0  0  0  0  0  0  0  0  0
    0.6617   -2.7987    0.0000 O   0  0  0  0  0  0  0  0  0  0  0  0
    1.7488   -3.8322    0.0000 C   0  0  0  0  0  0  0  0  0  0  0  0
    4.2418    0.9672    0.0000 C   0  0  0  0  0  0  0  0  0  0  0  0
    5.6804    1.3920    0.0000 F   0  0  0  0  0  0  0  0  0  0  0  0
    4.6666   -0.4714    0.0000 F   0  0  0  0  0  0  0  0  0  0  0  0
    3.8171    2.4058    0.0000 F   0  0  0  0  0  0  0  0  0  0  0  0
   -5.1255    0.9105    0.0000 C   0  0  0  0  0  0  0  0  0  0  0  0
   -4.7740    2.3688    0.0000 O   0  0  0  0  0  0  0  0  0  0  0  0
   -6.5641    0.4858    0.0000 O   0  0  0  0  0  0  0  0  0  0  0  0
  2  1  1  6
  2  3  1  0
  3  4  1  0
  4  5  1  0
  5  6  1  0
  6  7  2  0
  7  8  1  0
  8  9  2  0
  9 10  1  0
 10 11  1  0
 11 12  1  0
  8 13  1  0
 13 14  1  0
 13 15  1  0
 13 16  1  0
  2 17  1  0
 17 18  2  0
 17 19  1  0
 10  5  2  0
M  END
>  <rName>  (4489) 
hPhe_2OMe_4CF3

>  <PQ_SYMBOL>  (4489) 
hPhe_2OMe_4CF3

>  <FULL_NAME>  (4489) 
2-Methoxy-4-(trifluoromethyl)-L-homophenylalanine

>  <IUPAC_CONDENSED>  (4489) 
hPhe(2-OMe,4-CF3)

>  <IUPAC>  (4489) 
(2S)-2-amino-4-[2-methoxy-4-(trifluoromethyl)phenyl]butanoic acid

>  <TYPE>  (4489) 
Backbone

>  <CLASS>  (4489) 
alpha

>  <ANALOG>  (4489) 
Tyr

>  <MOL_WT>  (4489) 
277.24199999999996

>  <LOGP>  (4489) 
2.0585

>  <TPSA>  (4489) 
72.55

>  <POPULARITY>  (4489) 
2.2

>  <PROTECTED>  (4489) 
TRUE

>  <SMILES>  (4489) 
N[C@@H](CCc1(ccc(cc1OC)C(F)(F)F))C(=O)O

>  <INCHIKEY>  (4489) 
KEFGZBANFJTHFD-VIFPVBQESA-N

$$$$
hPhe_34diCl
     RDKit          2D

 15 15  0  0  0  0  0  0  0  0999 V2000
   -3.3791   -1.9420    0.0000 N   0  0  0  0  0  0  0  0  0  0  0  0
   -3.1429   -0.4608    0.0000 C   0  0  0  0  0  0  0  0  0  0  0  0
   -1.7419    0.0753    0.0000 C   0  0  0  0  0  0  0  0  0  0  0  0
   -0.5772   -0.8699    0.0000 C   0  0  0  0  0  0  0  0  0  0  0  0
    0.8237   -0.3339    0.0000 C   0  0  0  0  0  0  0  0  0  0  0  0
    1.0600    1.1474    0.0000 C   0  0  0  0  0  0  0  0  0  0  0  0
    2.4609    1.6834    0.0000 C   0  0  0  0  0  0  0  0  0  0  0  0
    3.6256    0.7382    0.0000 C   0  0  0  0  0  0  0  0  0  0  0  0
    5.0266    1.2742    0.0000 Cl  0  0  0  0  0  0  0  0  0  0  0  0
    3.3894   -0.7431    0.0000 C   0  0  0  0  0  0  0  0  0  0  0  0
    4.5541   -1.6883    0.0000 Cl  0  0  0  0  0  0  0  0  0  0  0  0
    1.9884   -1.2791    0.0000 C   0  0  0  0  0  0  0  0  0  0  0  0
   -4.3076    0.4845    0.0000 C   0  0  0  0  0  0  0  0  0  0  0  0
   -4.0713    1.9658    0.0000 O   0  0  0  0  0  0  0  0  0  0  0  0
   -5.7085   -0.0516    0.0000 O   0  0  0  0  0  0  0  0  0  0  0  0
  2  1  1  6
  2  3  1  0
  3  4  1  0
  4  5  1  0
  5  6  1  0
  6  7  2  0
  7  8  1  0
  8  9  1  0
  8 10  2  0
 10 11  1  0
 10 12  1  0
  2 13  1  0
 13 14  2  0
 13 15  1  0
 12  5  2  0
M  END
>  <rName>  (4490) 
hPhe_34diCl

>  <PQ_SYMBOL>  (4490) 
hPhe_34diCl

>  <FULL_NAME>  (4490) 
3,4-dichloro-L-homophe

>  <IUPAC_CONDENSED>  (4490) 
hPhe(3,4-diCl)

>  <IUPAC>  (4490) 
(2S)-2-amino-4-(3,4-dichlorophenyl)butanoic acid

>  <TYPE>  (4490) 
Backbone

>  <CLASS>  (4490) 
alpha

>  <ANALOG>  (4490) 
Phe

>  <MOL_WT>  (4490) 
248.10899999999998

>  <LOGP>  (4490) 
2.3379

>  <TPSA>  (4490) 
63.32000000000001

>  <POPULARITY>  (4490) 
6.1

>  <PROTECTED>  (4490) 
TRUE

>  <SMILES>  (4490) 
N[C@@H](CCc1(ccc(Cl)c(Cl)c1))C(=O)O

>  <INCHIKEY>  (4490) 
PHCCQGLRCCLUBD-VIFPVBQESA-N

$$$$
hPhe_34diF
     RDKit          2D

 15 15  0  0  0  0  0  0  0  0999 V2000
   -3.3791   -1.9420    0.0000 N   0  0  0  0  0  0  0  0  0  0  0  0
   -3.1429   -0.4608    0.0000 C   0  0  0  0  0  0  0  0  0  0  0  0
   -1.7419    0.0753    0.0000 C   0  0  0  0  0  0  0  0  0  0  0  0
   -0.5772   -0.8699    0.0000 C   0  0  0  0  0  0  0  0  0  0  0  0
    0.8237   -0.3339    0.0000 C   0  0  0  0  0  0  0  0  0  0  0  0
    1.0600    1.1474    0.0000 C   0  0  0  0  0  0  0  0  0  0  0  0
    2.4609    1.6834    0.0000 C   0  0  0  0  0  0  0  0  0  0  0  0
    3.6256    0.7382    0.0000 C   0  0  0  0  0  0  0  0  0  0  0  0
    5.0266    1.2742    0.0000 F   0  0  0  0  0  0  0  0  0  0  0  0
    3.3894   -0.7431    0.0000 C   0  0  0  0  0  0  0  0  0  0  0  0
    4.5541   -1.6883    0.0000 F   0  0  0  0  0  0  0  0  0  0  0  0
    1.9884   -1.2791    0.0000 C   0  0  0  0  0  0  0  0  0  0  0  0
   -4.3076    0.4845    0.0000 C   0  0  0  0  0  0  0  0  0  0  0  0
   -4.0713    1.9658    0.0000 O   0  0  0  0  0  0  0  0  0  0  0  0
   -5.7085   -0.0516    0.0000 O   0  0  0  0  0  0  0  0  0  0  0  0
  2  1  1  6
  2  3  1  0
  3  4  1  0
  4  5  1  0
  5  6  1  0
  6  7  2  0
  7  8  1  0
  8  9  1  0
  8 10  2  0
 10 11  1  0
 10 12  1  0
  2 13  1  0
 13 14  2  0
 13 15  1  0
 12  5  2  0
M  END
>  <rName>  (4491) 
hPhe_34diF

>  <PQ_SYMBOL>  (4491) 
hPhe_34diF

>  <FULL_NAME>  (4491) 
(S)-2-Amino-4-(3,4-difluorophenyl)butanoic acid

>  <IUPAC_CONDENSED>  (4491) 
hPhe(3,4-diF)

>  <IUPAC>  (4491) 
(2S)-2-amino-4-(3,4-difluorophenyl)butanoic acid

>  <TYPE>  (4491) 
Backbone

>  <CLASS>  (4491) 
alpha

>  <ANALOG>  (4491) 
Phe

>  <MOL_WT>  (4491) 
215.19899999999998

>  <LOGP>  (4491) 
1.3093

>  <TPSA>  (4491) 
63.32000000000001

>  <POPULARITY>  (4491) 
2.2

>  <PROTECTED>  (4491) 
TRUE

>  <SMILES>  (4491) 
N[C@@H](CCc1(ccc(F)c(F)c1))C(=O)O

>  <INCHIKEY>  (4491) 
CMYDRCBMHLOBSN-VIFPVBQESA-N

$$$$
hPhe_34diMe
     RDKit          2D

 15 15  0  0  0  0  0  0  0  0999 V2000
   -3.3791   -1.9420    0.0000 N   0  0  0  0  0  0  0  0  0  0  0  0
   -3.1429   -0.4608    0.0000 C   0  0  0  0  0  0  0  0  0  0  0  0
   -1.7419    0.0753    0.0000 C   0  0  0  0  0  0  0  0  0  0  0  0
   -0.5772   -0.8699    0.0000 C   0  0  0  0  0  0  0  0  0  0  0  0
    0.8237   -0.3339    0.0000 C   0  0  0  0  0  0  0  0  0  0  0  0
    1.0600    1.1474    0.0000 C   0  0  0  0  0  0  0  0  0  0  0  0
    2.4609    1.6834    0.0000 C   0  0  0  0  0  0  0  0  0  0  0  0
    3.6256    0.7382    0.0000 C   0  0  0  0  0  0  0  0  0  0  0  0
    5.0266    1.2742    0.0000 C   0  0  0  0  0  0  0  0  0  0  0  0
    3.3894   -0.7431    0.0000 C   0  0  0  0  0  0  0  0  0  0  0  0
    4.5541   -1.6883    0.0000 C   0  0  0  0  0  0  0  0  0  0  0  0
    1.9884   -1.2791    0.0000 C   0  0  0  0  0  0  0  0  0  0  0  0
   -4.3076    0.4845    0.0000 C   0  0  0  0  0  0  0  0  0  0  0  0
   -4.0713    1.9658    0.0000 O   0  0  0  0  0  0  0  0  0  0  0  0
   -5.7085   -0.0516    0.0000 O   0  0  0  0  0  0  0  0  0  0  0  0
  2  1  1  6
  2  3  1  0
  3  4  1  0
  4  5  1  0
  5  6  1  0
  6  7  2  0
  7  8  1  0
  8  9  1  0
  8 10  2  0
 10 11  1  0
 10 12  1  0
  2 13  1  0
 13 14  2  0
 13 15  1  0
 12  5  2  0
M  END
>  <rName>  (4492) 
hPhe_34diMe

>  <PQ_SYMBOL>  (4492) 
hPhe_34diMe

>  <FULL_NAME>  (4492) 
(2S)-2-amino-4-(3,4-dimethylphenyl)butanoic acid

>  <IUPAC_CONDENSED>  (4492) 
hPhe(3,4-diMe)

>  <IUPAC>  (4492) 
(2S)-2-amino-4-(3,4-dimethylphenyl)butanoic acid

>  <TYPE>  (4492) 
Backbone

>  <CLASS>  (4492) 
alpha

>  <ANALOG>  (4492) 
Phe

>  <MOL_WT>  (4492) 
207.27299999999997

>  <LOGP>  (4492) 
1.64794

>  <TPSA>  (4492) 
63.32000000000001

>  <POPULARITY>  (4492) 
2.2

>  <PROTECTED>  (4492) 
TRUE

>  <SMILES>  (4492) 
N[C@@H](CCc1(ccc(C)c(C)c1))C(=O)O

>  <INCHIKEY>  (4492) 
RPLSROLXINIXAE-NSHDSACASA-N

$$$$
hPhe_35diCl
     RDKit          2D

 15 15  0  0  0  0  0  0  0  0999 V2000
   -3.2624   -2.0067    0.0000 N   0  0  0  0  0  0  0  0  0  0  0  0
   -2.9982   -0.5301    0.0000 C   0  0  0  0  0  0  0  0  0  0  0  0
   -1.5873   -0.0207    0.0000 C   0  0  0  0  0  0  0  0  0  0  0  0
   -0.4407   -0.9878    0.0000 C   0  0  0  0  0  0  0  0  0  0  0  0
    0.9701   -0.4784    0.0000 C   0  0  0  0  0  0  0  0  0  0  0  0
    1.2344    0.9982    0.0000 C   0  0  0  0  0  0  0  0  0  0  0  0
    2.6452    1.5076    0.0000 C   0  0  0  0  0  0  0  0  0  0  0  0
    2.9095    2.9841    0.0000 Cl  0  0  0  0  0  0  0  0  0  0  0  0
    3.7918    0.5405    0.0000 C   0  0  0  0  0  0  0  0  0  0  0  0
    3.5276   -0.9361    0.0000 C   0  0  0  0  0  0  0  0  0  0  0  0
    4.6742   -1.9032    0.0000 Cl  0  0  0  0  0  0  0  0  0  0  0  0
    2.1167   -1.4455    0.0000 C   0  0  0  0  0  0  0  0  0  0  0  0
   -4.1448    0.4370    0.0000 C   0  0  0  0  0  0  0  0  0  0  0  0
   -3.8805    1.9135    0.0000 O   0  0  0  0  0  0  0  0  0  0  0  0
   -5.5556   -0.0724    0.0000 O   0  0  0  0  0  0  0  0  0  0  0  0
  2  1  1  6
  2  3  1  0
  3  4  1  0
  4  5  1  0
  5  6  2  0
  6  7  1  0
  7  8  1  0
  7  9  2  0
  9 10  1  0
 10 11  1  0
 10 12  2  0
  2 13  1  0
 13 14  2  0
 13 15  1  0
 12  5  1  0
M  END
>  <rName>  (4493) 
hPhe_35diCl

>  <PQ_SYMBOL>  (4493) 
hPhe_35diCl

>  <FULL_NAME>  (4493) 
(S)-2-amino-4-(3,5-dichlorophenyl)butanoic acid

>  <IUPAC_CONDENSED>  (4493) 
hPhe(3,5-diCl)

>  <IUPAC>  (4493) 
(2S)-2-amino-4-(3,5-dichlorophenyl)butanoic acid

>  <TYPE>  (4493) 
Backbone

>  <CLASS>  (4493) 
alpha

>  <ANALOG>  (4493) 
Phe

>  <MOL_WT>  (4493) 
248.10899999999998

>  <LOGP>  (4493) 
2.3379

>  <TPSA>  (4493) 
63.32000000000001

>  <POPULARITY>  (4493) 
4.7

>  <PROTECTED>  (4493) 
TRUE

>  <SMILES>  (4493) 
N[C@@H](CCc1(cc(Cl)cc(Cl)c1))C(=O)O

>  <INCHIKEY>  (4493) 
KGZBOALXMBRBMM-VIFPVBQESA-N

$$$$
hPhe_35diF
     RDKit          2D

 15 15  0  0  0  0  0  0  0  0999 V2000
   -3.2624   -2.0067    0.0000 N   0  0  0  0  0  0  0  0  0  0  0  0
   -2.9982   -0.5301    0.0000 C   0  0  0  0  0  0  0  0  0  0  0  0
   -1.5873   -0.0207    0.0000 C   0  0  0  0  0  0  0  0  0  0  0  0
   -0.4407   -0.9878    0.0000 C   0  0  0  0  0  0  0  0  0  0  0  0
    0.9701   -0.4784    0.0000 C   0  0  0  0  0  0  0  0  0  0  0  0
    1.2344    0.9982    0.0000 C   0  0  0  0  0  0  0  0  0  0  0  0
    2.6452    1.5076    0.0000 C   0  0  0  0  0  0  0  0  0  0  0  0
    2.9095    2.9841    0.0000 F   0  0  0  0  0  0  0  0  0  0  0  0
    3.7918    0.5405    0.0000 C   0  0  0  0  0  0  0  0  0  0  0  0
    3.5276   -0.9361    0.0000 C   0  0  0  0  0  0  0  0  0  0  0  0
    4.6742   -1.9032    0.0000 F   0  0  0  0  0  0  0  0  0  0  0  0
    2.1167   -1.4455    0.0000 C   0  0  0  0  0  0  0  0  0  0  0  0
   -4.1448    0.4370    0.0000 C   0  0  0  0  0  0  0  0  0  0  0  0
   -3.8805    1.9135    0.0000 O   0  0  0  0  0  0  0  0  0  0  0  0
   -5.5556   -0.0724    0.0000 O   0  0  0  0  0  0  0  0  0  0  0  0
  2  1  1  6
  2  3  1  0
  3  4  1  0
  4  5  1  0
  5  6  2  0
  6  7  1  0
  7  8  1  0
  7  9  2  0
  9 10  1  0
 10 11  1  0
 10 12  2  0
  2 13  1  0
 13 14  2  0
 13 15  1  0
 12  5  1  0
M  END
>  <rName>  (4494) 
hPhe_35diF

>  <PQ_SYMBOL>  (4494) 
hPhe_35diF

>  <FULL_NAME>  (4494) 
(S)-a-Amino-3,5-difluorobenzenebutanoic acid

>  <IUPAC_CONDENSED>  (4494) 
hPhe(3,5-diF)

>  <IUPAC>  (4494) 
(2S)-2-amino-4-(3,5-difluorophenyl)butanoic acid

>  <TYPE>  (4494) 
Backbone

>  <CLASS>  (4494) 
alpha

>  <ANALOG>  (4494) 
Phe

>  <MOL_WT>  (4494) 
215.19899999999998

>  <LOGP>  (4494) 
1.3093

>  <TPSA>  (4494) 
63.32000000000001

>  <POPULARITY>  (4494) 
2.2

>  <PROTECTED>  (4494) 
TRUE

>  <SMILES>  (4494) 
N[C@@H](CCc1(cc(F)cc(F)c1))C(=O)O

>  <INCHIKEY>  (4494) 
FBFLLXPTFAGZMT-VIFPVBQESA-N

$$$$
hPhe_35diF_4CF3
     RDKit          2D

 19 19  0  0  0  0  0  0  0  0999 V2000
   -4.6152   -1.8506    0.0000 N   0  0  0  0  0  0  0  0  0  0  0  0
   -4.2205   -0.4035    0.0000 C   0  0  0  0  0  0  0  0  0  0  0  0
   -2.7698   -0.0218    0.0000 C   0  0  0  0  0  0  0  0  0  0  0  0
   -1.7140   -1.0872    0.0000 C   0  0  0  0  0  0  0  0  0  0  0  0
   -0.2633   -0.7056    0.0000 C   0  0  0  0  0  0  0  0  0  0  0  0
    0.1314    0.7416    0.0000 C   0  0  0  0  0  0  0  0  0  0  0  0
    1.5821    1.1232    0.0000 C   0  0  0  0  0  0  0  0  0  0  0  0
    1.9768    2.5703    0.0000 F   0  0  0  0  0  0  0  0  0  0  0  0
    2.6379    0.0578    0.0000 C   0  0  0  0  0  0  0  0  0  0  0  0
    2.2431   -1.3893    0.0000 C   0  0  0  0  0  0  0  0  0  0  0  0
    3.2990   -2.4548    0.0000 F   0  0  0  0  0  0  0  0  0  0  0  0
    0.7925   -1.7710    0.0000 C   0  0  0  0  0  0  0  0  0  0  0  0
    4.0885    0.4394    0.0000 C   0  0  0  0  0  0  0  0  0  0  0  0
    5.5392    0.8211    0.0000 F   0  0  0  0  0  0  0  0  0  0  0  0
    4.4702   -1.0112    0.0000 F   0  0  0  0  0  0  0  0  0  0  0  0
    3.7069    1.8901    0.0000 F   0  0  0  0  0  0  0  0  0  0  0  0
   -5.2763    0.6620    0.0000 C   0  0  0  0  0  0  0  0  0  0  0  0
   -4.8815    2.1091    0.0000 O   0  0  0  0  0  0  0  0  0  0  0  0
   -6.7269    0.2803    0.0000 O   0  0  0  0  0  0  0  0  0  0  0  0
  2  1  1  6
  2  3  1  0
  3  4  1  0
  4  5  1  0
  5  6  2  0
  6  7  1  0
  7  8  1  0
  7  9  2  0
  9 10  1  0
 10 11  1  0
 10 12  2  0
  9 13  1  0
 13 14  1  0
 13 15  1  0
 13 16  1  0
  2 17  1  0
 17 18  2  0
 17 19  1  0
 12  5  1  0
M  END
>  <rName>  (4495) 
hPhe_35diF_4CF3

>  <PQ_SYMBOL>  (4495) 
hPhe_35diF_4CF3

>  <FULL_NAME>  (4495) 
(2S)-2-amino-4-[3,5-difluoro-4-(trifluoromethyl)phenyl]butanoic acid

>  <IUPAC_CONDENSED>  (4495) 
hPhe(3,5-diF,4-CF3)

>  <IUPAC>  (4495) 
(2S)-2-amino-4-(3,5-difluoro-4-(trifluoromethyl)phenyl)butanoic acid

>  <TYPE>  (4495) 
Backbone

>  <CLASS>  (4495) 
alpha

>  <ANALOG>  (4495) 
Phe

>  <MOL_WT>  (4495) 
283.19599999999997

>  <LOGP>  (4495) 
2.3281

>  <TPSA>  (4495) 
63.32000000000001

>  <POPULARITY>  (4495) 
6.3

>  <PROTECTED>  (4495) 
TRUE

>  <SMILES>  (4495) 
N[C@@H](CCc1(cc(F)c(c(F)c1)C(F)(F)F))C(=O)O

>  <INCHIKEY>  (4495) 
IPKHUYODNKUTOQ-QMMMGPOBSA-N

$$$$
hPhe_35diMe
     RDKit          2D

 15 15  0  0  0  0  0  0  0  0999 V2000
   -3.2624   -2.0067    0.0000 N   0  0  0  0  0  0  0  0  0  0  0  0
   -2.9982   -0.5301    0.0000 C   0  0  0  0  0  0  0  0  0  0  0  0
   -1.5873   -0.0207    0.0000 C   0  0  0  0  0  0  0  0  0  0  0  0
   -0.4407   -0.9878    0.0000 C   0  0  0  0  0  0  0  0  0  0  0  0
    0.9701   -0.4784    0.0000 C   0  0  0  0  0  0  0  0  0  0  0  0
    1.2344    0.9982    0.0000 C   0  0  0  0  0  0  0  0  0  0  0  0
    2.6452    1.5076    0.0000 C   0  0  0  0  0  0  0  0  0  0  0  0
    2.9095    2.9841    0.0000 C   0  0  0  0  0  0  0  0  0  0  0  0
    3.7918    0.5405    0.0000 C   0  0  0  0  0  0  0  0  0  0  0  0
    3.5276   -0.9361    0.0000 C   0  0  0  0  0  0  0  0  0  0  0  0
    4.6742   -1.9032    0.0000 C   0  0  0  0  0  0  0  0  0  0  0  0
    2.1167   -1.4455    0.0000 C   0  0  0  0  0  0  0  0  0  0  0  0
   -4.1448    0.4370    0.0000 C   0  0  0  0  0  0  0  0  0  0  0  0
   -3.8805    1.9135    0.0000 O   0  0  0  0  0  0  0  0  0  0  0  0
   -5.5556   -0.0724    0.0000 O   0  0  0  0  0  0  0  0  0  0  0  0
  2  1  1  6
  2  3  1  0
  3  4  1  0
  4  5  1  0
  5  6  2  0
  6  7  1  0
  7  8  1  0
  7  9  2  0
  9 10  1  0
 10 11  1  0
 10 12  2  0
  2 13  1  0
 13 14  2  0
 13 15  1  0
 12  5  1  0
M  END
>  <rName>  (4496) 
hPhe_35diMe

>  <PQ_SYMBOL>  (4496) 
hPhe_35diMe

>  <FULL_NAME>  (4496) 
3,5-Dimethyl-L-homophenylalanine

>  <IUPAC_CONDENSED>  (4496) 
hPhe(3,5-diMe)

>  <IUPAC>  (4496) 
(2S)-2-amino-4-(3,5-dimethylphenyl)butanoic acid

>  <TYPE>  (4496) 
Backbone

>  <CLASS>  (4496) 
alpha

>  <ANALOG>  (4496) 
Phe

>  <MOL_WT>  (4496) 
207.27299999999997

>  <LOGP>  (4496) 
1.64794

>  <TPSA>  (4496) 
63.32000000000001

>  <POPULARITY>  (4496) 
2.2

>  <PROTECTED>  (4496) 
TRUE

>  <SMILES>  (4496) 
N[C@@H](CCc1(cc(C)cc(C)c1))C(=O)O

>  <INCHIKEY>  (4496) 
QODTXNHUUDFFJL-NSHDSACASA-N

$$$$
hPhe_3Br
     RDKit          2D

 14 14  0  0  0  0  0  0  0  0999 V2000
   -2.9179   -2.0082    0.0000 N   0  0  0  0  0  0  0  0  0  0  0  0
   -2.7604   -0.5165    0.0000 C   0  0  0  0  0  0  0  0  0  0  0  0
   -1.3898    0.0929    0.0000 C   0  0  0  0  0  0  0  0  0  0  0  0
   -0.1767   -0.7894    0.0000 C   0  0  0  0  0  0  0  0  0  0  0  0
    1.1939   -0.1800    0.0000 C   0  0  0  0  0  0  0  0  0  0  0  0
    1.3515    1.3117    0.0000 C   0  0  0  0  0  0  0  0  0  0  0  0
    2.7221    1.9211    0.0000 C   0  0  0  0  0  0  0  0  0  0  0  0
    3.9352    1.0388    0.0000 C   0  0  0  0  0  0  0  0  0  0  0  0
    3.7777   -0.4529    0.0000 C   0  0  0  0  0  0  0  0  0  0  0  0
    4.9907   -1.3352    0.0000 Br  0  0  0  0  0  0  0  0  0  0  0  0
    2.4070   -1.0623    0.0000 C   0  0  0  0  0  0  0  0  0  0  0  0
   -3.9735    0.3658    0.0000 C   0  0  0  0  0  0  0  0  0  0  0  0
   -3.8159    1.8575    0.0000 O   0  0  0  0  0  0  0  0  0  0  0  0
   -5.3441   -0.2436    0.0000 O   0  0  0  0  0  0  0  0  0  0  0  0
  2  1  1  6
  2  3  1  0
  3  4  1  0
  4  5  1  0
  5  6  2  0
  6  7  1  0
  7  8  2  0
  8  9  1  0
  9 10  1  0
  9 11  2  0
  2 12  1  0
 12 13  2  0
 12 14  1  0
 11  5  1  0
M  END
>  <rName>  (4497) 
hPhe_3Br

>  <PQ_SYMBOL>  (4497) 
hPhe_3Br

>  <FULL_NAME>  (4497) 
(S)-2-Amino-4-(3-bromophenyl)butanoic acid

>  <IUPAC_CONDENSED>  (4497) 
hPhe(3-Br)

>  <IUPAC>  (4497) 
(2S)-2-amino-4-(3-bromophenyl)butanoic acid

>  <TYPE>  (4497) 
Backbone

>  <CLASS>  (4497) 
alpha

>  <ANALOG>  (4497) 
Phe

>  <MOL_WT>  (4497) 
258.11499999999995

>  <LOGP>  (4497) 
1.7936

>  <TPSA>  (4497) 
63.32000000000001

>  <POPULARITY>  (4497) 
2.2

>  <PROTECTED>  (4497) 
TRUE

>  <SMILES>  (4497) 
N[C@@H](CCc1(cccc(Br)c1))C(=O)O

>  <INCHIKEY>  (4497) 
OZPBGRHRYRFRRJ-VIFPVBQESA-N

$$$$
hPhe_3CF3
     RDKit          2D

 17 17  0  0  0  0  0  0  0  0999 V2000
   -3.6728   -2.1092    0.0000 N   0  0  0  0  0  0  0  0  0  0  0  0
   -3.6693   -0.6092    0.0000 C   0  0  0  0  0  0  0  0  0  0  0  0
   -2.3685    0.1378    0.0000 C   0  0  0  0  0  0  0  0  0  0  0  0
   -1.0712   -0.6152    0.0000 C   0  0  0  0  0  0  0  0  0  0  0  0
    0.2295    0.1318    0.0000 C   0  0  0  0  0  0  0  0  0  0  0  0
    0.2330    1.6318    0.0000 C   0  0  0  0  0  0  0  0  0  0  0  0
    1.5338    2.3788    0.0000 C   0  0  0  0  0  0  0  0  0  0  0  0
    2.8311    1.6258    0.0000 C   0  0  0  0  0  0  0  0  0  0  0  0
    2.8276    0.1258    0.0000 C   0  0  0  0  0  0  0  0  0  0  0  0
    1.5268   -0.6212    0.0000 C   0  0  0  0  0  0  0  0  0  0  0  0
    4.1249   -0.6272    0.0000 C   0  0  0  0  0  0  0  0  0  0  0  0
    5.4222   -1.3802    0.0000 F   0  0  0  0  0  0  0  0  0  0  0  0
    3.3719   -1.9245    0.0000 F   0  0  0  0  0  0  0  0  0  0  0  0
    4.8779    0.6701    0.0000 F   0  0  0  0  0  0  0  0  0  0  0  0
   -4.9666    0.1438    0.0000 C   0  0  0  0  0  0  0  0  0  0  0  0
   -4.9631    1.6438    0.0000 O   0  0  0  0  0  0  0  0  0  0  0  0
   -6.2674   -0.6032    0.0000 O   0  0  0  0  0  0  0  0  0  0  0  0
  2  1  1  6
  2  3  1  0
  3  4  1  0
  4  5  1  0
  5  6  1  0
  6  7  2  0
  7  8  1  0
  8  9  2  0
  9 10  1  0
  9 11  1  0
 11 12  1  0
 11 13  1  0
 11 14  1  0
  2 15  1  0
 15 16  2  0
 15 17  1  0
 10  5  2  0
M  END
>  <rName>  (4498) 
hPhe_3CF3

>  <PQ_SYMBOL>  (4498) 
hPhe_3CF3

>  <FULL_NAME>  (4498) 
(S)-2-amino-4-(3-(trifluoromethyl)phenyl)butanoic acid

>  <IUPAC_CONDENSED>  (4498) 
hPhe(3-CF3)

>  <IUPAC>  (4498) 
(2S)-2-amino-4-(3-(trifluoromethyl)phenyl)butanoic acid

>  <TYPE>  (4498) 
Backbone

>  <CLASS>  (4498) 
alpha

>  <ANALOG>  (4498) 
Phe

>  <MOL_WT>  (4498) 
247.21599999999995

>  <LOGP>  (4498) 
2.0499

>  <TPSA>  (4498) 
63.32000000000001

>  <POPULARITY>  (4498) 
5.1

>  <PROTECTED>  (4498) 
TRUE

>  <SMILES>  (4498) 
N[C@@H](CCc1(cccc(c1)C(F)(F)F))C(=O)O

>  <INCHIKEY>  (4498) 
YHEKYBSDNWZYJS-VIFPVBQESA-N

$$$$
hPhe_3CN
     RDKit          2D

 15 15  0  0  0  0  0  0  0  0999 V2000
   -3.1744   -2.1174    0.0000 N   0  0  0  0  0  0  0  0  0  0  0  0
   -3.1350   -0.6179    0.0000 C   0  0  0  0  0  0  0  0  0  0  0  0
   -1.8167    0.0977    0.0000 C   0  0  0  0  0  0  0  0  0  0  0  0
   -0.5378   -0.6861    0.0000 C   0  0  0  0  0  0  0  0  0  0  0  0
    0.7805    0.0295    0.0000 C   0  0  0  0  0  0  0  0  0  0  0  0
    0.8199    1.5290    0.0000 C   0  0  0  0  0  0  0  0  0  0  0  0
    2.1382    2.2446    0.0000 C   0  0  0  0  0  0  0  0  0  0  0  0
    3.4170    1.4608    0.0000 C   0  0  0  0  0  0  0  0  0  0  0  0
    3.3776   -0.0387    0.0000 C   0  0  0  0  0  0  0  0  0  0  0  0
    4.6565   -0.8226    0.0000 C   0  0  0  0  0  0  0  0  0  0  0  0
    5.9354   -1.6064    0.0000 N   0  0  0  0  0  0  0  0  0  0  0  0
    2.0594   -0.7543    0.0000 C   0  0  0  0  0  0  0  0  0  0  0  0
   -4.4139    0.1660    0.0000 C   0  0  0  0  0  0  0  0  0  0  0  0
   -4.3745    1.6655    0.0000 O   0  0  0  0  0  0  0  0  0  0  0  0
   -5.7322   -0.5496    0.0000 O   0  0  0  0  0  0  0  0  0  0  0  0
  2  1  1  6
  2  3  1  0
  3  4  1  0
  4  5  1  0
  5  6  2  0
  6  7  1  0
  7  8  2  0
  8  9  1  0
  9 10  1  0
 10 11  3  0
  9 12  2  0
  2 13  1  0
 13 14  2  0
 13 15  1  0
 12  5  1  0
M  END
>  <rName>  (4499) 
hPhe_3CN

>  <PQ_SYMBOL>  (4499) 
hPhe_3CN

>  <FULL_NAME>  (4499) 
(S)-2-amino-4-(3-cyanophenyl)butanoic acid

>  <IUPAC_CONDENSED>  (4499) 
hPhe(3-CN)

>  <IUPAC>  (4499) 
(2S)-2-amino-4-(3-(nitrilomethyl)phenyl)butanoic acid

>  <TYPE>  (4499) 
Backbone

>  <CLASS>  (4499) 
alpha

>  <ANALOG>  (4499) 
Phe

>  <MOL_WT>  (4499) 
204.22899999999998

>  <LOGP>  (4499) 
0.9027799999999999

>  <TPSA>  (4499) 
87.11

>  <POPULARITY>  (4499) 
5.2

>  <PROTECTED>  (4499) 
TRUE

>  <SMILES>  (4499) 
N[C@@H](CCc1(cccc(C#N)c1))C(=O)O

>  <INCHIKEY>  (4499) 
UHVSGOJXLBBKAN-JTQLQIEISA-N

$$$$
hPhe_3Cl
     RDKit          2D

 14 14  0  0  0  0  0  0  0  0999 V2000
   -2.9179   -2.0082    0.0000 N   0  0  0  0  0  0  0  0  0  0  0  0
   -2.7604   -0.5165    0.0000 C   0  0  0  0  0  0  0  0  0  0  0  0
   -1.3898    0.0929    0.0000 C   0  0  0  0  0  0  0  0  0  0  0  0
   -0.1767   -0.7894    0.0000 C   0  0  0  0  0  0  0  0  0  0  0  0
    1.1939   -0.1800    0.0000 C   0  0  0  0  0  0  0  0  0  0  0  0
    1.3515    1.3117    0.0000 C   0  0  0  0  0  0  0  0  0  0  0  0
    2.7221    1.9211    0.0000 C   0  0  0  0  0  0  0  0  0  0  0  0
    3.9352    1.0388    0.0000 C   0  0  0  0  0  0  0  0  0  0  0  0
    3.7777   -0.4529    0.0000 C   0  0  0  0  0  0  0  0  0  0  0  0
    4.9907   -1.3352    0.0000 Cl  0  0  0  0  0  0  0  0  0  0  0  0
    2.4070   -1.0623    0.0000 C   0  0  0  0  0  0  0  0  0  0  0  0
   -3.9735    0.3658    0.0000 C   0  0  0  0  0  0  0  0  0  0  0  0
   -3.8159    1.8575    0.0000 O   0  0  0  0  0  0  0  0  0  0  0  0
   -5.3441   -0.2436    0.0000 O   0  0  0  0  0  0  0  0  0  0  0  0
  2  1  1  6
  2  3  1  0
  3  4  1  0
  4  5  1  0
  5  6  2  0
  6  7  1  0
  7  8  2  0
  8  9  1  0
  9 10  1  0
  9 11  2  0
  2 12  1  0
 12 13  2  0
 12 14  1  0
 11  5  1  0
M  END
>  <rName>  (4500) 
hPhe_3Cl

>  <PQ_SYMBOL>  (4500) 
hPhe_3Cl

>  <FULL_NAME>  (4500) 
3-chloro-L-homophenylalanine

>  <IUPAC_CONDENSED>  (4500) 
hPhe(3-Cl)

>  <IUPAC>  (4500) 
(2S)-2-amino-4-(3-chlorophenyl)butanoic acid

>  <TYPE>  (4500) 
Backbone

>  <CLASS>  (4500) 
alpha

>  <ANALOG>  (4500) 
Phe

>  <MOL_WT>  (4500) 
213.664

>  <LOGP>  (4500) 
1.6844999999999999

>  <TPSA>  (4500) 
63.32000000000001

>  <POPULARITY>  (4500) 
7.1

>  <PROTECTED>  (4500) 
TRUE

>  <SMILES>  (4500) 
N[C@@H](CCc1(cccc(Cl)c1))C(=O)O

>  <INCHIKEY>  (4500) 
XHVNXVGEFJHTMY-VIFPVBQESA-N

$$$$
hPhe_3Cl_4F
     RDKit          2D

 15 15  0  0  0  0  0  0  0  0999 V2000
   -3.3791   -1.9420    0.0000 N   0  0  0  0  0  0  0  0  0  0  0  0
   -3.1429   -0.4608    0.0000 C   0  0  0  0  0  0  0  0  0  0  0  0
   -1.7419    0.0753    0.0000 C   0  0  0  0  0  0  0  0  0  0  0  0
   -0.5772   -0.8699    0.0000 C   0  0  0  0  0  0  0  0  0  0  0  0
    0.8237   -0.3339    0.0000 C   0  0  0  0  0  0  0  0  0  0  0  0
    1.0600    1.1474    0.0000 C   0  0  0  0  0  0  0  0  0  0  0  0
    2.4609    1.6834    0.0000 C   0  0  0  0  0  0  0  0  0  0  0  0
    3.6256    0.7382    0.0000 C   0  0  0  0  0  0  0  0  0  0  0  0
    5.0266    1.2742    0.0000 F   0  0  0  0  0  0  0  0  0  0  0  0
    3.3894   -0.7431    0.0000 C   0  0  0  0  0  0  0  0  0  0  0  0
    4.5541   -1.6883    0.0000 Cl  0  0  0  0  0  0  0  0  0  0  0  0
    1.9884   -1.2791    0.0000 C   0  0  0  0  0  0  0  0  0  0  0  0
   -4.3076    0.4845    0.0000 C   0  0  0  0  0  0  0  0  0  0  0  0
   -4.0713    1.9658    0.0000 O   0  0  0  0  0  0  0  0  0  0  0  0
   -5.7085   -0.0516    0.0000 O   0  0  0  0  0  0  0  0  0  0  0  0
  2  1  1  6
  2  3  1  0
  3  4  1  0
  4  5  1  0
  5  6  1  0
  6  7  2  0
  7  8  1  0
  8  9  1  0
  8 10  2  0
 10 11  1  0
 10 12  1  0
  2 13  1  0
 13 14  2  0
 13 15  1  0
 12  5  2  0
M  END
>  <rName>  (4501) 
hPhe_3Cl_4F

>  <PQ_SYMBOL>  (4501) 
hPhe_3Cl_4F

>  <FULL_NAME>  (4501) 
(S)-alpha-Amino-3-chloro-4-fluorobenzenebutanoic Acid

>  <IUPAC_CONDENSED>  (4501) 
hPhe(3-Cl,4-F)

>  <IUPAC>  (4501) 
(2S)-2-amino-4-(3-chloro-4-fluorophenyl)butanoic acid

>  <TYPE>  (4501) 
Backbone

>  <CLASS>  (4501) 
alpha

>  <ANALOG>  (4501) 
Phe

>  <MOL_WT>  (4501) 
231.654

>  <LOGP>  (4501) 
1.8235999999999999

>  <TPSA>  (4501) 
63.32000000000001

>  <POPULARITY>  (4501) 
2.2

>  <PROTECTED>  (4501) 
TRUE

>  <SMILES>  (4501) 
N[C@@H](CCc1(ccc(F)c(Cl)c1))C(=O)O

>  <INCHIKEY>  (4501) 
TVCQVJKFYOBRHM-VIFPVBQESA-N

$$$$
hPhe_3Et
     RDKit          2D

 15 15  0  0  0  0  0  0  0  0999 V2000
   -3.0687   -2.0959    0.0000 N   0  0  0  0  0  0  0  0  0  0  0  0
   -3.0421   -0.5961    0.0000 C   0  0  0  0  0  0  0  0  0  0  0  0
   -1.7300    0.1307    0.0000 C   0  0  0  0  0  0  0  0  0  0  0  0
   -0.4445   -0.6422    0.0000 C   0  0  0  0  0  0  0  0  0  0  0  0
    0.8677    0.0846    0.0000 C   0  0  0  0  0  0  0  0  0  0  0  0
    0.8943    1.5844    0.0000 C   0  0  0  0  0  0  0  0  0  0  0  0
    2.2064    2.3112    0.0000 C   0  0  0  0  0  0  0  0  0  0  0  0
    3.4919    1.5383    0.0000 C   0  0  0  0  0  0  0  0  0  0  0  0
    3.4653    0.0385    0.0000 C   0  0  0  0  0  0  0  0  0  0  0  0
    2.1532   -0.6883    0.0000 C   0  0  0  0  0  0  0  0  0  0  0  0
    4.7509   -0.7344    0.0000 C   0  0  0  0  0  0  0  0  0  0  0  0
    4.7243   -2.2342    0.0000 C   0  0  0  0  0  0  0  0  0  0  0  0
   -4.3277    0.1768    0.0000 C   0  0  0  0  0  0  0  0  0  0  0  0
   -4.3011    1.6766    0.0000 O   0  0  0  0  0  0  0  0  0  0  0  0
   -5.6398   -0.5500    0.0000 O   0  0  0  0  0  0  0  0  0  0  0  0
  2  1  1  6
  2  3  1  0
  3  4  1  0
  4  5  1  0
  5  6  2  0
  6  7  1  0
  7  8  2  0
  8  9  1  0
  9 10  2  0
  9 11  1  0
 11 12  1  0
  2 13  1  0
 13 14  2  0
 13 15  1  0
 10  5  1  0
M  END
>  <rName>  (4502) 
hPhe_3Et

>  <PQ_SYMBOL>  (4502) 
hPhe_3Et

>  <FULL_NAME>  (4502) 
3-Ethyl-L-homophenylalanine

>  <IUPAC_CONDENSED>  (4502) 
hPhe(3-Et)

>  <IUPAC>  (4502) 
(2S)-2-amino-4-(3-ethylphenyl)butanoic acid

>  <TYPE>  (4502) 
Backbone

>  <CLASS>  (4502) 
alpha

>  <ANALOG>  (4502) 
Phe

>  <MOL_WT>  (4502) 
207.27299999999997

>  <LOGP>  (4502) 
1.5935

>  <TPSA>  (4502) 
63.32000000000001

>  <POPULARITY>  (4502) 
2.2

>  <PROTECTED>  (4502) 
TRUE

>  <SMILES>  (4502) 
N[C@@H](CCc1(cccc(c1)CC))C(=O)O

>  <INCHIKEY>  (4502) 
JLFHGQZQEHAYBG-NSHDSACASA-N

$$$$
hPhe_3F
     RDKit          2D

 14 14  0  0  0  0  0  0  0  0999 V2000
   -2.9179   -2.0082    0.0000 N   0  0  0  0  0  0  0  0  0  0  0  0
   -2.7604   -0.5165    0.0000 C   0  0  0  0  0  0  0  0  0  0  0  0
   -1.3898    0.0929    0.0000 C   0  0  0  0  0  0  0  0  0  0  0  0
   -0.1767   -0.7894    0.0000 C   0  0  0  0  0  0  0  0  0  0  0  0
    1.1939   -0.1800    0.0000 C   0  0  0  0  0  0  0  0  0  0  0  0
    1.3515    1.3117    0.0000 C   0  0  0  0  0  0  0  0  0  0  0  0
    2.7221    1.9211    0.0000 C   0  0  0  0  0  0  0  0  0  0  0  0
    3.9352    1.0388    0.0000 C   0  0  0  0  0  0  0  0  0  0  0  0
    3.7777   -0.4529    0.0000 C   0  0  0  0  0  0  0  0  0  0  0  0
    4.9907   -1.3352    0.0000 F   0  0  0  0  0  0  0  0  0  0  0  0
    2.4070   -1.0623    0.0000 C   0  0  0  0  0  0  0  0  0  0  0  0
   -3.9735    0.3658    0.0000 C   0  0  0  0  0  0  0  0  0  0  0  0
   -3.8159    1.8575    0.0000 O   0  0  0  0  0  0  0  0  0  0  0  0
   -5.3441   -0.2436    0.0000 O   0  0  0  0  0  0  0  0  0  0  0  0
  2  1  1  6
  2  3  1  0
  3  4  1  0
  4  5  1  0
  5  6  2  0
  6  7  1  0
  7  8  2  0
  8  9  1  0
  9 10  1  0
  9 11  2  0
  2 12  1  0
 12 13  2  0
 12 14  1  0
 11  5  1  0
M  END
>  <rName>  (4503) 
hPhe_3F

>  <PQ_SYMBOL>  (4503) 
hPhe_3F

>  <FULL_NAME>  (4503) 
(S)-2-amino-4-(3-fluorophenyl)butanoic acid

>  <IUPAC_CONDENSED>  (4503) 
hPhe(3-F)

>  <IUPAC>  (4503) 
(2S)-2-amino-4-(3-fluorophenyl)butanoic acid

>  <TYPE>  (4503) 
Backbone

>  <CLASS>  (4503) 
alpha

>  <ANALOG>  (4503) 
Phe

>  <MOL_WT>  (4503) 
197.20899999999997

>  <LOGP>  (4503) 
1.1702

>  <TPSA>  (4503) 
63.32000000000001

>  <POPULARITY>  (4503) 
7.9

>  <PROTECTED>  (4503) 
TRUE

>  <SMILES>  (4503) 
N[C@@H](CCc1(cccc(F)c1))C(=O)O

>  <INCHIKEY>  (4503) 
IBUPJVAZBFPWLJ-VIFPVBQESA-N

$$$$
hPhe_3F_5Cl
     RDKit          2D

 15 15  0  0  0  0  0  0  0  0999 V2000
   -3.2624   -2.0067    0.0000 N   0  0  0  0  0  0  0  0  0  0  0  0
   -2.9982   -0.5301    0.0000 C   0  0  0  0  0  0  0  0  0  0  0  0
   -1.5873   -0.0207    0.0000 C   0  0  0  0  0  0  0  0  0  0  0  0
   -0.4407   -0.9878    0.0000 C   0  0  0  0  0  0  0  0  0  0  0  0
    0.9701   -0.4784    0.0000 C   0  0  0  0  0  0  0  0  0  0  0  0
    1.2344    0.9982    0.0000 C   0  0  0  0  0  0  0  0  0  0  0  0
    2.6452    1.5076    0.0000 C   0  0  0  0  0  0  0  0  0  0  0  0
    2.9095    2.9841    0.0000 F   0  0  0  0  0  0  0  0  0  0  0  0
    3.7918    0.5405    0.0000 C   0  0  0  0  0  0  0  0  0  0  0  0
    3.5276   -0.9361    0.0000 C   0  0  0  0  0  0  0  0  0  0  0  0
    4.6742   -1.9032    0.0000 Cl  0  0  0  0  0  0  0  0  0  0  0  0
    2.1167   -1.4455    0.0000 C   0  0  0  0  0  0  0  0  0  0  0  0
   -4.1448    0.4370    0.0000 C   0  0  0  0  0  0  0  0  0  0  0  0
   -3.8805    1.9135    0.0000 O   0  0  0  0  0  0  0  0  0  0  0  0
   -5.5556   -0.0724    0.0000 O   0  0  0  0  0  0  0  0  0  0  0  0
  2  1  1  6
  2  3  1  0
  3  4  1  0
  4  5  1  0
  5  6  2  0
  6  7  1  0
  7  8  1  0
  7  9  2  0
  9 10  1  0
 10 11  1  0
 10 12  2  0
  2 13  1  0
 13 14  2  0
 13 15  1  0
 12  5  1  0
M  END
>  <rName>  (4504) 
hPhe_3F_5Cl

>  <PQ_SYMBOL>  (4504) 
hPhe_3F_5Cl

>  <FULL_NAME>  (4504) 
hPhe(3-F,5-Cl)

>  <IUPAC_CONDENSED>  (4504) 
hPhe(3-F,5-Cl)

>  <IUPAC>  (4504) 
(2S)-2-amino-4-(3-chloro-5-fluorophenyl)butanoic acid

>  <TYPE>  (4504) 
Backbone

>  <CLASS>  (4504) 
alpha

>  <ANALOG>  (4504) 
Phe

>  <MOL_WT>  (4504) 
231.654

>  <LOGP>  (4504) 
1.8235999999999999

>  <TPSA>  (4504) 
63.32000000000001

>  <POPULARITY>  (4504) 
2.2

>  <PROTECTED>  (4504) 
TRUE

>  <SMILES>  (4504) 
N[C@@H](CCc1(cc(F)cc(Cl)c1))C(=O)O

>  <INCHIKEY>  (4504) 
UPQKSSRFTQRBPT-VIFPVBQESA-N

$$$$
hPhe_3I
     RDKit          2D

 14 14  0  0  0  0  0  0  0  0999 V2000
   -2.9179   -2.0082    0.0000 N   0  0  0  0  0  0  0  0  0  0  0  0
   -2.7604   -0.5165    0.0000 C   0  0  0  0  0  0  0  0  0  0  0  0
   -1.3898    0.0929    0.0000 C   0  0  0  0  0  0  0  0  0  0  0  0
   -0.1767   -0.7894    0.0000 C   0  0  0  0  0  0  0  0  0  0  0  0
    1.1939   -0.1800    0.0000 C   0  0  0  0  0  0  0  0  0  0  0  0
    1.3515    1.3117    0.0000 C   0  0  0  0  0  0  0  0  0  0  0  0
    2.7221    1.9211    0.0000 C   0  0  0  0  0  0  0  0  0  0  0  0
    3.9352    1.0388    0.0000 C   0  0  0  0  0  0  0  0  0  0  0  0
    3.7777   -0.4529    0.0000 C   0  0  0  0  0  0  0  0  0  0  0  0
    4.9907   -1.3352    0.0000 I   0  0  0  0  0  0  0  0  0  0  0  0
    2.4070   -1.0623    0.0000 C   0  0  0  0  0  0  0  0  0  0  0  0
   -3.9735    0.3658    0.0000 C   0  0  0  0  0  0  0  0  0  0  0  0
   -3.8159    1.8575    0.0000 O   0  0  0  0  0  0  0  0  0  0  0  0
   -5.3441   -0.2436    0.0000 O   0  0  0  0  0  0  0  0  0  0  0  0
  2  1  1  6
  2  3  1  0
  3  4  1  0
  4  5  1  0
  5  6  2  0
  6  7  1  0
  7  8  2  0
  8  9  1  0
  9 10  1  0
  9 11  2  0
  2 12  1  0
 12 13  2  0
 12 14  1  0
 11  5  1  0
M  END
>  <rName>  (4505) 
hPhe_3I

>  <PQ_SYMBOL>  (4505) 
hPhe_3I

>  <FULL_NAME>  (4505) 
3-Iodo-L-homophenylalanine

>  <IUPAC_CONDENSED>  (4505) 
hPhe(3-I)

>  <IUPAC>  (4505) 
(2S)-2-amino-4-(3-iodophenyl)butanoic acid

>  <TYPE>  (4505) 
Backbone

>  <CLASS>  (4505) 
alpha

>  <ANALOG>  (4505) 
Phe

>  <MOL_WT>  (4505) 
305.115

>  <LOGP>  (4505) 
1.6357

>  <TPSA>  (4505) 
63.32000000000001

>  <POPULARITY>  (4505) 
2.2

>  <PROTECTED>  (4505) 
TRUE

>  <SMILES>  (4505) 
N[C@@H](CCc1(cccc(I)c1))C(=O)O

>  <INCHIKEY>  (4505) 
YGLZQYASDJTIQG-VIFPVBQESA-N

$$$$
hPhe_3Me
     RDKit          2D

 14 14  0  0  0  0  0  0  0  0999 V2000
   -2.9179   -2.0082    0.0000 N   0  0  0  0  0  0  0  0  0  0  0  0
   -2.7604   -0.5165    0.0000 C   0  0  0  0  0  0  0  0  0  0  0  0
   -1.3898    0.0929    0.0000 C   0  0  0  0  0  0  0  0  0  0  0  0
   -0.1767   -0.7894    0.0000 C   0  0  0  0  0  0  0  0  0  0  0  0
    1.1939   -0.1800    0.0000 C   0  0  0  0  0  0  0  0  0  0  0  0
    1.3515    1.3117    0.0000 C   0  0  0  0  0  0  0  0  0  0  0  0
    2.7221    1.9211    0.0000 C   0  0  0  0  0  0  0  0  0  0  0  0
    3.9352    1.0388    0.0000 C   0  0  0  0  0  0  0  0  0  0  0  0
    3.7777   -0.4529    0.0000 C   0  0  0  0  0  0  0  0  0  0  0  0
    4.9907   -1.3352    0.0000 C   0  0  0  0  0  0  0  0  0  0  0  0
    2.4070   -1.0623    0.0000 C   0  0  0  0  0  0  0  0  0  0  0  0
   -3.9735    0.3658    0.0000 C   0  0  0  0  0  0  0  0  0  0  0  0
   -3.8159    1.8575    0.0000 O   0  0  0  0  0  0  0  0  0  0  0  0
   -5.3441   -0.2436    0.0000 O   0  0  0  0  0  0  0  0  0  0  0  0
  2  1  1  6
  2  3  1  0
  3  4  1  0
  4  5  1  0
  5  6  2  0
  6  7  1  0
  7  8  2  0
  8  9  1  0
  9 10  1  0
  9 11  2  0
  2 12  1  0
 12 13  2  0
 12 14  1  0
 11  5  1  0
M  END
>  <rName>  (4506) 
hPhe_3Me

>  <PQ_SYMBOL>  (4506) 
hPhe_3Me

>  <FULL_NAME>  (4506) 
(S)-2-amino-4-(m-tolyl)butanoic acid

>  <IUPAC_CONDENSED>  (4506) 
hPhe(3-Me)

>  <IUPAC>  (4506) 
(2S)-2-amino-4-(3-methylphenyl)butanoic acid

>  <TYPE>  (4506) 
Backbone

>  <CLASS>  (4506) 
alpha

>  <ANALOG>  (4506) 
Phe

>  <MOL_WT>  (4506) 
193.24599999999998

>  <LOGP>  (4506) 
1.3395199999999998

>  <TPSA>  (4506) 
63.32000000000001

>  <POPULARITY>  (4506) 
9.7

>  <PROTECTED>  (4506) 
TRUE

>  <SMILES>  (4506) 
N[C@@H](CCc1(cccc(C)c1))C(=O)O

>  <INCHIKEY>  (4506) 
HEJMMMOBDAVUBT-JTQLQIEISA-N

$$$$
hPhe_3Me_5Cl
     RDKit          2D

 15 15  0  0  0  0  0  0  0  0999 V2000
   -3.2624   -2.0067    0.0000 N   0  0  0  0  0  0  0  0  0  0  0  0
   -2.9982   -0.5301    0.0000 C   0  0  0  0  0  0  0  0  0  0  0  0
   -1.5873   -0.0207    0.0000 C   0  0  0  0  0  0  0  0  0  0  0  0
   -0.4407   -0.9878    0.0000 C   0  0  0  0  0  0  0  0  0  0  0  0
    0.9701   -0.4784    0.0000 C   0  0  0  0  0  0  0  0  0  0  0  0
    1.2344    0.9982    0.0000 C   0  0  0  0  0  0  0  0  0  0  0  0
    2.6452    1.5076    0.0000 C   0  0  0  0  0  0  0  0  0  0  0  0
    2.9095    2.9841    0.0000 C   0  0  0  0  0  0  0  0  0  0  0  0
    3.7918    0.5405    0.0000 C   0  0  0  0  0  0  0  0  0  0  0  0
    3.5276   -0.9361    0.0000 C   0  0  0  0  0  0  0  0  0  0  0  0
    4.6742   -1.9032    0.0000 Cl  0  0  0  0  0  0  0  0  0  0  0  0
    2.1167   -1.4455    0.0000 C   0  0  0  0  0  0  0  0  0  0  0  0
   -4.1448    0.4370    0.0000 C   0  0  0  0  0  0  0  0  0  0  0  0
   -3.8805    1.9135    0.0000 O   0  0  0  0  0  0  0  0  0  0  0  0
   -5.5556   -0.0724    0.0000 O   0  0  0  0  0  0  0  0  0  0  0  0
  2  1  1  6
  2  3  1  0
  3  4  1  0
  4  5  1  0
  5  6  2  0
  6  7  1  0
  7  8  1  0
  7  9  2  0
  9 10  1  0
 10 11  1  0
 10 12  2  0
  2 13  1  0
 13 14  2  0
 13 15  1  0
 12  5  1  0
M  END
>  <rName>  (4507) 
hPhe_3Me_5Cl

>  <PQ_SYMBOL>  (4507) 
hPhe_3Me_5Cl

>  <FULL_NAME>  (4507) 
hPhe(3-Me,5-Cl)

>  <IUPAC_CONDENSED>  (4507) 
hPhe(3-Me,5-Cl)

>  <IUPAC>  (4507) 
(2S)-2-amino-4-(3-chloro-5-methylphenyl)butanoic acid

>  <TYPE>  (4507) 
Backbone

>  <CLASS>  (4507) 
alpha

>  <ANALOG>  (4507) 
Phe

>  <MOL_WT>  (4507) 
227.69099999999997

>  <LOGP>  (4507) 
1.99292

>  <TPSA>  (4507) 
63.32000000000001

>  <POPULARITY>  (4507) 
2.2

>  <PROTECTED>  (4507) 
TRUE

>  <SMILES>  (4507) 
N[C@@H](CCc1(cc(C)cc(Cl)c1))C(=O)O

>  <INCHIKEY>  (4507) 
IKUGOVFTSCHUAD-JTQLQIEISA-N

$$$$
hPhe_3Me_5F
     RDKit          2D

 15 15  0  0  0  0  0  0  0  0999 V2000
   -3.2624   -2.0067    0.0000 N   0  0  0  0  0  0  0  0  0  0  0  0
   -2.9982   -0.5301    0.0000 C   0  0  0  0  0  0  0  0  0  0  0  0
   -1.5873   -0.0207    0.0000 C   0  0  0  0  0  0  0  0  0  0  0  0
   -0.4407   -0.9878    0.0000 C   0  0  0  0  0  0  0  0  0  0  0  0
    0.9701   -0.4784    0.0000 C   0  0  0  0  0  0  0  0  0  0  0  0
    1.2344    0.9982    0.0000 C   0  0  0  0  0  0  0  0  0  0  0  0
    2.6452    1.5076    0.0000 C   0  0  0  0  0  0  0  0  0  0  0  0
    2.9095    2.9841    0.0000 C   0  0  0  0  0  0  0  0  0  0  0  0
    3.7918    0.5405    0.0000 C   0  0  0  0  0  0  0  0  0  0  0  0
    3.5276   -0.9361    0.0000 C   0  0  0  0  0  0  0  0  0  0  0  0
    4.6742   -1.9032    0.0000 F   0  0  0  0  0  0  0  0  0  0  0  0
    2.1167   -1.4455    0.0000 C   0  0  0  0  0  0  0  0  0  0  0  0
   -4.1448    0.4370    0.0000 C   0  0  0  0  0  0  0  0  0  0  0  0
   -3.8805    1.9135    0.0000 O   0  0  0  0  0  0  0  0  0  0  0  0
   -5.5556   -0.0724    0.0000 O   0  0  0  0  0  0  0  0  0  0  0  0
  2  1  1  6
  2  3  1  0
  3  4  1  0
  4  5  1  0
  5  6  2  0
  6  7  1  0
  7  8  1  0
  7  9  2  0
  9 10  1  0
 10 11  1  0
 10 12  2  0
  2 13  1  0
 13 14  2  0
 13 15  1  0
 12  5  1  0
M  END
>  <rName>  (4508) 
hPhe_3Me_5F

>  <PQ_SYMBOL>  (4508) 
hPhe_3Me_5F

>  <FULL_NAME>  (4508) 
hPhe(3-Me,5-F)

>  <IUPAC_CONDENSED>  (4508) 
hPhe(3-Me,5-F)

>  <IUPAC>  (4508) 
(2S)-2-amino-4-(3-fluoro-5-methylphenyl)butanoic acid

>  <TYPE>  (4508) 
Backbone

>  <CLASS>  (4508) 
alpha

>  <ANALOG>  (4508) 
Phe

>  <MOL_WT>  (4508) 
211.23599999999996

>  <LOGP>  (4508) 
1.47862

>  <TPSA>  (4508) 
63.32000000000001

>  <POPULARITY>  (4508) 
2.2

>  <PROTECTED>  (4508) 
TRUE

>  <SMILES>  (4508) 
N[C@@H](CCc1(cc(C)cc(F)c1))C(=O)O

>  <INCHIKEY>  (4508) 
OQIYSZUDLVQAOT-JTQLQIEISA-N

$$$$
hPhe_3NO2
     RDKit          2D

 16 16  0  0  0  0  0  0  0  0999 V2000
   -3.4472   -2.0962    0.0000 N   0  0  0  0  0  0  0  0  0  0  0  0
   -3.4209   -0.5965    0.0000 C   0  0  0  0  0  0  0  0  0  0  0  0
   -2.1090    0.1307    0.0000 C   0  0  0  0  0  0  0  0  0  0  0  0
   -0.8233   -0.6419    0.0000 C   0  0  0  0  0  0  0  0  0  0  0  0
    0.4887    0.0852    0.0000 C   0  0  0  0  0  0  0  0  0  0  0  0
    0.5150    1.5850    0.0000 C   0  0  0  0  0  0  0  0  0  0  0  0
    1.8269    2.3121    0.0000 C   0  0  0  0  0  0  0  0  0  0  0  0
    3.1126    1.5395    0.0000 C   0  0  0  0  0  0  0  0  0  0  0  0
    3.0864    0.0397    0.0000 C   0  0  0  0  0  0  0  0  0  0  0  0
    1.7744   -0.6874    0.0000 C   0  0  0  0  0  0  0  0  0  0  0  0
    4.3721   -0.7329    0.0000 N   0  0  0  0  0  0  0  0  0  0  0  0
    5.6841   -0.0057    0.0000 O   0  0  0  0  0  0  0  0  0  0  0  0
    4.3458   -2.2326    0.0000 O   0  0  0  0  0  0  0  0  0  0  0  0
   -4.7067    0.1761    0.0000 C   0  0  0  0  0  0  0  0  0  0  0  0
   -4.6804    1.6759    0.0000 O   0  0  0  0  0  0  0  0  0  0  0  0
   -6.0186   -0.5510    0.0000 O   0  0  0  0  0  0  0  0  0  0  0  0
  2  1  1  6
  2  3  1  0
  3  4  1  0
  4  5  1  0
  5  6  1  0
  6  7  2  0
  7  8  1  0
  8  9  2  0
  9 10  1  0
  9 11  1  0
 11 12  2  0
 11 13  1  0
  2 14  1  0
 14 15  2  0
 14 16  1  0
 10  5  2  0
M  CHG  2  11   1  13  -1
M  END
>  <rName>  (4509) 
hPhe_3NO2

>  <PQ_SYMBOL>  (4509) 
hPhe_3NO2

>  <FULL_NAME>  (4509) 
3-Nitro-L-homophenylalanine

>  <IUPAC_CONDENSED>  (4509) 
hPhe(3-NO2)

>  <IUPAC>  (4509) 
(2S)-2-amino-4-(3-nitrophenyl)butanoic acid

>  <TYPE>  (4509) 
Backbone

>  <CLASS>  (4509) 
alpha

>  <ANALOG>  (4509) 
Phe

>  <MOL_WT>  (4509) 
224.21599999999998

>  <LOGP>  (4509) 
0.9392999999999998

>  <TPSA>  (4509) 
106.46

>  <POPULARITY>  (4509) 
2.2

>  <PROTECTED>  (4509) 
TRUE

>  <SMILES>  (4509) 
N[C@@H](CCc1(cccc(c1)[N+](=O)[O-]))C(=O)O

>  <INCHIKEY>  (4509) 
JPXRCIXDKXNKAW-VIFPVBQESA-N

$$$$
hPhe_3OCF3
     RDKit          2D

 18 18  0  0  0  0  0  0  0  0999 V2000
   -3.5290   -2.2572    0.0000 N   0  0  0  0  0  0  0  0  0  0  0  0
   -3.7516   -0.7738    0.0000 C   0  0  0  0  0  0  0  0  0  0  0  0
   -2.5783    0.1607    0.0000 C   0  0  0  0  0  0  0  0  0  0  0  0
   -1.1823   -0.3882    0.0000 C   0  0  0  0  0  0  0  0  0  0  0  0
   -0.0090    0.5464    0.0000 C   0  0  0  0  0  0  0  0  0  0  0  0
   -0.2317    2.0298    0.0000 C   0  0  0  0  0  0  0  0  0  0  0  0
    0.9416    2.9643    0.0000 C   0  0  0  0  0  0  0  0  0  0  0  0
    2.3376    2.4154    0.0000 C   0  0  0  0  0  0  0  0  0  0  0  0
    2.5603    0.9321    0.0000 C   0  0  0  0  0  0  0  0  0  0  0  0
    3.9562    0.3832    0.0000 O   0  0  0  0  0  0  0  0  0  0  0  0
    4.1789   -1.1002    0.0000 C   0  0  0  0  0  0  0  0  0  0  0  0
    4.4016   -2.5836    0.0000 F   0  0  0  0  0  0  0  0  0  0  0  0
    5.6623   -0.8775    0.0000 F   0  0  0  0  0  0  0  0  0  0  0  0
    2.6955   -1.3228    0.0000 F   0  0  0  0  0  0  0  0  0  0  0  0
    1.3869   -0.0025    0.0000 C   0  0  0  0  0  0  0  0  0  0  0  0
   -5.1476   -0.2250    0.0000 C   0  0  0  0  0  0  0  0  0  0  0  0
   -5.3703    1.2584    0.0000 O   0  0  0  0  0  0  0  0  0  0  0  0
   -6.3209   -1.1595    0.0000 O   0  0  0  0  0  0  0  0  0  0  0  0
  2  1  1  6
  2  3  1  0
  3  4  1  0
  4  5  1  0
  5  6  1  0
  6  7  2  0
  7  8  1  0
  8  9  2  0
  9 10  1  0
 10 11  1  0
 11 12  1  0
 11 13  1  0
 11 14  1  0
  9 15  1  0
  2 16  1  0
 16 17  2  0
 16 18  1  0
 15  5  2  0
M  END
>  <rName>  (4510) 
hPhe_3OCF3

>  <PQ_SYMBOL>  (4510) 
hPhe_3OCF3

>  <FULL_NAME>  (4510) 
(S)-2-amino-4-(3-(trifluoromethoxy)phenyl)butanoic acid

>  <IUPAC_CONDENSED>  (4510) 
hPhe(3-OCF3)

>  <IUPAC>  (4510) 
(2S)-2-amino-4-(3-((trifluoromethyl)oxy)phenyl)butanoic acid

>  <TYPE>  (4510) 
Backbone

>  <CLASS>  (4510) 
alpha

>  <ANALOG>  (4510) 
Tyr

>  <MOL_WT>  (4510) 
263.2149999999999

>  <LOGP>  (4510) 
1.9297

>  <TPSA>  (4510) 
72.55

>  <POPULARITY>  (4510) 
4.3

>  <PROTECTED>  (4510) 
TRUE

>  <SMILES>  (4510) 
N[C@@H](CCc1(cccc(OC(F)(F)F)c1))C(=O)O

>  <INCHIKEY>  (4510) 
XXWHKZICAUCGPQ-VIFPVBQESA-N

$$$$
hPhe_3OH
     RDKit          2D

 14 14  0  0  0  0  0  0  0  0999 V2000
   -2.9179   -2.0082    0.0000 N   0  0  0  0  0  0  0  0  0  0  0  0
   -2.7604   -0.5165    0.0000 C   0  0  0  0  0  0  0  0  0  0  0  0
   -1.3898    0.0929    0.0000 C   0  0  0  0  0  0  0  0  0  0  0  0
   -0.1767   -0.7894    0.0000 C   0  0  0  0  0  0  0  0  0  0  0  0
    1.1939   -0.1800    0.0000 C   0  0  0  0  0  0  0  0  0  0  0  0
    1.3515    1.3117    0.0000 C   0  0  0  0  0  0  0  0  0  0  0  0
    2.7221    1.9211    0.0000 C   0  0  0  0  0  0  0  0  0  0  0  0
    3.9352    1.0388    0.0000 C   0  0  0  0  0  0  0  0  0  0  0  0
    3.7777   -0.4529    0.0000 C   0  0  0  0  0  0  0  0  0  0  0  0
    4.9907   -1.3352    0.0000 O   0  0  0  0  0  0  0  0  0  0  0  0
    2.4070   -1.0623    0.0000 C   0  0  0  0  0  0  0  0  0  0  0  0
   -3.9735    0.3658    0.0000 C   0  0  0  0  0  0  0  0  0  0  0  0
   -3.8159    1.8575    0.0000 O   0  0  0  0  0  0  0  0  0  0  0  0
   -5.3441   -0.2436    0.0000 O   0  0  0  0  0  0  0  0  0  0  0  0
  2  1  1  6
  2  3  1  0
  3  4  1  0
  4  5  1  0
  5  6  2  0
  6  7  1  0
  7  8  2  0
  8  9  1  0
  9 10  1  0
  9 11  2  0
  2 12  1  0
 12 13  2  0
 12 14  1  0
 11  5  1  0
M  END
>  <rName>  (4511) 
hPhe_3OH

>  <PQ_SYMBOL>  (4511) 
hPhe_3OH

>  <FULL_NAME>  (4511) 
(S)-2-Amino-4-(3-hydroxyphenyl)butanoic acid

>  <IUPAC_CONDENSED>  (4511) 
hPhe(3-OH)

>  <IUPAC>  (4511) 
(2S)-2-amino-4-(3-hydroxyphenyl)butanoic acid

>  <TYPE>  (4511) 
Backbone

>  <CLASS>  (4511) 
alpha

>  <ANALOG>  (4511) 
Tyr

>  <MOL_WT>  (4511) 
195.218

>  <LOGP>  (4511) 
0.7366999999999999

>  <TPSA>  (4511) 
83.55

>  <POPULARITY>  (4511) 
2.2

>  <PROTECTED>  (4511) 
TRUE

>  <SMILES>  (4511) 
N[C@@H](CCc1(cccc(O)c1))C(=O)O

>  <INCHIKEY>  (4511) 
GRRGGZXWVQKKKL-VIFPVBQESA-N

$$$$
hPhe_3OMe
     RDKit          2D

 15 15  0  0  0  0  0  0  0  0999 V2000
   -3.0687   -2.0959    0.0000 N   0  0  0  0  0  0  0  0  0  0  0  0
   -3.0421   -0.5961    0.0000 C   0  0  0  0  0  0  0  0  0  0  0  0
   -1.7300    0.1307    0.0000 C   0  0  0  0  0  0  0  0  0  0  0  0
   -0.4445   -0.6422    0.0000 C   0  0  0  0  0  0  0  0  0  0  0  0
    0.8677    0.0846    0.0000 C   0  0  0  0  0  0  0  0  0  0  0  0
    0.8943    1.5844    0.0000 C   0  0  0  0  0  0  0  0  0  0  0  0
    2.2064    2.3112    0.0000 C   0  0  0  0  0  0  0  0  0  0  0  0
    3.4919    1.5383    0.0000 C   0  0  0  0  0  0  0  0  0  0  0  0
    3.4653    0.0385    0.0000 C   0  0  0  0  0  0  0  0  0  0  0  0
    4.7509   -0.7344    0.0000 O   0  0  0  0  0  0  0  0  0  0  0  0
    4.7243   -2.2342    0.0000 C   0  0  0  0  0  0  0  0  0  0  0  0
    2.1532   -0.6883    0.0000 C   0  0  0  0  0  0  0  0  0  0  0  0
   -4.3277    0.1768    0.0000 C   0  0  0  0  0  0  0  0  0  0  0  0
   -4.3011    1.6766    0.0000 O   0  0  0  0  0  0  0  0  0  0  0  0
   -5.6398   -0.5500    0.0000 O   0  0  0  0  0  0  0  0  0  0  0  0
  2  1  1  6
  2  3  1  0
  3  4  1  0
  4  5  1  0
  5  6  1  0
  6  7  2  0
  7  8  1  0
  8  9  2  0
  9 10  1  0
 10 11  1  0
  9 12  1  0
  2 13  1  0
 13 14  2  0
 13 15  1  0
 12  5  2  0
M  END
>  <rName>  (4512) 
hPhe_3OMe

>  <PQ_SYMBOL>  (4512) 
hPhe_3OMe

>  <FULL_NAME>  (4512) 
(S)-2-amino-4-(3-methoxyphenyl)butanoic acid

>  <IUPAC_CONDENSED>  (4512) 
hPhe(3-OMe)

>  <IUPAC>  (4512) 
(2S)-2-amino-4-(3-methoxyphenyl)butanoic acid

>  <TYPE>  (4512) 
Backbone

>  <CLASS>  (4512) 
alpha

>  <ANALOG>  (4512) 
Tyr

>  <MOL_WT>  (4512) 
209.24499999999998

>  <LOGP>  (4512) 
1.0396999999999998

>  <TPSA>  (4512) 
72.55

>  <POPULARITY>  (4512) 
7.6

>  <PROTECTED>  (4512) 
TRUE

>  <SMILES>  (4512) 
N[C@@H](CCc1(cccc(OC)c1))C(=O)O

>  <INCHIKEY>  (4512) 
HEOJABVYJADWNP-JTQLQIEISA-N

$$$$
hPhe_3ethynyl
     RDKit          2D

 15 15  0  0  0  0  0  0  0  0999 V2000
   -3.1744   -2.1174    0.0000 N   0  0  0  0  0  0  0  0  0  0  0  0
   -3.1350   -0.6179    0.0000 C   0  0  0  0  0  0  0  0  0  0  0  0
   -1.8167    0.0977    0.0000 C   0  0  0  0  0  0  0  0  0  0  0  0
   -0.5378   -0.6861    0.0000 C   0  0  0  0  0  0  0  0  0  0  0  0
    0.7805    0.0295    0.0000 C   0  0  0  0  0  0  0  0  0  0  0  0
    0.8199    1.5290    0.0000 C   0  0  0  0  0  0  0  0  0  0  0  0
    2.1382    2.2446    0.0000 C   0  0  0  0  0  0  0  0  0  0  0  0
    3.4170    1.4608    0.0000 C   0  0  0  0  0  0  0  0  0  0  0  0
    3.3776   -0.0387    0.0000 C   0  0  0  0  0  0  0  0  0  0  0  0
    4.6565   -0.8226    0.0000 C   0  0  0  0  0  0  0  0  0  0  0  0
    5.9354   -1.6064    0.0000 C   0  0  0  0  0  0  0  0  0  0  0  0
    2.0594   -0.7543    0.0000 C   0  0  0  0  0  0  0  0  0  0  0  0
   -4.4139    0.1660    0.0000 C   0  0  0  0  0  0  0  0  0  0  0  0
   -4.3745    1.6655    0.0000 O   0  0  0  0  0  0  0  0  0  0  0  0
   -5.7322   -0.5496    0.0000 O   0  0  0  0  0  0  0  0  0  0  0  0
  2  1  1  6
  2  3  1  0
  3  4  1  0
  4  5  1  0
  5  6  2  0
  6  7  1  0
  7  8  2  0
  8  9  1  0
  9 10  1  0
 10 11  3  0
  9 12  2  0
  2 13  1  0
 13 14  2  0
 13 15  1  0
 12  5  1  0
M  END
>  <rName>  (4513) 
hPhe_3ethynyl

>  <PQ_SYMBOL>  (4513) 
hPhe_3ethynyl

>  <FULL_NAME>  (4513) 
hPhe(3-ethynyl)

>  <IUPAC_CONDENSED>  (4513) 
hPhe(3-ethynyl)

>  <IUPAC>  (4513) 
(2S)-2-amino-4-(3-(ethynyl)phenyl)butanoic acid

>  <TYPE>  (4513) 
Backbone

>  <CLASS>  (4513) 
alpha

>  <ANALOG>  (4513) 
Phe

>  <MOL_WT>  (4513) 
203.24099999999999

>  <LOGP>  (4513) 
1.0124

>  <TPSA>  (4513) 
63.32000000000001

>  <POPULARITY>  (4513) 
2.2

>  <PROTECTED>  (4513) 
TRUE

>  <SMILES>  (4513) 
N[C@@H](CCc1(cccc(C#C)c1))C(=O)O

>  <INCHIKEY>  (4513) 
NQFSHBJPHVYFPJ-NSHDSACASA-N

$$$$
hPhe_4CF3
     RDKit          2D

 17 17  0  0  0  0  0  0  0  0999 V2000
   -4.3296   -1.7850    0.0000 N   0  0  0  0  0  0  0  0  0  0  0  0
   -3.9152   -0.3434    0.0000 C   0  0  0  0  0  0  0  0  0  0  0  0
   -2.4595    0.0185    0.0000 C   0  0  0  0  0  0  0  0  0  0  0  0
   -1.4182   -1.0612    0.0000 C   0  0  0  0  0  0  0  0  0  0  0  0
    0.0375   -0.6993    0.0000 C   0  0  0  0  0  0  0  0  0  0  0  0
    0.4519    0.7423    0.0000 C   0  0  0  0  0  0  0  0  0  0  0  0
    1.9076    1.1041    0.0000 C   0  0  0  0  0  0  0  0  0  0  0  0
    2.9489    0.0244    0.0000 C   0  0  0  0  0  0  0  0  0  0  0  0
    2.5344   -1.4172    0.0000 C   0  0  0  0  0  0  0  0  0  0  0  0
    1.0787   -1.7791    0.0000 C   0  0  0  0  0  0  0  0  0  0  0  0
    4.4046    0.3863    0.0000 C   0  0  0  0  0  0  0  0  0  0  0  0
    5.8602    0.7481    0.0000 F   0  0  0  0  0  0  0  0  0  0  0  0
    4.7664   -1.0694    0.0000 F   0  0  0  0  0  0  0  0  0  0  0  0
    4.0427    1.8420    0.0000 F   0  0  0  0  0  0  0  0  0  0  0  0
   -4.9564    0.7364    0.0000 C   0  0  0  0  0  0  0  0  0  0  0  0
   -4.5419    2.1780    0.0000 O   0  0  0  0  0  0  0  0  0  0  0  0
   -6.4121    0.3745    0.0000 O   0  0  0  0  0  0  0  0  0  0  0  0
  2  1  1  6
  2  3  1  0
  3  4  1  0
  4  5  1  0
  5  6  1  0
  6  7  2  0
  7  8  1  0
  8  9  2  0
  9 10  1  0
  8 11  1  0
 11 12  1  0
 11 13  1  0
 11 14  1  0
  2 15  1  0
 15 16  2  0
 15 17  1  0
 10  5  2  0
M  END
>  <rName>  (4514) 
hPhe_4CF3

>  <PQ_SYMBOL>  (4514) 
hPhe_4CF3

>  <FULL_NAME>  (4514) 
4-trifluoromethyl-L-homophe

>  <IUPAC_CONDENSED>  (4514) 
hPhe(4-CF3)

>  <IUPAC>  (4514) 
(2S)-2-amino-4-(4-(trifluoromethyl)phenyl)butanoic acid

>  <TYPE>  (4514) 
Backbone

>  <CLASS>  (4514) 
alpha

>  <ANALOG>  (4514) 
Phe

>  <MOL_WT>  (4514) 
247.21599999999995

>  <LOGP>  (4514) 
2.0499

>  <TPSA>  (4514) 
63.32000000000001

>  <POPULARITY>  (4514) 
10.7

>  <PROTECTED>  (4514) 
TRUE

>  <SMILES>  (4514) 
N[C@@H](CCc1(ccc(cc1)C(F)(F)F))C(=O)O

>  <INCHIKEY>  (4514) 
VOINSBLLXKDEJC-VIFPVBQESA-N

$$$$
hPhe_4CN
     RDKit          2D

 15 15  0  0  0  0  0  0  0  0999 V2000
   -3.7148   -1.7918    0.0000 N   0  0  0  0  0  0  0  0  0  0  0  0
   -3.3229   -0.3439    0.0000 C   0  0  0  0  0  0  0  0  0  0  0  0
   -1.8731    0.0407    0.0000 C   0  0  0  0  0  0  0  0  0  0  0  0
   -0.8151   -1.0226    0.0000 C   0  0  0  0  0  0  0  0  0  0  0  0
    0.6348   -0.6380    0.0000 C   0  0  0  0  0  0  0  0  0  0  0  0
    1.0267    0.8099    0.0000 C   0  0  0  0  0  0  0  0  0  0  0  0
    2.4765    1.1945    0.0000 C   0  0  0  0  0  0  0  0  0  0  0  0
    3.5345    0.1312    0.0000 C   0  0  0  0  0  0  0  0  0  0  0  0
    4.9844    0.5158    0.0000 C   0  0  0  0  0  0  0  0  0  0  0  0
    6.4342    0.9004    0.0000 N   0  0  0  0  0  0  0  0  0  0  0  0
    3.1426   -1.3167    0.0000 C   0  0  0  0  0  0  0  0  0  0  0  0
    1.6928   -1.7013    0.0000 C   0  0  0  0  0  0  0  0  0  0  0  0
   -4.3809    0.7195    0.0000 C   0  0  0  0  0  0  0  0  0  0  0  0
   -3.9890    2.1674    0.0000 O   0  0  0  0  0  0  0  0  0  0  0  0
   -5.8308    0.3349    0.0000 O   0  0  0  0  0  0  0  0  0  0  0  0
  2  1  1  6
  2  3  1  0
  3  4  1  0
  4  5  1  0
  5  6  1  0
  6  7  2  0
  7  8  1  0
  8  9  1  0
  9 10  3  0
  8 11  2  0
 11 12  1  0
  2 13  1  0
 13 14  2  0
 13 15  1  0
 12  5  2  0
M  END
>  <rName>  (4515) 
hPhe_4CN

>  <PQ_SYMBOL>  (4515) 
hPhe_4CN

>  <FULL_NAME>  (4515) 
(S)-2-amino-4-(4-cyanophenyl)butanoic acid

>  <IUPAC_CONDENSED>  (4515) 
hPhe(4-CN)

>  <IUPAC>  (4515) 
(2S)-2-amino-4-(4-(nitrilomethyl)phenyl)butanoic acid

>  <TYPE>  (4515) 
Backbone

>  <CLASS>  (4515) 
alpha

>  <ANALOG>  (4515) 
Phe

>  <MOL_WT>  (4515) 
204.22899999999998

>  <LOGP>  (4515) 
0.9027799999999999

>  <TPSA>  (4515) 
87.11

>  <POPULARITY>  (4515) 
6.6

>  <PROTECTED>  (4515) 
TRUE

>  <SMILES>  (4515) 
N[C@@H](CCc1(ccc(C#N)cc1))C(=O)O

>  <INCHIKEY>  (4515) 
KCYCPUKPRHBVCZ-JTQLQIEISA-N

$$$$
hPhe_4Cl
     RDKit          2D

 14 14  0  0  0  0  0  0  0  0999 V2000
   -3.1731   -1.8740    0.0000 N   0  0  0  0  0  0  0  0  0  0  0  0
   -2.8476   -0.4097    0.0000 C   0  0  0  0  0  0  0  0  0  0  0  0
   -1.4168    0.0405    0.0000 C   0  0  0  0  0  0  0  0  0  0  0  0
   -0.3114   -0.9735    0.0000 C   0  0  0  0  0  0  0  0  0  0  0  0
    1.1194   -0.5232    0.0000 C   0  0  0  0  0  0  0  0  0  0  0  0
    1.4449    0.9411    0.0000 C   0  0  0  0  0  0  0  0  0  0  0  0
    2.8757    1.3913    0.0000 C   0  0  0  0  0  0  0  0  0  0  0  0
    3.9810    0.3773    0.0000 C   0  0  0  0  0  0  0  0  0  0  0  0
    5.4119    0.8276    0.0000 Cl  0  0  0  0  0  0  0  0  0  0  0  0
    3.6556   -1.0870    0.0000 C   0  0  0  0  0  0  0  0  0  0  0  0
    2.2247   -1.5372    0.0000 C   0  0  0  0  0  0  0  0  0  0  0  0
   -3.9530    0.6043    0.0000 C   0  0  0  0  0  0  0  0  0  0  0  0
   -3.6275    2.0685    0.0000 O   0  0  0  0  0  0  0  0  0  0  0  0
   -5.3838    0.1540    0.0000 O   0  0  0  0  0  0  0  0  0  0  0  0
  2  1  1  6
  2  3  1  0
  3  4  1  0
  4  5  1  0
  5  6  1  0
  6  7  2  0
  7  8  1  0
  8  9  1  0
  8 10  2  0
 10 11  1  0
  2 12  1  0
 12 13  2  0
 12 14  1  0
 11  5  2  0
M  END
>  <rName>  (4516) 
hPhe_4Cl

>  <PQ_SYMBOL>  (4516) 
hPhe_4Cl

>  <FULL_NAME>  (4516) 
4-chloro-L-homophenylalanine

>  <IUPAC_CONDENSED>  (4516) 
hPhe(4-Cl)

>  <IUPAC>  (4516) 
(2S)-2-amino-4-(4-chlorophenyl)butanoic acid

>  <TYPE>  (4516) 
Backbone

>  <CLASS>  (4516) 
alpha

>  <ANALOG>  (4516) 
Phe

>  <MOL_WT>  (4516) 
213.664

>  <LOGP>  (4516) 
1.6844999999999999

>  <TPSA>  (4516) 
63.32000000000001

>  <POPULARITY>  (4516) 
7.5

>  <PROTECTED>  (4516) 
TRUE

>  <SMILES>  (4516) 
N[C@@H](CCc1(ccc(Cl)cc1))C(=O)O

>  <INCHIKEY>  (4516) 
AQUBLNVPEAFNGD-VIFPVBQESA-N

$$$$
hPhe_4Et
     RDKit          2D

 15 15  0  0  0  0  0  0  0  0999 V2000
   -3.5955   -1.8848    0.0000 N   0  0  0  0  0  0  0  0  0  0  0  0
   -3.2795   -0.4184    0.0000 C   0  0  0  0  0  0  0  0  0  0  0  0
   -1.8516    0.0410    0.0000 C   0  0  0  0  0  0  0  0  0  0  0  0
   -0.7397   -0.9658    0.0000 C   0  0  0  0  0  0  0  0  0  0  0  0
    0.6882   -0.5064    0.0000 C   0  0  0  0  0  0  0  0  0  0  0  0
    1.0042    0.9600    0.0000 C   0  0  0  0  0  0  0  0  0  0  0  0
    2.4321    1.4194    0.0000 C   0  0  0  0  0  0  0  0  0  0  0  0
    3.5440    0.4126    0.0000 C   0  0  0  0  0  0  0  0  0  0  0  0
    3.2279   -1.0537    0.0000 C   0  0  0  0  0  0  0  0  0  0  0  0
    1.8000   -1.5132    0.0000 C   0  0  0  0  0  0  0  0  0  0  0  0
    4.9719    0.8721    0.0000 C   0  0  0  0  0  0  0  0  0  0  0  0
    6.0837   -0.1348    0.0000 C   0  0  0  0  0  0  0  0  0  0  0  0
   -4.3913    0.5884    0.0000 C   0  0  0  0  0  0  0  0  0  0  0  0
   -4.0753    2.0547    0.0000 O   0  0  0  0  0  0  0  0  0  0  0  0
   -5.8192    0.1289    0.0000 O   0  0  0  0  0  0  0  0  0  0  0  0
  2  1  1  6
  2  3  1  0
  3  4  1  0
  4  5  1  0
  5  6  1  0
  6  7  2  0
  7  8  1  0
  8  9  2  0
  9 10  1  0
  8 11  1  0
 11 12  1  0
  2 13  1  0
 13 14  2  0
 13 15  1  0
 10  5  2  0
M  END
>  <rName>  (4517) 
hPhe_4Et

>  <PQ_SYMBOL>  (4517) 
hPhe_4Et

>  <FULL_NAME>  (4517) 
(S)-2-Amino-4-(4-ethylphenyl)butanoic acid

>  <IUPAC_CONDENSED>  (4517) 
hPhe(4-Et)

>  <IUPAC>  (4517) 
(2S)-2-amino-4-(4-ethylphenyl)butanoic acid

>  <TYPE>  (4517) 
Backbone

>  <CLASS>  (4517) 
alpha

>  <ANALOG>  (4517) 
Phe

>  <MOL_WT>  (4517) 
207.27299999999997

>  <LOGP>  (4517) 
1.5935

>  <TPSA>  (4517) 
63.32000000000001

>  <POPULARITY>  (4517) 
2.2

>  <PROTECTED>  (4517) 
TRUE

>  <SMILES>  (4517) 
N[C@@H](CCc1(ccc(cc1)CC))C(=O)O

>  <INCHIKEY>  (4517) 
ANXURTLCLVZTPJ-NSHDSACASA-N

$$$$
hPhe_4F
     RDKit          2D

 14 14  0  0  0  0  0  0  0  0999 V2000
   -3.1731   -1.8740    0.0000 N   0  0  0  0  0  0  0  0  0  0  0  0
   -2.8476   -0.4097    0.0000 C   0  0  0  0  0  0  0  0  0  0  0  0
   -1.4168    0.0405    0.0000 C   0  0  0  0  0  0  0  0  0  0  0  0
   -0.3114   -0.9735    0.0000 C   0  0  0  0  0  0  0  0  0  0  0  0
    1.1194   -0.5232    0.0000 C   0  0  0  0  0  0  0  0  0  0  0  0
    1.4449    0.9411    0.0000 C   0  0  0  0  0  0  0  0  0  0  0  0
    2.8757    1.3913    0.0000 C   0  0  0  0  0  0  0  0  0  0  0  0
    3.9810    0.3773    0.0000 C   0  0  0  0  0  0  0  0  0  0  0  0
    5.4119    0.8276    0.0000 F   0  0  0  0  0  0  0  0  0  0  0  0
    3.6556   -1.0870    0.0000 C   0  0  0  0  0  0  0  0  0  0  0  0
    2.2247   -1.5372    0.0000 C   0  0  0  0  0  0  0  0  0  0  0  0
   -3.9530    0.6043    0.0000 C   0  0  0  0  0  0  0  0  0  0  0  0
   -3.6275    2.0685    0.0000 O   0  0  0  0  0  0  0  0  0  0  0  0
   -5.3838    0.1540    0.0000 O   0  0  0  0  0  0  0  0  0  0  0  0
  2  1  1  6
  2  3  1  0
  3  4  1  0
  4  5  1  0
  5  6  1  0
  6  7  2  0
  7  8  1  0
  8  9  1  0
  8 10  2  0
 10 11  1  0
  2 12  1  0
 12 13  2  0
 12 14  1  0
 11  5  2  0
M  END
>  <rName>  (4518) 
hPhe_4F

>  <PQ_SYMBOL>  (4518) 
hPhe_4F

>  <FULL_NAME>  (4518) 
(S)-2-amino-4-(4-fluorophenyl)butanoic acid

>  <IUPAC_CONDENSED>  (4518) 
hPhe(4-F)

>  <IUPAC>  (4518) 
(2S)-2-amino-4-(4-fluorophenyl)butanoic acid

>  <TYPE>  (4518) 
Backbone

>  <CLASS>  (4518) 
alpha

>  <ANALOG>  (4518) 
Phe

>  <MOL_WT>  (4518) 
197.209

>  <LOGP>  (4518) 
1.1702

>  <TPSA>  (4518) 
63.32000000000001

>  <POPULARITY>  (4518) 
7.0

>  <PROTECTED>  (4518) 
TRUE

>  <SMILES>  (4518) 
N[C@@H](CCc1(ccc(F)cc1))C(=O)O

>  <INCHIKEY>  (4518) 
WMMMRQAUOPVWML-VIFPVBQESA-N

$$$$
hPhe_4Me
     RDKit          2D

 14 14  0  0  0  0  0  0  0  0999 V2000
   -3.1731   -1.8740    0.0000 N   0  0  0  0  0  0  0  0  0  0  0  0
   -2.8476   -0.4097    0.0000 C   0  0  0  0  0  0  0  0  0  0  0  0
   -1.4168    0.0405    0.0000 C   0  0  0  0  0  0  0  0  0  0  0  0
   -0.3114   -0.9735    0.0000 C   0  0  0  0  0  0  0  0  0  0  0  0
    1.1194   -0.5232    0.0000 C   0  0  0  0  0  0  0  0  0  0  0  0
    1.4449    0.9411    0.0000 C   0  0  0  0  0  0  0  0  0  0  0  0
    2.8757    1.3913    0.0000 C   0  0  0  0  0  0  0  0  0  0  0  0
    3.9810    0.3773    0.0000 C   0  0  0  0  0  0  0  0  0  0  0  0
    5.4119    0.8276    0.0000 C   0  0  0  0  0  0  0  0  0  0  0  0
    3.6556   -1.0870    0.0000 C   0  0  0  0  0  0  0  0  0  0  0  0
    2.2247   -1.5372    0.0000 C   0  0  0  0  0  0  0  0  0  0  0  0
   -3.9530    0.6043    0.0000 C   0  0  0  0  0  0  0  0  0  0  0  0
   -3.6275    2.0685    0.0000 O   0  0  0  0  0  0  0  0  0  0  0  0
   -5.3838    0.1540    0.0000 O   0  0  0  0  0  0  0  0  0  0  0  0
  2  1  1  6
  2  3  1  0
  3  4  1  0
  4  5  1  0
  5  6  1  0
  6  7  2  0
  7  8  1  0
  8  9  1  0
  8 10  2  0
 10 11  1  0
  2 12  1  0
 12 13  2  0
 12 14  1  0
 11  5  2  0
M  END
>  <rName>  (4519) 
hPhe_4Me

>  <PQ_SYMBOL>  (4519) 
hPhe_4Me

>  <FULL_NAME>  (4519) 
4-Methyl-L-homoPhenylalanine

>  <IUPAC_CONDENSED>  (4519) 
hPhe(4-Me)

>  <IUPAC>  (4519) 
(2S)-2-amino-4-(4-methylphenyl)butanoic acid

>  <TYPE>  (4519) 
Backbone

>  <CLASS>  (4519) 
alpha

>  <ANALOG>  (4519) 
Phe

>  <MOL_WT>  (4519) 
193.24599999999998

>  <LOGP>  (4519) 
1.3395199999999998

>  <TPSA>  (4519) 
63.32000000000001

>  <POPULARITY>  (4519) 
8.0

>  <PROTECTED>  (4519) 
TRUE

>  <SMILES>  (4519) 
N[C@@H](CCc1(ccc(C)cc1))C(=O)O

>  <INCHIKEY>  (4519) 
QHABQGXRISWAEZ-JTQLQIEISA-N

$$$$
hPhe_4NHAc
     RDKit          2D

 17 17  0  0  0  0  0  0  0  0999 V2000
   -4.3340   -1.9096    0.0000 N   0  0  0  0  0  0  0  0  0  0  0  0
   -4.0517   -0.4364    0.0000 C   0  0  0  0  0  0  0  0  0  0  0  0
   -2.6347    0.0557    0.0000 C   0  0  0  0  0  0  0  0  0  0  0  0
   -1.5000   -0.9254    0.0000 C   0  0  0  0  0  0  0  0  0  0  0  0
   -0.0830   -0.4333    0.0000 C   0  0  0  0  0  0  0  0  0  0  0  0
    0.1993    1.0399    0.0000 C   0  0  0  0  0  0  0  0  0  0  0  0
    1.6163    1.5320    0.0000 C   0  0  0  0  0  0  0  0  0  0  0  0
    2.7509    0.5509    0.0000 C   0  0  0  0  0  0  0  0  0  0  0  0
    2.4686   -0.9223    0.0000 C   0  0  0  0  0  0  0  0  0  0  0  0
    1.0516   -1.4144    0.0000 C   0  0  0  0  0  0  0  0  0  0  0  0
    4.1679    1.0430    0.0000 N   0  0  0  0  0  0  0  0  0  0  0  0
    5.3026    0.0619    0.0000 C   0  0  0  0  0  0  0  0  0  0  0  0
    5.0202   -1.4113    0.0000 O   0  0  0  0  0  0  0  0  0  0  0  0
    6.7196    0.5540    0.0000 C   0  0  0  0  0  0  0  0  0  0  0  0
   -5.1863    0.5447    0.0000 C   0  0  0  0  0  0  0  0  0  0  0  0
   -4.9040    2.0179    0.0000 O   0  0  0  0  0  0  0  0  0  0  0  0
   -6.6033    0.0526    0.0000 O   0  0  0  0  0  0  0  0  0  0  0  0
  2  1  1  6
  2  3  1  0
  3  4  1  0
  4  5  1  0
  5  6  1  0
  6  7  2  0
  7  8  1  0
  8  9  2  0
  9 10  1  0
  8 11  1  0
 11 12  1  0
 12 13  2  0
 12 14  1  0
  2 15  1  0
 15 16  2  0
 15 17  1  0
 10  5  2  0
M  END
>  <rName>  (4520) 
hPhe_4NHAc

>  <PQ_SYMBOL>  (4520) 
hPhe_4NHAc

>  <FULL_NAME>  (4520) 
hPhe(4-NHAc)

>  <IUPAC_CONDENSED>  (4520) 
hPhe(4-NHAc)

>  <IUPAC>  (4520) 
(2S)-2-amino-4-(4-methylcarbonylaminophenyl)butanoic acid

>  <TYPE>  (4520) 
Backbone

>  <CLASS>  (4520) 
alpha

>  <ANALOG>  (4520) 
Phe

>  <MOL_WT>  (4520) 
236.271

>  <LOGP>  (4520) 
0.9894999999999996

>  <TPSA>  (4520) 
92.42

>  <POPULARITY>  (4520) 
2.2

>  <PROTECTED>  (4520) 
TRUE

>  <SMILES>  (4520) 
N[C@@H](CCc1(ccc(cc1)NC(=O)C))C(=O)O

>  <INCHIKEY>  (4520) 
GGSHYLYKMHSNIA-NSHDSACASA-N

$$$$
hPhe_4cPr
     RDKit          2D

 16 17  0  0  0  0  0  0  0  0999 V2000
   -4.1285   -1.7598    0.0000 N   0  0  0  0  0  0  0  0  0  0  0  0
   -3.7079   -0.3199    0.0000 C   0  0  0  0  0  0  0  0  0  0  0  0
   -2.2507    0.0357    0.0000 C   0  0  0  0  0  0  0  0  0  0  0  0
   -1.2140   -1.0485    0.0000 C   0  0  0  0  0  0  0  0  0  0  0  0
    0.2432   -0.6928    0.0000 C   0  0  0  0  0  0  0  0  0  0  0  0
    0.6638    0.7470    0.0000 C   0  0  0  0  0  0  0  0  0  0  0  0
    2.1210    1.1027    0.0000 C   0  0  0  0  0  0  0  0  0  0  0  0
    3.1576    0.0185    0.0000 C   0  0  0  0  0  0  0  0  0  0  0  0
    2.7370   -1.4213    0.0000 C   0  0  0  0  0  0  0  0  0  0  0  0
    1.2798   -1.7770    0.0000 C   0  0  0  0  0  0  0  0  0  0  0  0
    4.6149    0.3742    0.0000 C   0  0  0  0  0  0  0  0  0  0  0  0
    5.6990    1.4108    0.0000 C   0  0  0  0  0  0  0  0  0  0  0  0
    6.0547   -0.0464    0.0000 C   0  0  0  0  0  0  0  0  0  0  0  0
   -4.7445    0.7642    0.0000 C   0  0  0  0  0  0  0  0  0  0  0  0
   -4.3239    2.2040    0.0000 O   0  0  0  0  0  0  0  0  0  0  0  0
   -6.2017    0.4086    0.0000 O   0  0  0  0  0  0  0  0  0  0  0  0
  2  1  1  6
  2  3  1  0
  3  4  1  0
  4  5  1  0
  5  6  1  0
  6  7  2  0
  7  8  1  0
  8  9  2  0
  9 10  1  0
  8 11  1  0
 11 12  1  0
 12 13  1  0
  2 14  1  0
 14 15  2  0
 14 16  1  0
 10  5  2  0
 13 11  1  0
M  END
>  <rName>  (4521) 
hPhe_4cPr

>  <PQ_SYMBOL>  (4521) 
hPhe_4cPr

>  <FULL_NAME>  (4521) 
4-Cyclopropyl-L-homophenylalanine

>  <IUPAC_CONDENSED>  (4521) 
hPhe(4-cPr)

>  <IUPAC>  (4521) 
(2S)-2-amino-4-(4-cyclopropylphenyl)butanoic acid

>  <TYPE>  (4521) 
Backbone

>  <CLASS>  (4521) 
alpha

>  <ANALOG>  (4521) 
Phe

>  <MOL_WT>  (4521) 
219.28399999999996

>  <LOGP>  (4521) 
1.9085

>  <TPSA>  (4521) 
63.32000000000001

>  <POPULARITY>  (4521) 
2.2

>  <PROTECTED>  (4521) 
TRUE

>  <SMILES>  (4521) 
N[C@@H](CCc1(ccc(cc1)C2(CC2)))C(=O)O

>  <INCHIKEY>  (4521) 
GDTTXITUTUBFIC-LBPRGKRZSA-N

$$$$
hPhe_4ethynyl
     RDKit          2D

 15 15  0  0  0  0  0  0  0  0999 V2000
   -3.7148   -1.7918    0.0000 N   0  0  0  0  0  0  0  0  0  0  0  0
   -3.3229   -0.3439    0.0000 C   0  0  0  0  0  0  0  0  0  0  0  0
   -1.8731    0.0407    0.0000 C   0  0  0  0  0  0  0  0  0  0  0  0
   -0.8151   -1.0226    0.0000 C   0  0  0  0  0  0  0  0  0  0  0  0
    0.6348   -0.6380    0.0000 C   0  0  0  0  0  0  0  0  0  0  0  0
    1.0267    0.8099    0.0000 C   0  0  0  0  0  0  0  0  0  0  0  0
    2.4765    1.1945    0.0000 C   0  0  0  0  0  0  0  0  0  0  0  0
    3.5345    0.1312    0.0000 C   0  0  0  0  0  0  0  0  0  0  0  0
    4.9844    0.5158    0.0000 C   0  0  0  0  0  0  0  0  0  0  0  0
    6.4342    0.9004    0.0000 C   0  0  0  0  0  0  0  0  0  0  0  0
    3.1426   -1.3167    0.0000 C   0  0  0  0  0  0  0  0  0  0  0  0
    1.6928   -1.7013    0.0000 C   0  0  0  0  0  0  0  0  0  0  0  0
   -4.3809    0.7195    0.0000 C   0  0  0  0  0  0  0  0  0  0  0  0
   -3.9890    2.1674    0.0000 O   0  0  0  0  0  0  0  0  0  0  0  0
   -5.8308    0.3349    0.0000 O   0  0  0  0  0  0  0  0  0  0  0  0
  2  1  1  6
  2  3  1  0
  3  4  1  0
  4  5  1  0
  5  6  1  0
  6  7  2  0
  7  8  1  0
  8  9  1  0
  9 10  3  0
  8 11  2  0
 11 12  1  0
  2 13  1  0
 13 14  2  0
 13 15  1  0
 12  5  2  0
M  END
>  <rName>  (4522) 
hPhe_4ethynyl

>  <PQ_SYMBOL>  (4522) 
hPhe_4ethynyl

>  <FULL_NAME>  (4522) 
hPhe(4-ethynyl)

>  <IUPAC_CONDENSED>  (4522) 
hPhe(4-ethynyl)

>  <IUPAC>  (4522) 
(2S)-2-amino-4-(4-(ethynyl)phenyl)butanoic acid

>  <TYPE>  (4522) 
Backbone

>  <CLASS>  (4522) 
alpha

>  <ANALOG>  (4522) 
Phe

>  <MOL_WT>  (4522) 
203.24099999999999

>  <LOGP>  (4522) 
1.0124

>  <TPSA>  (4522) 
63.32000000000001

>  <POPULARITY>  (4522) 
2.2

>  <PROTECTED>  (4522) 
TRUE

>  <SMILES>  (4522) 
N[C@@H](CCc1(ccc(C#C)cc1))C(=O)O

>  <INCHIKEY>  (4522) 
AUWNXXATODHDDK-NSHDSACASA-N

$$$$
hPhe_4iPr
     RDKit          2D

 16 16  0  0  0  0  0  0  0  0999 V2000
   -4.0381   -1.7977    0.0000 N   0  0  0  0  0  0  0  0  0  0  0  0
   -3.6368   -0.3524    0.0000 C   0  0  0  0  0  0  0  0  0  0  0  0
   -2.1845    0.0228    0.0000 C   0  0  0  0  0  0  0  0  0  0  0  0
   -1.1334   -1.0474    0.0000 C   0  0  0  0  0  0  0  0  0  0  0  0
    0.3189   -0.6723    0.0000 C   0  0  0  0  0  0  0  0  0  0  0  0
    0.7202    0.7730    0.0000 C   0  0  0  0  0  0  0  0  0  0  0  0
    2.1725    1.1481    0.0000 C   0  0  0  0  0  0  0  0  0  0  0  0
    3.2236    0.0779    0.0000 C   0  0  0  0  0  0  0  0  0  0  0  0
    2.8223   -1.3674    0.0000 C   0  0  0  0  0  0  0  0  0  0  0  0
    1.3699   -1.7425    0.0000 C   0  0  0  0  0  0  0  0  0  0  0  0
    4.6759    0.4530    0.0000 C   0  0  0  0  0  0  0  0  0  0  0  0
    5.7269   -0.6172    0.0000 C   0  0  0  0  0  0  0  0  0  0  0  0
    5.0772    1.8984    0.0000 C   0  0  0  0  0  0  0  0  0  0  0  0
   -4.6878    0.7178    0.0000 C   0  0  0  0  0  0  0  0  0  0  0  0
   -4.2865    2.1632    0.0000 O   0  0  0  0  0  0  0  0  0  0  0  0
   -6.1402    0.3427    0.0000 O   0  0  0  0  0  0  0  0  0  0  0  0
  2  1  1  6
  2  3  1  0
  3  4  1  0
  4  5  1  0
  5  6  1  0
  6  7  2  0
  7  8  1  0
  8  9  2  0
  9 10  1  0
  8 11  1  0
 11 12  1  0
 11 13  1  0
  2 14  1  0
 14 15  2  0
 14 16  1  0
 10  5  2  0
M  END
>  <rName>  (4523) 
hPhe_4iPr

>  <PQ_SYMBOL>  (4523) 
hPhe_4iPr

>  <FULL_NAME>  (4523) 
(S)-2-Amino-4-(4-isopropylphenyl)butanoic acid

>  <IUPAC_CONDENSED>  (4523) 
hPhe(4-iPr)

>  <IUPAC>  (4523) 
(2S)-2-amino-4-(4-propan-2-ylphenyl)butanoic acid

>  <TYPE>  (4523) 
Backbone

>  <CLASS>  (4523) 
alpha

>  <ANALOG>  (4523) 
Phe

>  <MOL_WT>  (4523) 
221.29999999999998

>  <LOGP>  (4523) 
2.1545

>  <TPSA>  (4523) 
63.32000000000001

>  <POPULARITY>  (4523) 
2.2

>  <PROTECTED>  (4523) 
TRUE

>  <SMILES>  (4523) 
N[C@@H](CCc1(ccc(cc1)C(C)C))C(=O)O

>  <INCHIKEY>  (4523) 
QXTNPVIJOCZFSN-LBPRGKRZSA-N

$$$$
hPhe_4tBu
     RDKit          2D

 17 17  0  0  0  0  0  0  0  0999 V2000
   -4.3296   -1.7850    0.0000 N   0  0  0  0  0  0  0  0  0  0  0  0
   -3.9152   -0.3434    0.0000 C   0  0  0  0  0  0  0  0  0  0  0  0
   -2.4595    0.0185    0.0000 C   0  0  0  0  0  0  0  0  0  0  0  0
   -1.4182   -1.0612    0.0000 C   0  0  0  0  0  0  0  0  0  0  0  0
    0.0375   -0.6993    0.0000 C   0  0  0  0  0  0  0  0  0  0  0  0
    0.4519    0.7423    0.0000 C   0  0  0  0  0  0  0  0  0  0  0  0
    1.9076    1.1041    0.0000 C   0  0  0  0  0  0  0  0  0  0  0  0
    2.9489    0.0244    0.0000 C   0  0  0  0  0  0  0  0  0  0  0  0
    2.5344   -1.4172    0.0000 C   0  0  0  0  0  0  0  0  0  0  0  0
    1.0787   -1.7791    0.0000 C   0  0  0  0  0  0  0  0  0  0  0  0
    4.4046    0.3863    0.0000 C   0  0  0  0  0  0  0  0  0  0  0  0
    4.7664   -1.0694    0.0000 C   0  0  0  0  0  0  0  0  0  0  0  0
    4.0427    1.8420    0.0000 C   0  0  0  0  0  0  0  0  0  0  0  0
    5.8602    0.7481    0.0000 C   0  0  0  0  0  0  0  0  0  0  0  0
   -4.9564    0.7364    0.0000 C   0  0  0  0  0  0  0  0  0  0  0  0
   -4.5419    2.1780    0.0000 O   0  0  0  0  0  0  0  0  0  0  0  0
   -6.4121    0.3745    0.0000 O   0  0  0  0  0  0  0  0  0  0  0  0
  2  1  1  6
  2  3  1  0
  3  4  1  0
  4  5  1  0
  5  6  1  0
  6  7  2  0
  7  8  1  0
  8  9  2  0
  9 10  1  0
  8 11  1  0
 11 12  1  0
 11 13  1  0
 11 14  1  0
  2 15  1  0
 15 16  2  0
 15 17  1  0
 10  5  2  0
M  END
>  <rName>  (4524) 
hPhe_4tBu

>  <PQ_SYMBOL>  (4524) 
hPhe_4tBu

>  <FULL_NAME>  (4524) 
4-tert-butyl-L-homophe

>  <IUPAC_CONDENSED>  (4524) 
hPhe(4-tBu)

>  <IUPAC>  (4524) 
(2S)-2-amino-4-(4-(tert-butyl)phenyl)butanoic acid

>  <TYPE>  (4524) 
Backbone

>  <CLASS>  (4524) 
alpha

>  <ANALOG>  (4524) 
Phe

>  <MOL_WT>  (4524) 
235.32699999999997

>  <LOGP>  (4524) 
2.3286

>  <TPSA>  (4524) 
63.32000000000001

>  <POPULARITY>  (4524) 
4.4

>  <PROTECTED>  (4524) 
TRUE

>  <SMILES>  (4524) 
N[C@@H](CCc1(ccc(cc1)C(C)(C)C))C(=O)O

>  <INCHIKEY>  (4524) 
OULGJNVWQHMXSY-LBPRGKRZSA-N

$$$$
hPhe_4vinyl
     RDKit          2D

 15 15  0  0  0  0  0  0  0  0999 V2000
   -3.5955   -1.8848    0.0000 N   0  0  0  0  0  0  0  0  0  0  0  0
   -3.2795   -0.4184    0.0000 C   0  0  0  0  0  0  0  0  0  0  0  0
   -1.8516    0.0410    0.0000 C   0  0  0  0  0  0  0  0  0  0  0  0
   -0.7397   -0.9658    0.0000 C   0  0  0  0  0  0  0  0  0  0  0  0
    0.6882   -0.5064    0.0000 C   0  0  0  0  0  0  0  0  0  0  0  0
    1.0042    0.9600    0.0000 C   0  0  0  0  0  0  0  0  0  0  0  0
    2.4321    1.4194    0.0000 C   0  0  0  0  0  0  0  0  0  0  0  0
    3.5440    0.4126    0.0000 C   0  0  0  0  0  0  0  0  0  0  0  0
    4.9719    0.8721    0.0000 C   0  0  0  0  0  0  0  0  0  0  0  0
    6.0837   -0.1348    0.0000 C   0  0  0  0  0  0  0  0  0  0  0  0
    3.2279   -1.0537    0.0000 C   0  0  0  0  0  0  0  0  0  0  0  0
    1.8000   -1.5132    0.0000 C   0  0  0  0  0  0  0  0  0  0  0  0
   -4.3913    0.5884    0.0000 C   0  0  0  0  0  0  0  0  0  0  0  0
   -4.0753    2.0547    0.0000 O   0  0  0  0  0  0  0  0  0  0  0  0
   -5.8192    0.1289    0.0000 O   0  0  0  0  0  0  0  0  0  0  0  0
  2  1  1  6
  2  3  1  0
  3  4  1  0
  4  5  1  0
  5  6  1  0
  6  7  2  0
  7  8  1  0
  8  9  1  0
  9 10  2  0
  8 11  2  0
 11 12  1  0
  2 13  1  0
 13 14  2  0
 13 15  1  0
 12  5  2  0
M  END
>  <rName>  (4525) 
hPhe_4vinyl

>  <PQ_SYMBOL>  (4525) 
hPhe_4vinyl

>  <FULL_NAME>  (4525) 
hPhe(4-vinyl)

>  <IUPAC_CONDENSED>  (4525) 
hPhe(4-vinyl)

>  <IUPAC>  (4525) 
(2S)-2-amino-4-(4-ethenylphenyl)butanoic acid

>  <TYPE>  (4525) 
Backbone

>  <CLASS>  (4525) 
alpha

>  <ANALOG>  (4525) 
Phe

>  <MOL_WT>  (4525) 
205.25699999999998

>  <LOGP>  (4525) 
1.6741

>  <TPSA>  (4525) 
63.32000000000001

>  <POPULARITY>  (4525) 
2.2

>  <PROTECTED>  (4525) 
TRUE

>  <SMILES>  (4525) 
N[C@@H](CCc1(ccc(C=C)cc1))C(=O)O

>  <INCHIKEY>  (4525) 
CYSVLWJMXWACED-NSHDSACASA-N

$$$$
hPhe_CONH2
     RDKit          2D

 16 17  0  0  0  0  0  0  0  0999 V2000
   -2.5941   -1.4623    0.0000 N   0  0  0  0  0  0  0  0  0  0  0  0
   -2.4986    0.0347    0.0000 C   0  0  0  0  0  0  0  0  0  0  0  0
   -1.1544    0.7005    0.0000 C   0  0  0  0  0  0  0  0  0  0  0  0
    0.0942   -0.1307    0.0000 C   0  0  0  0  0  0  0  0  0  0  0  0
    0.1557   -1.6294    0.0000 C   0  0  0  0  0  0  0  0  0  0  0  0
   -1.0206   -2.5601    0.0000 O   0  0  0  0  0  0  0  0  0  0  0  0
    1.6001   -2.0341    0.0000 N   0  0  0  0  0  0  0  0  0  0  0  0
    2.4313   -0.7854    0.0000 C   0  0  0  0  0  0  0  0  0  0  0  0
    3.9154   -0.5676    0.0000 C   0  0  0  0  0  0  0  0  0  0  0  0
    4.4688    0.8266    0.0000 C   0  0  0  0  0  0  0  0  0  0  0  0
    3.5381    2.0030    0.0000 C   0  0  0  0  0  0  0  0  0  0  0  0
    2.0540    1.7851    0.0000 C   0  0  0  0  0  0  0  0  0  0  0  0
    1.5006    0.3909    0.0000 C   0  0  0  0  0  0  0  0  0  0  0  0
   -3.7473    0.8659    0.0000 C   0  0  0  0  0  0  0  0  0  0  0  0
   -3.6518    2.3628    0.0000 O   0  0  0  0  0  0  0  0  0  0  0  0
   -5.0914    0.2001    0.0000 O   0  0  0  0  0  0  0  0  0  0  0  0
  2  1  1  6
  2  3  1  0
  3  4  1  0
  4  5  1  0
  5  6  2  0
  5  7  1  0
  7  8  1  0
  8  9  2  0
  9 10  1  0
 10 11  2  0
 11 12  1  0
 12 13  2  0
  2 14  1  0
 14 15  2  0
 14 16  1  0
 13  8  1  0
 13  4  1  0
M  END
>  <rName>  (4526) 
hPhe_CONH2

>  <PQ_SYMBOL>  (4526) 
hPhe_CONH2

>  <FULL_NAME>  (4526) 
(2S)-2-amino-3-(2-oxoindolin-3-yl)propanoic acid

>  <IUPAC_CONDENSED>  (4526) 
hPhe(CONH2)

>  <IUPAC>  (4526) 
(2S)-2-amino-3-(2-oxoindolin-3-yl)propanoic acid

>  <TYPE>  (4526) 
Backbone

>  <CLASS>  (4526) 
alpha

>  <ANALOG>  (4526) 
Phe

>  <MOL_WT>  (4526) 
220.228

>  <LOGP>  (4526) 
0.5242999999999998

>  <TPSA>  (4526) 
92.42

>  <POPULARITY>  (4526) 
8.8

>  <PROTECTED>  (4526) 
TRUE

>  <SMILES>  (4526) 
N[C@@H](CC2(C(=O)Nc1(ccccc12)))C(=O)O

>  <INCHIKEY>  (4526) 
SFJCKRJKEWLPTL-MQWKRIRWSA-N

$$$$
hPhe_NO2
     RDKit          2D

 16 16  0  0  0  0  0  0  0  0999 V2000
   -4.0381   -1.7977    0.0000 N   0  0  0  0  0  0  0  0  0  0  0  0
   -3.6368   -0.3524    0.0000 C   0  0  0  0  0  0  0  0  0  0  0  0
   -2.1845    0.0228    0.0000 C   0  0  0  0  0  0  0  0  0  0  0  0
   -1.1334   -1.0474    0.0000 C   0  0  0  0  0  0  0  0  0  0  0  0
    0.3189   -0.6723    0.0000 C   0  0  0  0  0  0  0  0  0  0  0  0
    0.7202    0.7730    0.0000 C   0  0  0  0  0  0  0  0  0  0  0  0
    2.1725    1.1481    0.0000 C   0  0  0  0  0  0  0  0  0  0  0  0
    3.2236    0.0779    0.0000 C   0  0  0  0  0  0  0  0  0  0  0  0
    2.8223   -1.3674    0.0000 C   0  0  0  0  0  0  0  0  0  0  0  0
    1.3699   -1.7425    0.0000 C   0  0  0  0  0  0  0  0  0  0  0  0
    4.6759    0.4530    0.0000 N   0  0  0  0  0  0  0  0  0  0  0  0
    5.0772    1.8984    0.0000 O   0  0  0  0  0  0  0  0  0  0  0  0
    5.7269   -0.6172    0.0000 O   0  0  0  0  0  0  0  0  0  0  0  0
   -4.6878    0.7178    0.0000 C   0  0  0  0  0  0  0  0  0  0  0  0
   -4.2865    2.1632    0.0000 O   0  0  0  0  0  0  0  0  0  0  0  0
   -6.1402    0.3427    0.0000 O   0  0  0  0  0  0  0  0  0  0  0  0
  2  1  1  6
  2  3  1  0
  3  4  1  0
  4  5  1  0
  5  6  1  0
  6  7  2  0
  7  8  1  0
  8  9  2  0
  9 10  1  0
  8 11  1  0
 11 12  2  0
 11 13  1  0
  2 14  1  0
 14 15  2  0
 14 16  1  0
 10  5  2  0
M  CHG  2  11   1  13  -1
M  END
>  <rName>  (4527) 
hPhe_NO2

>  <PQ_SYMBOL>  (4527) 
hPhe_NO2

>  <FULL_NAME>  (4527) 
(2S)-2-amino-4-(4-nitrophenyl)butanoic acid

>  <IUPAC_CONDENSED>  (4527) 
hPhe(NO2)

>  <IUPAC>  (4527) 
(2S)-2-amino-4-(4-nitrophenyl)butanoic acid

>  <TYPE>  (4527) 
Backbone

>  <CLASS>  (4527) 
alpha

>  <ANALOG>  (4527) 
Phe

>  <MOL_WT>  (4527) 
224.21599999999998

>  <LOGP>  (4527) 
0.9392999999999998

>  <TPSA>  (4527) 
106.46

>  <POPULARITY>  (4527) 
6.7

>  <PROTECTED>  (4527) 
TRUE

>  <SMILES>  (4527) 
N[C@@H](CCc1(ccc(cc1)[N+](=O)[O-]))C(=O)O

>  <INCHIKEY>  (4527) 
YLRIJQHXHLYYBA-VIFPVBQESA-N

$$$$
hPhe_g_gdiMe
     RDKit          2D

 15 15  0  0  0  0  0  0  0  0999 V2000
    1.9126    1.7064    0.0000 N   0  0  0  0  0  0  0  0  0  0  0  0
    2.3651    0.2763    0.0000 C   0  0  0  0  0  0  0  0  0  0  0  0
    1.3528   -0.8306    0.0000 C   0  0  0  0  0  0  0  0  0  0  0  0
   -0.1120   -0.5074    0.0000 C   0  0  0  0  0  0  0  0  0  0  0  0
   -0.4352   -1.9722    0.0000 C   0  0  0  0  0  0  0  0  0  0  0  0
    0.2113    0.9574    0.0000 C   0  0  0  0  0  0  0  0  0  0  0  0
   -1.5767   -0.1842    0.0000 C   0  0  0  0  0  0  0  0  0  0  0  0
   -2.5890   -1.2911    0.0000 C   0  0  0  0  0  0  0  0  0  0  0  0
   -4.0538   -0.9678    0.0000 C   0  0  0  0  0  0  0  0  0  0  0  0
   -4.5062    0.4623    0.0000 C   0  0  0  0  0  0  0  0  0  0  0  0
   -3.4939    1.5692    0.0000 C   0  0  0  0  0  0  0  0  0  0  0  0
   -2.0292    1.2460    0.0000 C   0  0  0  0  0  0  0  0  0  0  0  0
    3.8299   -0.0470    0.0000 C   0  0  0  0  0  0  0  0  0  0  0  0
    4.2823   -1.4771    0.0000 O   0  0  0  0  0  0  0  0  0  0  0  0
    4.8422    1.0599    0.0000 O   0  0  0  0  0  0  0  0  0  0  0  0
  2  1  1  6
  2  3  1  0
  3  4  1  0
  4  5  1  0
  4  6  1  0
  4  7  1  0
  7  8  2  0
  8  9  1  0
  9 10  2  0
 10 11  1  0
 11 12  2  0
  2 13  1  0
 13 14  2  0
 13 15  1  0
 12  7  1  0
M  END
>  <rName>  (4528) 
hPhe_g_gdiMe

>  <PQ_SYMBOL>  (4528) 
hPhe_g_gdiMe

>  <FULL_NAME>  (4528) 
(2S)-2-amino-4-methyl-4-phenylpentanoic acid

>  <IUPAC_CONDENSED>  (4528) 
hPhe(g,g-diMe)

>  <IUPAC>  (4528) 
(2S)-2-amino-4-methyl-4-phenylpentanoic acid

>  <TYPE>  (4528) 
Backbone

>  <CLASS>  (4528) 
alpha

>  <ANALOG>  (4528) 
Phe

>  <MOL_WT>  (4528) 
207.273

>  <LOGP>  (4528) 
1.7662000000000002

>  <TPSA>  (4528) 
63.32000000000001

>  <POPULARITY>  (4528) 
2.2

>  <PROTECTED>  (4528) 
TRUE

>  <SMILES>  (4528) 
N[C@@H](CC(C)(C)c1(ccccc1))C(=O)O

>  <INCHIKEY>  (4528) 
ZQEAZBAUXRRNBW-JTQLQIEISA-N

$$$$
hPip
     RDKit          2D

 10 10  0  0  0  0  0  0  0  0999 V2000
    1.3040   -1.4730    0.0000 N   0  0  0  0  0  0  0  0  0  0  0  0
    0.1701   -0.4910    0.0000 C   0  0  0  0  0  0  0  0  0  0  0  0
    0.4536    0.9820    0.0000 C   0  0  0  0  0  0  0  0  0  0  0  0
    1.8709    1.4730    0.0000 C   0  0  0  0  0  0  0  0  0  0  0  0
    3.0048    0.4910    0.0000 C   0  0  0  0  0  0  0  0  0  0  0  0
    2.7213   -0.9820    0.0000 C   0  0  0  0  0  0  0  0  0  0  0  0
   -1.2473   -0.9820    0.0000 C   0  0  0  0  0  0  0  0  0  0  0  0
   -2.3812   -0.0000    0.0000 C   0  0  0  0  0  0  0  0  0  0  0  0
   -2.0977    1.4730    0.0000 O   0  0  0  0  0  0  0  0  0  0  0  0
   -3.7985   -0.4910    0.0000 O   0  0  0  0  0  0  0  0  0  0  0  0
  1  2  1  0
  2  3  1  0
  3  4  1  0
  4  5  1  0
  5  6  1  0
  2  7  1  6
  7  8  1  0
  8  9  2  0
  8 10  1  0
  6  1  1  0
M  END
>  <rName>  (4529) 
hPip

>  <PQ_SYMBOL>  (4529) 
hPip

>  <FULL_NAME>  (4529) 
(S)-2-(Piperidin-2-yl)acetic acid

>  <IUPAC_CONDENSED>  (4529) 
hPip

>  <IUPAC>  (4529) 
2-((2S)-piperidin-2-yl)acetic acid

>  <TYPE>  (4529) 
Backbone

>  <CLASS>  (4529) 
beta

>  <ANALOG>  (4529) 
Pro

>  <MOL_WT>  (4529) 
143.186

>  <LOGP>  (4529) 
0.6032

>  <TPSA>  (4529) 
49.33

>  <POPULARITY>  (4529) 
10.9

>  <PROTECTED>  (4529) 
TRUE

>  <SMILES>  (4529) 
N1[C@@H](CCCC1)CC(=O)O

>  <INCHIKEY>  (4529) 
PRNLNZMJMCUWNV-LURJTMIESA-N

$$$$
hPro
     RDKit          2D

  9  9  0  0  0  0  0  0  0  0999 V2000
   -0.8806   -1.0024    0.0000 N   0  0  0  0  0  0  0  0  0  0  0  0
   -0.4728    0.4411    0.0000 C   0  0  0  0  0  0  0  0  0  0  0  0
   -1.7196    1.2750    0.0000 C   0  0  0  0  0  0  0  0  0  0  0  0
   -2.8980    0.3469    0.0000 C   0  0  0  0  0  0  0  0  0  0  0  0
   -2.3794   -1.0606    0.0000 C   0  0  0  0  0  0  0  0  0  0  0  0
    0.9347    0.9597    0.0000 C   0  0  0  0  0  0  0  0  0  0  0  0
    2.0876   -0.0000    0.0000 C   0  0  0  0  0  0  0  0  0  0  0  0
    1.8329   -1.4782    0.0000 O   0  0  0  0  0  0  0  0  0  0  0  0
    3.4951    0.5186    0.0000 O   0  0  0  0  0  0  0  0  0  0  0  0
  1  2  1  0
  2  3  1  0
  3  4  1  0
  4  5  1  0
  2  6  1  1
  6  7  1  0
  7  8  2  0
  7  9  1  0
  5  1  1  0
M  END
>  <rName>  (4530) 
hPro

>  <PQ_SYMBOL>  (4530) 
hPro

>  <FULL_NAME>  (4530) 
L-(+)-homoproline

>  <IUPAC_CONDENSED>  (4530) 
hPro

>  <IUPAC>  (4530) 
2-((2S)-pyrrolidin-2-yl)acetic acid

>  <TYPE>  (4530) 
Backbone

>  <CLASS>  (4530) 
beta

>  <ANALOG>  (4530) 
Pro

>  <MOL_WT>  (4530) 
129.15900000000002

>  <LOGP>  (4530) 
0.2131

>  <TPSA>  (4530) 
49.33

>  <POPULARITY>  (4530) 
21.0

>  <PROTECTED>  (4530) 
TRUE

>  <SMILES>  (4530) 
N1[C@@H](CCC1)CC(=O)O

>  <INCHIKEY>  (4530) 
ADSALMJPJUKESW-YFKPBYRVSA-N

$$$$
hPro3R-OH-ol
     RDKit          2D

  9  9  0  0  0  0  0  0  0  0999 V2000
   -1.0828   -1.2444    0.0000 N   0  0  0  0  0  0  0  0  0  0  0  0
   -0.3918    0.0869    0.0000 C   0  0  0  0  0  0  0  0  0  0  0  0
   -1.4444    1.1555    0.0000 C   0  0  0  0  0  0  0  0  0  0  0  0
   -2.7860    0.4846    0.0000 C   0  0  0  0  0  0  0  0  0  0  0  0
   -2.5625   -0.9986    0.0000 C   0  0  0  0  0  0  0  0  0  0  0  0
    1.0915    0.3104    0.0000 C   0  0  0  0  0  0  0  0  0  0  0  0
    1.6396    1.7067    0.0000 O   0  0  0  0  0  0  0  0  0  0  0  0
    2.0267   -0.8624    0.0000 C   0  0  0  0  0  0  0  0  0  0  0  0
    3.5099   -0.6389    0.0000 O   0  0  0  0  0  0  0  0  0  0  0  0
  1  2  1  0
  2  3  1  1
  3  4  1  0
  4  5  1  0
  2  6  1  0
  6  7  1  1
  6  8  1  0
  8  9  1  0
  5  1  1  0
M  END
>  <rName>  (4531) 
hPro3R-OH-ol

>  <PQ_SYMBOL>  (4531) 
hPro3R-OH-ol

>  <FULL_NAME>  (4531) 
(1R)-1-[(2S)-pyrrolidin-2-yl]ethane-1,2-diol

>  <IUPAC_CONDENSED>  (4531) 
hPro(3R-OH)-ol

>  <IUPAC>  (4531) 
(1R)-1-((2S)-pyrrolidin-2-yl)ethane-1,2-diol

>  <TYPE>  (4531) 
C-term cap

>  <CLASS>  (4531) 
c_cap

>  <ANALOG>  (4531) 
X

>  <MOL_WT>  (4531) 
131.175

>  <LOGP>  (4531) 
-0.9084000000000003

>  <TPSA>  (4531) 
52.489999999999995

>  <POPULARITY>  (4531) 
4.0

>  <PROTECTED>  (4531) 
FALSE

>  <SMILES>  (4531) 
N1[C@@H](CCC1)[C@@H](O)CO

>  <INCHIKEY>  (4531) 
ABWTVUOTCCJBBM-WDSKDSINSA-N

$$$$
hPro_4ROCO2H
     RDKit          2D

 13 13  0  0  0  0  0  0  0  0999 V2000
    1.0606   -1.4239    0.0000 N   0  0  0  0  0  0  0  0  0  0  0  0
    1.0024    0.0749    0.0000 C   0  0  0  0  0  0  0  0  0  0  0  0
   -0.4411    0.4827    0.0000 C   0  0  0  0  0  0  0  0  0  0  0  0
   -1.2750   -0.7641    0.0000 C   0  0  0  0  0  0  0  0  0  0  0  0
   -2.7739   -0.8223    0.0000 O   0  0  0  0  0  0  0  0  0  0  0  0
   -3.5737    0.4466    0.0000 C   0  0  0  0  0  0  0  0  0  0  0  0
   -2.8747    1.7738    0.0000 O   0  0  0  0  0  0  0  0  0  0  0  0
   -5.0726    0.3884    0.0000 O   0  0  0  0  0  0  0  0  0  0  0  0
   -0.3469   -1.9425    0.0000 C   0  0  0  0  0  0  0  0  0  0  0  0
    2.1808    1.0031    0.0000 C   0  0  0  0  0  0  0  0  0  0  0  0
    3.5737    0.4466    0.0000 C   0  0  0  0  0  0  0  0  0  0  0  0
    3.7883   -1.0380    0.0000 O   0  0  0  0  0  0  0  0  0  0  0  0
    4.7521    1.3747    0.0000 O   0  0  0  0  0  0  0  0  0  0  0  0
  1  2  1  0
  2  3  1  0
  3  4  1  0
  4  5  1  6
  5  6  1  0
  6  7  2  0
  6  8  1  0
  4  9  1  0
  2 10  1  1
 10 11  1  0
 11 12  2  0
 11 13  1  0
  9  1  1  0
M  END
>  <rName>  (4532) 
hPro_4ROCO2H

>  <PQ_SYMBOL>  (4532) 
hPro_4ROCO2H

>  <FULL_NAME>  (4532) 
2-((2S,4R)-4-(carboxyoxy)pyrrolidin-2-yl)acetic acid

>  <IUPAC_CONDENSED>  (4532) 
hPro(4R-OCO2H)

>  <IUPAC>  (4532) 
(3R,5S)-5-(2-hydroxy-2-oxoethyl)pyrrolidin-3-yl hydrogen carbonate

>  <TYPE>  (4532) 
Backbone

>  <CLASS>  (4532) 
beta

>  <ANALOG>  (4532) 
Pro

>  <MOL_WT>  (4532) 
189.16699999999997

>  <LOGP>  (4532) 
-0.1138000000000004

>  <TPSA>  (4532) 
95.86

>  <POPULARITY>  (4532) 
2.5

>  <PROTECTED>  (4532) 
TRUE

>  <SMILES>  (4532) 
N1[C@@H](C[C@@H](OC(=O)O)C1)CC(=O)O

>  <INCHIKEY>  (4532) 
SHPVYUXXJREYHW-CRCLSJGQSA-N

$$$$
hPro_4ROH
     RDKit          2D

 10 10  0  0  0  0  0  0  0  0999 V2000
   -0.3795   -1.1032    0.0000 N   0  0  0  0  0  0  0  0  0  0  0  0
   -0.0610    0.3626    0.0000 C   0  0  0  0  0  0  0  0  0  0  0  0
   -1.3566    1.1185    0.0000 C   0  0  0  0  0  0  0  0  0  0  0  0
   -2.4758    0.1199    0.0000 C   0  0  0  0  0  0  0  0  0  0  0  0
   -3.9416    0.4384    0.0000 O   0  0  0  0  0  0  0  0  0  0  0  0
   -1.8720   -1.2532    0.0000 C   0  0  0  0  0  0  0  0  0  0  0  0
    1.3121    0.9665    0.0000 C   0  0  0  0  0  0  0  0  0  0  0  0
    2.5216    0.0793    0.0000 C   0  0  0  0  0  0  0  0  0  0  0  0
    2.3580   -1.4118    0.0000 O   0  0  0  0  0  0  0  0  0  0  0  0
    3.8947    0.6831    0.0000 O   0  0  0  0  0  0  0  0  0  0  0  0
  1  2  1  0
  2  3  1  0
  3  4  1  0
  4  5  1  6
  4  6  1  0
  2  7  1  1
  7  8  1  0
  8  9  2  0
  8 10  1  0
  6  1  1  0
M  END
>  <rName>  (4533) 
hPro_4ROH

>  <PQ_SYMBOL>  (4533) 
hPro_4ROH

>  <FULL_NAME>  (4533) 
2-((2S,4R)-4-hydroxypyrrolidin-2-yl)acetic acid

>  <IUPAC_CONDENSED>  (4533) 
hPro(4R-OH)

>  <IUPAC>  (4533) 
2-((2S,4R)-4-hydroxypyrrolidin-2-yl)acetic acid

>  <TYPE>  (4533) 
Backbone

>  <CLASS>  (4533) 
beta

>  <ANALOG>  (4533) 
Pro

>  <MOL_WT>  (4533) 
145.15800000000002

>  <LOGP>  (4533) 
-0.8161000000000005

>  <TPSA>  (4533) 
69.56

>  <POPULARITY>  (4533) 
7.5

>  <PROTECTED>  (4533) 
TRUE

>  <SMILES>  (4533) 
N1[C@@H](C[C@@H](O)C1)CC(=O)O

>  <INCHIKEY>  (4533) 
HEUWVFJLYQNYMK-CRCLSJGQSA-N

$$$$
hPro_4SF
     RDKit          2D

 10 10  0  0  0  0  0  0  0  0999 V2000
   -0.3795   -1.1032    0.0000 N   0  0  0  0  0  0  0  0  0  0  0  0
   -0.0610    0.3626    0.0000 C   0  0  0  0  0  0  0  0  0  0  0  0
   -1.3566    1.1185    0.0000 C   0  0  0  0  0  0  0  0  0  0  0  0
   -2.4758    0.1199    0.0000 C   0  0  0  0  0  0  0  0  0  0  0  0
   -3.9416    0.4384    0.0000 F   0  0  0  0  0  0  0  0  0  0  0  0
   -1.8720   -1.2532    0.0000 C   0  0  0  0  0  0  0  0  0  0  0  0
    1.3121    0.9665    0.0000 C   0  0  0  0  0  0  0  0  0  0  0  0
    2.5216    0.0793    0.0000 C   0  0  0  0  0  0  0  0  0  0  0  0
    2.3580   -1.4118    0.0000 O   0  0  0  0  0  0  0  0  0  0  0  0
    3.8947    0.6831    0.0000 O   0  0  0  0  0  0  0  0  0  0  0  0
  1  2  1  0
  2  3  1  0
  3  4  1  0
  4  5  1  1
  4  6  1  0
  2  7  1  6
  7  8  1  0
  8  9  2  0
  8 10  1  0
  6  1  1  0
M  END
>  <rName>  (4534) 
hPro_4SF

>  <PQ_SYMBOL>  (4534) 
hPro_4SF

>  <FULL_NAME>  (4534) 
2-[(2S,4S)-4-fluoropyrrolidin-2-yl]acetic acid

>  <IUPAC_CONDENSED>  (4534) 
hPro(4S-F)

>  <IUPAC>  (4534) 
2-((2S,4S)-4-fluoropyrrolidin-2-yl)acetic acid

>  <TYPE>  (4534) 
Backbone

>  <CLASS>  (4534) 
beta

>  <ANALOG>  (4534) 
Pro

>  <MOL_WT>  (4534) 
147.149

>  <LOGP>  (4534) 
0.16109999999999974

>  <TPSA>  (4534) 
49.33

>  <POPULARITY>  (4534) 
4.2

>  <PROTECTED>  (4534) 
TRUE

>  <SMILES>  (4534) 
N1[C@H](C[C@H](F)C1)CC(=O)O

>  <INCHIKEY>  (4534) 
RELUHGZYAOGPIR-CRCLSJGQSA-N

$$$$
hPro_4SOMe
     RDKit          2D

 11 11  0  0  0  0  0  0  0  0999 V2000
    0.1689   -1.2618    0.0000 N   0  0  0  0  0  0  0  0  0  0  0  0
    0.3141    0.2311    0.0000 C   0  0  0  0  0  0  0  0  0  0  0  0
   -1.0610    0.8305    0.0000 C   0  0  0  0  0  0  0  0  0  0  0  0
   -2.0559   -0.2920    0.0000 C   0  0  0  0  0  0  0  0  0  0  0  0
   -3.5489   -0.1468    0.0000 O   0  0  0  0  0  0  0  0  0  0  0  0
   -4.1697    1.2187    0.0000 C   0  0  0  0  0  0  0  0  0  0  0  0
   -1.2958   -1.5851    0.0000 C   0  0  0  0  0  0  0  0  0  0  0  0
    1.6072    0.9912    0.0000 C   0  0  0  0  0  0  0  0  0  0  0  0
    2.9121    0.2514    0.0000 C   0  0  0  0  0  0  0  0  0  0  0  0
    2.9238   -1.2486    0.0000 O   0  0  0  0  0  0  0  0  0  0  0  0
    4.2052    1.0115    0.0000 O   0  0  0  0  0  0  0  0  0  0  0  0
  1  2  1  0
  2  3  1  0
  3  4  1  0
  4  5  1  1
  5  6  1  0
  4  7  1  0
  2  8  1  1
  8  9  1  0
  9 10  2  0
  9 11  1  0
  7  1  1  0
M  END
>  <rName>  (4535) 
hPro_4SOMe

>  <PQ_SYMBOL>  (4535) 
hPro_4SOMe

>  <FULL_NAME>  (4535) 
2-[(2S,4S)-4-methoxypyrrolidin-2-yl]acetic acid

>  <IUPAC_CONDENSED>  (4535) 
hPro(4S-OMe)

>  <IUPAC>  (4535) 
2-((2S,4S)-4-methoxypyrrolidin-2-yl)acetic acid

>  <TYPE>  (4535) 
Backbone

>  <CLASS>  (4535) 
beta

>  <ANALOG>  (4535) 
Pro

>  <MOL_WT>  (4535) 
159.185

>  <LOGP>  (4535) 
-0.1620000000000002

>  <TPSA>  (4535) 
58.56

>  <POPULARITY>  (4535) 
4.5

>  <PROTECTED>  (4535) 
TRUE

>  <SMILES>  (4535) 
N1[C@@H](C[C@H](OC)C1)CC(=O)O

>  <INCHIKEY>  (4535) 
JXPRAGMMQXWLOF-WDSKDSINSA-N

$$$$
hSec
     RDKit          2D

  8  7  0  0  0  0  0  0  0  0999 V2000
   -0.2517   -1.8862    0.0000 N   0  0  0  0  0  0  0  0  0  0  0  0
   -0.3100   -0.3873    0.0000 C   0  0  0  0  0  0  0  0  0  0  0  0
    0.9590    0.4126    0.0000 C   0  0  0  0  0  0  0  0  0  0  0  0
    2.2862   -0.2864    0.0000 C   0  0  0  0  0  0  0  0  0  0  0  0
    3.5551    0.5134    0.0000 Se  0  0  0  0  0  2  0  0  0  0  0  0
   -1.6371    0.3117    0.0000 C   0  0  0  0  0  0  0  0  0  0  0  0
   -1.6954    1.8105    0.0000 O   0  0  0  0  0  0  0  0  0  0  0  0
   -2.9061   -0.4882    0.0000 O   0  0  0  0  0  0  0  0  0  0  0  0
  2  1  1  6
  2  3  1  0
  3  4  1  0
  4  5  1  0
  2  6  1  0
  6  7  2  0
  6  8  1  0
M  END
>  <rName>  (4536) 
hSec

>  <PQ_SYMBOL>  (4536) 
hSec

>  <FULL_NAME>  (4536) 
(S)-2-amino-4-hydroselenobutanoic acid

>  <IUPAC_CONDENSED>  (4536) 
hSec

>  <IUPAC>  (4536) 
(2S)-2-amino-4-selanylbutanoic acid

>  <TYPE>  (4536) 
Backbone

>  <CLASS>  (4536) 
alpha

>  <ANALOG>  (4536) 
Cys

>  <MOL_WT>  (4536) 
182.081

>  <LOGP>  (4536) 
-0.8925000000000003

>  <TPSA>  (4536) 
63.32000000000001

>  <POPULARITY>  (4536) 
7.2

>  <PROTECTED>  (4536) 
TRUE

>  <SMILES>  (4536) 
N[C@@H](CC[SeH])C(=O)O

>  <INCHIKEY>  (4536) 
RCWCGLALNCIQNM-VKHMYHEASA-N

$$$$
hTyr
     RDKit          2D

 14 14  0  0  0  0  0  0  0  0999 V2000
   -3.1731   -1.8740    0.0000 N   0  0  0  0  0  0  0  0  0  0  0  0
   -2.8476   -0.4097    0.0000 C   0  0  0  0  0  0  0  0  0  0  0  0
   -1.4168    0.0405    0.0000 C   0  0  0  0  0  0  0  0  0  0  0  0
   -0.3114   -0.9735    0.0000 C   0  0  0  0  0  0  0  0  0  0  0  0
    1.1194   -0.5232    0.0000 C   0  0  0  0  0  0  0  0  0  0  0  0
    1.4449    0.9411    0.0000 C   0  0  0  0  0  0  0  0  0  0  0  0
    2.8757    1.3913    0.0000 C   0  0  0  0  0  0  0  0  0  0  0  0
    3.9810    0.3773    0.0000 C   0  0  0  0  0  0  0  0  0  0  0  0
    5.4119    0.8276    0.0000 O   0  0  0  0  0  0  0  0  0  0  0  0
    3.6556   -1.0870    0.0000 C   0  0  0  0  0  0  0  0  0  0  0  0
    2.2247   -1.5372    0.0000 C   0  0  0  0  0  0  0  0  0  0  0  0
   -3.9530    0.6043    0.0000 C   0  0  0  0  0  0  0  0  0  0  0  0
   -3.6275    2.0685    0.0000 O   0  0  0  0  0  0  0  0  0  0  0  0
   -5.3838    0.1540    0.0000 O   0  0  0  0  0  0  0  0  0  0  0  0
  2  1  1  6
  2  3  1  0
  3  4  1  0
  4  5  1  0
  5  6  1  0
  6  7  2  0
  7  8  1  0
  8  9  1  0
  8 10  2  0
 10 11  1  0
  2 12  1  0
 12 13  2  0
 12 14  1  0
 11  5  2  0
M  END
>  <rName>  (4537) 
hTyr

>  <PQ_SYMBOL>  (4537) 
hTyr

>  <FULL_NAME>  (4537) 
Homo-L-Tyrosine

>  <IUPAC_CONDENSED>  (4537) 
hTyr

>  <IUPAC>  (4537) 
(2S)-2-amino-4-(4-hydroxyphenyl)butanoic acid

>  <TYPE>  (4537) 
Backbone

>  <CLASS>  (4537) 
alpha

>  <ANALOG>  (4537) 
Tyr

>  <MOL_WT>  (4537) 
195.218

>  <LOGP>  (4537) 
0.7366999999999999

>  <TPSA>  (4537) 
83.55

>  <POPULARITY>  (4537) 
23.2

>  <PROTECTED>  (4537) 
TRUE

>  <SMILES>  (4537) 
N[C@@H](CCc1(ccc(O)cc1))C(=O)O

>  <INCHIKEY>  (4537) 
LOOZZTFGSTZNRX-VIFPVBQESA-N

$$$$
hTyr_2F_Me
     RDKit          2D

 16 16  0  0  0  0  0  0  0  0999 V2000
   -3.6457   -1.7881    0.0000 N   0  0  0  0  0  0  0  0  0  0  0  0
   -3.3655   -0.3145    0.0000 C   0  0  0  0  0  0  0  0  0  0  0  0
   -1.9493    0.1797    0.0000 C   0  0  0  0  0  0  0  0  0  0  0  0
   -0.8132   -0.7997    0.0000 C   0  0  0  0  0  0  0  0  0  0  0  0
    0.6031   -0.3055    0.0000 C   0  0  0  0  0  0  0  0  0  0  0  0
    0.8832    1.1681    0.0000 C   0  0  0  0  0  0  0  0  0  0  0  0
    2.2995    1.6623    0.0000 C   0  0  0  0  0  0  0  0  0  0  0  0
    3.4356    0.6829    0.0000 C   0  0  0  0  0  0  0  0  0  0  0  0
    4.8518    1.1770    0.0000 O   0  0  0  0  0  0  0  0  0  0  0  0
    5.9879    0.1976    0.0000 C   0  0  0  0  0  0  0  0  0  0  0  0
    3.1554   -0.7908    0.0000 C   0  0  0  0  0  0  0  0  0  0  0  0
    1.7392   -1.2849    0.0000 C   0  0  0  0  0  0  0  0  0  0  0  0
    1.4590   -2.7585    0.0000 F   0  0  0  0  0  0  0  0  0  0  0  0
   -4.5016    0.6650    0.0000 C   0  0  0  0  0  0  0  0  0  0  0  0
   -4.2215    2.1386    0.0000 O   0  0  0  0  0  0  0  0  0  0  0  0
   -5.9179    0.1708    0.0000 O   0  0  0  0  0  0  0  0  0  0  0  0
  2  1  1  6
  2  3  1  0
  3  4  1  0
  4  5  1  0
  5  6  1  0
  6  7  2  0
  7  8  1  0
  8  9  1  0
  9 10  1  0
  8 11  2  0
 11 12  1  0
 12 13  1  0
  2 14  1  0
 14 15  2  0
 14 16  1  0
 12  5  2  0
M  END
>  <rName>  (4538) 
hTyr_2F_Me

>  <PQ_SYMBOL>  (4538) 
hTyr_2F_Me

>  <FULL_NAME>  (4538) 
hTyr(2-F,Me)

>  <IUPAC_CONDENSED>  (4538) 
hTyr(2-F,Me)

>  <IUPAC>  (4538) 
(2S)-2-amino-4-(2-fluoro-4-methoxyphenyl)butanoic acid

>  <TYPE>  (4538) 
Backbone

>  <CLASS>  (4538) 
alpha

>  <ANALOG>  (4538) 
Tyr

>  <MOL_WT>  (4538) 
227.23499999999996

>  <LOGP>  (4538) 
1.1787999999999998

>  <TPSA>  (4538) 
72.55

>  <POPULARITY>  (4538) 
2.2

>  <PROTECTED>  (4538) 
TRUE

>  <SMILES>  (4538) 
N[C@@H](CCc1(ccc(OC)cc1F))C(=O)O

>  <INCHIKEY>  (4538) 
BDWTVVBEFTXYEJ-JTQLQIEISA-N

$$$$
hTyr_3F_Me
     RDKit          2D

 16 16  0  0  0  0  0  0  0  0999 V2000
   -3.7856   -1.9247    0.0000 N   0  0  0  0  0  0  0  0  0  0  0  0
   -3.5345   -0.4459    0.0000 C   0  0  0  0  0  0  0  0  0  0  0  0
   -2.1282    0.0761    0.0000 C   0  0  0  0  0  0  0  0  0  0  0  0
   -0.9731   -0.8808    0.0000 C   0  0  0  0  0  0  0  0  0  0  0  0
    0.4332   -0.3588    0.0000 C   0  0  0  0  0  0  0  0  0  0  0  0
    0.6843    1.1200    0.0000 C   0  0  0  0  0  0  0  0  0  0  0  0
    2.0905    1.6420    0.0000 C   0  0  0  0  0  0  0  0  0  0  0  0
    3.2457    0.6851    0.0000 C   0  0  0  0  0  0  0  0  0  0  0  0
    4.6520    1.2071    0.0000 O   0  0  0  0  0  0  0  0  0  0  0  0
    5.8071    0.2502    0.0000 C   0  0  0  0  0  0  0  0  0  0  0  0
    2.9946   -0.7937    0.0000 C   0  0  0  0  0  0  0  0  0  0  0  0
    4.1498   -1.7506    0.0000 F   0  0  0  0  0  0  0  0  0  0  0  0
    1.5883   -1.3157    0.0000 C   0  0  0  0  0  0  0  0  0  0  0  0
   -4.6896    0.5110    0.0000 C   0  0  0  0  0  0  0  0  0  0  0  0
   -4.4386    1.9898    0.0000 O   0  0  0  0  0  0  0  0  0  0  0  0
   -6.0959   -0.0110    0.0000 O   0  0  0  0  0  0  0  0  0  0  0  0
  2  1  1  6
  2  3  1  0
  3  4  1  0
  4  5  1  0
  5  6  1  0
  6  7  2  0
  7  8  1  0
  8  9  1  0
  9 10  1  0
  8 11  2  0
 11 12  1  0
 11 13  1  0
  2 14  1  0
 14 15  2  0
 14 16  1  0
 13  5  2  0
M  END
>  <rName>  (4539) 
hTyr_3F_Me

>  <PQ_SYMBOL>  (4539) 
hTyr_3F_Me

>  <FULL_NAME>  (4539) 
3-Fluoro-4-methoxy-L-homophenylalanine

>  <IUPAC_CONDENSED>  (4539) 
hTyr(3-F,Me)

>  <IUPAC>  (4539) 
(2S)-2-amino-4-(3-fluoro-4-methoxyphenyl)butanoic acid

>  <TYPE>  (4539) 
Backbone

>  <CLASS>  (4539) 
alpha

>  <ANALOG>  (4539) 
Tyr

>  <MOL_WT>  (4539) 
227.23499999999996

>  <LOGP>  (4539) 
1.1787999999999998

>  <TPSA>  (4539) 
72.55

>  <POPULARITY>  (4539) 
2.2

>  <PROTECTED>  (4539) 
TRUE

>  <SMILES>  (4539) 
N[C@@H](CCc1(ccc(OC)c(F)c1))C(=O)O

>  <INCHIKEY>  (4539) 
WUDVONGUDMDEBQ-VIFPVBQESA-N

$$$$
hTyr_3OMe_Me
     RDKit          2D

 17 17  0  0  0  0  0  0  0  0999 V2000
   -3.9027   -1.9744    0.0000 N   0  0  0  0  0  0  0  0  0  0  0  0
   -3.7415   -0.4831    0.0000 C   0  0  0  0  0  0  0  0  0  0  0  0
   -2.3693    0.1230    0.0000 C   0  0  0  0  0  0  0  0  0  0  0  0
   -1.1584   -0.7623    0.0000 C   0  0  0  0  0  0  0  0  0  0  0  0
    0.2137   -0.1562    0.0000 C   0  0  0  0  0  0  0  0  0  0  0  0
    0.3749    1.3351    0.0000 C   0  0  0  0  0  0  0  0  0  0  0  0
    1.7470    1.9411    0.0000 C   0  0  0  0  0  0  0  0  0  0  0  0
    2.9579    1.0559    0.0000 C   0  0  0  0  0  0  0  0  0  0  0  0
    4.3300    1.6619    0.0000 O   0  0  0  0  0  0  0  0  0  0  0  0
    5.5410    0.7767    0.0000 C   0  0  0  0  0  0  0  0  0  0  0  0
    2.7967   -0.4354    0.0000 C   0  0  0  0  0  0  0  0  0  0  0  0
    4.0076   -1.3207    0.0000 O   0  0  0  0  0  0  0  0  0  0  0  0
    3.8464   -2.8120    0.0000 C   0  0  0  0  0  0  0  0  0  0  0  0
    1.4246   -1.0415    0.0000 C   0  0  0  0  0  0  0  0  0  0  0  0
   -4.9524    0.4022    0.0000 C   0  0  0  0  0  0  0  0  0  0  0  0
   -4.7912    1.8935    0.0000 O   0  0  0  0  0  0  0  0  0  0  0  0
   -6.3245   -0.2038    0.0000 O   0  0  0  0  0  0  0  0  0  0  0  0
  2  1  1  6
  2  3  1  0
  3  4  1  0
  4  5  1  0
  5  6  1  0
  6  7  2  0
  7  8  1  0
  8  9  1  0
  9 10  1  0
  8 11  2  0
 11 12  1  0
 12 13  1  0
 11 14  1  0
  2 15  1  0
 15 16  2  0
 15 17  1  0
 14  5  2  0
M  END
>  <rName>  (4540) 
hTyr_3OMe_Me

>  <PQ_SYMBOL>  (4540) 
hTyr_3OMe_Me

>  <FULL_NAME>  (4540) 
3,4-Dimethoxy-D-homophenylalanine

>  <IUPAC_CONDENSED>  (4540) 
hTyr(3-OMe,Me)

>  <IUPAC>  (4540) 
(2S)-2-amino-4-(3,4-dimethoxyphenyl)butanoic acid

>  <TYPE>  (4540) 
Backbone

>  <CLASS>  (4540) 
alpha

>  <ANALOG>  (4540) 
Tyr

>  <MOL_WT>  (4540) 
239.27099999999996

>  <LOGP>  (4540) 
1.0482999999999998

>  <TPSA>  (4540) 
81.78

>  <POPULARITY>  (4540) 
2.2

>  <PROTECTED>  (4540) 
TRUE

>  <SMILES>  (4540) 
N[C@@H](CCc1(ccc(OC)c(OC)c1))C(=O)O

>  <INCHIKEY>  (4540) 
DPVZUKOQBAHLPB-VIFPVBQESA-N

$$$$
hTyr_CF3
     RDKit          2D

 18 18  0  0  0  0  0  0  0  0999 V2000
   -4.6307   -1.9079    0.0000 N   0  0  0  0  0  0  0  0  0  0  0  0
   -4.3467   -0.4350    0.0000 C   0  0  0  0  0  0  0  0  0  0  0  0
   -2.9292    0.0555    0.0000 C   0  0  0  0  0  0  0  0  0  0  0  0
   -1.7956   -0.9268    0.0000 C   0  0  0  0  0  0  0  0  0  0  0  0
   -0.3781   -0.4363    0.0000 C   0  0  0  0  0  0  0  0  0  0  0  0
   -0.0941    1.0366    0.0000 C   0  0  0  0  0  0  0  0  0  0  0  0
    1.3234    1.5271    0.0000 C   0  0  0  0  0  0  0  0  0  0  0  0
    2.4570    0.5447    0.0000 C   0  0  0  0  0  0  0  0  0  0  0  0
    3.8745    1.0352    0.0000 O   0  0  0  0  0  0  0  0  0  0  0  0
    5.0080    0.0529    0.0000 C   0  0  0  0  0  0  0  0  0  0  0  0
    6.1416   -0.9295    0.0000 F   0  0  0  0  0  0  0  0  0  0  0  0
    5.9904    1.1865    0.0000 F   0  0  0  0  0  0  0  0  0  0  0  0
    4.0257   -1.0807    0.0000 F   0  0  0  0  0  0  0  0  0  0  0  0
    2.1730   -0.9281    0.0000 C   0  0  0  0  0  0  0  0  0  0  0  0
    0.7555   -1.4187    0.0000 C   0  0  0  0  0  0  0  0  0  0  0  0
   -5.4803    0.5474    0.0000 C   0  0  0  0  0  0  0  0  0  0  0  0
   -5.1963    2.0202    0.0000 O   0  0  0  0  0  0  0  0  0  0  0  0
   -6.8978    0.0568    0.0000 O   0  0  0  0  0  0  0  0  0  0  0  0
  2  1  1  6
  2  3  1  0
  3  4  1  0
  4  5  1  0
  5  6  1  0
  6  7  2  0
  7  8  1  0
  8  9  1  0
  9 10  1  0
 10 11  1  0
 10 12  1  0
 10 13  1  0
  8 14  2  0
 14 15  1  0
  2 16  1  0
 16 17  2  0
 16 18  1  0
 15  5  2  0
M  END
>  <rName>  (4541) 
hTyr_CF3

>  <PQ_SYMBOL>  (4541) 
hTyr_CF3

>  <FULL_NAME>  (4541) 
(S)-2-amino-4-(4-(trifluoromethoxy)phenyl)butanoic acid

>  <IUPAC_CONDENSED>  (4541) 
hTyr(CF3)

>  <IUPAC>  (4541) 
(2S)-2-amino-4-(4-((trifluoromethyl)oxy)phenyl)butanoic acid

>  <TYPE>  (4541) 
Backbone

>  <CLASS>  (4541) 
alpha

>  <ANALOG>  (4541) 
Tyr

>  <MOL_WT>  (4541) 
263.2149999999999

>  <LOGP>  (4541) 
1.9297

>  <TPSA>  (4541) 
72.55

>  <POPULARITY>  (4541) 
4.5

>  <PROTECTED>  (4541) 
TRUE

>  <SMILES>  (4541) 
N[C@@H](CCc1(ccc(OC(F)(F)F)cc1))C(=O)O

>  <INCHIKEY>  (4541) 
QIVLRGSCOXBFIB-VIFPVBQESA-N

$$$$
hTyr_Et
     RDKit          2D

 16 16  0  0  0  0  0  0  0  0999 V2000
   -4.0838   -1.8644    0.0000 N   0  0  0  0  0  0  0  0  0  0  0  0
   -3.7531   -0.4013    0.0000 C   0  0  0  0  0  0  0  0  0  0  0  0
   -2.3207    0.0439    0.0000 C   0  0  0  0  0  0  0  0  0  0  0  0
   -1.2190   -0.9740    0.0000 C   0  0  0  0  0  0  0  0  0  0  0  0
    0.2134   -0.5288    0.0000 C   0  0  0  0  0  0  0  0  0  0  0  0
    0.5441    0.9343    0.0000 C   0  0  0  0  0  0  0  0  0  0  0  0
    1.9765    1.3795    0.0000 C   0  0  0  0  0  0  0  0  0  0  0  0
    3.0783    0.3616    0.0000 C   0  0  0  0  0  0  0  0  0  0  0  0
    4.5107    0.8067    0.0000 O   0  0  0  0  0  0  0  0  0  0  0  0
    5.6124   -0.2112    0.0000 C   0  0  0  0  0  0  0  0  0  0  0  0
    7.0448    0.2340    0.0000 C   0  0  0  0  0  0  0  0  0  0  0  0
    2.7476   -1.1015    0.0000 C   0  0  0  0  0  0  0  0  0  0  0  0
    1.3152   -1.5467    0.0000 C   0  0  0  0  0  0  0  0  0  0  0  0
   -4.8549    0.6167    0.0000 C   0  0  0  0  0  0  0  0  0  0  0  0
   -4.5242    2.0798    0.0000 O   0  0  0  0  0  0  0  0  0  0  0  0
   -6.2873    0.1715    0.0000 O   0  0  0  0  0  0  0  0  0  0  0  0
  2  1  1  6
  2  3  1  0
  3  4  1  0
  4  5  1  0
  5  6  1  0
  6  7  2  0
  7  8  1  0
  8  9  1  0
  9 10  1  0
 10 11  1  0
  8 12  2  0
 12 13  1  0
  2 14  1  0
 14 15  2  0
 14 16  1  0
 13  5  2  0
M  END
>  <rName>  (4542) 
hTyr_Et

>  <PQ_SYMBOL>  (4542) 
hTyr_Et

>  <FULL_NAME>  (4542) 
(2S)-2-amino-4-(4-ethoxyphenyl)butanoic acid

>  <IUPAC_CONDENSED>  (4542) 
hTyr(Et)

>  <IUPAC>  (4542) 
(2S)-2-amino-4-(4-ethoxyphenyl)butanoic acid

>  <TYPE>  (4542) 
Backbone

>  <CLASS>  (4542) 
alpha

>  <ANALOG>  (4542) 
Tyr

>  <MOL_WT>  (4542) 
223.27199999999996

>  <LOGP>  (4542) 
1.4297999999999997

>  <TPSA>  (4542) 
72.55

>  <POPULARITY>  (4542) 
2.2

>  <PROTECTED>  (4542) 
TRUE

>  <SMILES>  (4542) 
N[C@@H](CCc1(ccc(OCC)cc1))C(=O)O

>  <INCHIKEY>  (4542) 
HQXYSGOHIFXZAY-NSHDSACASA-N

$$$$
hTyr_Me
     RDKit          2D

 15 15  0  0  0  0  0  0  0  0999 V2000
   -3.5955   -1.8848    0.0000 N   0  0  0  0  0  0  0  0  0  0  0  0
   -3.2795   -0.4184    0.0000 C   0  0  0  0  0  0  0  0  0  0  0  0
   -1.8516    0.0410    0.0000 C   0  0  0  0  0  0  0  0  0  0  0  0
   -0.7397   -0.9658    0.0000 C   0  0  0  0  0  0  0  0  0  0  0  0
    0.6882   -0.5064    0.0000 C   0  0  0  0  0  0  0  0  0  0  0  0
    1.0042    0.9600    0.0000 C   0  0  0  0  0  0  0  0  0  0  0  0
    2.4321    1.4194    0.0000 C   0  0  0  0  0  0  0  0  0  0  0  0
    3.5440    0.4126    0.0000 C   0  0  0  0  0  0  0  0  0  0  0  0
    4.9719    0.8721    0.0000 O   0  0  0  0  0  0  0  0  0  0  0  0
    6.0837   -0.1348    0.0000 C   0  0  0  0  0  0  0  0  0  0  0  0
    3.2279   -1.0537    0.0000 C   0  0  0  0  0  0  0  0  0  0  0  0
    1.8000   -1.5132    0.0000 C   0  0  0  0  0  0  0  0  0  0  0  0
   -4.3913    0.5884    0.0000 C   0  0  0  0  0  0  0  0  0  0  0  0
   -4.0753    2.0547    0.0000 O   0  0  0  0  0  0  0  0  0  0  0  0
   -5.8192    0.1289    0.0000 O   0  0  0  0  0  0  0  0  0  0  0  0
  2  1  1  6
  2  3  1  0
  3  4  1  0
  4  5  1  0
  5  6  1  0
  6  7  2  0
  7  8  1  0
  8  9  1  0
  9 10  1  0
  8 11  2  0
 11 12  1  0
  2 13  1  0
 13 14  2  0
 13 15  1  0
 12  5  2  0
M  END
>  <rName>  (4543) 
hTyr_Me

>  <PQ_SYMBOL>  (4543) 
hTyr_Me

>  <FULL_NAME>  (4543) 
(S)-2-amino-4-(4-methoxyphenyl)butanoic acid

>  <IUPAC_CONDENSED>  (4543) 
hTyr(Me)

>  <IUPAC>  (4543) 
(2S)-2-amino-4-(4-methoxyphenyl)butanoic acid

>  <TYPE>  (4543) 
Backbone

>  <CLASS>  (4543) 
alpha

>  <ANALOG>  (4543) 
Tyr

>  <MOL_WT>  (4543) 
209.24499999999998

>  <LOGP>  (4543) 
1.0396999999999998

>  <TPSA>  (4543) 
72.55

>  <POPULARITY>  (4543) 
8.8

>  <PROTECTED>  (4543) 
TRUE

>  <SMILES>  (4543) 
N[C@@H](CCc1(ccc(OC)cc1))C(=O)O

>  <INCHIKEY>  (4543) 
JADFNIWVWZWOFA-JTQLQIEISA-N

$$$$
homoPip
     RDKit          2D

 10 10  0  0  0  0  0  0  0  0999 V2000
   -0.0408   -1.3515    0.0000 N   0  0  0  0  0  0  0  0  0  0  0  0
    0.6100   -0.0000    0.0000 C   0  0  0  0  0  0  0  0  0  0  0  0
   -0.0408    1.3515    0.0000 C   0  0  0  0  0  0  0  0  0  0  0  0
   -1.5032    1.6852    0.0000 C   0  0  0  0  0  0  0  0  0  0  0  0
   -2.6760    0.7500    0.0000 C   0  0  0  0  0  0  0  0  0  0  0  0
   -2.6760   -0.7500    0.0000 C   0  0  0  0  0  0  0  0  0  0  0  0
   -1.5032   -1.6852    0.0000 C   0  0  0  0  0  0  0  0  0  0  0  0
    2.1100    0.0000    0.0000 C   0  0  0  0  0  0  0  0  0  0  0  0
    2.8600    1.2990    0.0000 O   0  0  0  0  0  0  0  0  0  0  0  0
    2.8600   -1.2990    0.0000 O   0  0  0  0  0  0  0  0  0  0  0  0
  1  2  1  0
  2  3  1  0
  3  4  1  0
  4  5  1  0
  5  6  1  0
  6  7  1  0
  2  8  1  1
  8  9  2  0
  8 10  1  0
  7  1  1  0
M  END
>  <rName>  (4544) 
homoPip

>  <PQ_SYMBOL>  (4544) 
homoPip

>  <FULL_NAME>  (4544) 
(S)-azepane-2-carboxylic acid

>  <IUPAC_CONDENSED>  (4544) 
homoPip

>  <IUPAC>  (4544) 
(2S)-1-azacycloheptane-2-carboxylic acid

>  <TYPE>  (4544) 
Backbone

>  <CLASS>  (4544) 
alpha

>  <ANALOG>  (4544) 
Pro

>  <MOL_WT>  (4544) 
143.186

>  <LOGP>  (4544) 
0.6032

>  <TPSA>  (4544) 
49.33

>  <POPULARITY>  (4544) 
8.3

>  <PROTECTED>  (4544) 
TRUE

>  <SMILES>  (4544) 
N1[C@@H](CCCCC1)C(=O)O

>  <INCHIKEY>  (4544) 
OPFURXRZISKMJV-LURJTMIESA-N

$$$$
iBu2N
     RDKit          2D

  9  8  0  0  0  0  0  0  0  0999 V2000
    0.0000    0.0000    0.0000 N   0  0  0  0  0  0  0  0  0  0  0  0
   -1.2990    0.7500    0.0000 C   0  0  0  0  0  0  0  0  0  0  0  0
   -2.5981    0.0000    0.0000 C   0  0  0  0  0  0  0  0  0  0  0  0
   -3.8971    0.7500    0.0000 C   0  0  0  0  0  0  0  0  0  0  0  0
   -2.5981   -1.5000    0.0000 C   0  0  0  0  0  0  0  0  0  0  0  0
    1.2990    0.7500    0.0000 C   0  0  0  0  0  0  0  0  0  0  0  0
    2.5981    0.0000    0.0000 C   0  0  0  0  0  0  0  0  0  0  0  0
    3.8971    0.7500    0.0000 C   0  0  0  0  0  0  0  0  0  0  0  0
    2.5981   -1.5000    0.0000 C   0  0  0  0  0  0  0  0  0  0  0  0
  1  2  1  0
  2  3  1  0
  3  4  1  0
  3  5  1  0
  1  6  1  0
  6  7  1  0
  7  8  1  0
  7  9  1  0
M  END
>  <rName>  (4545) 
iBu2N

>  <PQ_SYMBOL>  (4545) 
iBu2N

>  <FULL_NAME>  (4545) 
Diisobutylamine

>  <IUPAC_CONDENSED>  (4545) 
N(iBu2)

>  <IUPAC>  (4545) 
2-methyl-N-(2-methylpropyl)propan-1-amine

>  <TYPE>  (4545) 
C-term cap

>  <CLASS>  (4545) 
c_cap

>  <ANALOG>  (4545) 
X

>  <MOL_WT>  (4545) 
129.24699999999999

>  <LOGP>  (4545) 
1.888

>  <TPSA>  (4545) 
12.03

>  <POPULARITY>  (4545) 
13.8

>  <PROTECTED>  (4545) 
TRUE

>  <SMILES>  (4545) 
N(CC(C)C)CC(C)C

>  <INCHIKEY>  (4545) 
NJBCRXCAPCODGX-UHFFFAOYSA-N

$$$$
iPr-bAla
     RDKit          2D

  9  8  0  0  0  0  0  0  0  0999 V2000
   -1.2990    0.7500    0.0000 N   0  0  0  0  0  0  0  0  0  0  0  0
   -2.5981    0.0000    0.0000 C   0  0  0  0  0  0  0  0  0  0  0  0
   -3.8971    0.7500    0.0000 C   0  0  0  0  0  0  0  0  0  0  0  0
   -2.5981   -1.5000    0.0000 C   0  0  0  0  0  0  0  0  0  0  0  0
    0.0000    0.0000    0.0000 C   0  0  0  0  0  0  0  0  0  0  0  0
    1.2990    0.7500    0.0000 C   0  0  0  0  0  0  0  0  0  0  0  0
    2.5981    0.0000    0.0000 C   0  0  0  0  0  0  0  0  0  0  0  0
    2.5981   -1.5000    0.0000 O   0  0  0  0  0  0  0  0  0  0  0  0
    3.8971    0.7500    0.0000 O   0  0  0  0  0  0  0  0  0  0  0  0
  1  2  1  0
  2  3  1  0
  2  4  1  0
  1  5  1  0
  5  6  1  0
  6  7  1  0
  7  8  2  0
  7  9  1  0
M  END
>  <rName>  (4546) 
iPr-bAla

>  <PQ_SYMBOL>  (4546) 
iPr-bAla

>  <FULL_NAME>  (4546) 
3-[(Propan-2-yl)amino]propanoic acid

>  <IUPAC_CONDENSED>  (4546) 
iPr-bAla

>  <IUPAC>  (4546) 
3-((propan-2-yl)amino)propanoic acid

>  <TYPE>  (4546) 
Backbone

>  <CLASS>  (4546) 
beta

>  <ANALOG>  (4546) 
Gly

>  <MOL_WT>  (4546) 
131.175

>  <LOGP>  (4546) 
0.4591

>  <TPSA>  (4546) 
49.33

>  <POPULARITY>  (4546) 
16.3

>  <PROTECTED>  (4546) 
TRUE

>  <SMILES>  (4546) 
N(C(C)C)CCC(=O)O

>  <INCHIKEY>  (4546) 
AKSSCYRRVNHNDF-UHFFFAOYSA-N

$$$$
imidazole-4-carbonyl
     RDKit          2D

  8  8  0  0  0  0  0  0  0  0999 V2000
   -2.2608   -0.7500    0.0000 N   0  0  0  0  0  0  0  0  0  0  0  0
   -0.8342   -1.2135    0.0000 C   0  0  0  0  0  0  0  0  0  0  0  0
    0.0475    0.0000    0.0000 C   0  0  0  0  0  0  0  0  0  0  0  0
   -0.8342    1.2135    0.0000 N   0  0  0  0  0  0  0  0  0  0  0  0
   -2.2608    0.7500    0.0000 C   0  0  0  0  0  0  0  0  0  0  0  0
    1.5475    0.0000    0.0000 C   0  0  0  0  0  0  0  0  0  0  0  0
    2.2975    1.2990    0.0000 O   0  0  0  0  0  0  0  0  0  0  0  0
    2.2975   -1.2990    0.0000 O   0  0  0  0  0  0  0  0  0  0  0  0
  1  2  1  0
  2  3  2  0
  3  4  1  0
  4  5  2  0
  3  6  1  0
  6  7  2  0
  6  8  1  0
  5  1  1  0
M  END
>  <rName>  (4547) 
imidazole-4-carbonyl

>  <PQ_SYMBOL>  (4547) 
imidazole-4-carbonyl

>  <FULL_NAME>  (4547) 
4-Imidazolecarboxylic acid

>  <IUPAC_CONDENSED>  (4547) 
imidazole-4-carbonyl

>  <IUPAC>  (4547) 
1H-imidazole-4-carboxylic acid

>  <TYPE>  (4547) 
N-term cap

>  <CLASS>  (4547) 
n_cap

>  <ANALOG>  (4547) 
X

>  <MOL_WT>  (4547) 
112.08799999999998

>  <LOGP>  (4547) 
0.1079

>  <TPSA>  (4547) 
65.98

>  <POPULARITY>  (4547) 
14.1

>  <PROTECTED>  (4547) 
TRUE

>  <SMILES>  (4547) 
[nH]1cc(nc1)C(=O)O

>  <INCHIKEY>  (4547) 
NKWCGTOZTHZDHB-UHFFFAOYSA-N

$$$$
imidazolidine-2-CO2H
     RDKit          2D

  8  8  0  0  0  0  0  0  0  0999 V2000
   -0.8342   -1.2135    0.0000 N   0  0  0  0  0  0  0  0  0  0  0  0
    0.0475   -0.0000    0.0000 C   0  0  0  0  0  0  0  0  0  0  0  0
   -0.8342    1.2135    0.0000 N   0  0  0  0  0  0  0  0  0  0  0  0
   -2.2608    0.7500    0.0000 C   0  0  0  0  0  0  0  0  0  0  0  0
   -2.2608   -0.7500    0.0000 C   0  0  0  0  0  0  0  0  0  0  0  0
    1.5475    0.0000    0.0000 C   0  0  0  0  0  0  0  0  0  0  0  0
    2.2975    1.2990    0.0000 O   0  0  0  0  0  0  0  0  0  0  0  0
    2.2975   -1.2990    0.0000 O   0  0  0  0  0  0  0  0  0  0  0  0
  1  2  1  0
  2  3  1  0
  3  4  1  0
  4  5  1  0
  2  6  1  0
  6  7  2  0
  6  8  1  0
  5  1  1  0
M  END
>  <rName>  (4548) 
imidazolidine-2-CO2H

>  <PQ_SYMBOL>  (4548) 
imidazolidine-2-CO2H

>  <FULL_NAME>  (4548) 
L-imidazolidine-2-carboxylic acid

>  <IUPAC_CONDENSED>  (4548) 
imidazolidine-2-CO2H

>  <IUPAC>  (4548) 
imidazolidine-2-carboxylic acid

>  <TYPE>  (4548) 
Backbone

>  <CLASS>  (4548) 
alpha

>  <ANALOG>  (4548) 
Pro

>  <MOL_WT>  (4548) 
116.11999999999999

>  <LOGP>  (4548) 
-1.4100999999999997

>  <TPSA>  (4548) 
61.36

>  <POPULARITY>  (4548) 
6.8

>  <PROTECTED>  (4548) 
TRUE

>  <SMILES>  (4548) 
N1C(NCC1)C(=O)O

>  <INCHIKEY>  (4548) 
DKXKVWKTEATBQK-UHFFFAOYSA-N

$$$$
imidazolyl-dodecanoyl-Leu
     RDKit          2D

 27 27  0  0  0  0  0  0  0  0999 V2000
  -12.1243   -1.7759    0.0000 N   0  0  0  0  0  0  0  0  0  0  0  0
  -10.6617   -1.4430    0.0000 C   0  0  0  0  0  0  0  0  0  0  0  0
  -10.5263    0.0508    0.0000 N   0  0  0  0  0  0  0  0  0  0  0  0
  -11.9052    0.6413    0.0000 C   0  0  0  0  0  0  0  0  0  0  0  0
  -12.8928   -0.4877    0.0000 C   0  0  0  0  0  0  0  0  0  0  0  0
   -9.2381    0.8194    0.0000 C   0  0  0  0  0  0  0  0  0  0  0  0
   -7.9285    0.0880    0.0000 C   0  0  0  0  0  0  0  0  0  0  0  0
   -6.6403    0.8565    0.0000 C   0  0  0  0  0  0  0  0  0  0  0  0
   -5.3306    0.1252    0.0000 C   0  0  0  0  0  0  0  0  0  0  0  0
   -4.0425    0.8937    0.0000 C   0  0  0  0  0  0  0  0  0  0  0  0
   -2.7328    0.1624    0.0000 C   0  0  0  0  0  0  0  0  0  0  0  0
   -1.4447    0.9309    0.0000 C   0  0  0  0  0  0  0  0  0  0  0  0
   -0.1350    0.1996    0.0000 C   0  0  0  0  0  0  0  0  0  0  0  0
    1.1531    0.9681    0.0000 C   0  0  0  0  0  0  0  0  0  0  0  0
    2.4628    0.2367    0.0000 C   0  0  0  0  0  0  0  0  0  0  0  0
    3.7510    1.0053    0.0000 C   0  0  0  0  0  0  0  0  0  0  0  0
    5.0606    0.2739    0.0000 C   0  0  0  0  0  0  0  0  0  0  0  0
    5.0821   -1.2259    0.0000 O   0  0  0  0  0  0  0  0  0  0  0  0
    6.3488    1.0424    0.0000 N   0  0  0  0  0  0  0  0  0  0  0  0
    7.6584    0.3111    0.0000 C   0  0  0  0  0  0  0  0  0  0  0  0
    8.9466    1.0796    0.0000 C   0  0  0  0  0  0  0  0  0  0  0  0
   10.2562    0.3483    0.0000 C   0  0  0  0  0  0  0  0  0  0  0  0
   11.5444    1.1168    0.0000 C   0  0  0  0  0  0  0  0  0  0  0  0
   10.2777   -1.1516    0.0000 C   0  0  0  0  0  0  0  0  0  0  0  0
    7.6799   -1.1887    0.0000 C   0  0  0  0  0  0  0  0  0  0  0  0
    6.3917   -1.9572    0.0000 O   0  0  0  0  0  0  0  0  0  0  0  0
    8.9895   -1.9201    0.0000 O   0  0  0  0  0  0  0  0  0  0  0  0
  1  2  2  0
  2  3  1  0
  3  4  1  0
  4  5  2  0
  3  6  1  0
  6  7  1  0
  7  8  1  0
  8  9  1  0
  9 10  1  0
 10 11  1  0
 11 12  1  0
 12 13  1  0
 13 14  1  0
 14 15  1  0
 15 16  1  0
 16 17  1  0
 17 18  2  0
 17 19  1  0
 19 20  1  0
 20 21  1  1
 21 22  1  0
 22 23  1  0
 22 24  1  0
 20 25  1  0
 25 26  2  0
 25 27  1  0
  5  1  1  0
M  END
>  <rName>  (4549) 
imidazolyl-dodecanoyl-Leu

>  <PQ_SYMBOL>  (4549) 
imidazolyl-dodecanoyl-Leu

>  <FULL_NAME>  (4549) 
N-[12-(1H-imidazol-1-yl)dodecanoyl]-L-leucine

>  <IUPAC_CONDENSED>  (4549) 
imidazolyl-dodecanoyl-Leu

>  <IUPAC>  (4549) 
(2S)-2-(11-(1H-imidazol-1-yl)undecylcarbonylamino)-4-methylpentanoic acid

>  <TYPE>  (4549) 
N-term cap

>  <CLASS>  (4549) 
n_cap

>  <ANALOG>  (4549) 
X

>  <MOL_WT>  (4549) 
379.545

>  <LOGP>  (4549) 
4.399600000000003

>  <TPSA>  (4549) 
84.22

>  <POPULARITY>  (4549) 
3.4

>  <PROTECTED>  (4549) 
FALSE

>  <SMILES>  (4549) 
n1cn(cc1)CCCCCCCCCCCC(=O)N[C@@H](CC(C)C)C(=O)O

>  <INCHIKEY>  (4549) 
PSJOKLGFODYIHJ-IBGZPJMESA-N

$$$$
imino-Abu
     RDKit          2D

  7  6  0  0  0  0  0  0  0  0999 V2000
   -0.5797   -1.7367    0.0000 N   0  0  0  0  0  0  0  0  0  0  0  0
   -0.2514   -0.2730    0.0000 C   0  0  0  0  0  0  0  0  0  0  0  0
   -1.3548    0.7431    0.0000 C   0  0  0  0  0  0  0  0  0  0  0  0
   -2.7865    0.2956    0.0000 C   0  0  0  0  0  0  0  0  0  0  0  0
    1.1803    0.1745    0.0000 C   0  0  0  0  0  0  0  0  0  0  0  0
    1.5086    1.6381    0.0000 O   0  0  0  0  0  0  0  0  0  0  0  0
    2.2837   -0.8417    0.0000 O   0  0  0  0  0  0  0  0  0  0  0  0
  1  2  2  0
  2  3  1  0
  3  4  1  0
  2  5  1  0
  5  6  2  0
  5  7  1  0
M  END
>  <rName>  (4550) 
imino-Abu

>  <PQ_SYMBOL>  (4550) 
imino-Abu

>  <FULL_NAME>  (4550) 
2-iminobutanoic acid

>  <IUPAC_CONDENSED>  (4550) 
imino-Abu

>  <IUPAC>  (4550) 
2-iminobutanoic acid

>  <TYPE>  (4550) 
Backbone

>  <CLASS>  (4550) 
alpha

>  <ANALOG>  (4550) 
Ala

>  <MOL_WT>  (4550) 
101.10499999999998

>  <LOGP>  (4550) 
0.5007699999999999

>  <TPSA>  (4550) 
61.150000000000006

>  <POPULARITY>  (4550) 
13.5

>  <PROTECTED>  (4550) 
FALSE

>  <SMILES>  (4550) 
N=C(CC)C(=O)O

>  <INCHIKEY>  (4550) 
WRBRCYPPGUCRHW-UHFFFAOYSA-N

$$$$
imino-Ala
     RDKit          2D

  6  5  0  0  0  0  0  0  0  0999 V2000
    1.5000   -1.2990    0.0000 N   0  0  0  0  0  0  0  0  0  0  0  0
    0.7500    0.0000    0.0000 C   0  0  0  0  0  0  0  0  0  0  0  0
    1.5000    1.2990    0.0000 C   0  0  0  0  0  0  0  0  0  0  0  0
   -0.7500   -0.0000    0.0000 C   0  0  0  0  0  0  0  0  0  0  0  0
   -1.5000    1.2990    0.0000 O   0  0  0  0  0  0  0  0  0  0  0  0
   -1.5000   -1.2990    0.0000 O   0  0  0  0  0  0  0  0  0  0  0  0
  1  2  2  0
  2  3  1  0
  2  4  1  0
  4  5  2  0
  4  6  1  0
M  END
>  <rName>  (4551) 
imino-Ala

>  <PQ_SYMBOL>  (4551) 
imino-Ala

>  <FULL_NAME>  (4551) 
2-iminopropanoic acid

>  <IUPAC_CONDENSED>  (4551) 
imino-Ala

>  <IUPAC>  (4551) 
2-iminopropanoic acid

>  <TYPE>  (4551) 
Backbone

>  <CLASS>  (4551) 
alpha

>  <ANALOG>  (4551) 
Ala

>  <MOL_WT>  (4551) 
87.07799999999999

>  <LOGP>  (4551) 
0.11066999999999999

>  <TPSA>  (4551) 
61.150000000000006

>  <POPULARITY>  (4551) 
15.6

>  <PROTECTED>  (4551) 
FALSE

>  <SMILES>  (4551) 
N=C(C)C(=O)O

>  <INCHIKEY>  (4551) 
DUAWRLXHCUAWMK-UHFFFAOYSA-N

$$$$
imino-Phe
     RDKit          2D

 12 12  0  0  0  0  0  0  0  0999 V2000
   -1.2391    1.6805    0.0000 N   0  0  0  0  0  0  0  0  0  0  0  0
   -1.6184    0.2292    0.0000 C   0  0  0  0  0  0  0  0  0  0  0  0
   -0.5513   -0.8249    0.0000 C   0  0  0  0  0  0  0  0  0  0  0  0
    0.8952   -0.4278    0.0000 C   0  0  0  0  0  0  0  0  0  0  0  0
    1.2745    1.0235    0.0000 C   0  0  0  0  0  0  0  0  0  0  0  0
    2.7210    1.4206    0.0000 C   0  0  0  0  0  0  0  0  0  0  0  0
    3.7882    0.3665    0.0000 C   0  0  0  0  0  0  0  0  0  0  0  0
    3.4088   -1.0848    0.0000 C   0  0  0  0  0  0  0  0  0  0  0  0
    1.9624   -1.4819    0.0000 C   0  0  0  0  0  0  0  0  0  0  0  0
   -3.0649   -0.1679    0.0000 C   0  0  0  0  0  0  0  0  0  0  0  0
   -3.4442   -1.6191    0.0000 O   0  0  0  0  0  0  0  0  0  0  0  0
   -4.1321    0.8862    0.0000 O   0  0  0  0  0  0  0  0  0  0  0  0
  1  2  2  0
  2  3  1  0
  3  4  1  0
  4  5  2  0
  5  6  1  0
  6  7  2  0
  7  8  1  0
  8  9  2  0
  2 10  1  0
 10 11  2  0
 10 12  1  0
  9  4  1  0
M  END
>  <rName>  (4552) 
imino-Phe

>  <PQ_SYMBOL>  (4552) 
imino-Phe

>  <FULL_NAME>  (4552) 
2-imino-3-phenylpropanoic acid

>  <IUPAC_CONDENSED>  (4552) 
imino-Phe

>  <IUPAC>  (4552) 
2-imino-3-phenylpropanoic acid

>  <TYPE>  (4552) 
Backbone

>  <CLASS>  (4552) 
alpha

>  <ANALOG>  (4552) 
Phe

>  <MOL_WT>  (4552) 
163.17599999999996

>  <LOGP>  (4552) 
1.3334700000000002

>  <TPSA>  (4552) 
61.150000000000006

>  <POPULARITY>  (4552) 
13.7

>  <PROTECTED>  (4552) 
FALSE

>  <SMILES>  (4552) 
N=C(Cc1(ccccc1))C(=O)O

>  <INCHIKEY>  (4552) 
QBMQCMKHBNWZAJ-UHFFFAOYSA-N

$$$$
indoline-3-CO2H
     RDKit          2D

 12 13  0  0  0  0  0  0  0  0999 V2000
    0.2998    2.2733    0.0000 N   0  0  0  0  0  0  0  0  0  0  0  0
   -1.1360    1.8391    0.0000 C   0  0  0  0  0  0  0  0  0  0  0  0
   -1.1668    0.3395    0.0000 C   0  0  0  0  0  0  0  0  0  0  0  0
    0.2499   -0.1533    0.0000 C   0  0  0  0  0  0  0  0  0  0  0  0
    0.8318   -1.5358    0.0000 C   0  0  0  0  0  0  0  0  0  0  0  0
    2.3200   -1.7232    0.0000 C   0  0  0  0  0  0  0  0  0  0  0  0
    3.2264   -0.5281    0.0000 C   0  0  0  0  0  0  0  0  0  0  0  0
    2.6446    0.8545    0.0000 C   0  0  0  0  0  0  0  0  0  0  0  0
    1.1563    1.0419    0.0000 C   0  0  0  0  0  0  0  0  0  0  0  0
   -2.3982   -0.5171    0.0000 C   0  0  0  0  0  0  0  0  0  0  0  0
   -2.2721   -2.0118    0.0000 O   0  0  0  0  0  0  0  0  0  0  0  0
   -3.7557    0.1210    0.0000 O   0  0  0  0  0  0  0  0  0  0  0  0
  1  2  1  0
  2  3  1  0
  3  4  1  0
  4  5  2  0
  5  6  1  0
  6  7  2  0
  7  8  1  0
  8  9  2  0
  3 10  1  0
 10 11  2  0
 10 12  1  0
  9  1  1  0
  9  4  1  0
M  END
>  <rName>  (4553) 
indoline-3-CO2H

>  <PQ_SYMBOL>  (4553) 
indoline-3-CO2H

>  <FULL_NAME>  (4553) 
Indoline-3-carboxylic acid

>  <IUPAC_CONDENSED>  (4553) 
indoline-3-CO2H

>  <IUPAC>  (4553) 
indoline-3-carboxylic acid

>  <TYPE>  (4553) 
Backbone

>  <CLASS>  (4553) 
beta

>  <ANALOG>  (4553) 
Pro

>  <MOL_WT>  (4553) 
163.17599999999996

>  <LOGP>  (4553) 
1.2802999999999998

>  <TPSA>  (4553) 
49.33

>  <POPULARITY>  (4553) 
9.7

>  <PROTECTED>  (4553) 
TRUE

>  <SMILES>  (4553) 
N1CC(c2(ccccc12))C(=O)O

>  <INCHIKEY>  (4553) 
RXHBTEVUVWXEBO-UHFFFAOYSA-N

$$$$
isobutyryl
     RDKit          2D

  6  5  0  0  0  0  0  0  0  0999 V2000
   -1.5000    1.2990    0.0000 C   0  0  0  0  0  0  0  0  0  0  0  0
   -0.7500    0.0000    0.0000 C   0  0  0  0  0  0  0  0  0  0  0  0
   -1.5000   -1.2990    0.0000 C   0  0  0  0  0  0  0  0  0  0  0  0
    0.7500   -0.0000    0.0000 C   0  0  0  0  0  0  0  0  0  0  0  0
    1.5000    1.2990    0.0000 O   0  0  0  0  0  0  0  0  0  0  0  0
    1.5000   -1.2990    0.0000 O   0  0  0  0  0  0  0  0  0  0  0  0
  1  2  1  0
  2  3  1  0
  2  4  1  0
  4  5  2  0
  4  6  1  0
M  END
>  <rName>  (4554) 
isobutyryl

>  <PQ_SYMBOL>  (4554) 
isobutyryl

>  <FULL_NAME>  (4554) 
Isobutyric acid

>  <IUPAC_CONDENSED>  (4554) 
isobutyryl

>  <IUPAC>  (4554) 
2-methylpropanoic acid

>  <TYPE>  (4554) 
N-term cap

>  <CLASS>  (4554) 
n_cap

>  <ANALOG>  (4554) 
X

>  <MOL_WT>  (4554) 
88.10599999999998

>  <LOGP>  (4554) 
0.727

>  <TPSA>  (4554) 
37.3

>  <POPULARITY>  (4554) 
17.2

>  <PROTECTED>  (4554) 
TRUE

>  <SMILES>  (4554) 
CC(C)C(=O)O

>  <INCHIKEY>  (4554) 
KQNPFQTWMSNSAP-UHFFFAOYSA-N

$$$$
isoindoline-bAla
     RDKit          2D

 13 14  0  0  0  0  0  0  0  0999 V2000
   -0.7662    1.5562    0.0000 N   0  0  0  0  0  0  0  0  0  0  0  0
   -0.6670    0.0595    0.0000 C   0  0  0  0  0  0  0  0  0  0  0  0
    0.7871   -0.3087    0.0000 C   0  0  0  0  0  0  0  0  0  0  0  0
    1.4864   -1.6357    0.0000 C   0  0  0  0  0  0  0  0  0  0  0  0
    2.9853   -1.6935    0.0000 C   0  0  0  0  0  0  0  0  0  0  0  0
    3.7848   -0.4244    0.0000 C   0  0  0  0  0  0  0  0  0  0  0  0
    3.0855    0.9026    0.0000 C   0  0  0  0  0  0  0  0  0  0  0  0
    1.5866    0.9604    0.0000 C   0  0  0  0  0  0  0  0  0  0  0  0
    0.6266    2.1130    0.0000 C   0  0  0  0  0  0  0  0  0  0  0  0
   -1.8196   -0.9005    0.0000 C   0  0  0  0  0  0  0  0  0  0  0  0
   -3.2273   -0.3823    0.0000 C   0  0  0  0  0  0  0  0  0  0  0  0
   -3.4823    1.0958    0.0000 O   0  0  0  0  0  0  0  0  0  0  0  0
   -4.3799   -1.3423    0.0000 O   0  0  0  0  0  0  0  0  0  0  0  0
  1  2  1  0
  2  3  1  0
  3  4  2  0
  4  5  1  0
  5  6  2  0
  6  7  1  0
  7  8  2  0
  8  9  1  0
  2 10  1  0
 10 11  1  0
 11 12  2  0
 11 13  1  0
  8  3  1  0
  9  1  1  0
M  END
>  <rName>  (4555) 
isoindoline-bAla

>  <PQ_SYMBOL>  (4555) 
isoindoline-bAla

>  <FULL_NAME>  (4555) 
2-(2,3-dihydro-1H-isoindol-1-yl)acetic acid

>  <IUPAC_CONDENSED>  (4555) 
isoindoline-bAla

>  <IUPAC>  (4555) 
2-(8-azabicyclo[4.3.0]nona-1,3,5-trien-7-yl)acetic acid

>  <TYPE>  (4555) 
Backbone

>  <CLASS>  (4555) 
beta

>  <ANALOG>  (4555) 
Pro

>  <MOL_WT>  (4555) 
177.20299999999997

>  <LOGP>  (4555) 
1.3056

>  <TPSA>  (4555) 
49.33

>  <POPULARITY>  (4555) 
7.3

>  <PROTECTED>  (4555) 
TRUE

>  <SMILES>  (4555) 
N2C(c1(ccccc1C2))CC(=O)O

>  <INCHIKEY>  (4555) 
XITJWUMAALXOKV-UHFFFAOYSA-N

$$$$
isoindoline1S-1-CO2H
     RDKit          2D

 12 13  0  0  0  0  0  0  0  0999 V2000
   -1.1360    1.8391    0.0000 N   0  0  0  0  0  0  0  0  0  0  0  0
   -1.1668    0.3395    0.0000 C   0  0  0  0  0  0  0  0  0  0  0  0
    0.2499   -0.1533    0.0000 C   0  0  0  0  0  0  0  0  0  0  0  0
    0.8318   -1.5358    0.0000 C   0  0  0  0  0  0  0  0  0  0  0  0
    2.3200   -1.7232    0.0000 C   0  0  0  0  0  0  0  0  0  0  0  0
    3.2264   -0.5281    0.0000 C   0  0  0  0  0  0  0  0  0  0  0  0
    2.6446    0.8545    0.0000 C   0  0  0  0  0  0  0  0  0  0  0  0
    1.1563    1.0419    0.0000 C   0  0  0  0  0  0  0  0  0  0  0  0
    0.2998    2.2733    0.0000 C   0  0  0  0  0  0  0  0  0  0  0  0
   -2.3982   -0.5171    0.0000 C   0  0  0  0  0  0  0  0  0  0  0  0
   -2.2721   -2.0118    0.0000 O   0  0  0  0  0  0  0  0  0  0  0  0
   -3.7557    0.1210    0.0000 O   0  0  0  0  0  0  0  0  0  0  0  0
  1  2  1  0
  2  3  1  0
  3  4  2  0
  4  5  1  0
  5  6  2  0
  6  7  1  0
  7  8  2  0
  8  9  1  0
  2 10  1  1
 10 11  2  0
 10 12  1  0
  8  3  1  0
  9  1  1  0
M  END
>  <rName>  (4556) 
isoindoline1S-1-CO2H

>  <PQ_SYMBOL>  (4556) 
isoindoline1S-1-CO2H

>  <FULL_NAME>  (4556) 
(S)-Isoindoline-1-carboxylic acid

>  <IUPAC_CONDENSED>  (4556) 
isoindoline(1S)-1-CO2H

>  <IUPAC>  (4556) 
(1S)-2,3-dihydro-1H-isoindole-1-carboxylic acid

>  <TYPE>  (4556) 
Backbone

>  <CLASS>  (4556) 
alpha

>  <ANALOG>  (4556) 
Pro

>  <MOL_WT>  (4556) 
163.176

>  <LOGP>  (4556) 
0.9155

>  <TPSA>  (4556) 
49.33

>  <POPULARITY>  (4556) 
2.2

>  <PROTECTED>  (4556) 
TRUE

>  <SMILES>  (4556) 
N2[C@@H](c1(ccccc1C2))C(=O)O

>  <INCHIKEY>  (4556) 
OFKFBEJYOHXPIA-QMMMGPOBSA-N

$$$$
morpholin-2-ylAc
     RDKit          2D

 10 10  0  0  0  0  0  0  0  0999 V2000
    2.7213   -0.9820    0.0000 N   0  0  0  0  0  0  0  0  0  0  0  0
    1.3040   -1.4730    0.0000 C   0  0  0  0  0  0  0  0  0  0  0  0
    0.1701   -0.4910    0.0000 C   0  0  0  0  0  0  0  0  0  0  0  0
    0.4536    0.9820    0.0000 O   0  0  0  0  0  0  0  0  0  0  0  0
    1.8709    1.4730    0.0000 C   0  0  0  0  0  0  0  0  0  0  0  0
    3.0048    0.4910    0.0000 C   0  0  0  0  0  0  0  0  0  0  0  0
   -1.2473   -0.9820    0.0000 C   0  0  0  0  0  0  0  0  0  0  0  0
   -2.3812    0.0000    0.0000 C   0  0  0  0  0  0  0  0  0  0  0  0
   -2.0977    1.4730    0.0000 O   0  0  0  0  0  0  0  0  0  0  0  0
   -3.7985   -0.4910    0.0000 O   0  0  0  0  0  0  0  0  0  0  0  0
  1  2  1  0
  2  3  1  0
  3  4  1  0
  4  5  1  0
  5  6  1  0
  3  7  1  0
  7  8  1  0
  8  9  2  0
  8 10  1  0
  6  1  1  0
M  END
>  <rName>  (4557) 
morpholin-2-ylAc

>  <PQ_SYMBOL>  (4557) 
morpholin-2-ylAc

>  <FULL_NAME>  (4557) 
2-Morpholineacetic acid

>  <IUPAC_CONDENSED>  (4557) 
morpholin-2-ylAc

>  <IUPAC>  (4557) 
2-(morpholin-2-yl)acetic acid

>  <TYPE>  (4557) 
Backbone

>  <CLASS>  (4557) 
gamma

>  <ANALOG>  (4557) 
Pro

>  <MOL_WT>  (4557) 
145.15800000000002

>  <LOGP>  (4557) 
-0.5505000000000002

>  <TPSA>  (4557) 
58.56

>  <POPULARITY>  (4557) 
10.6

>  <PROTECTED>  (4557) 
TRUE

>  <SMILES>  (4557) 
N1CC(OCC1)CC(=O)O

>  <INCHIKEY>  (4557) 
TWCXRVFSIAWFMA-UHFFFAOYSA-N

$$$$
morpholin-2-ylBu
     RDKit          2D

 12 12  0  0  0  0  0  0  0  0999 V2000
    3.9402   -0.7845    0.0000 N   0  0  0  0  0  0  0  0  0  0  0  0
    2.5615   -1.3754    0.0000 C   0  0  0  0  0  0  0  0  0  0  0  0
    1.3604   -0.4769    0.0000 C   0  0  0  0  0  0  0  0  0  0  0  0
    1.5380    1.0126    0.0000 O   0  0  0  0  0  0  0  0  0  0  0  0
    2.9167    1.6035    0.0000 C   0  0  0  0  0  0  0  0  0  0  0  0
    4.1178    0.7050    0.0000 C   0  0  0  0  0  0  0  0  0  0  0  0
   -0.0183   -1.0678    0.0000 C   0  0  0  0  0  0  0  0  0  0  0  0
   -1.2194   -0.1693    0.0000 C   0  0  0  0  0  0  0  0  0  0  0  0
   -2.5981   -0.7603    0.0000 C   0  0  0  0  0  0  0  0  0  0  0  0
   -3.7992    0.1382    0.0000 C   0  0  0  0  0  0  0  0  0  0  0  0
   -3.6216    1.6277    0.0000 O   0  0  0  0  0  0  0  0  0  0  0  0
   -5.1779   -0.4527    0.0000 O   0  0  0  0  0  0  0  0  0  0  0  0
  1  2  1  0
  2  3  1  0
  3  4  1  0
  4  5  1  0
  5  6  1  0
  3  7  1  0
  7  8  1  0
  8  9  1  0
  9 10  1  0
 10 11  2  0
 10 12  1  0
  6  1  1  0
M  END
>  <rName>  (4558) 
morpholin-2-ylBu

>  <PQ_SYMBOL>  (4558) 
morpholin-2-ylBu

>  <FULL_NAME>  (4558) 
4-(Morpholin-2-yl)butanoic acid

>  <IUPAC_CONDENSED>  (4558) 
morpholin-2-ylBu

>  <IUPAC>  (4558) 
4-(morpholin-2-yl)butanoic acid

>  <TYPE>  (4558) 
Backbone

>  <CLASS>  (4558) 
epsilon

>  <ANALOG>  (4558) 
Pro

>  <MOL_WT>  (4558) 
173.212

>  <LOGP>  (4558) 
0.22969999999999952

>  <TPSA>  (4558) 
58.56

>  <POPULARITY>  (4558) 
4.9

>  <PROTECTED>  (4558) 
TRUE

>  <SMILES>  (4558) 
N1CC(OCC1)CCCC(=O)O

>  <INCHIKEY>  (4558) 
PLKBYTUHQASLFX-UHFFFAOYSA-N

$$$$
morpholin-2-yl_55diMe_Ac
     RDKit          2D

 12 12  0  0  0  0  0  0  0  0999 V2000
    1.9379   -1.2935    0.0000 N   0  0  0  0  0  0  0  0  0  0  0  0
    0.4844   -1.6640    0.0000 C   0  0  0  0  0  0  0  0  0  0  0  0
   -0.5632   -0.5904    0.0000 C   0  0  0  0  0  0  0  0  0  0  0  0
   -0.1572    0.8536    0.0000 O   0  0  0  0  0  0  0  0  0  0  0  0
    1.2964    1.2241    0.0000 C   0  0  0  0  0  0  0  0  0  0  0  0
    2.3439    0.1505    0.0000 C   0  0  0  0  0  0  0  0  0  0  0  0
    3.2193    1.3686    0.0000 C   0  0  0  0  0  0  0  0  0  0  0  0
    3.6955   -0.5001    0.0000 C   0  0  0  0  0  0  0  0  0  0  0  0
   -2.0167   -0.9608    0.0000 C   0  0  0  0  0  0  0  0  0  0  0  0
   -3.0643    0.1128    0.0000 C   0  0  0  0  0  0  0  0  0  0  0  0
   -2.6583    1.5568    0.0000 O   0  0  0  0  0  0  0  0  0  0  0  0
   -4.5178   -0.2576    0.0000 O   0  0  0  0  0  0  0  0  0  0  0  0
  1  2  1  0
  2  3  1  0
  3  4  1  0
  4  5  1  0
  5  6  1  0
  6  7  1  0
  6  8  1  0
  3  9  1  0
  9 10  1  0
 10 11  2  0
 10 12  1  0
  6  1  1  0
M  END
>  <rName>  (4559) 
morpholin-2-yl_55diMe_Ac

>  <PQ_SYMBOL>  (4559) 
morpholin-2-yl_55diMe_Ac

>  <FULL_NAME>  (4559) 
5,5-Dimethyl-2-morpholineacetic acid

>  <IUPAC_CONDENSED>  (4559) 
morpholin-2-yl(5,5-diMe)Ac

>  <IUPAC>  (4559) 
2-(5,5-dimethylmorpholin-2-yl)acetic acid

>  <TYPE>  (4559) 
Backbone

>  <CLASS>  (4559) 
gamma

>  <ANALOG>  (4559) 
Pro

>  <MOL_WT>  (4559) 
173.212

>  <LOGP>  (4559) 
0.22809999999999925

>  <TPSA>  (4559) 
58.56

>  <POPULARITY>  (4559) 
4.7

>  <PROTECTED>  (4559) 
TRUE

>  <SMILES>  (4559) 
N1CC(OCC1(C)C)CC(=O)O

>  <INCHIKEY>  (4559) 
SEYCKMQSPUVYEF-UHFFFAOYSA-N

$$$$
morpholin-2-yl_5Me_2R_5R_Ac
     RDKit          2D

 11 11  0  0  0  0  0  0  0  0999 V2000
    2.2367   -1.2346    0.0000 N   0  0  0  0  0  0  0  0  0  0  0  0
    0.7878   -1.6228    0.0000 C   0  0  0  0  0  0  0  0  0  0  0  0
   -0.2729   -0.5622    0.0000 C   0  0  0  0  0  0  0  0  0  0  0  0
    0.1153    0.8867    0.0000 O   0  0  0  0  0  0  0  0  0  0  0  0
    1.5642    1.2750    0.0000 C   0  0  0  0  0  0  0  0  0  0  0  0
    2.6249    0.2143    0.0000 C   0  0  0  0  0  0  0  0  0  0  0  0
    4.0738    0.6025    0.0000 C   0  0  0  0  0  0  0  0  0  0  0  0
   -1.7218   -0.9504    0.0000 C   0  0  0  0  0  0  0  0  0  0  0  0
   -2.7824    0.1103    0.0000 C   0  0  0  0  0  0  0  0  0  0  0  0
   -2.3942    1.5592    0.0000 O   0  0  0  0  0  0  0  0  0  0  0  0
   -4.2313   -0.2780    0.0000 O   0  0  0  0  0  0  0  0  0  0  0  0
  1  2  1  0
  2  3  1  0
  3  4  1  0
  4  5  1  0
  5  6  1  0
  6  7  1  1
  3  8  1  1
  8  9  1  0
  9 10  2  0
  9 11  1  0
  6  1  1  0
M  END
>  <rName>  (4560) 
morpholin-2-yl_5Me_2R_5R_Ac

>  <PQ_SYMBOL>  (4560) 
morpholin-2-yl_5Me_2R_5R_Ac

>  <FULL_NAME>  (4560) 
2-[(2R,5R)-5-methylmorpholin-2-yl]acetic acid

>  <IUPAC_CONDENSED>  (4560) 
morpholin-2-yl(5-Me,2R,5R)Ac

>  <IUPAC>  (4560) 
2-((2R,5R)-5-methylmorpholin-2-yl)acetic acid

>  <TYPE>  (4560) 
Backbone

>  <CLASS>  (4560) 
gamma

>  <ANALOG>  (4560) 
Pro

>  <MOL_WT>  (4560) 
159.185

>  <LOGP>  (4560) 
-0.16200000000000064

>  <TPSA>  (4560) 
58.56

>  <POPULARITY>  (4560) 
5.4

>  <PROTECTED>  (4560) 
TRUE

>  <SMILES>  (4560) 
N1C[C@H](OC[C@H]1C)CC(=O)O

>  <INCHIKEY>  (4560) 
RAROPAIUQLACLV-PHDIDXHHSA-N

$$$$
morpholin-2-yl_5Me_2R_5S_Ac
     RDKit          2D

 11 11  0  0  0  0  0  0  0  0999 V2000
    2.2367   -1.2346    0.0000 N   0  0  0  0  0  0  0  0  0  0  0  0
    0.7878   -1.6228    0.0000 C   0  0  0  0  0  0  0  0  0  0  0  0
   -0.2729   -0.5622    0.0000 C   0  0  0  0  0  0  0  0  0  0  0  0
    0.1153    0.8867    0.0000 O   0  0  0  0  0  0  0  0  0  0  0  0
    1.5642    1.2750    0.0000 C   0  0  0  0  0  0  0  0  0  0  0  0
    2.6249    0.2143    0.0000 C   0  0  0  0  0  0  0  0  0  0  0  0
    4.0738    0.6025    0.0000 C   0  0  0  0  0  0  0  0  0  0  0  0
   -1.7218   -0.9504    0.0000 C   0  0  0  0  0  0  0  0  0  0  0  0
   -2.7824    0.1103    0.0000 C   0  0  0  0  0  0  0  0  0  0  0  0
   -2.3942    1.5592    0.0000 O   0  0  0  0  0  0  0  0  0  0  0  0
   -4.2313   -0.2780    0.0000 O   0  0  0  0  0  0  0  0  0  0  0  0
  1  2  1  0
  2  3  1  0
  3  4  1  0
  4  5  1  0
  5  6  1  0
  6  7  1  6
  3  8  1  1
  8  9  1  0
  9 10  2  0
  9 11  1  0
  6  1  1  0
M  END
>  <rName>  (4561) 
morpholin-2-yl_5Me_2R_5S_Ac

>  <PQ_SYMBOL>  (4561) 
morpholin-2-yl_5Me_2R_5S_Ac

>  <FULL_NAME>  (4561) 
C[C@H]1CO[C@H](CC(=O)O)CN1

>  <IUPAC_CONDENSED>  (4561) 
morpholin-2-yl(5-Me,2R,5S)Ac

>  <IUPAC>  (4561) 
2-((2R,5S)-5-methylmorpholin-2-yl)acetic acid

>  <TYPE>  (4561) 
Backbone

>  <CLASS>  (4561) 
gamma

>  <ANALOG>  (4561) 
Pro

>  <MOL_WT>  (4561) 
159.185

>  <LOGP>  (4561) 
-0.16200000000000064

>  <TPSA>  (4561) 
58.56

>  <POPULARITY>  (4561) 
5.5

>  <PROTECTED>  (4561) 
TRUE

>  <SMILES>  (4561) 
N1C[C@H](OC[C@@H]1C)CC(=O)O

>  <INCHIKEY>  (4561) 
RAROPAIUQLACLV-NTSWFWBYSA-N

$$$$
morpholin-2-yl_6CF3_Ac
     RDKit          2D

 14 14  0  0  0  0  0  0  0  0999 V2000
    0.8280   -2.7175    0.0000 N   0  0  0  0  0  0  0  0  0  0  0  0
   -0.6436   -2.4265    0.0000 C   0  0  0  0  0  0  0  0  0  0  0  0
   -1.1274   -1.0067    0.0000 C   0  0  0  0  0  0  0  0  0  0  0  0
   -0.1397    0.1222    0.0000 O   0  0  0  0  0  0  0  0  0  0  0  0
    1.3319   -0.1687    0.0000 C   0  0  0  0  0  0  0  0  0  0  0  0
    1.8157   -1.5886    0.0000 C   0  0  0  0  0  0  0  0  0  0  0  0
    2.3196    0.9602    0.0000 C   0  0  0  0  0  0  0  0  0  0  0  0
    3.3073    2.0891    0.0000 F   0  0  0  0  0  0  0  0  0  0  0  0
    3.4485   -0.0275    0.0000 F   0  0  0  0  0  0  0  0  0  0  0  0
    1.1906    1.9479    0.0000 F   0  0  0  0  0  0  0  0  0  0  0  0
   -2.5989   -0.7158    0.0000 C   0  0  0  0  0  0  0  0  0  0  0  0
   -3.0827    0.7040    0.0000 C   0  0  0  0  0  0  0  0  0  0  0  0
   -2.0950    1.8329    0.0000 O   0  0  0  0  0  0  0  0  0  0  0  0
   -4.5542    0.9950    0.0000 O   0  0  0  0  0  0  0  0  0  0  0  0
  1  2  1  0
  2  3  1  0
  3  4  1  0
  4  5  1  0
  5  6  1  0
  5  7  1  0
  7  8  1  0
  7  9  1  0
  7 10  1  0
  3 11  1  0
 11 12  1  0
 12 13  2  0
 12 14  1  0
  6  1  1  0
M  END
>  <rName>  (4562) 
morpholin-2-yl_6CF3_Ac

>  <PQ_SYMBOL>  (4562) 
morpholin-2-yl_6CF3_Ac

>  <FULL_NAME>  (4562) 
2-[6-(Trifluoromethyl)morpholin-2-yl]acetic acid

>  <IUPAC_CONDENSED>  (4562) 
morpholin-2-yl(6-CF3)Ac

>  <IUPAC>  (4562) 
2-(6-(trifluoromethyl)morpholin-2-yl)acetic acid

>  <TYPE>  (4562) 
Backbone

>  <CLASS>  (4562) 
gamma

>  <ANALOG>  (4562) 
Pro

>  <MOL_WT>  (4562) 
213.15499999999997

>  <LOGP>  (4562) 
0.3803999999999998

>  <TPSA>  (4562) 
58.56

>  <POPULARITY>  (4562) 
2.7

>  <PROTECTED>  (4562) 
TRUE

>  <SMILES>  (4562) 
N1CC(OC(C1)C(F)(F)F)CC(=O)O

>  <INCHIKEY>  (4562) 
YENQSTLQKGAASX-UHFFFAOYSA-N

$$$$
morpholin-2-yl_6MeOH_Ac
     RDKit          2D

 12 12  0  0  0  0  0  0  0  0999 V2000
    1.5647   -2.2090    0.0000 N   0  0  0  0  0  0  0  0  0  0  0  0
    0.0653   -2.1677    0.0000 C   0  0  0  0  0  0  0  0  0  0  0  0
   -0.6486   -0.8485    0.0000 C   0  0  0  0  0  0  0  0  0  0  0  0
    0.1369    0.4294    0.0000 O   0  0  0  0  0  0  0  0  0  0  0  0
    1.6363    0.3880    0.0000 C   0  0  0  0  0  0  0  0  0  0  0  0
    2.4219    1.6659    0.0000 C   0  0  0  0  0  0  0  0  0  0  0  0
    3.9213    1.6246    0.0000 O   0  0  0  0  0  0  0  0  0  0  0  0
    2.3502   -0.9312    0.0000 C   0  0  0  0  0  0  0  0  0  0  0  0
   -2.1481   -0.8071    0.0000 C   0  0  0  0  0  0  0  0  0  0  0  0
   -2.8620    0.5121    0.0000 C   0  0  0  0  0  0  0  0  0  0  0  0
   -2.0764    1.7900    0.0000 O   0  0  0  0  0  0  0  0  0  0  0  0
   -4.3614    0.5535    0.0000 O   0  0  0  0  0  0  0  0  0  0  0  0
  1  2  1  0
  2  3  1  0
  3  4  1  0
  4  5  1  0
  5  6  1  0
  6  7  1  0
  5  8  1  0
  3  9  1  0
  9 10  1  0
 10 11  2  0
 10 12  1  0
  8  1  1  0
M  END
>  <rName>  (4563) 
morpholin-2-yl_6MeOH_Ac

>  <PQ_SYMBOL>  (4563) 
morpholin-2-yl_6MeOH_Ac

>  <FULL_NAME>  (4563) 
2-[6-(Hydroxymethyl)morpholin-2-yl]acetic acid

>  <IUPAC_CONDENSED>  (4563) 
morpholin-2-yl(6-MeOH)Ac

>  <IUPAC>  (4563) 
2-(6-(hydroxymethyl)morpholin-2-yl)acetic acid

>  <TYPE>  (4563) 
Backbone

>  <CLASS>  (4563) 
gamma

>  <ANALOG>  (4563) 
Pro

>  <MOL_WT>  (4563) 
175.18399999999997

>  <LOGP>  (4563) 
-1.1895999999999998

>  <TPSA>  (4563) 
78.78999999999999

>  <POPULARITY>  (4563) 
3.0

>  <PROTECTED>  (4563) 
TRUE

>  <SMILES>  (4563) 
N1CC(OC(CO)C1)CC(=O)O

>  <INCHIKEY>  (4563) 
BGFAQNDLHOZDKH-UHFFFAOYSA-N

$$$$
morpholin-2-yl_6Me_2S_6R_Ac
     RDKit          2D

 11 11  0  0  0  0  0  0  0  0999 V2000
    2.2892   -1.6431    0.0000 N   0  0  0  0  0  0  0  0  0  0  0  0
    0.8109   -1.8976    0.0000 C   0  0  0  0  0  0  0  0  0  0  0  0
   -0.1486   -0.7446    0.0000 C   0  0  0  0  0  0  0  0  0  0  0  0
    0.3702    0.6629    0.0000 O   0  0  0  0  0  0  0  0  0  0  0  0
    1.8485    0.9173    0.0000 C   0  0  0  0  0  0  0  0  0  0  0  0
    2.3672    2.3248    0.0000 C   0  0  0  0  0  0  0  0  0  0  0  0
    2.8079   -0.2357    0.0000 C   0  0  0  0  0  0  0  0  0  0  0  0
   -1.6268   -0.9990    0.0000 C   0  0  0  0  0  0  0  0  0  0  0  0
   -2.5863    0.1540    0.0000 C   0  0  0  0  0  0  0  0  0  0  0  0
   -2.0676    1.5614    0.0000 O   0  0  0  0  0  0  0  0  0  0  0  0
   -4.0646   -0.1005    0.0000 O   0  0  0  0  0  0  0  0  0  0  0  0
  1  2  1  0
  2  3  1  0
  3  4  1  0
  4  5  1  0
  5  6  1  6
  5  7  1  0
  3  8  1  6
  8  9  1  0
  9 10  2  0
  9 11  1  0
  7  1  1  0
M  END
>  <rName>  (4564) 
morpholin-2-yl_6Me_2S_6R_Ac

>  <PQ_SYMBOL>  (4564) 
morpholin-2-yl_6Me_2S_6R_Ac

>  <FULL_NAME>  (4564) 
C[C@@H]1CNC[C@H](CC(=O)O)O1

>  <IUPAC_CONDENSED>  (4564) 
morpholin-2-yl(6-Me,2S,6R)Ac

>  <IUPAC>  (4564) 
2-((2S,6R)-6-methylmorpholin-2-yl)acetic acid

>  <TYPE>  (4564) 
Backbone

>  <CLASS>  (4564) 
gamma

>  <ANALOG>  (4564) 
Pro

>  <MOL_WT>  (4564) 
159.185

>  <LOGP>  (4564) 
-0.16200000000000064

>  <TPSA>  (4564) 
58.56

>  <POPULARITY>  (4564) 
6.4

>  <PROTECTED>  (4564) 
TRUE

>  <SMILES>  (4564) 
N1C[C@@H](O[C@H](C)C1)CC(=O)O

>  <INCHIKEY>  (4564) 
XKZALAGWGNOWMN-RITPCOANSA-N

$$$$
morpholin-2-yl_6Me_2S_6S_Ac
     RDKit          2D

 11 11  0  0  0  0  0  0  0  0999 V2000
    2.2892   -1.6431    0.0000 N   0  0  0  0  0  0  0  0  0  0  0  0
    0.8109   -1.8976    0.0000 C   0  0  0  0  0  0  0  0  0  0  0  0
   -0.1486   -0.7446    0.0000 C   0  0  0  0  0  0  0  0  0  0  0  0
    0.3702    0.6629    0.0000 O   0  0  0  0  0  0  0  0  0  0  0  0
    1.8485    0.9173    0.0000 C   0  0  0  0  0  0  0  0  0  0  0  0
    2.3672    2.3248    0.0000 C   0  0  0  0  0  0  0  0  0  0  0  0
    2.8079   -0.2357    0.0000 C   0  0  0  0  0  0  0  0  0  0  0  0
   -1.6268   -0.9990    0.0000 C   0  0  0  0  0  0  0  0  0  0  0  0
   -2.5863    0.1540    0.0000 C   0  0  0  0  0  0  0  0  0  0  0  0
   -2.0676    1.5614    0.0000 O   0  0  0  0  0  0  0  0  0  0  0  0
   -4.0646   -0.1005    0.0000 O   0  0  0  0  0  0  0  0  0  0  0  0
  1  2  1  0
  2  3  1  0
  3  4  1  0
  4  5  1  0
  5  6  1  1
  5  7  1  0
  3  8  1  6
  8  9  1  0
  9 10  2  0
  9 11  1  0
  7  1  1  0
M  END
>  <rName>  (4565) 
morpholin-2-yl_6Me_2S_6S_Ac

>  <PQ_SYMBOL>  (4565) 
morpholin-2-yl_6Me_2S_6S_Ac

>  <FULL_NAME>  (4565) 
C[C@H]1CNC[C@H](CC(=O)O)O1

>  <IUPAC_CONDENSED>  (4565) 
morpholin-2-yl(6-Me,2S,6S)Ac

>  <IUPAC>  (4565) 
2-((2S,6S)-6-methylmorpholin-2-yl)acetic acid

>  <TYPE>  (4565) 
Backbone

>  <CLASS>  (4565) 
gamma

>  <ANALOG>  (4565) 
Pro

>  <MOL_WT>  (4565) 
159.185

>  <LOGP>  (4565) 
-0.16200000000000064

>  <TPSA>  (4565) 
58.56

>  <POPULARITY>  (4565) 
5.7

>  <PROTECTED>  (4565) 
TRUE

>  <SMILES>  (4565) 
N1C[C@@H](O[C@@H](C)C1)CC(=O)O

>  <INCHIKEY>  (4565) 
XKZALAGWGNOWMN-WDSKDSINSA-N

$$$$
morpholin-2-yl_6Me_Ac
     RDKit          2D

 11 11  0  0  0  0  0  0  0  0999 V2000
    2.2892   -1.6431    0.0000 N   0  0  0  0  0  0  0  0  0  0  0  0
    0.8109   -1.8976    0.0000 C   0  0  0  0  0  0  0  0  0  0  0  0
   -0.1486   -0.7446    0.0000 C   0  0  0  0  0  0  0  0  0  0  0  0
    0.3702    0.6629    0.0000 O   0  0  0  0  0  0  0  0  0  0  0  0
    1.8485    0.9173    0.0000 C   0  0  0  0  0  0  0  0  0  0  0  0
    2.3672    2.3248    0.0000 C   0  0  0  0  0  0  0  0  0  0  0  0
    2.8079   -0.2357    0.0000 C   0  0  0  0  0  0  0  0  0  0  0  0
   -1.6268   -0.9990    0.0000 C   0  0  0  0  0  0  0  0  0  0  0  0
   -2.5863    0.1540    0.0000 C   0  0  0  0  0  0  0  0  0  0  0  0
   -2.0676    1.5614    0.0000 O   0  0  0  0  0  0  0  0  0  0  0  0
   -4.0646   -0.1005    0.0000 O   0  0  0  0  0  0  0  0  0  0  0  0
  1  2  1  0
  2  3  1  0
  3  4  1  0
  4  5  1  0
  5  6  1  0
  5  7  1  0
  3  8  1  0
  8  9  1  0
  9 10  2  0
  9 11  1  0
  7  1  1  0
M  END
>  <rName>  (4566) 
morpholin-2-yl_6Me_Ac

>  <PQ_SYMBOL>  (4566) 
morpholin-2-yl_6Me_Ac

>  <FULL_NAME>  (4566) 
2-(6-Methylmorpholin-2-yl)acetic acid

>  <IUPAC_CONDENSED>  (4566) 
morpholin-2-yl(6-Me)Ac

>  <IUPAC>  (4566) 
2-(6-methylmorpholin-2-yl)acetic acid

>  <TYPE>  (4566) 
Backbone

>  <CLASS>  (4566) 
gamma

>  <ANALOG>  (4566) 
Pro

>  <MOL_WT>  (4566) 
159.185

>  <LOGP>  (4566) 
-0.16200000000000064

>  <TPSA>  (4566) 
58.56

>  <POPULARITY>  (4566) 
7.0

>  <PROTECTED>  (4566) 
TRUE

>  <SMILES>  (4566) 
N1CC(OC(C)C1)CC(=O)O

>  <INCHIKEY>  (4566) 
XKZALAGWGNOWMN-UHFFFAOYSA-N

$$$$
morpholin-3-ylAc
     RDKit          2D

 10 10  0  0  0  0  0  0  0  0999 V2000
    1.3040   -1.4730    0.0000 N   0  0  0  0  0  0  0  0  0  0  0  0
    0.1701   -0.4910    0.0000 C   0  0  0  0  0  0  0  0  0  0  0  0
    0.4536    0.9820    0.0000 C   0  0  0  0  0  0  0  0  0  0  0  0
    1.8709    1.4730    0.0000 O   0  0  0  0  0  0  0  0  0  0  0  0
    3.0048    0.4910    0.0000 C   0  0  0  0  0  0  0  0  0  0  0  0
    2.7213   -0.9820    0.0000 C   0  0  0  0  0  0  0  0  0  0  0  0
   -1.2473   -0.9820    0.0000 C   0  0  0  0  0  0  0  0  0  0  0  0
   -2.3812   -0.0000    0.0000 C   0  0  0  0  0  0  0  0  0  0  0  0
   -2.0977    1.4730    0.0000 O   0  0  0  0  0  0  0  0  0  0  0  0
   -3.7985   -0.4910    0.0000 O   0  0  0  0  0  0  0  0  0  0  0  0
  1  2  1  0
  2  3  1  0
  3  4  1  0
  4  5  1  0
  5  6  1  0
  2  7  1  0
  7  8  1  0
  8  9  2  0
  8 10  1  0
  6  1  1  0
M  END
>  <rName>  (4567) 
morpholin-3-ylAc

>  <PQ_SYMBOL>  (4567) 
morpholin-3-ylAc

>  <FULL_NAME>  (4567) 
Morpholin-3-yl-acetic acid

>  <IUPAC_CONDENSED>  (4567) 
morpholin-3-ylAc

>  <IUPAC>  (4567) 
2-(morpholin-3-yl)acetic acid

>  <TYPE>  (4567) 
Backbone

>  <CLASS>  (4567) 
beta

>  <ANALOG>  (4567) 
Pro

>  <MOL_WT>  (4567) 
145.15800000000002

>  <LOGP>  (4567) 
-0.5505000000000002

>  <TPSA>  (4567) 
58.56

>  <POPULARITY>  (4567) 
8.5

>  <PROTECTED>  (4567) 
TRUE

>  <SMILES>  (4567) 
N1C(COCC1)CC(=O)O

>  <INCHIKEY>  (4567) 
FOXWWHUTFBNJFX-UHFFFAOYSA-N

$$$$
morpholin-3-yl_6CF3_3R_6R_Ac
     RDKit          2D

 14 14  0  0  0  0  0  0  0  0999 V2000
   -0.3134   -1.7620    0.0000 N   0  0  0  0  0  0  0  0  0  0  0  0
   -1.2968   -0.6293    0.0000 C   0  0  0  0  0  0  0  0  0  0  0  0
   -0.8076    0.7886    0.0000 C   0  0  0  0  0  0  0  0  0  0  0  0
    0.6650    1.0740    0.0000 O   0  0  0  0  0  0  0  0  0  0  0  0
    1.6484   -0.0586    0.0000 C   0  0  0  0  0  0  0  0  0  0  0  0
    1.1592   -1.4766    0.0000 C   0  0  0  0  0  0  0  0  0  0  0  0
    3.1210    0.2267    0.0000 C   0  0  0  0  0  0  0  0  0  0  0  0
    4.5936    0.5121    0.0000 F   0  0  0  0  0  0  0  0  0  0  0  0
    3.4064   -1.2459    0.0000 F   0  0  0  0  0  0  0  0  0  0  0  0
    2.8357    1.6993    0.0000 F   0  0  0  0  0  0  0  0  0  0  0  0
   -2.7694   -0.9147    0.0000 C   0  0  0  0  0  0  0  0  0  0  0  0
   -3.7528    0.2179    0.0000 C   0  0  0  0  0  0  0  0  0  0  0  0
   -3.2637    1.6359    0.0000 O   0  0  0  0  0  0  0  0  0  0  0  0
   -5.2255   -0.0674    0.0000 O   0  0  0  0  0  0  0  0  0  0  0  0
  1  2  1  0
  2  3  1  0
  3  4  1  0
  4  5  1  0
  5  6  1  0
  5  7  1  1
  7  8  1  0
  7  9  1  0
  7 10  1  0
  2 11  1  6
 11 12  1  0
 12 13  2  0
 12 14  1  0
  6  1  1  0
M  END
>  <rName>  (4568) 
morpholin-3-yl_6CF3_3R_6R_Ac

>  <PQ_SYMBOL>  (4568) 
morpholin-3-yl_6CF3_3R_6R_Ac

>  <FULL_NAME>  (4568) 
rac-2-[(3R,6R)-6-(trifluoromethyl)morpholin-3-yl]acetic acid

>  <IUPAC_CONDENSED>  (4568) 
morpholin-3-yl(6-CF3,3R,6R)Ac

>  <IUPAC>  (4568) 
2-((3R,6R)-6-(trifluoromethyl)morpholin-3-yl)acetic acid

>  <TYPE>  (4568) 
Backbone

>  <CLASS>  (4568) 
beta

>  <ANALOG>  (4568) 
Pro

>  <MOL_WT>  (4568) 
213.15499999999997

>  <LOGP>  (4568) 
0.3803999999999998

>  <TPSA>  (4568) 
58.56

>  <POPULARITY>  (4568) 
3.0

>  <PROTECTED>  (4568) 
TRUE

>  <SMILES>  (4568) 
N1[C@@H](CO[C@H](C1)C(F)(F)F)CC(=O)O

>  <INCHIKEY>  (4568) 
TVVYVTSAIUAYAH-RFZPGFLSSA-N

$$$$
morpholine-2-CO2H
     RDKit          2D

  9  9  0  0  0  0  0  0  0  0999 V2000
    1.9167   -1.2990    0.0000 N   0  0  0  0  0  0  0  0  0  0  0  0
    0.4167   -1.2990    0.0000 C   0  0  0  0  0  0  0  0  0  0  0  0
   -0.3333    0.0000    0.0000 C   0  0  0  0  0  0  0  0  0  0  0  0
    0.4167    1.2990    0.0000 O   0  0  0  0  0  0  0  0  0  0  0  0
    1.9167    1.2990    0.0000 C   0  0  0  0  0  0  0  0  0  0  0  0
    2.6667    0.0000    0.0000 C   0  0  0  0  0  0  0  0  0  0  0  0
   -1.8333    0.0000    0.0000 C   0  0  0  0  0  0  0  0  0  0  0  0
   -2.5833   -1.2990    0.0000 O   0  0  0  0  0  0  0  0  0  0  0  0
   -2.5833    1.2990    0.0000 O   0  0  0  0  0  0  0  0  0  0  0  0
  1  2  1  0
  2  3  1  0
  3  4  1  0
  4  5  1  0
  5  6  1  0
  3  7  1  0
  7  8  2  0
  7  9  1  0
  6  1  1  0
M  END
>  <rName>  (4569) 
morpholine-2-CO2H

>  <PQ_SYMBOL>  (4569) 
morpholine-2-CO2H

>  <FULL_NAME>  (4569) 
morpholine-2-carboxylic acid

>  <IUPAC_CONDENSED>  (4569) 
morpholine-2-CO2H

>  <IUPAC>  (4569) 
morpholine-2-carboxylic acid

>  <TYPE>  (4569) 
Backbone

>  <CLASS>  (4569) 
beta

>  <ANALOG>  (4569) 
Pro

>  <MOL_WT>  (4569) 
131.131

>  <LOGP>  (4569) 
-0.9406000000000001

>  <TPSA>  (4569) 
58.56

>  <POPULARITY>  (4569) 
11.0

>  <PROTECTED>  (4569) 
TRUE

>  <SMILES>  (4569) 
N1CC(OCC1)C(=O)O

>  <INCHIKEY>  (4569) 
FYCRNRZIEVLZDO-UHFFFAOYSA-N

$$$$
morpholine-2-CO2H_2Me
     RDKit          2D

 10 10  0  0  0  0  0  0  0  0999 V2000
    2.2632   -1.0509    0.0000 N   0  0  0  0  0  0  0  0  0  0  0  0
    0.8118   -1.4296    0.0000 C   0  0  0  0  0  0  0  0  0  0  0  0
   -0.2419   -0.3621    0.0000 C   0  0  0  0  0  0  0  0  0  0  0  0
    0.1558    1.0843    0.0000 O   0  0  0  0  0  0  0  0  0  0  0  0
    1.6072    1.4630    0.0000 C   0  0  0  0  0  0  0  0  0  0  0  0
    2.6609    0.3955    0.0000 C   0  0  0  0  0  0  0  0  0  0  0  0
   -1.1103   -1.5851    0.0000 C   0  0  0  0  0  0  0  0  0  0  0  0
   -1.5972    0.2807    0.0000 C   0  0  0  0  0  0  0  0  0  0  0  0
   -2.8315   -0.5716    0.0000 O   0  0  0  0  0  0  0  0  0  0  0  0
   -1.7181    1.7758    0.0000 O   0  0  0  0  0  0  0  0  0  0  0  0
  1  2  1  0
  2  3  1  0
  3  4  1  0
  4  5  1  0
  5  6  1  0
  3  7  1  0
  3  8  1  0
  8  9  2  0
  8 10  1  0
  6  1  1  0
M  END
>  <rName>  (4570) 
morpholine-2-CO2H_2Me

>  <PQ_SYMBOL>  (4570) 
morpholine-2-CO2H_2Me

>  <FULL_NAME>  (4570) 
2-Methylmorpholine-2-carboxylic acid

>  <IUPAC_CONDENSED>  (4570) 
morpholine-2-CO2H(2-Me)

>  <IUPAC>  (4570) 
2-methylmorpholine-2-carboxylic acid

>  <TYPE>  (4570) 
Backbone

>  <CLASS>  (4570) 
beta

>  <ANALOG>  (4570) 
Pro

>  <MOL_WT>  (4570) 
145.15800000000002

>  <LOGP>  (4570) 
-0.5505000000000002

>  <TPSA>  (4570) 
58.56

>  <POPULARITY>  (4570) 
6.0

>  <PROTECTED>  (4570) 
TRUE

>  <SMILES>  (4570) 
N1CC(OCC1)(C)C(=O)O

>  <INCHIKEY>  (4570) 
JIVMDGGOJVUJPK-UHFFFAOYSA-N

$$$$
morpholine-2-CO2H_2Me_5Me_2R_5R
     RDKit          2D

 11 11  0  0  0  0  0  0  0  0999 V2000
    1.7826   -1.2842    0.0000 N   0  0  0  0  0  0  0  0  0  0  0  0
    0.3034   -1.5329    0.0000 C   0  0  0  0  0  0  0  0  0  0  0  0
   -0.6516   -0.3762    0.0000 C   0  0  0  0  0  0  0  0  0  0  0  0
   -0.1274    1.0292    0.0000 O   0  0  0  0  0  0  0  0  0  0  0  0
    1.3519    1.2779    0.0000 C   0  0  0  0  0  0  0  0  0  0  0  0
    2.3069    0.1212    0.0000 C   0  0  0  0  0  0  0  0  0  0  0  0
    3.7861    0.3699    0.0000 C   0  0  0  0  0  0  0  0  0  0  0  0
   -1.6249   -1.5175    0.0000 C   0  0  0  0  0  0  0  0  0  0  0  0
   -1.9446    0.3841    0.0000 C   0  0  0  0  0  0  0  0  0  0  0  0
   -3.2496   -0.3555    0.0000 O   0  0  0  0  0  0  0  0  0  0  0  0
   -1.9327    1.8841    0.0000 O   0  0  0  0  0  0  0  0  0  0  0  0
  1  2  1  0
  2  3  1  0
  3  4  1  0
  4  5  1  0
  5  6  1  0
  6  7  1  1
  3  8  1  1
  3  9  1  0
  9 10  2  0
  9 11  1  0
  6  1  1  0
M  END
>  <rName>  (4571) 
morpholine-2-CO2H_2Me_5Me_2R_5R

>  <PQ_SYMBOL>  (4571) 
morpholine-2-CO2H_2Me_5Me_2R_5R

>  <FULL_NAME>  (4571) 
C[C@@H]1CO[C@@](C)(C(=O)O)CN1

>  <IUPAC_CONDENSED>  (4571) 
morpholine-2-CO2H(2-Me,5-Me,2R,5R)

>  <IUPAC>  (4571) 
(2R,5R)-2,5-dimethylmorpholine-2-carboxylic acid

>  <TYPE>  (4571) 
Backbone

>  <CLASS>  (4571) 
beta

>  <ANALOG>  (4571) 
Pro

>  <MOL_WT>  (4571) 
159.185

>  <LOGP>  (4571) 
-0.16200000000000064

>  <TPSA>  (4571) 
58.56

>  <POPULARITY>  (4571) 
2.8

>  <PROTECTED>  (4571) 
TRUE

>  <SMILES>  (4571) 
N1C[C@](OC[C@H]1C)(C)C(=O)O

>  <INCHIKEY>  (4571) 
HDUSPZAZEICMKP-IYSWYEEDSA-N

$$$$
morpholine-2-CO2H_2Me_6Me_2S_6R
     RDKit          2D

 11 11  0  0  0  0  0  0  0  0999 V2000
    1.5339   -1.9255    0.0000 N   0  0  0  0  0  0  0  0  0  0  0  0
    0.0386   -1.8069    0.0000 C   0  0  0  0  0  0  0  0  0  0  0  0
   -0.6063   -0.4526    0.0000 C   0  0  0  0  0  0  0  0  0  0  0  0
    0.2441    0.7830    0.0000 O   0  0  0  0  0  0  0  0  0  0  0  0
    1.7394    0.6644    0.0000 C   0  0  0  0  0  0  0  0  0  0  0  0
    2.5898    1.9000    0.0000 C   0  0  0  0  0  0  0  0  0  0  0  0
    2.3843   -0.6899    0.0000 C   0  0  0  0  0  0  0  0  0  0  0  0
   -1.8280   -1.3229    0.0000 C   0  0  0  0  0  0  0  0  0  0  0  0
   -1.6755    0.5994    0.0000 C   0  0  0  0  0  0  0  0  0  0  0  0
   -3.1212    0.1995    0.0000 O   0  0  0  0  0  0  0  0  0  0  0  0
   -1.2990    2.0514    0.0000 O   0  0  0  0  0  0  0  0  0  0  0  0
  1  2  1  0
  2  3  1  0
  3  4  1  0
  4  5  1  0
  5  6  1  6
  5  7  1  0
  3  8  1  6
  3  9  1  0
  9 10  2  0
  9 11  1  0
  7  1  1  0
M  END
>  <rName>  (4572) 
morpholine-2-CO2H_2Me_6Me_2S_6R

>  <PQ_SYMBOL>  (4572) 
morpholine-2-CO2H_2Me_6Me_2S_6R

>  <FULL_NAME>  (4572) 
C[C@@H]1CNC[C@@](C)(C(=O)O)O1

>  <IUPAC_CONDENSED>  (4572) 
morpholine-2-CO2H(2-Me,6-Me,2S,6R)

>  <IUPAC>  (4572) 
(2S,6R)-2,6-dimethylmorpholine-2-carboxylic acid

>  <TYPE>  (4572) 
Backbone

>  <CLASS>  (4572) 
beta

>  <ANALOG>  (4572) 
Pro

>  <MOL_WT>  (4572) 
159.185

>  <LOGP>  (4572) 
-0.16200000000000064

>  <TPSA>  (4572) 
58.56

>  <POPULARITY>  (4572) 
2.9

>  <PROTECTED>  (4572) 
TRUE

>  <SMILES>  (4572) 
N1C[C@@](O[C@H](C)C1)(C)C(=O)O

>  <INCHIKEY>  (4572) 
AOTPGQCEMFLKOL-VDTYLAMSSA-N

$$$$
morpholine-2-CO2H_55diMe
     RDKit          2D

 11 11  0  0  0  0  0  0  0  0999 V2000
    1.2229   -1.2990    0.0000 N   0  0  0  0  0  0  0  0  0  0  0  0
   -0.2771   -1.2990    0.0000 C   0  0  0  0  0  0  0  0  0  0  0  0
   -1.0271    0.0000    0.0000 C   0  0  0  0  0  0  0  0  0  0  0  0
   -0.2771    1.2990    0.0000 O   0  0  0  0  0  0  0  0  0  0  0  0
    1.2229    1.2990    0.0000 C   0  0  0  0  0  0  0  0  0  0  0  0
    1.9729   -0.0000    0.0000 C   0  0  0  0  0  0  0  0  0  0  0  0
    3.1220    0.9642    0.0000 C   0  0  0  0  0  0  0  0  0  0  0  0
    3.1220   -0.9642    0.0000 C   0  0  0  0  0  0  0  0  0  0  0  0
   -2.5271    0.0000    0.0000 C   0  0  0  0  0  0  0  0  0  0  0  0
   -3.2771   -1.2990    0.0000 O   0  0  0  0  0  0  0  0  0  0  0  0
   -3.2771    1.2990    0.0000 O   0  0  0  0  0  0  0  0  0  0  0  0
  1  2  1  0
  2  3  1  0
  3  4  1  0
  4  5  1  0
  5  6  1  0
  6  7  1  0
  6  8  1  0
  3  9  1  0
  9 10  2  0
  9 11  1  0
  6  1  1  0
M  END
>  <rName>  (4573) 
morpholine-2-CO2H_55diMe

>  <PQ_SYMBOL>  (4573) 
morpholine-2-CO2H_55diMe

>  <FULL_NAME>  (4573) 
5,5-Dimethylmorpholine-2-carboxylic acid

>  <IUPAC_CONDENSED>  (4573) 
morpholine-2-CO2H(5,5-diMe)

>  <IUPAC>  (4573) 
5,5-dimethylmorpholine-2-carboxylic acid

>  <TYPE>  (4573) 
Backbone

>  <CLASS>  (4573) 
beta

>  <ANALOG>  (4573) 
Pro

>  <MOL_WT>  (4573) 
159.185

>  <LOGP>  (4573) 
-0.16200000000000064

>  <TPSA>  (4573) 
58.56

>  <POPULARITY>  (4573) 
3.7

>  <PROTECTED>  (4573) 
TRUE

>  <SMILES>  (4573) 
N1CC(OCC1(C)C)C(=O)O

>  <INCHIKEY>  (4573) 
MOPJMKPQANCZCZ-UHFFFAOYSA-N

$$$$
morpholine-2-CO2H_55diMe_2R
     RDKit          2D

 11 11  0  0  0  0  0  0  0  0999 V2000
    1.2229   -1.2990    0.0000 N   0  0  0  0  0  0  0  0  0  0  0  0
   -0.2771   -1.2990    0.0000 C   0  0  0  0  0  0  0  0  0  0  0  0
   -1.0271    0.0000    0.0000 C   0  0  0  0  0  0  0  0  0  0  0  0
   -0.2771    1.2990    0.0000 O   0  0  0  0  0  0  0  0  0  0  0  0
    1.2229    1.2990    0.0000 C   0  0  0  0  0  0  0  0  0  0  0  0
    1.9729   -0.0000    0.0000 C   0  0  0  0  0  0  0  0  0  0  0  0
    3.1220    0.9642    0.0000 C   0  0  0  0  0  0  0  0  0  0  0  0
    3.1220   -0.9642    0.0000 C   0  0  0  0  0  0  0  0  0  0  0  0
   -2.5271    0.0000    0.0000 C   0  0  0  0  0  0  0  0  0  0  0  0
   -3.2771   -1.2990    0.0000 O   0  0  0  0  0  0  0  0  0  0  0  0
   -3.2771    1.2990    0.0000 O   0  0  0  0  0  0  0  0  0  0  0  0
  1  2  1  0
  2  3  1  0
  3  4  1  0
  4  5  1  0
  5  6  1  0
  6  7  1  0
  6  8  1  0
  3  9  1  6
  9 10  2  0
  9 11  1  0
  6  1  1  0
M  END
>  <rName>  (4574) 
morpholine-2-CO2H_55diMe_2R

>  <PQ_SYMBOL>  (4574) 
morpholine-2-CO2H_55diMe_2R

>  <FULL_NAME>  (4574) 
CC1(C)CO[C@@H](C(=O)O)CN1

>  <IUPAC_CONDENSED>  (4574) 
morpholine-2-CO2H(5,5-diMe,2R)

>  <IUPAC>  (4574) 
(2R)-5,5-dimethylmorpholine-2-carboxylic acid

>  <TYPE>  (4574) 
Backbone

>  <CLASS>  (4574) 
beta

>  <ANALOG>  (4574) 
Pro

>  <MOL_WT>  (4574) 
159.185

>  <LOGP>  (4574) 
-0.16200000000000064

>  <TPSA>  (4574) 
58.56

>  <POPULARITY>  (4574) 
3.0

>  <PROTECTED>  (4574) 
TRUE

>  <SMILES>  (4574) 
N1C[C@@H](OCC1(C)C)C(=O)O

>  <INCHIKEY>  (4574) 
MOPJMKPQANCZCZ-RXMQYKEDSA-N

$$$$
morpholine-2-CO2H_55diMe_2S
     RDKit          2D

 11 11  0  0  0  0  0  0  0  0999 V2000
    1.2229   -1.2990    0.0000 N   0  0  0  0  0  0  0  0  0  0  0  0
   -0.2771   -1.2990    0.0000 C   0  0  0  0  0  0  0  0  0  0  0  0
   -1.0271    0.0000    0.0000 C   0  0  0  0  0  0  0  0  0  0  0  0
   -0.2771    1.2990    0.0000 O   0  0  0  0  0  0  0  0  0  0  0  0
    1.2229    1.2990    0.0000 C   0  0  0  0  0  0  0  0  0  0  0  0
    1.9729   -0.0000    0.0000 C   0  0  0  0  0  0  0  0  0  0  0  0
    3.1220    0.9642    0.0000 C   0  0  0  0  0  0  0  0  0  0  0  0
    3.1220   -0.9642    0.0000 C   0  0  0  0  0  0  0  0  0  0  0  0
   -2.5271    0.0000    0.0000 C   0  0  0  0  0  0  0  0  0  0  0  0
   -3.2771   -1.2990    0.0000 O   0  0  0  0  0  0  0  0  0  0  0  0
   -3.2771    1.2990    0.0000 O   0  0  0  0  0  0  0  0  0  0  0  0
  1  2  1  0
  2  3  1  0
  3  4  1  0
  4  5  1  0
  5  6  1  0
  6  7  1  0
  6  8  1  0
  3  9  1  1
  9 10  2  0
  9 11  1  0
  6  1  1  0
M  END
>  <rName>  (4575) 
morpholine-2-CO2H_55diMe_2S

>  <PQ_SYMBOL>  (4575) 
morpholine-2-CO2H_55diMe_2S

>  <FULL_NAME>  (4575) 
CC1(C)CO[C@H](C(=O)O)CN1

>  <IUPAC_CONDENSED>  (4575) 
morpholine-2-CO2H(5,5-diMe,2S)

>  <IUPAC>  (4575) 
(2S)-5,5-dimethylmorpholine-2-carboxylic acid

>  <TYPE>  (4575) 
Backbone

>  <CLASS>  (4575) 
beta

>  <ANALOG>  (4575) 
Pro

>  <MOL_WT>  (4575) 
159.185

>  <LOGP>  (4575) 
-0.16200000000000064

>  <TPSA>  (4575) 
58.56

>  <POPULARITY>  (4575) 
3.0

>  <PROTECTED>  (4575) 
TRUE

>  <SMILES>  (4575) 
N1C[C@H](OCC1(C)C)C(=O)O

>  <INCHIKEY>  (4575) 
MOPJMKPQANCZCZ-YFKPBYRVSA-N

$$$$
morpholine-2-CO2H_5Me_2R_5R
     RDKit          2D

 10 10  0  0  0  0  0  0  0  0999 V2000
    1.5000   -1.2990    0.0000 N   0  0  0  0  0  0  0  0  0  0  0  0
   -0.0000   -1.2990    0.0000 C   0  0  0  0  0  0  0  0  0  0  0  0
   -0.7500    0.0000    0.0000 C   0  0  0  0  0  0  0  0  0  0  0  0
   -0.0000    1.2990    0.0000 O   0  0  0  0  0  0  0  0  0  0  0  0
    1.5000    1.2990    0.0000 C   0  0  0  0  0  0  0  0  0  0  0  0
    2.2500   -0.0000    0.0000 C   0  0  0  0  0  0  0  0  0  0  0  0
    3.7500   -0.0000    0.0000 C   0  0  0  0  0  0  0  0  0  0  0  0
   -2.2500    0.0000    0.0000 C   0  0  0  0  0  0  0  0  0  0  0  0
   -3.0000   -1.2990    0.0000 O   0  0  0  0  0  0  0  0  0  0  0  0
   -3.0000    1.2990    0.0000 O   0  0  0  0  0  0  0  0  0  0  0  0
  1  2  1  0
  2  3  1  0
  3  4  1  0
  4  5  1  0
  5  6  1  0
  6  7  1  1
  3  8  1  6
  8  9  2  0
  8 10  1  0
  6  1  1  0
M  END
>  <rName>  (4576) 
morpholine-2-CO2H_5Me_2R_5R

>  <PQ_SYMBOL>  (4576) 
morpholine-2-CO2H_5Me_2R_5R

>  <FULL_NAME>  (4576) 
(2R,5R)-5-Methylmorpholine-2-carboxylic acid

>  <IUPAC_CONDENSED>  (4576) 
morpholine-2-CO2H(5-Me,2R,5R)

>  <IUPAC>  (4576) 
(2R,5R)-5-methylmorpholine-2-carboxylic acid

>  <TYPE>  (4576) 
Backbone

>  <CLASS>  (4576) 
beta

>  <ANALOG>  (4576) 
Pro

>  <MOL_WT>  (4576) 
145.158

>  <LOGP>  (4576) 
-0.5521000000000005

>  <TPSA>  (4576) 
58.56

>  <POPULARITY>  (4576) 
4.0

>  <PROTECTED>  (4576) 
TRUE

>  <SMILES>  (4576) 
N1C[C@@H](OC[C@H]1C)C(=O)O

>  <INCHIKEY>  (4576) 
XCKFLDCAIOSMSB-RFZPGFLSSA-N

$$$$
morpholine-2-CO2H_5Me_2R_5S
     RDKit          2D

 10 10  0  0  0  0  0  0  0  0999 V2000
    1.5000   -1.2990    0.0000 N   0  0  0  0  0  0  0  0  0  0  0  0
   -0.0000   -1.2990    0.0000 C   0  0  0  0  0  0  0  0  0  0  0  0
   -0.7500    0.0000    0.0000 C   0  0  0  0  0  0  0  0  0  0  0  0
   -0.0000    1.2990    0.0000 O   0  0  0  0  0  0  0  0  0  0  0  0
    1.5000    1.2990    0.0000 C   0  0  0  0  0  0  0  0  0  0  0  0
    2.2500   -0.0000    0.0000 C   0  0  0  0  0  0  0  0  0  0  0  0
    3.7500   -0.0000    0.0000 C   0  0  0  0  0  0  0  0  0  0  0  0
   -2.2500    0.0000    0.0000 C   0  0  0  0  0  0  0  0  0  0  0  0
   -3.0000   -1.2990    0.0000 O   0  0  0  0  0  0  0  0  0  0  0  0
   -3.0000    1.2990    0.0000 O   0  0  0  0  0  0  0  0  0  0  0  0
  1  2  1  0
  2  3  1  0
  3  4  1  0
  4  5  1  0
  5  6  1  0
  6  7  1  6
  3  8  1  6
  8  9  2  0
  8 10  1  0
  6  1  1  0
M  END
>  <rName>  (4577) 
morpholine-2-CO2H_5Me_2R_5S

>  <PQ_SYMBOL>  (4577) 
morpholine-2-CO2H_5Me_2R_5S

>  <FULL_NAME>  (4577) 
(2R,5S)-5-Methylmorpholine-2-carboxylic acid

>  <IUPAC_CONDENSED>  (4577) 
morpholine-2-CO2H(5-Me,2R,5S)

>  <IUPAC>  (4577) 
(2R,5S)-5-methylmorpholine-2-carboxylic acid

>  <TYPE>  (4577) 
Backbone

>  <CLASS>  (4577) 
beta

>  <ANALOG>  (4577) 
Pro

>  <MOL_WT>  (4577) 
145.158

>  <LOGP>  (4577) 
-0.5521000000000005

>  <TPSA>  (4577) 
58.56

>  <POPULARITY>  (4577) 
5.2

>  <PROTECTED>  (4577) 
TRUE

>  <SMILES>  (4577) 
N1C[C@@H](OC[C@@H]1C)C(=O)O

>  <INCHIKEY>  (4577) 
XCKFLDCAIOSMSB-CRCLSJGQSA-N

$$$$
morpholine-2-CO2H_5Me_2S_5R
     RDKit          2D

 10 10  0  0  0  0  0  0  0  0999 V2000
    1.5000   -1.2990    0.0000 N   0  0  0  0  0  0  0  0  0  0  0  0
   -0.0000   -1.2990    0.0000 C   0  0  0  0  0  0  0  0  0  0  0  0
   -0.7500    0.0000    0.0000 C   0  0  0  0  0  0  0  0  0  0  0  0
   -0.0000    1.2990    0.0000 O   0  0  0  0  0  0  0  0  0  0  0  0
    1.5000    1.2990    0.0000 C   0  0  0  0  0  0  0  0  0  0  0  0
    2.2500   -0.0000    0.0000 C   0  0  0  0  0  0  0  0  0  0  0  0
    3.7500   -0.0000    0.0000 C   0  0  0  0  0  0  0  0  0  0  0  0
   -2.2500    0.0000    0.0000 C   0  0  0  0  0  0  0  0  0  0  0  0
   -3.0000   -1.2990    0.0000 O   0  0  0  0  0  0  0  0  0  0  0  0
   -3.0000    1.2990    0.0000 O   0  0  0  0  0  0  0  0  0  0  0  0
  1  2  1  0
  2  3  1  0
  3  4  1  0
  4  5  1  0
  5  6  1  0
  6  7  1  1
  3  8  1  1
  8  9  2  0
  8 10  1  0
  6  1  1  0
M  END
>  <rName>  (4578) 
morpholine-2-CO2H_5Me_2S_5R

>  <PQ_SYMBOL>  (4578) 
morpholine-2-CO2H_5Me_2S_5R

>  <FULL_NAME>  (4578) 
(2S,5R)-5-Methylmorpholine-2-carboxylic acid

>  <IUPAC_CONDENSED>  (4578) 
morpholine-2-CO2H(5-Me,2S,5R)

>  <IUPAC>  (4578) 
(2S,5R)-5-methylmorpholine-2-carboxylic acid

>  <TYPE>  (4578) 
Backbone

>  <CLASS>  (4578) 
beta

>  <ANALOG>  (4578) 
Pro

>  <MOL_WT>  (4578) 
145.158

>  <LOGP>  (4578) 
-0.5521000000000005

>  <TPSA>  (4578) 
58.56

>  <POPULARITY>  (4578) 
4.4

>  <PROTECTED>  (4578) 
TRUE

>  <SMILES>  (4578) 
N1C[C@H](OC[C@H]1C)C(=O)O

>  <INCHIKEY>  (4578) 
XCKFLDCAIOSMSB-UHNVWZDZSA-N

$$$$
morpholine-2-CO2H_5Me_2S_5S
     RDKit          2D

 10 10  0  0  0  0  0  0  0  0999 V2000
    1.5000   -1.2990    0.0000 N   0  0  0  0  0  0  0  0  0  0  0  0
   -0.0000   -1.2990    0.0000 C   0  0  0  0  0  0  0  0  0  0  0  0
   -0.7500    0.0000    0.0000 C   0  0  0  0  0  0  0  0  0  0  0  0
   -0.0000    1.2990    0.0000 O   0  0  0  0  0  0  0  0  0  0  0  0
    1.5000    1.2990    0.0000 C   0  0  0  0  0  0  0  0  0  0  0  0
    2.2500   -0.0000    0.0000 C   0  0  0  0  0  0  0  0  0  0  0  0
    3.7500   -0.0000    0.0000 C   0  0  0  0  0  0  0  0  0  0  0  0
   -2.2500    0.0000    0.0000 C   0  0  0  0  0  0  0  0  0  0  0  0
   -3.0000   -1.2990    0.0000 O   0  0  0  0  0  0  0  0  0  0  0  0
   -3.0000    1.2990    0.0000 O   0  0  0  0  0  0  0  0  0  0  0  0
  1  2  1  0
  2  3  1  0
  3  4  1  0
  4  5  1  0
  5  6  1  0
  6  7  1  6
  3  8  1  1
  8  9  2  0
  8 10  1  0
  6  1  1  0
M  END
>  <rName>  (4579) 
morpholine-2-CO2H_5Me_2S_5S

>  <PQ_SYMBOL>  (4579) 
morpholine-2-CO2H_5Me_2S_5S

>  <FULL_NAME>  (4579) 
(2S,5S)-5-Methylmorpholine-2-carboxylic acid

>  <IUPAC_CONDENSED>  (4579) 
morpholine-2-CO2H(5-Me,2S,5S)

>  <IUPAC>  (4579) 
(2S,5S)-5-methylmorpholine-2-carboxylic acid

>  <TYPE>  (4579) 
Backbone

>  <CLASS>  (4579) 
beta

>  <ANALOG>  (4579) 
Pro

>  <MOL_WT>  (4579) 
145.158

>  <LOGP>  (4579) 
-0.5521000000000005

>  <TPSA>  (4579) 
58.56

>  <POPULARITY>  (4579) 
4.5

>  <PROTECTED>  (4579) 
TRUE

>  <SMILES>  (4579) 
N1C[C@H](OC[C@@H]1C)C(=O)O

>  <INCHIKEY>  (4579) 
XCKFLDCAIOSMSB-WHFBIAKZSA-N

$$$$
morpholine-2-CO2H_6CF3
     RDKit          2D

 13 13  0  0  0  0  0  0  0  0999 V2000
   -0.2741   -2.4158    0.0000 N   0  0  0  0  0  0  0  0  0  0  0  0
   -1.5495   -1.6263    0.0000 C   0  0  0  0  0  0  0  0  0  0  0  0
   -1.5035   -0.1270    0.0000 C   0  0  0  0  0  0  0  0  0  0  0  0
   -0.1821    0.5828    0.0000 O   0  0  0  0  0  0  0  0  0  0  0  0
    1.0934   -0.2067    0.0000 C   0  0  0  0  0  0  0  0  0  0  0  0
    1.0474   -1.7060    0.0000 C   0  0  0  0  0  0  0  0  0  0  0  0
    2.4148    0.5031    0.0000 C   0  0  0  0  0  0  0  0  0  0  0  0
    3.7362    1.2129    0.0000 F   0  0  0  0  0  0  0  0  0  0  0  0
    3.1246   -0.8183    0.0000 F   0  0  0  0  0  0  0  0  0  0  0  0
    1.7050    1.8245    0.0000 F   0  0  0  0  0  0  0  0  0  0  0  0
   -2.7789    0.6625    0.0000 C   0  0  0  0  0  0  0  0  0  0  0  0
   -4.1003   -0.0474    0.0000 O   0  0  0  0  0  0  0  0  0  0  0  0
   -2.7329    2.1617    0.0000 O   0  0  0  0  0  0  0  0  0  0  0  0
  1  2  1  0
  2  3  1  0
  3  4  1  0
  4  5  1  0
  5  6  1  0
  5  7  1  0
  7  8  1  0
  7  9  1  0
  7 10  1  0
  3 11  1  0
 11 12  2  0
 11 13  1  0
  6  1  1  0
M  END
>  <rName>  (4580) 
morpholine-2-CO2H_6CF3

>  <PQ_SYMBOL>  (4580) 
morpholine-2-CO2H_6CF3

>  <FULL_NAME>  (4580) 
6-(Trifluoromethyl)morpholine-2-carboxylic acid

>  <IUPAC_CONDENSED>  (4580) 
morpholine-2-CO2H(6-CF3)

>  <IUPAC>  (4580) 
6-(trifluoromethyl)morpholine-2-carboxylic acid

>  <TYPE>  (4580) 
Backbone

>  <CLASS>  (4580) 
beta

>  <ANALOG>  (4580) 
Pro

>  <MOL_WT>  (4580) 
199.128

>  <LOGP>  (4580) 
-0.009700000000000097

>  <TPSA>  (4580) 
58.56

>  <POPULARITY>  (4580) 
3.0

>  <PROTECTED>  (4580) 
TRUE

>  <SMILES>  (4580) 
N1CC(OC(C1)C(F)(F)F)C(=O)O

>  <INCHIKEY>  (4580) 
CUAWHSMWBLIBFU-UHFFFAOYSA-N

$$$$
morpholine-2-CO2H_6Me_2R_6R
     RDKit          2D

 10 10  0  0  0  0  0  0  0  0999 V2000
    1.1946   -1.9301    0.0000 N   0  0  0  0  0  0  0  0  0  0  0  0
   -0.2551   -1.5451    0.0000 C   0  0  0  0  0  0  0  0  0  0  0  0
   -0.6466   -0.0971    0.0000 C   0  0  0  0  0  0  0  0  0  0  0  0
    0.4117    0.9659    0.0000 O   0  0  0  0  0  0  0  0  0  0  0  0
    1.8615    0.5809    0.0000 C   0  0  0  0  0  0  0  0  0  0  0  0
    2.9197    1.6440    0.0000 C   0  0  0  0  0  0  0  0  0  0  0  0
    2.2529   -0.8671    0.0000 C   0  0  0  0  0  0  0  0  0  0  0  0
   -2.0963    0.2879    0.0000 C   0  0  0  0  0  0  0  0  0  0  0  0
   -3.1546   -0.7752    0.0000 O   0  0  0  0  0  0  0  0  0  0  0  0
   -2.4878    1.7359    0.0000 O   0  0  0  0  0  0  0  0  0  0  0  0
  1  2  1  0
  2  3  1  0
  3  4  1  0
  4  5  1  0
  5  6  1  6
  5  7  1  0
  3  8  1  6
  8  9  2  0
  8 10  1  0
  7  1  1  0
M  END
>  <rName>  (4581) 
morpholine-2-CO2H_6Me_2R_6R

>  <PQ_SYMBOL>  (4581) 
morpholine-2-CO2H_6Me_2R_6R

>  <FULL_NAME>  (4581) 
(2R,6R)-6-Methylmorpholine-2-carboxylic acid

>  <IUPAC_CONDENSED>  (4581) 
morpholine-2-CO2H(6-Me,2R,6R)

>  <IUPAC>  (4581) 
(2R,6R)-6-methylmorpholine-2-carboxylic acid

>  <TYPE>  (4581) 
Backbone

>  <CLASS>  (4581) 
beta

>  <ANALOG>  (4581) 
Pro

>  <MOL_WT>  (4581) 
145.158

>  <LOGP>  (4581) 
-0.5521000000000005

>  <TPSA>  (4581) 
58.56

>  <POPULARITY>  (4581) 
2.2

>  <PROTECTED>  (4581) 
TRUE

>  <SMILES>  (4581) 
N1C[C@@H](O[C@H](C)C1)C(=O)O

>  <INCHIKEY>  (4581) 
PTEJYZZFUJQPJK-RFZPGFLSSA-N

$$$$
morpholine-2-CO2H_6Me_2R_6S
     RDKit          2D

 10 10  0  0  0  0  0  0  0  0999 V2000
    1.1946   -1.9301    0.0000 N   0  0  0  0  0  0  0  0  0  0  0  0
   -0.2551   -1.5451    0.0000 C   0  0  0  0  0  0  0  0  0  0  0  0
   -0.6466   -0.0971    0.0000 C   0  0  0  0  0  0  0  0  0  0  0  0
    0.4117    0.9659    0.0000 O   0  0  0  0  0  0  0  0  0  0  0  0
    1.8615    0.5809    0.0000 C   0  0  0  0  0  0  0  0  0  0  0  0
    2.9197    1.6440    0.0000 C   0  0  0  0  0  0  0  0  0  0  0  0
    2.2529   -0.8671    0.0000 C   0  0  0  0  0  0  0  0  0  0  0  0
   -2.0963    0.2879    0.0000 C   0  0  0  0  0  0  0  0  0  0  0  0
   -3.1546   -0.7752    0.0000 O   0  0  0  0  0  0  0  0  0  0  0  0
   -2.4878    1.7359    0.0000 O   0  0  0  0  0  0  0  0  0  0  0  0
  1  2  1  0
  2  3  1  0
  3  4  1  0
  4  5  1  0
  5  6  1  1
  5  7  1  0
  3  8  1  6
  8  9  2  0
  8 10  1  0
  7  1  1  0
M  END
>  <rName>  (4582) 
morpholine-2-CO2H_6Me_2R_6S

>  <PQ_SYMBOL>  (4582) 
morpholine-2-CO2H_6Me_2R_6S

>  <FULL_NAME>  (4582) 
(2R,6S)-6-methylmorpholine-2-carboxylic acid

>  <IUPAC_CONDENSED>  (4582) 
morpholine-2-CO2H(6-Me,2R,6S)

>  <IUPAC>  (4582) 
(2R,6S)-6-methylmorpholine-2-carboxylic acid

>  <TYPE>  (4582) 
Backbone

>  <CLASS>  (4582) 
beta

>  <ANALOG>  (4582) 
Pro

>  <MOL_WT>  (4582) 
145.158

>  <LOGP>  (4582) 
-0.5521000000000005

>  <TPSA>  (4582) 
58.56

>  <POPULARITY>  (4582) 
4.2

>  <PROTECTED>  (4582) 
TRUE

>  <SMILES>  (4582) 
N1C[C@@H](O[C@@H](C)C1)C(=O)O

>  <INCHIKEY>  (4582) 
PTEJYZZFUJQPJK-CRCLSJGQSA-N

$$$$
morpholine-2-CO2H_6Me_2S_6R
     RDKit          2D

 10 10  0  0  0  0  0  0  0  0999 V2000
    1.1946   -1.9301    0.0000 N   0  0  0  0  0  0  0  0  0  0  0  0
   -0.2551   -1.5451    0.0000 C   0  0  0  0  0  0  0  0  0  0  0  0
   -0.6466   -0.0971    0.0000 C   0  0  0  0  0  0  0  0  0  0  0  0
    0.4117    0.9659    0.0000 O   0  0  0  0  0  0  0  0  0  0  0  0
    1.8615    0.5809    0.0000 C   0  0  0  0  0  0  0  0  0  0  0  0
    2.9197    1.6440    0.0000 C   0  0  0  0  0  0  0  0  0  0  0  0
    2.2529   -0.8671    0.0000 C   0  0  0  0  0  0  0  0  0  0  0  0
   -2.0963    0.2879    0.0000 C   0  0  0  0  0  0  0  0  0  0  0  0
   -3.1546   -0.7752    0.0000 O   0  0  0  0  0  0  0  0  0  0  0  0
   -2.4878    1.7359    0.0000 O   0  0  0  0  0  0  0  0  0  0  0  0
  1  2  1  0
  2  3  1  0
  3  4  1  0
  4  5  1  0
  5  6  1  6
  5  7  1  0
  3  8  1  1
  8  9  2  0
  8 10  1  0
  7  1  1  0
M  END
>  <rName>  (4583) 
morpholine-2-CO2H_6Me_2S_6R

>  <PQ_SYMBOL>  (4583) 
morpholine-2-CO2H_6Me_2S_6R

>  <FULL_NAME>  (4583) 
(2S,6R)-6-Methylmorpholine-2-carboxylic acid

>  <IUPAC_CONDENSED>  (4583) 
morpholine-2-CO2H(6-Me,2S,6R)

>  <IUPAC>  (4583) 
(2S,6R)-6-methylmorpholine-2-carboxylic acid

>  <TYPE>  (4583) 
Backbone

>  <CLASS>  (4583) 
beta

>  <ANALOG>  (4583) 
Pro

>  <MOL_WT>  (4583) 
145.158

>  <LOGP>  (4583) 
-0.5521000000000005

>  <TPSA>  (4583) 
58.56

>  <POPULARITY>  (4583) 
5.5

>  <PROTECTED>  (4583) 
TRUE

>  <SMILES>  (4583) 
N1C[C@H](O[C@H](C)C1)C(=O)O

>  <INCHIKEY>  (4583) 
PTEJYZZFUJQPJK-UHNVWZDZSA-N

$$$$
morpholine-2-CO2H_6Me_2S_6S
     RDKit          2D

 10 10  0  0  0  0  0  0  0  0999 V2000
    1.1946   -1.9301    0.0000 N   0  0  0  0  0  0  0  0  0  0  0  0
   -0.2551   -1.5451    0.0000 C   0  0  0  0  0  0  0  0  0  0  0  0
   -0.6466   -0.0971    0.0000 C   0  0  0  0  0  0  0  0  0  0  0  0
    0.4117    0.9659    0.0000 O   0  0  0  0  0  0  0  0  0  0  0  0
    1.8615    0.5809    0.0000 C   0  0  0  0  0  0  0  0  0  0  0  0
    2.9197    1.6440    0.0000 C   0  0  0  0  0  0  0  0  0  0  0  0
    2.2529   -0.8671    0.0000 C   0  0  0  0  0  0  0  0  0  0  0  0
   -2.0963    0.2879    0.0000 C   0  0  0  0  0  0  0  0  0  0  0  0
   -3.1546   -0.7752    0.0000 O   0  0  0  0  0  0  0  0  0  0  0  0
   -2.4878    1.7359    0.0000 O   0  0  0  0  0  0  0  0  0  0  0  0
  1  2  1  0
  2  3  1  0
  3  4  1  0
  4  5  1  0
  5  6  1  1
  5  7  1  0
  3  8  1  1
  8  9  2  0
  8 10  1  0
  7  1  1  0
M  END
>  <rName>  (4584) 
morpholine-2-CO2H_6Me_2S_6S

>  <PQ_SYMBOL>  (4584) 
morpholine-2-CO2H_6Me_2S_6S

>  <FULL_NAME>  (4584) 
(2S,6S)-6-Methylmorpholine-2-carboxylic acid

>  <IUPAC_CONDENSED>  (4584) 
morpholine-2-CO2H(6-Me,2S,6S)

>  <IUPAC>  (4584) 
(2S,6S)-6-methylmorpholine-2-carboxylic acid

>  <TYPE>  (4584) 
Backbone

>  <CLASS>  (4584) 
beta

>  <ANALOG>  (4584) 
Pro

>  <MOL_WT>  (4584) 
145.158

>  <LOGP>  (4584) 
-0.5521000000000005

>  <TPSA>  (4584) 
58.56

>  <POPULARITY>  (4584) 
4.5

>  <PROTECTED>  (4584) 
TRUE

>  <SMILES>  (4584) 
N1C[C@H](O[C@@H](C)C1)C(=O)O

>  <INCHIKEY>  (4584) 
PTEJYZZFUJQPJK-WHFBIAKZSA-N

$$$$
morpholine-2-CO2H_R
     RDKit          2D

  9  9  0  0  0  0  0  0  0  0999 V2000
    1.9167   -1.2990    0.0000 N   0  0  0  0  0  0  0  0  0  0  0  0
    0.4167   -1.2990    0.0000 C   0  0  0  0  0  0  0  0  0  0  0  0
   -0.3333    0.0000    0.0000 C   0  0  0  0  0  0  0  0  0  0  0  0
    0.4167    1.2990    0.0000 O   0  0  0  0  0  0  0  0  0  0  0  0
    1.9167    1.2990    0.0000 C   0  0  0  0  0  0  0  0  0  0  0  0
    2.6667    0.0000    0.0000 C   0  0  0  0  0  0  0  0  0  0  0  0
   -1.8333    0.0000    0.0000 C   0  0  0  0  0  0  0  0  0  0  0  0
   -2.5833   -1.2990    0.0000 O   0  0  0  0  0  0  0  0  0  0  0  0
   -2.5833    1.2990    0.0000 O   0  0  0  0  0  0  0  0  0  0  0  0
  1  2  1  0
  2  3  1  0
  3  4  1  0
  4  5  1  0
  5  6  1  0
  3  7  1  6
  7  8  2  0
  7  9  1  0
  6  1  1  0
M  END
>  <rName>  (4585) 
morpholine-2-CO2H_R

>  <PQ_SYMBOL>  (4585) 
morpholine-2-CO2H_R

>  <FULL_NAME>  (4585) 
(R)-Morpholine-2-carboxylic acid

>  <IUPAC_CONDENSED>  (4585) 
morpholine-2-CO2H(R)

>  <IUPAC>  (4585) 
(2R)-morpholine-2-carboxylic acid

>  <TYPE>  (4585) 
Backbone

>  <CLASS>  (4585) 
beta

>  <ANALOG>  (4585) 
Pro

>  <MOL_WT>  (4585) 
131.131

>  <LOGP>  (4585) 
-0.9406000000000001

>  <TPSA>  (4585) 
58.56

>  <POPULARITY>  (4585) 
2.2

>  <PROTECTED>  (4585) 
TRUE

>  <SMILES>  (4585) 
N1C[C@@H](OCC1)C(=O)O

>  <INCHIKEY>  (4585) 
FYCRNRZIEVLZDO-SCSAIBSYSA-N

$$$$
morpholine-2-CO2H_S
     RDKit          2D

  9  9  0  0  0  0  0  0  0  0999 V2000
    1.9167   -1.2990    0.0000 N   0  0  0  0  0  0  0  0  0  0  0  0
    0.4167   -1.2990    0.0000 C   0  0  0  0  0  0  0  0  0  0  0  0
   -0.3333    0.0000    0.0000 C   0  0  0  0  0  0  0  0  0  0  0  0
    0.4167    1.2990    0.0000 O   0  0  0  0  0  0  0  0  0  0  0  0
    1.9167    1.2990    0.0000 C   0  0  0  0  0  0  0  0  0  0  0  0
    2.6667    0.0000    0.0000 C   0  0  0  0  0  0  0  0  0  0  0  0
   -1.8333    0.0000    0.0000 C   0  0  0  0  0  0  0  0  0  0  0  0
   -2.5833   -1.2990    0.0000 O   0  0  0  0  0  0  0  0  0  0  0  0
   -2.5833    1.2990    0.0000 O   0  0  0  0  0  0  0  0  0  0  0  0
  1  2  1  0
  2  3  1  0
  3  4  1  0
  4  5  1  0
  5  6  1  0
  3  7  1  1
  7  8  2  0
  7  9  1  0
  6  1  1  0
M  END
>  <rName>  (4586) 
morpholine-2-CO2H_S

>  <PQ_SYMBOL>  (4586) 
morpholine-2-CO2H_S

>  <FULL_NAME>  (4586) 
(S)-morpholine-2-carboxylic acid

>  <IUPAC_CONDENSED>  (4586) 
morpholine-2-CO2H(S)

>  <IUPAC>  (4586) 
(2S)-morpholine-2-carboxylic acid

>  <TYPE>  (4586) 
Backbone

>  <CLASS>  (4586) 
beta

>  <ANALOG>  (4586) 
Pro

>  <MOL_WT>  (4586) 
131.131

>  <LOGP>  (4586) 
-0.9406000000000001

>  <TPSA>  (4586) 
58.56

>  <POPULARITY>  (4586) 
9.5

>  <PROTECTED>  (4586) 
TRUE

>  <SMILES>  (4586) 
N1C[C@H](OCC1)C(=O)O

>  <INCHIKEY>  (4586) 
FYCRNRZIEVLZDO-BYPYZUCNSA-N

$$$$
morpholine-3-CO2H_2Me_2R_3S
     RDKit          2D

 10 10  0  0  0  0  0  0  0  0999 V2000
    0.5274   -1.5344    0.0000 N   0  0  0  0  0  0  0  0  0  0  0  0
   -0.2866   -0.2745    0.0000 C   0  0  0  0  0  0  0  0  0  0  0  0
    0.3975    1.0604    0.0000 C   0  0  0  0  0  0  0  0  0  0  0  0
    1.8956    1.1355    0.0000 O   0  0  0  0  0  0  0  0  0  0  0  0
    2.7096   -0.1244    0.0000 C   0  0  0  0  0  0  0  0  0  0  0  0
    2.0255   -1.4594    0.0000 C   0  0  0  0  0  0  0  0  0  0  0  0
   -0.4166    2.3203    0.0000 C   0  0  0  0  0  0  0  0  0  0  0  0
   -1.7848   -0.3495    0.0000 C   0  0  0  0  0  0  0  0  0  0  0  0
   -2.4688   -1.6844    0.0000 O   0  0  0  0  0  0  0  0  0  0  0  0
   -2.5988    0.9104    0.0000 O   0  0  0  0  0  0  0  0  0  0  0  0
  1  2  1  0
  2  3  1  0
  3  4  1  0
  4  5  1  0
  5  6  1  0
  3  7  1  1
  2  8  1  6
  8  9  2  0
  8 10  1  0
  6  1  1  0
M  END
>  <rName>  (4587) 
morpholine-3-CO2H_2Me_2R_3S

>  <PQ_SYMBOL>  (4587) 
morpholine-3-CO2H_2Me_2R_3S

>  <FULL_NAME>  (4587) 
(2R,3S)-2-methylmorpholine-3-carboxylic acid

>  <IUPAC_CONDENSED>  (4587) 
morpholine-3-CO2H(2-Me,2R,3S)

>  <IUPAC>  (4587) 
(2R,3S)-2-methylmorpholine-3-carboxylic acid

>  <TYPE>  (4587) 
Backbone

>  <CLASS>  (4587) 
alpha

>  <ANALOG>  (4587) 
Pro

>  <MOL_WT>  (4587) 
145.15800000000002

>  <LOGP>  (4587) 
-0.5521000000000005

>  <TPSA>  (4587) 
58.56

>  <POPULARITY>  (4587) 
5.3

>  <PROTECTED>  (4587) 
TRUE

>  <SMILES>  (4587) 
N1[C@@H]([C@H](OCC1)C)C(=O)O

>  <INCHIKEY>  (4587) 
FTVXLBDGIPTBCP-UHNVWZDZSA-N

$$$$
morpholine-3-CO2H_2Me_2S_3R
     RDKit          2D

 10 10  0  0  0  0  0  0  0  0999 V2000
    0.5274   -1.5344    0.0000 N   0  0  0  0  0  0  0  0  0  0  0  0
   -0.2866   -0.2745    0.0000 C   0  0  0  0  0  0  0  0  0  0  0  0
    0.3975    1.0604    0.0000 C   0  0  0  0  0  0  0  0  0  0  0  0
    1.8956    1.1355    0.0000 O   0  0  0  0  0  0  0  0  0  0  0  0
    2.7096   -0.1244    0.0000 C   0  0  0  0  0  0  0  0  0  0  0  0
    2.0255   -1.4594    0.0000 C   0  0  0  0  0  0  0  0  0  0  0  0
   -0.4166    2.3203    0.0000 C   0  0  0  0  0  0  0  0  0  0  0  0
   -1.7848   -0.3495    0.0000 C   0  0  0  0  0  0  0  0  0  0  0  0
   -2.4688   -1.6844    0.0000 O   0  0  0  0  0  0  0  0  0  0  0  0
   -2.5988    0.9104    0.0000 O   0  0  0  0  0  0  0  0  0  0  0  0
  1  2  1  0
  2  3  1  0
  3  4  1  0
  4  5  1  0
  5  6  1  0
  3  7  1  6
  2  8  1  1
  8  9  2  0
  8 10  1  0
  6  1  1  0
M  END
>  <rName>  (4588) 
morpholine-3-CO2H_2Me_2S_3R

>  <PQ_SYMBOL>  (4588) 
morpholine-3-CO2H_2Me_2S_3R

>  <FULL_NAME>  (4588) 
(2S,3R)-2-methylmorpholine-3-carboxylic acid

>  <IUPAC_CONDENSED>  (4588) 
morpholine-3-CO2H(2-Me,2S,3R)

>  <IUPAC>  (4588) 
(2S,3R)-2-methylmorpholine-3-carboxylic acid

>  <TYPE>  (4588) 
Backbone

>  <CLASS>  (4588) 
alpha

>  <ANALOG>  (4588) 
Pro

>  <MOL_WT>  (4588) 
145.15800000000002

>  <LOGP>  (4588) 
-0.5521000000000005

>  <TPSA>  (4588) 
58.56

>  <POPULARITY>  (4588) 
3.6

>  <PROTECTED>  (4588) 
TRUE

>  <SMILES>  (4588) 
N1[C@H]([C@@H](OCC1)C)C(=O)O

>  <INCHIKEY>  (4588) 
FTVXLBDGIPTBCP-CRCLSJGQSA-N

$$$$
morpholine-3-CO2H_5Me_3R_5R
     RDKit          2D

 10 10  0  0  0  0  0  0  0  0999 V2000
    0.4117   -0.9659    0.0000 N   0  0  0  0  0  0  0  0  0  0  0  0
   -0.6466    0.0971    0.0000 C   0  0  0  0  0  0  0  0  0  0  0  0
   -0.2551    1.5451    0.0000 C   0  0  0  0  0  0  0  0  0  0  0  0
    1.1946    1.9301    0.0000 O   0  0  0  0  0  0  0  0  0  0  0  0
    2.2529    0.8671    0.0000 C   0  0  0  0  0  0  0  0  0  0  0  0
    1.8615   -0.5809    0.0000 C   0  0  0  0  0  0  0  0  0  0  0  0
    2.9197   -1.6440    0.0000 C   0  0  0  0  0  0  0  0  0  0  0  0
   -2.0963   -0.2879    0.0000 C   0  0  0  0  0  0  0  0  0  0  0  0
   -2.4878   -1.7359    0.0000 O   0  0  0  0  0  0  0  0  0  0  0  0
   -3.1546    0.7752    0.0000 O   0  0  0  0  0  0  0  0  0  0  0  0
  1  2  1  0
  2  3  1  0
  3  4  1  0
  4  5  1  0
  5  6  1  0
  6  7  1  1
  2  8  1  1
  8  9  2  0
  8 10  1  0
  6  1  1  0
M  END
>  <rName>  (4589) 
morpholine-3-CO2H_5Me_3R_5R

>  <PQ_SYMBOL>  (4589) 
morpholine-3-CO2H_5Me_3R_5R

>  <FULL_NAME>  (4589) 
(3R,5R)-5-methylmorpholine-3-carboxylic acid

>  <IUPAC_CONDENSED>  (4589) 
morpholine-3-CO2H(5-Me,3R,5R)

>  <IUPAC>  (4589) 
(3R,5R)-5-methylmorpholine-3-carboxylic acid

>  <TYPE>  (4589) 
Backbone

>  <CLASS>  (4589) 
alpha

>  <ANALOG>  (4589) 
Pro

>  <MOL_WT>  (4589) 
145.158

>  <LOGP>  (4589) 
-0.5521000000000005

>  <TPSA>  (4589) 
58.56

>  <POPULARITY>  (4589) 
3.2

>  <PROTECTED>  (4589) 
TRUE

>  <SMILES>  (4589) 
N1[C@H](COC[C@H]1C)C(=O)O

>  <INCHIKEY>  (4589) 
GGBFJECGJQKNBL-RFZPGFLSSA-N

$$$$
morpholine-3-CO2H_5Me_3S_5S
     RDKit          2D

 10 10  0  0  0  0  0  0  0  0999 V2000
    0.4117   -0.9659    0.0000 N   0  0  0  0  0  0  0  0  0  0  0  0
   -0.6466    0.0971    0.0000 C   0  0  0  0  0  0  0  0  0  0  0  0
   -0.2551    1.5451    0.0000 C   0  0  0  0  0  0  0  0  0  0  0  0
    1.1946    1.9301    0.0000 O   0  0  0  0  0  0  0  0  0  0  0  0
    2.2529    0.8671    0.0000 C   0  0  0  0  0  0  0  0  0  0  0  0
    1.8615   -0.5809    0.0000 C   0  0  0  0  0  0  0  0  0  0  0  0
    2.9197   -1.6440    0.0000 C   0  0  0  0  0  0  0  0  0  0  0  0
   -2.0963   -0.2879    0.0000 C   0  0  0  0  0  0  0  0  0  0  0  0
   -2.4878   -1.7359    0.0000 O   0  0  0  0  0  0  0  0  0  0  0  0
   -3.1546    0.7752    0.0000 O   0  0  0  0  0  0  0  0  0  0  0  0
  1  2  1  0
  2  3  1  0
  3  4  1  0
  4  5  1  0
  5  6  1  0
  6  7  1  6
  2  8  1  6
  8  9  2  0
  8 10  1  0
  6  1  1  0
M  END
>  <rName>  (4590) 
morpholine-3-CO2H_5Me_3S_5S

>  <PQ_SYMBOL>  (4590) 
morpholine-3-CO2H_5Me_3S_5S

>  <FULL_NAME>  (4590) 
(3S,5S)-5-Methylmorpholine-3-carboxylic acid

>  <IUPAC_CONDENSED>  (4590) 
morpholine-3-CO2H(5-Me,3S,5S)

>  <IUPAC>  (4590) 
(3S,5S)-5-methylmorpholine-3-carboxylic acid

>  <TYPE>  (4590) 
Backbone

>  <CLASS>  (4590) 
alpha

>  <ANALOG>  (4590) 
Pro

>  <MOL_WT>  (4590) 
145.158

>  <LOGP>  (4590) 
-0.5521000000000005

>  <TPSA>  (4590) 
58.56

>  <POPULARITY>  (4590) 
5.3

>  <PROTECTED>  (4590) 
TRUE

>  <SMILES>  (4590) 
N1[C@@H](COC[C@@H]1C)C(=O)O

>  <INCHIKEY>  (4590) 
GGBFJECGJQKNBL-WHFBIAKZSA-N

$$$$
morpholine-3-CO2H_6CF3_3R_6R
     RDKit          2D

 13 13  0  0  0  0  0  0  0  0999 V2000
   -0.9808   -1.2990    0.0000 N   0  0  0  0  0  0  0  0  0  0  0  0
   -1.7308    0.0000    0.0000 C   0  0  0  0  0  0  0  0  0  0  0  0
   -0.9808    1.2990    0.0000 C   0  0  0  0  0  0  0  0  0  0  0  0
    0.5192    1.2990    0.0000 O   0  0  0  0  0  0  0  0  0  0  0  0
    1.2692   -0.0000    0.0000 C   0  0  0  0  0  0  0  0  0  0  0  0
    0.5192   -1.2990    0.0000 C   0  0  0  0  0  0  0  0  0  0  0  0
    2.7692    0.0000    0.0000 C   0  0  0  0  0  0  0  0  0  0  0  0
    4.2692    0.0000    0.0000 F   0  0  0  0  0  0  0  0  0  0  0  0
    2.7692   -1.5000    0.0000 F   0  0  0  0  0  0  0  0  0  0  0  0
    2.7692    1.5000    0.0000 F   0  0  0  0  0  0  0  0  0  0  0  0
   -3.2308   -0.0000    0.0000 C   0  0  0  0  0  0  0  0  0  0  0  0
   -3.9808   -1.2990    0.0000 O   0  0  0  0  0  0  0  0  0  0  0  0
   -3.9808    1.2990    0.0000 O   0  0  0  0  0  0  0  0  0  0  0  0
  1  2  1  0
  2  3  1  0
  3  4  1  0
  4  5  1  0
  5  6  1  0
  5  7  1  1
  7  8  1  0
  7  9  1  0
  7 10  1  0
  2 11  1  1
 11 12  2  0
 11 13  1  0
  6  1  1  0
M  END
>  <rName>  (4591) 
morpholine-3-CO2H_6CF3_3R_6R

>  <PQ_SYMBOL>  (4591) 
morpholine-3-CO2H_6CF3_3R_6R

>  <FULL_NAME>  (4591) 
Rel-(3R,6R)-6-(trifluoromethyl)morpholine-3-carboxylic acid

>  <IUPAC_CONDENSED>  (4591) 
morpholine-3-CO2H(6-CF3,3R,6R)

>  <IUPAC>  (4591) 
(3R,6R)-6-(trifluoromethyl)morpholine-3-carboxylic acid

>  <TYPE>  (4591) 
Backbone

>  <CLASS>  (4591) 
alpha

>  <ANALOG>  (4591) 
Pro

>  <MOL_WT>  (4591) 
199.128

>  <LOGP>  (4591) 
-0.009700000000000097

>  <TPSA>  (4591) 
58.56

>  <POPULARITY>  (4591) 
2.8

>  <PROTECTED>  (4591) 
TRUE

>  <SMILES>  (4591) 
N1[C@H](CO[C@H](C1)C(F)(F)F)C(=O)O

>  <INCHIKEY>  (4591) 
TUSDITNANYMPPH-QWWZWVQMSA-N

$$$$
morpholine-3-CO2H_6CF3_3S_6R
     RDKit          2D

 13 13  0  0  0  0  0  0  0  0999 V2000
   -0.9808   -1.2990    0.0000 N   0  0  0  0  0  0  0  0  0  0  0  0
   -1.7308    0.0000    0.0000 C   0  0  0  0  0  0  0  0  0  0  0  0
   -0.9808    1.2990    0.0000 C   0  0  0  0  0  0  0  0  0  0  0  0
    0.5192    1.2990    0.0000 O   0  0  0  0  0  0  0  0  0  0  0  0
    1.2692   -0.0000    0.0000 C   0  0  0  0  0  0  0  0  0  0  0  0
    0.5192   -1.2990    0.0000 C   0  0  0  0  0  0  0  0  0  0  0  0
    2.7692    0.0000    0.0000 C   0  0  0  0  0  0  0  0  0  0  0  0
    4.2692    0.0000    0.0000 F   0  0  0  0  0  0  0  0  0  0  0  0
    2.7692   -1.5000    0.0000 F   0  0  0  0  0  0  0  0  0  0  0  0
    2.7692    1.5000    0.0000 F   0  0  0  0  0  0  0  0  0  0  0  0
   -3.2308   -0.0000    0.0000 C   0  0  0  0  0  0  0  0  0  0  0  0
   -3.9808   -1.2990    0.0000 O   0  0  0  0  0  0  0  0  0  0  0  0
   -3.9808    1.2990    0.0000 O   0  0  0  0  0  0  0  0  0  0  0  0
  1  2  1  0
  2  3  1  0
  3  4  1  0
  4  5  1  0
  5  6  1  0
  5  7  1  1
  7  8  1  0
  7  9  1  0
  7 10  1  0
  2 11  1  6
 11 12  2  0
 11 13  1  0
  6  1  1  0
M  END
>  <rName>  (4592) 
morpholine-3-CO2H_6CF3_3S_6R

>  <PQ_SYMBOL>  (4592) 
morpholine-3-CO2H_6CF3_3S_6R

>  <FULL_NAME>  (4592) 
rac-(3R,6S)-6-(trifluoromethyl)morpholine-3-carboxylic acid

>  <IUPAC_CONDENSED>  (4592) 
morpholine-3-CO2H(6-CF3,3S,6R)

>  <IUPAC>  (4592) 
(3S,6R)-6-(trifluoromethyl)morpholine-3-carboxylic acid

>  <TYPE>  (4592) 
Backbone

>  <CLASS>  (4592) 
alpha

>  <ANALOG>  (4592) 
Pro

>  <MOL_WT>  (4592) 
199.128

>  <LOGP>  (4592) 
-0.009700000000000097

>  <TPSA>  (4592) 
58.56

>  <POPULARITY>  (4592) 
2.8

>  <PROTECTED>  (4592) 
TRUE

>  <SMILES>  (4592) 
N1[C@@H](CO[C@H](C1)C(F)(F)F)C(=O)O

>  <INCHIKEY>  (4592) 
TUSDITNANYMPPH-IUYQGCFVSA-N

$$$$
morpholine-3-CO2H_6Me_3R_6R
     RDKit          2D

 10 10  0  0  0  0  0  0  0  0999 V2000
    0.0000   -1.2990    0.0000 N   0  0  0  0  0  0  0  0  0  0  0  0
   -0.7500    0.0000    0.0000 C   0  0  0  0  0  0  0  0  0  0  0  0
    0.0000    1.2990    0.0000 C   0  0  0  0  0  0  0  0  0  0  0  0
    1.5000    1.2990    0.0000 O   0  0  0  0  0  0  0  0  0  0  0  0
    2.2500   -0.0000    0.0000 C   0  0  0  0  0  0  0  0  0  0  0  0
    3.7500    0.0000    0.0000 C   0  0  0  0  0  0  0  0  0  0  0  0
    1.5000   -1.2990    0.0000 C   0  0  0  0  0  0  0  0  0  0  0  0
   -2.2500    0.0000    0.0000 C   0  0  0  0  0  0  0  0  0  0  0  0
   -3.0000   -1.2990    0.0000 O   0  0  0  0  0  0  0  0  0  0  0  0
   -3.0000    1.2990    0.0000 O   0  0  0  0  0  0  0  0  0  0  0  0
  1  2  1  0
  2  3  1  0
  3  4  1  0
  4  5  1  0
  5  6  1  6
  5  7  1  0
  2  8  1  1
  8  9  2  0
  8 10  1  0
  7  1  1  0
M  END
>  <rName>  (4593) 
morpholine-3-CO2H_6Me_3R_6R

>  <PQ_SYMBOL>  (4593) 
morpholine-3-CO2H_6Me_3R_6R

>  <FULL_NAME>  (4593) 
(3R,6R)-6-Methylmorpholine-3-carboxylic acid

>  <IUPAC_CONDENSED>  (4593) 
morpholine-3-CO2H(6-Me,3R,6R)

>  <IUPAC>  (4593) 
(3R,6R)-6-methylmorpholine-3-carboxylic acid

>  <TYPE>  (4593) 
Backbone

>  <CLASS>  (4593) 
alpha

>  <ANALOG>  (4593) 
Pro

>  <MOL_WT>  (4593) 
145.158

>  <LOGP>  (4593) 
-0.5521000000000005

>  <TPSA>  (4593) 
58.56

>  <POPULARITY>  (4593) 
4.6

>  <PROTECTED>  (4593) 
TRUE

>  <SMILES>  (4593) 
N1[C@H](CO[C@H](C)C1)C(=O)O

>  <INCHIKEY>  (4593) 
BIOFPDNBUUHVRE-RFZPGFLSSA-N

$$$$
morpholine-3-CO2H_6Me_3S_6R
     RDKit          2D

 10 10  0  0  0  0  0  0  0  0999 V2000
    0.0000   -1.2990    0.0000 N   0  0  0  0  0  0  0  0  0  0  0  0
   -0.7500    0.0000    0.0000 C   0  0  0  0  0  0  0  0  0  0  0  0
    0.0000    1.2990    0.0000 C   0  0  0  0  0  0  0  0  0  0  0  0
    1.5000    1.2990    0.0000 O   0  0  0  0  0  0  0  0  0  0  0  0
    2.2500   -0.0000    0.0000 C   0  0  0  0  0  0  0  0  0  0  0  0
    3.7500    0.0000    0.0000 C   0  0  0  0  0  0  0  0  0  0  0  0
    1.5000   -1.2990    0.0000 C   0  0  0  0  0  0  0  0  0  0  0  0
   -2.2500    0.0000    0.0000 C   0  0  0  0  0  0  0  0  0  0  0  0
   -3.0000   -1.2990    0.0000 O   0  0  0  0  0  0  0  0  0  0  0  0
   -3.0000    1.2990    0.0000 O   0  0  0  0  0  0  0  0  0  0  0  0
  1  2  1  0
  2  3  1  0
  3  4  1  0
  4  5  1  0
  5  6  1  6
  5  7  1  0
  2  8  1  6
  8  9  2  0
  8 10  1  0
  7  1  1  0
M  END
>  <rName>  (4594) 
morpholine-3-CO2H_6Me_3S_6R

>  <PQ_SYMBOL>  (4594) 
morpholine-3-CO2H_6Me_3S_6R

>  <FULL_NAME>  (4594) 
(3S,6R)-6-methylmorpholine-3-carboxylic acid

>  <IUPAC_CONDENSED>  (4594) 
morpholine-3-CO2H(6-Me,3S,6R)

>  <IUPAC>  (4594) 
(3S,6R)-6-methylmorpholine-3-carboxylic acid

>  <TYPE>  (4594) 
Backbone

>  <CLASS>  (4594) 
alpha

>  <ANALOG>  (4594) 
Pro

>  <MOL_WT>  (4594) 
145.158

>  <LOGP>  (4594) 
-0.5521000000000005

>  <TPSA>  (4594) 
58.56

>  <POPULARITY>  (4594) 
4.6

>  <PROTECTED>  (4594) 
TRUE

>  <SMILES>  (4594) 
N1[C@@H](CO[C@H](C)C1)C(=O)O

>  <INCHIKEY>  (4594) 
BIOFPDNBUUHVRE-UHNVWZDZSA-N

$$$$
morpholine-3-CO2H_6Me_3S_6S
     RDKit          2D

 10 10  0  0  0  0  0  0  0  0999 V2000
    0.0000   -1.2990    0.0000 N   0  0  0  0  0  0  0  0  0  0  0  0
   -0.7500    0.0000    0.0000 C   0  0  0  0  0  0  0  0  0  0  0  0
    0.0000    1.2990    0.0000 C   0  0  0  0  0  0  0  0  0  0  0  0
    1.5000    1.2990    0.0000 O   0  0  0  0  0  0  0  0  0  0  0  0
    2.2500   -0.0000    0.0000 C   0  0  0  0  0  0  0  0  0  0  0  0
    3.7500    0.0000    0.0000 C   0  0  0  0  0  0  0  0  0  0  0  0
    1.5000   -1.2990    0.0000 C   0  0  0  0  0  0  0  0  0  0  0  0
   -2.2500    0.0000    0.0000 C   0  0  0  0  0  0  0  0  0  0  0  0
   -3.0000   -1.2990    0.0000 O   0  0  0  0  0  0  0  0  0  0  0  0
   -3.0000    1.2990    0.0000 O   0  0  0  0  0  0  0  0  0  0  0  0
  1  2  1  0
  2  3  1  0
  3  4  1  0
  4  5  1  0
  5  6  1  1
  5  7  1  0
  2  8  1  6
  8  9  2  0
  8 10  1  0
  7  1  1  0
M  END
>  <rName>  (4595) 
morpholine-3-CO2H_6Me_3S_6S

>  <PQ_SYMBOL>  (4595) 
morpholine-3-CO2H_6Me_3S_6S

>  <FULL_NAME>  (4595) 
(3S,6S)-6-Methylmorpholine-3-carboxylic acid

>  <IUPAC_CONDENSED>  (4595) 
morpholine-3-CO2H(6-Me,3S,6S)

>  <IUPAC>  (4595) 
(3S,6S)-6-methylmorpholine-3-carboxylic acid

>  <TYPE>  (4595) 
Backbone

>  <CLASS>  (4595) 
alpha

>  <ANALOG>  (4595) 
Pro

>  <MOL_WT>  (4595) 
145.158

>  <LOGP>  (4595) 
-0.5521000000000005

>  <TPSA>  (4595) 
58.56

>  <POPULARITY>  (4595) 
2.2

>  <PROTECTED>  (4595) 
TRUE

>  <SMILES>  (4595) 
N1[C@@H](CO[C@@H](C)C1)C(=O)O

>  <INCHIKEY>  (4595) 
BIOFPDNBUUHVRE-WHFBIAKZSA-N

$$$$
morpholine-3-CO2H_S
     RDKit          2D

  9  9  0  0  0  0  0  0  0  0999 V2000
    0.4167   -1.2990    0.0000 N   0  0  0  0  0  0  0  0  0  0  0  0
   -0.3333    0.0000    0.0000 C   0  0  0  0  0  0  0  0  0  0  0  0
    0.4167    1.2990    0.0000 C   0  0  0  0  0  0  0  0  0  0  0  0
    1.9167    1.2990    0.0000 O   0  0  0  0  0  0  0  0  0  0  0  0
    2.6667    0.0000    0.0000 C   0  0  0  0  0  0  0  0  0  0  0  0
    1.9167   -1.2990    0.0000 C   0  0  0  0  0  0  0  0  0  0  0  0
   -1.8333   -0.0000    0.0000 C   0  0  0  0  0  0  0  0  0  0  0  0
   -2.5833   -1.2990    0.0000 O   0  0  0  0  0  0  0  0  0  0  0  0
   -2.5833    1.2990    0.0000 O   0  0  0  0  0  0  0  0  0  0  0  0
  1  2  1  0
  2  3  1  0
  3  4  1  0
  4  5  1  0
  5  6  1  0
  2  7  1  6
  7  8  2  0
  7  9  1  0
  6  1  1  0
M  END
>  <rName>  (4596) 
morpholine-3-CO2H_S

>  <PQ_SYMBOL>  (4596) 
morpholine-3-CO2H_S

>  <FULL_NAME>  (4596) 
(S)-3-carboxymorpholine

>  <IUPAC_CONDENSED>  (4596) 
morpholine-3-CO2H(S)

>  <IUPAC>  (4596) 
(3S)-morpholine-3-carboxylic acid

>  <TYPE>  (4596) 
Backbone

>  <CLASS>  (4596) 
alpha

>  <ANALOG>  (4596) 
Pro

>  <MOL_WT>  (4596) 
131.131

>  <LOGP>  (4596) 
-0.9406000000000001

>  <TPSA>  (4596) 
58.56

>  <POPULARITY>  (4596) 
12.3

>  <PROTECTED>  (4596) 
TRUE

>  <SMILES>  (4596) 
N1[C@@H](COCC1)C(=O)O

>  <INCHIKEY>  (4596) 
JUNOWSHJELIDQP-BYPYZUCNSA-N

$$$$
morpholinoacetyl
     RDKit          2D

 10 10  0  0  0  0  0  0  0  0999 V2000
   -3.0048   -0.4910    0.0000 O   0  0  0  0  0  0  0  0  0  0  0  0
   -2.7213    0.9820    0.0000 C   0  0  0  0  0  0  0  0  0  0  0  0
   -1.3040    1.4730    0.0000 C   0  0  0  0  0  0  0  0  0  0  0  0
   -0.1701    0.4910    0.0000 N   0  0  0  0  0  0  0  0  0  0  0  0
   -0.4536   -0.9820    0.0000 C   0  0  0  0  0  0  0  0  0  0  0  0
   -1.8709   -1.4730    0.0000 C   0  0  0  0  0  0  0  0  0  0  0  0
    1.2473    0.9820    0.0000 C   0  0  0  0  0  0  0  0  0  0  0  0
    2.3812   -0.0000    0.0000 C   0  0  0  0  0  0  0  0  0  0  0  0
    2.0977   -1.4730    0.0000 O   0  0  0  0  0  0  0  0  0  0  0  0
    3.7985    0.4910    0.0000 O   0  0  0  0  0  0  0  0  0  0  0  0
  1  2  1  0
  2  3  1  0
  3  4  1  0
  4  5  1  0
  5  6  1  0
  4  7  1  0
  7  8  1  0
  8  9  2  0
  8 10  1  0
  6  1  1  0
M  END
>  <rName>  (4597) 
morpholinoacetyl

>  <PQ_SYMBOL>  (4597) 
morpholinoacetyl

>  <FULL_NAME>  (4597) 
4-Morpholineacetic Acid

>  <IUPAC_CONDENSED>  (4597) 
morpholinoacetyl

>  <IUPAC>  (4597) 
2-(morpholin-4-yl)acetic acid

>  <TYPE>  (4597) 
N-term cap

>  <CLASS>  (4597) 
n_cap

>  <ANALOG>  (4597) 
X

>  <MOL_WT>  (4597) 
145.158

>  <LOGP>  (4597) 
-0.5968000000000002

>  <TPSA>  (4597) 
49.769999999999996

>  <POPULARITY>  (4597) 
24.0

>  <PROTECTED>  (4597) 
FALSE

>  <SMILES>  (4597) 
O1CCN(CC1)CC(=O)O

>  <INCHIKEY>  (4597) 
VIWZVFVJPXTXPA-UHFFFAOYSA-N

$$$$
morpholinocarbonyl-Leu
     RDKit          2D

 17 17  0  0  0  0  0  0  0  0999 V2000
   -5.2768   -0.7465    0.0000 O   0  0  0  0  0  0  0  0  0  0  0  0
   -4.8794    0.6999    0.0000 C   0  0  0  0  0  0  0  0  0  0  0  0
   -3.4281    1.0790    0.0000 C   0  0  0  0  0  0  0  0  0  0  0  0
   -2.3741    0.0117    0.0000 N   0  0  0  0  0  0  0  0  0  0  0  0
   -2.7715   -1.4347    0.0000 C   0  0  0  0  0  0  0  0  0  0  0  0
   -4.2228   -1.8138    0.0000 C   0  0  0  0  0  0  0  0  0  0  0  0
   -0.9228    0.3908    0.0000 C   0  0  0  0  0  0  0  0  0  0  0  0
   -0.5255    1.8372    0.0000 O   0  0  0  0  0  0  0  0  0  0  0  0
    0.1311   -0.6766    0.0000 N   0  0  0  0  0  0  0  0  0  0  0  0
    1.5824   -0.2975    0.0000 C   0  0  0  0  0  0  0  0  0  0  0  0
    2.6364   -1.3648    0.0000 C   0  0  0  0  0  0  0  0  0  0  0  0
    4.0877   -0.9857    0.0000 C   0  0  0  0  0  0  0  0  0  0  0  0
    5.1416   -2.0530    0.0000 C   0  0  0  0  0  0  0  0  0  0  0  0
    4.4850    0.4607    0.0000 C   0  0  0  0  0  0  0  0  0  0  0  0
    1.9798    1.1490    0.0000 C   0  0  0  0  0  0  0  0  0  0  0  0
    0.9258    2.2163    0.0000 O   0  0  0  0  0  0  0  0  0  0  0  0
    3.4311    1.5280    0.0000 O   0  0  0  0  0  0  0  0  0  0  0  0
  1  2  1  0
  2  3  1  0
  3  4  1  0
  4  5  1  0
  5  6  1  0
  4  7  1  0
  7  8  2  0
  7  9  1  0
  9 10  1  0
 10 11  1  6
 11 12  1  0
 12 13  1  0
 12 14  1  0
 10 15  1  0
 15 16  2  0
 15 17  1  0
  6  1  1  0
M  END
>  <rName>  (4598) 
morpholinocarbonyl-Leu

>  <PQ_SYMBOL>  (4598) 
morpholinocarbonyl-Leu

>  <FULL_NAME>  (4598) 
(2S)-4-methyl-2-(morpholine-4-carbonylamino)pentanoic acid

>  <IUPAC_CONDENSED>  (4598) 
morpholinocarbonyl-Leu

>  <IUPAC>  (4598) 
(2S)-4-methyl-2-(morpholin-4-ylcarbonylamino)pentanoic acid

>  <TYPE>  (4598) 
N-term cap

>  <CLASS>  (4598) 
n_cap

>  <ANALOG>  (4598) 
X

>  <MOL_WT>  (4598) 
244.29099999999997

>  <LOGP>  (4598) 
0.5274999999999996

>  <TPSA>  (4598) 
78.87

>  <POPULARITY>  (4598) 
7.9

>  <PROTECTED>  (4598) 
TRUE

>  <SMILES>  (4598) 
O1CCN(CC1)C(=O)N[C@@H](CC(C)C)C(=O)O

>  <INCHIKEY>  (4598) 
NZMAANDPAHYSGM-VIFPVBQESA-N

$$$$
nTyr
     RDKit          2D

 12 12  0  0  0  0  0  0  0  0999 V2000
   -2.1139   -2.0272    0.0000 N   0  0  0  0  0  0  0  0  0  0  0  0
   -1.6041   -0.6165    0.0000 C   0  0  0  0  0  0  0  0  0  0  0  0
   -0.1275   -0.3527    0.0000 C   0  0  0  0  0  0  0  0  0  0  0  0
    0.3824    1.0580    0.0000 C   0  0  0  0  0  0  0  0  0  0  0  0
    1.8590    1.3219    0.0000 C   0  0  0  0  0  0  0  0  0  0  0  0
    2.8258    0.1750    0.0000 C   0  0  0  0  0  0  0  0  0  0  0  0
    4.3024    0.4388    0.0000 O   0  0  0  0  0  0  0  0  0  0  0  0
    2.3159   -1.2357    0.0000 C   0  0  0  0  0  0  0  0  0  0  0  0
    0.8393   -1.4995    0.0000 C   0  0  0  0  0  0  0  0  0  0  0  0
   -2.5709    0.5304    0.0000 C   0  0  0  0  0  0  0  0  0  0  0  0
   -2.0610    1.9411    0.0000 O   0  0  0  0  0  0  0  0  0  0  0  0
   -4.0475    0.2665    0.0000 O   0  0  0  0  0  0  0  0  0  0  0  0
  2  1  1  6
  2  3  1  0
  3  4  1  0
  4  5  2  0
  5  6  1  0
  6  7  1  0
  6  8  2  0
  8  9  1  0
  2 10  1  0
 10 11  2  0
 10 12  1  0
  9  3  2  0
M  END
>  <rName>  (4599) 
nTyr

>  <PQ_SYMBOL>  (4599) 
nTyr

>  <FULL_NAME>  (4599) 
4-Hydroxyphenylglycine, Oxfenicine

>  <IUPAC_CONDENSED>  (4599) 
nTyr

>  <IUPAC>  (4599) 
(2S)-2-amino-2-(4-hydroxyphenyl)acetic acid

>  <TYPE>  (4599) 
Backbone

>  <CLASS>  (4599) 
alpha

>  <ANALOG>  (4599) 
X

>  <MOL_WT>  (4599) 
167.16399999999996

>  <LOGP>  (4599) 
0.4766

>  <TPSA>  (4599) 
83.55

>  <POPULARITY>  (4599) 
25.2

>  <PROTECTED>  (4599) 
TRUE

>  <SMILES>  (4599) 
N[C@@H](c1(ccc(O)cc1))C(=O)O

>  <INCHIKEY>  (4599) 
LJCWONGJFPCTTL-ZETCQYMHSA-N

$$$$
octahydrocyclopentabpyrrole2S3aS6aS-2-CO2H
     RDKit          2D

 11 12  0  0  0  0  0  0  0  0999 V2000
    0.2516    1.2135    0.0000 N   0  0  0  0  0  0  0  0  0  0  0  0
    1.1333    0.0000    0.0000 C   0  0  0  0  0  0  0  0  0  0  0  0
    0.2516   -1.2135    0.0000 C   0  0  0  0  0  0  0  0  0  0  0  0
   -1.1750   -0.7500    0.0000 C   0  0  0  0  0  0  0  0  0  0  0  0
   -2.6016   -1.2135    0.0000 C   0  0  0  0  0  0  0  0  0  0  0  0
   -3.4832   -0.0000    0.0000 C   0  0  0  0  0  0  0  0  0  0  0  0
   -2.6016    1.2135    0.0000 C   0  0  0  0  0  0  0  0  0  0  0  0
   -1.1750    0.7500    0.0000 C   0  0  0  0  0  0  0  0  0  0  0  0
    2.6333    0.0000    0.0000 C   0  0  0  0  0  0  0  0  0  0  0  0
    3.3833    1.2990    0.0000 O   0  0  0  0  0  0  0  0  0  0  0  0
    3.3833   -1.2990    0.0000 O   0  0  0  0  0  0  0  0  0  0  0  0
  1  2  1  0
  2  3  1  0
  4  3  1  6
  4  5  1  0
  5  6  1  0
  6  7  1  0
  8  7  1  6
  2  9  1  6
  9 10  2  0
  9 11  1  0
  8  1  1  0
  8  4  1  0
M  END
>  <rName>  (4600) 
octahydrocyclopentabpyrrole2S3aS6aS-2-CO2H

>  <PQ_SYMBOL>  (4600) 
octahydrocyclopentabpyrrole2S3aS6aS-2-CO2H

>  <FULL_NAME>  (4600) 
(2s,3as,6as)-octahydrocyclopenta[b]pyrrole-2-carboxylic acid

>  <IUPAC_CONDENSED>  (4600) 
octahydrocyclopenta[b]pyrrole(2S,3aS,6aS)-2-CO2H

>  <IUPAC>  (4600) 
(1S,3S,5S)-2-azabicyclo[3.3.0]octane-3-carboxylic acid

>  <TYPE>  (4600) 
Backbone

>  <CLASS>  (4600) 
alpha

>  <ANALOG>  (4600) 
Pro

>  <MOL_WT>  (4600) 
155.197

>  <LOGP>  (4600) 
0.6015999999999997

>  <TPSA>  (4600) 
49.33

>  <POPULARITY>  (4600) 
7.0

>  <PROTECTED>  (4600) 
TRUE

>  <SMILES>  (4600) 
N1[C@@H](C[C@@H]2(CCC[C@H]12))C(=O)O

>  <INCHIKEY>  (4600) 
OQHKEWIEKYQINX-ACZMJKKPSA-N

$$$$
octahydrocyclopropa34pyrrolo35-bpyrazine1aS4S6aR7aS-4-CO2H
     RDKit          2D

 13 15  0  0  0  0  0  0  0  0999 V2000
   -1.3754    1.5235    0.0000 N   0  0  0  0  0  0  0  0  0  0  0  0
   -1.6379    0.0466    0.0000 C   0  0  0  0  0  0  0  0  0  0  0  0
   -0.4902   -0.9191    0.0000 C   0  0  0  0  0  0  0  0  0  0  0  0
    0.9201   -0.4081    0.0000 N   0  0  0  0  0  0  0  0  0  0  0  0
    1.1826    1.0688    0.0000 C   0  0  0  0  0  0  0  0  0  0  0  0
    0.0349    2.0346    0.0000 C   0  0  0  0  0  0  0  0  0  0  0  0
    2.6683    1.2755    0.0000 C   0  0  0  0  0  0  0  0  0  0  0  0
    3.3240   -0.0736    0.0000 C   0  0  0  0  0  0  0  0  0  0  0  0
    3.6848   -1.5296    0.0000 C   0  0  0  0  0  0  0  0  0  0  0  0
    2.2435   -1.1141    0.0000 C   0  0  0  0  0  0  0  0  0  0  0  0
   -3.0482   -0.4644    0.0000 C   0  0  0  0  0  0  0  0  0  0  0  0
   -3.3107   -1.9413    0.0000 O   0  0  0  0  0  0  0  0  0  0  0  0
   -4.1959    0.5013    0.0000 O   0  0  0  0  0  0  0  0  0  0  0  0
  1  2  1  0
  2  3  1  0
  3  4  1  0
  4  5  1  0
  5  6  1  1
  5  7  1  0
  8  7  1  6
  8  9  1  0
 10  9  1  6
  2 11  1  1
 11 12  2  0
 11 13  1  0
  6  1  1  0
 10  8  1  0
 10  4  1  0
M  END
>  <rName>  (4601) 
octahydrocyclopropa34pyrrolo35-bpyrazine1aS4S6aR7aS-4-CO2H

>  <PQ_SYMBOL>  (4601) 
octahydrocyclopropa34pyrrolo35-bpyrazine1aS4S6aR7aS-4-CO2H

>  <FULL_NAME>  (4601) 
(1aS,4S,6aR,7aS)-octahydro-1H-cyclopropa[4,5]pyrrolo[1,2-a]pyrazine-4-carboxylic acid

>  <IUPAC_CONDENSED>  (4601) 
octahydrocyclopropa[3,4]pyrrolo[3,5-b]pyrazine(1aS,4S,6aR,7aS)-4-CO2H

>  <IUPAC>  (4601) 
(2S,4S,6R,9S)-1,8-diazatricyclo[4.4.0.0^{2,4}]decane-9-carboxylic acid

>  <TYPE>  (4601) 
N-term cap

>  <CLASS>  (4601) 
n_cap

>  <ANALOG>  (4601) 
X

>  <MOL_WT>  (4601) 
182.22299999999998

>  <LOGP>  (4601) 
-0.49440000000000023

>  <TPSA>  (4601) 
52.57000000000001

>  <POPULARITY>  (4601) 
1.2

>  <PROTECTED>  (4601) 
FALSE

>  <SMILES>  (4601) 
N1[C@@H](CN3([C@@H](C1)C[C@@H]2(C[C@@H]23)))C(=O)O

>  <INCHIKEY>  (4601) 
RLXWDLCPQAWTPR-NGJRWZKOSA-N

$$$$
oxan-2-yl_4amino_Ac
     RDKit          2D

 11 11  0  0  0  0  0  0  0  0999 V2000
    3.7199   -1.2782    0.0000 N   0  0  0  0  0  0  0  0  0  0  0  0
    2.4599   -0.4643    0.0000 C   0  0  0  0  0  0  0  0  0  0  0  0
    1.1250   -1.1485    0.0000 C   0  0  0  0  0  0  0  0  0  0  0  0
   -0.1350   -0.3346    0.0000 C   0  0  0  0  0  0  0  0  0  0  0  0
   -0.0601    1.1635    0.0000 O   0  0  0  0  0  0  0  0  0  0  0  0
    1.2748    1.8478    0.0000 C   0  0  0  0  0  0  0  0  0  0  0  0
    2.5347    1.0339    0.0000 C   0  0  0  0  0  0  0  0  0  0  0  0
   -1.4698   -1.0188    0.0000 C   0  0  0  0  0  0  0  0  0  0  0  0
   -2.7298   -0.2049    0.0000 C   0  0  0  0  0  0  0  0  0  0  0  0
   -2.6549    1.2932    0.0000 O   0  0  0  0  0  0  0  0  0  0  0  0
   -4.0647   -0.8891    0.0000 O   0  0  0  0  0  0  0  0  0  0  0  0
  1  2  1  0
  2  3  1  0
  3  4  1  0
  4  5  1  0
  5  6  1  0
  6  7  1  0
  4  8  1  0
  8  9  1  0
  9 10  2  0
  9 11  1  0
  7  2  1  0
M  END
>  <rName>  (4602) 
oxan-2-yl_4amino_Ac

>  <PQ_SYMBOL>  (4602) 
oxan-2-yl_4amino_Ac

>  <FULL_NAME>  (4602) 
2-(4-Aminooxan-2-yl)acetic acid

>  <IUPAC_CONDENSED>  (4602) 
oxan-2-yl(4-amino)Ac

>  <IUPAC>  (4602) 
2-(4-amino-oxan-2-yl)acetic acid

>  <TYPE>  (4602) 
Backbone

>  <CLASS>  (4602) 
delta

>  <ANALOG>  (4602) 
Ser

>  <MOL_WT>  (4602) 
159.185

>  <LOGP>  (4602) 
-0.03260000000000046

>  <TPSA>  (4602) 
72.55

>  <POPULARITY>  (4602) 
4.2

>  <PROTECTED>  (4602) 
TRUE

>  <SMILES>  (4602) 
NC1CC(OCC1)CC(=O)O

>  <INCHIKEY>  (4602) 
NYLDYIWBAGCYDN-UHFFFAOYSA-N

$$$$
oxan-4-yl_4aminomethyl_Ac
     RDKit          2D

 12 12  0  0  0  0  0  0  0  0999 V2000
    0.4929   -2.3374    0.0000 N   0  0  0  0  0  0  0  0  0  0  0  0
    0.8312   -0.8760    0.0000 C   0  0  0  0  0  0  0  0  0  0  0  0
   -0.2652    0.1477    0.0000 C   0  0  0  0  0  0  0  0  0  0  0  0
   -1.0830   -1.1098    0.0000 C   0  0  0  0  0  0  0  0  0  0  0  0
   -2.5808   -1.0304    0.0000 C   0  0  0  0  0  0  0  0  0  0  0  0
   -3.2610    0.3065    0.0000 O   0  0  0  0  0  0  0  0  0  0  0  0
   -2.4433    1.5640    0.0000 C   0  0  0  0  0  0  0  0  0  0  0  0
   -0.9454    1.4846    0.0000 C   0  0  0  0  0  0  0  0  0  0  0  0
    0.9333    1.0497    0.0000 C   0  0  0  0  0  0  0  0  0  0  0  0
    2.3137    0.4627    0.0000 C   0  0  0  0  0  0  0  0  0  0  0  0
    2.4956   -1.0262    0.0000 O   0  0  0  0  0  0  0  0  0  0  0  0
    3.5122    1.3647    0.0000 O   0  0  0  0  0  0  0  0  0  0  0  0
  1  2  1  0
  2  3  1  0
  3  4  1  0
  4  5  1  0
  5  6  1  0
  6  7  1  0
  7  8  1  0
  3  9  1  0
  9 10  1  0
 10 11  2  0
 10 12  1  0
  8  3  1  0
M  END
>  <rName>  (4603) 
oxan-4-yl_4aminomethyl_Ac

>  <PQ_SYMBOL>  (4603) 
oxan-4-yl_4aminomethyl_Ac

>  <FULL_NAME>  (4603) 
2H-Pyran-4-acetic acid, 4-(aminomethyl)tetrahydro-

>  <IUPAC_CONDENSED>  (4603) 
oxan-4-yl(4-aminomethyl)Ac

>  <IUPAC>  (4603) 
2-(4-(aminomethyl)-oxan-4-yl)acetic acid

>  <TYPE>  (4603) 
Backbone

>  <CLASS>  (4603) 
gamma

>  <ANALOG>  (4603) 
Ser

>  <MOL_WT>  (4603) 
173.212

>  <LOGP>  (4603) 
0.21659999999999963

>  <TPSA>  (4603) 
72.55

>  <POPULARITY>  (4603) 
6.2

>  <PROTECTED>  (4603) 
TRUE

>  <SMILES>  (4603) 
NCC1(CCOCC1)CC(=O)O

>  <INCHIKEY>  (4603) 
DMBZPJRQJHDESH-UHFFFAOYSA-N

$$$$
oxazolidine4S-4-CO2H
     RDKit          2D

  8  8  0  0  0  0  0  0  0  0999 V2000
   -0.8342   -1.2135    0.0000 N   0  0  0  0  0  0  0  0  0  0  0  0
    0.0475   -0.0000    0.0000 C   0  0  0  0  0  0  0  0  0  0  0  0
   -0.8342    1.2135    0.0000 C   0  0  0  0  0  0  0  0  0  0  0  0
   -2.2608    0.7500    0.0000 O   0  0  0  0  0  0  0  0  0  0  0  0
   -2.2608   -0.7500    0.0000 C   0  0  0  0  0  0  0  0  0  0  0  0
    1.5475    0.0000    0.0000 C   0  0  0  0  0  0  0  0  0  0  0  0
    2.2975    1.2990    0.0000 O   0  0  0  0  0  0  0  0  0  0  0  0
    2.2975   -1.2990    0.0000 O   0  0  0  0  0  0  0  0  0  0  0  0
  1  2  1  0
  2  3  1  0
  3  4  1  0
  4  5  1  0
  2  6  1  1
  6  7  2  0
  6  8  1  0
  5  1  1  0
M  END
>  <rName>  (4604) 
oxazolidine4S-4-CO2H

>  <PQ_SYMBOL>  (4604) 
oxazolidine4S-4-CO2H

>  <FULL_NAME>  (4604) 
(S)-oxazolidine-4-carboxylic acid

>  <IUPAC_CONDENSED>  (4604) 
oxazolidine(4S)-4-CO2H

>  <IUPAC>  (4604) 
(4S)-1,3-oxazolidine-4-carboxylic acid

>  <TYPE>  (4604) 
Backbone

>  <CLASS>  (4604) 
alpha

>  <ANALOG>  (4604) 
Pro

>  <MOL_WT>  (4604) 
117.10399999999998

>  <LOGP>  (4604) 
-0.9831000000000001

>  <TPSA>  (4604) 
58.56

>  <POPULARITY>  (4604) 
2.2

>  <PROTECTED>  (4604) 
TRUE

>  <SMILES>  (4604) 
N1[C@@H](COC1)C(=O)O

>  <INCHIKEY>  (4604) 
XFZIPCXDWCWTCH-VKHMYHEASA-N

$$$$
oxolan-3-yl_3amino_Ac
     RDKit          2D

 10 10  0  0  0  0  0  0  0  0999 V2000
    0.4848   -1.1867    0.0000 N   0  0  0  0  0  0  0  0  0  0  0  0
   -0.5004   -0.0556    0.0000 C   0  0  0  0  0  0  0  0  0  0  0  0
   -1.2289    1.2556    0.0000 C   0  0  0  0  0  0  0  0  0  0  0  0
   -2.7010    0.9680    0.0000 C   0  0  0  0  0  0  0  0  0  0  0  0
   -2.8824   -0.5210    0.0000 O   0  0  0  0  0  0  0  0  0  0  0  0
   -1.5223   -1.1536    0.0000 C   0  0  0  0  0  0  0  0  0  0  0  0
    0.7275    0.8059    0.0000 C   0  0  0  0  0  0  0  0  0  0  0  0
    2.0876    0.1733    0.0000 C   0  0  0  0  0  0  0  0  0  0  0  0
    2.2197   -1.3209    0.0000 O   0  0  0  0  0  0  0  0  0  0  0  0
    3.3155    1.0349    0.0000 O   0  0  0  0  0  0  0  0  0  0  0  0
  1  2  1  0
  2  3  1  0
  3  4  1  0
  4  5  1  0
  5  6  1  0
  2  7  1  0
  7  8  1  0
  8  9  2  0
  8 10  1  0
  6  2  1  0
M  END
>  <rName>  (4605) 
oxolan-3-yl_3amino_Ac

>  <PQ_SYMBOL>  (4605) 
oxolan-3-yl_3amino_Ac

>  <FULL_NAME>  (4605) 
2-(3-Aminooxolan-3-yl)acetic acid

>  <IUPAC_CONDENSED>  (4605) 
oxolan-3-yl(3-amino)Ac

>  <IUPAC>  (4605) 
2-(3-aminooxolan-3-yl)acetic acid

>  <TYPE>  (4605) 
Backbone

>  <CLASS>  (4605) 
beta

>  <ANALOG>  (4605) 
Ser

>  <MOL_WT>  (4605) 
145.15800000000002

>  <LOGP>  (4605) 
-0.42110000000000053

>  <TPSA>  (4605) 
72.55

>  <POPULARITY>  (4605) 
4.4

>  <PROTECTED>  (4605) 
TRUE

>  <SMILES>  (4605) 
NC1(CCOC1)CC(=O)O

>  <INCHIKEY>  (4605) 
OJYRALLYAPWPTP-UHFFFAOYSA-N

$$$$
oxolan-3-yl_4amino_Ac
     RDKit          2D

 10 10  0  0  0  0  0  0  0  0999 V2000
    0.0496   -1.9625    0.0000 N   0  0  0  0  0  0  0  0  0  0  0  0
   -0.8826   -0.7874    0.0000 C   0  0  0  0  0  0  0  0  0  0  0  0
   -0.4798    0.6575    0.0000 C   0  0  0  0  0  0  0  0  0  0  0  0
   -1.7295    1.4871    0.0000 C   0  0  0  0  0  0  0  0  0  0  0  0
   -2.9047    0.5550    0.0000 O   0  0  0  0  0  0  0  0  0  0  0  0
   -2.3813   -0.8508    0.0000 C   0  0  0  0  0  0  0  0  0  0  0  0
    0.9259    1.1809    0.0000 C   0  0  0  0  0  0  0  0  0  0  0  0
    2.0821    0.2253    0.0000 C   0  0  0  0  0  0  0  0  0  0  0  0
    1.8325   -1.2538    0.0000 O   0  0  0  0  0  0  0  0  0  0  0  0
    3.4878    0.7487    0.0000 O   0  0  0  0  0  0  0  0  0  0  0  0
  1  2  1  0
  2  3  1  0
  3  4  1  0
  4  5  1  0
  5  6  1  0
  3  7  1  0
  7  8  1  0
  8  9  2  0
  8 10  1  0
  6  2  1  0
M  END
>  <rName>  (4606) 
oxolan-3-yl_4amino_Ac

>  <PQ_SYMBOL>  (4606) 
oxolan-3-yl_4amino_Ac

>  <FULL_NAME>  (4606) 
2-(4-Aminooxolan-3-yl)acetic acid

>  <IUPAC_CONDENSED>  (4606) 
oxolan-3-yl(4-amino)Ac

>  <IUPAC>  (4606) 
2-(4-aminooxolan-3-yl)acetic acid

>  <TYPE>  (4606) 
Backbone

>  <CLASS>  (4606) 
gamma

>  <ANALOG>  (4606) 
Ser

>  <MOL_WT>  (4606) 
145.15800000000002

>  <LOGP>  (4606) 
-0.5652000000000004

>  <TPSA>  (4606) 
72.55

>  <POPULARITY>  (4606) 
5.6

>  <PROTECTED>  (4606) 
TRUE

>  <SMILES>  (4606) 
NC1C(COC1)CC(=O)O

>  <INCHIKEY>  (4606) 
MZWWCBZVGFLXKA-UHFFFAOYSA-N

$$$$
oxolan-3-yl_5aminomethyl_Ac
     RDKit          2D

 11 11  0  0  0  0  0  0  0  0999 V2000
   -4.3211   -0.6926    0.0000 N   0  0  0  0  0  0  0  0  0  0  0  0
   -2.9022   -1.1792    0.0000 C   0  0  0  0  0  0  0  0  0  0  0  0
   -1.7714   -0.1937    0.0000 C   0  0  0  0  0  0  0  0  0  0  0  0
   -0.3094   -0.5294    0.0000 C   0  0  0  0  0  0  0  0  0  0  0  0
    0.4616    0.7573    0.0000 C   0  0  0  0  0  0  0  0  0  0  0  0
   -0.5239    1.8882    0.0000 C   0  0  0  0  0  0  0  0  0  0  0  0
   -1.9039    1.3004    0.0000 O   0  0  0  0  0  0  0  0  0  0  0  0
    1.9557    0.8899    0.0000 C   0  0  0  0  0  0  0  0  0  0  0  0
    2.8176   -0.3378    0.0000 C   0  0  0  0  0  0  0  0  0  0  0  0
    2.1853   -1.6980    0.0000 O   0  0  0  0  0  0  0  0  0  0  0  0
    4.3117   -0.2052    0.0000 O   0  0  0  0  0  0  0  0  0  0  0  0
  1  2  1  0
  2  3  1  0
  3  4  1  0
  4  5  1  0
  5  6  1  0
  6  7  1  0
  5  8  1  0
  8  9  1  0
  9 10  2  0
  9 11  1  0
  7  3  1  0
M  END
>  <rName>  (4607) 
oxolan-3-yl_5aminomethyl_Ac

>  <PQ_SYMBOL>  (4607) 
oxolan-3-yl_5aminomethyl_Ac

>  <FULL_NAME>  (4607) 
2-[5-(Aminomethyl)oxolan-3-yl]acetic acid

>  <IUPAC_CONDENSED>  (4607) 
oxolan-3-yl(5-aminomethyl)Ac

>  <IUPAC>  (4607) 
2-(5-(aminomethyl)oxolan-3-yl)acetic acid

>  <TYPE>  (4607) 
Backbone

>  <CLASS>  (4607) 
epsilon

>  <ANALOG>  (4607) 
Ser

>  <MOL_WT>  (4607) 
159.185

>  <LOGP>  (4607) 
-0.17510000000000053

>  <TPSA>  (4607) 
72.55

>  <POPULARITY>  (4607) 
5.1

>  <PROTECTED>  (4607) 
TRUE

>  <SMILES>  (4607) 
NCC1CC(CO1)CC(=O)O

>  <INCHIKEY>  (4607) 
GVPBPGUPXLOORE-UHFFFAOYSA-N

$$$$
phthalimidoacetyl
     RDKit          2D

 15 16  0  0  0  0  0  0  0  0999 V2000
    4.0402   -0.1103    0.0000 C   0  0  0  0  0  0  0  0  0  0  0  0
    2.9644   -1.1556    0.0000 C   0  0  0  0  0  0  0  0  0  0  0  0
    1.5212   -0.7466    0.0000 C   0  0  0  0  0  0  0  0  0  0  0  0
    0.2516   -1.5454    0.0000 C   0  0  0  0  0  0  0  0  0  0  0  0
    0.1515   -3.0420    0.0000 O   0  0  0  0  0  0  0  0  0  0  0  0
   -0.9004   -0.5847    0.0000 N   0  0  0  0  0  0  0  0  0  0  0  0
   -0.3428    0.8078    0.0000 C   0  0  0  0  0  0  0  0  0  0  0  0
   -1.1416    2.0774    0.0000 O   0  0  0  0  0  0  0  0  0  0  0  0
    1.1538    0.7077    0.0000 C   0  0  0  0  0  0  0  0  0  0  0  0
    2.2297    1.7530    0.0000 C   0  0  0  0  0  0  0  0  0  0  0  0
    3.6728    1.3440    0.0000 C   0  0  0  0  0  0  0  0  0  0  0  0
   -2.3548   -0.9521    0.0000 C   0  0  0  0  0  0  0  0  0  0  0  0
   -3.4001    0.1237    0.0000 C   0  0  0  0  0  0  0  0  0  0  0  0
   -2.9910    1.5669    0.0000 O   0  0  0  0  0  0  0  0  0  0  0  0
   -4.8544   -0.2436    0.0000 O   0  0  0  0  0  0  0  0  0  0  0  0
  1  2  1  0
  2  3  2  0
  3  4  1  0
  4  5  2  0
  4  6  1  0
  6  7  1  0
  7  8  2  0
  7  9  1  0
  9 10  2  0
 10 11  1  0
  6 12  1  0
 12 13  1  0
 13 14  2  0
 13 15  1  0
  9  3  1  0
 11  1  2  0
M  END
>  <rName>  (4608) 
phthalimidoacetyl

>  <PQ_SYMBOL>  (4608) 
phthalimidoacetyl

>  <FULL_NAME>  (4608) 
2-(1,3-dioxoisoindol-2-yl)acetic acid

>  <IUPAC_CONDENSED>  (4608) 
phthalimidoacetyl

>  <IUPAC>  (4608) 
2-(7,9-dioxo-8-azabicyclo[4.3.0]nona-1(6),2,4-trien-8-yl)acetic acid

>  <TYPE>  (4608) 
N-term cap

>  <CLASS>  (4608) 
n_cap

>  <ANALOG>  (4608) 
X

>  <MOL_WT>  (4608) 
205.16899999999998

>  <LOGP>  (4608) 
0.3672

>  <TPSA>  (4608) 
74.68

>  <POPULARITY>  (4608) 
14.2

>  <PROTECTED>  (4608) 
TRUE

>  <SMILES>  (4608) 
c2cc1C(=O)N(C(=O)c1cc2)CC(=O)O

>  <INCHIKEY>  (4608) 
WQINSVOOIJDOLJ-UHFFFAOYSA-N

$$$$
piperazino4-CH2CO2Hacetyl
     RDKit          2D

 14 14  0  0  0  0  0  0  0  0999 V2000
   -5.3860   -0.4910    0.0000 O   0  0  0  0  0  0  0  0  0  0  0  0
   -3.9686    0.0000    0.0000 C   0  0  0  0  0  0  0  0  0  0  0  0
   -3.6852    1.4730    0.0000 O   0  0  0  0  0  0  0  0  0  0  0  0
   -2.8347   -0.9820    0.0000 C   0  0  0  0  0  0  0  0  0  0  0  0
   -1.4174   -0.4910    0.0000 N   0  0  0  0  0  0  0  0  0  0  0  0
   -1.1339    0.9820    0.0000 C   0  0  0  0  0  0  0  0  0  0  0  0
    0.2835    1.4730    0.0000 C   0  0  0  0  0  0  0  0  0  0  0  0
    1.4174    0.4910    0.0000 N   0  0  0  0  0  0  0  0  0  0  0  0
    1.1339   -0.9820    0.0000 C   0  0  0  0  0  0  0  0  0  0  0  0
   -0.2835   -1.4730    0.0000 C   0  0  0  0  0  0  0  0  0  0  0  0
    2.8347    0.9820    0.0000 C   0  0  0  0  0  0  0  0  0  0  0  0
    3.9686   -0.0000    0.0000 C   0  0  0  0  0  0  0  0  0  0  0  0
    3.6852   -1.4730    0.0000 O   0  0  0  0  0  0  0  0  0  0  0  0
    5.3860    0.4910    0.0000 O   0  0  0  0  0  0  0  0  0  0  0  0
  1  2  1  0
  2  3  2  0
  2  4  1  0
  4  5  1  0
  5  6  1  0
  6  7  1  0
  7  8  1  0
  8  9  1  0
  9 10  1  0
  8 11  1  0
 11 12  1  0
 12 13  2  0
 12 14  1  0
 10  5  1  0
M  END
>  <rName>  (4609) 
piperazino4-CH2CO2Hacetyl

>  <PQ_SYMBOL>  (4609) 
piperazino4-CH2CO2Hacetyl

>  <FULL_NAME>  (4609) 
2-[4-(carboxymethyl)piperazin-1-yl]acetic acid

>  <IUPAC_CONDENSED>  (4609) 
piperazino(4-CH2CO2H)acetyl

>  <IUPAC>  (4609) 
2-(4-(2-hydroxy-2-oxoethyl)piperazin-1-yl)acetic acid

>  <TYPE>  (4609) 
N-term cap

>  <CLASS>  (4609) 
n_cap

>  <ANALOG>  (4609) 
X

>  <MOL_WT>  (4609) 
202.20999999999998

>  <LOGP>  (4609) 
-1.2267999999999981

>  <TPSA>  (4609) 
81.08

>  <POPULARITY>  (4609) 
7.0

>  <PROTECTED>  (4609) 
TRUE

>  <SMILES>  (4609) 
OC(=O)CN1CCN(CC1)CC(=O)O

>  <INCHIKEY>  (4609) 
JERMFLFKXHHROS-UHFFFAOYSA-N

$$$$
piperazino_4Bn
     RDKit          2D

 13 14  0  0  0  0  0  0  0  0999 V2000
   -3.8971   -0.8654    0.0000 N   0  0  0  0  0  0  0  0  0  0  0  0
   -3.8971    0.6346    0.0000 C   0  0  0  0  0  0  0  0  0  0  0  0
   -2.5981    1.3846    0.0000 C   0  0  0  0  0  0  0  0  0  0  0  0
   -1.2990    0.6346    0.0000 N   0  0  0  0  0  0  0  0  0  0  0  0
   -1.2990   -0.8654    0.0000 C   0  0  0  0  0  0  0  0  0  0  0  0
   -2.5981   -1.6154    0.0000 C   0  0  0  0  0  0  0  0  0  0  0  0
   -0.0000    1.3846    0.0000 C   0  0  0  0  0  0  0  0  0  0  0  0
    1.2990    0.6346    0.0000 C   0  0  0  0  0  0  0  0  0  0  0  0
    1.2990   -0.8654    0.0000 C   0  0  0  0  0  0  0  0  0  0  0  0
    2.5981   -1.6154    0.0000 C   0  0  0  0  0  0  0  0  0  0  0  0
    3.8971   -0.8654    0.0000 C   0  0  0  0  0  0  0  0  0  0  0  0
    3.8971    0.6346    0.0000 C   0  0  0  0  0  0  0  0  0  0  0  0
    2.5981    1.3846    0.0000 C   0  0  0  0  0  0  0  0  0  0  0  0
  1  2  1  0
  2  3  1  0
  3  4  1  0
  4  5  1  0
  5  6  1  0
  4  7  1  0
  7  8  1  0
  8  9  2  0
  9 10  1  0
 10 11  2  0
 11 12  1  0
 12 13  2  0
 13  8  1  0
  6  1  1  0
M  END
>  <rName>  (4610) 
piperazino_4Bn

>  <PQ_SYMBOL>  (4610) 
piperazino_4Bn

>  <FULL_NAME>  (4610) 
1-Benzylpiperazine

>  <IUPAC_CONDENSED>  (4610) 
piperazino(4-Bn)

>  <IUPAC>  (4610) 
1-benzylpiperazine

>  <TYPE>  (4610) 
C-term cap

>  <CLASS>  (4610) 
c_cap

>  <ANALOG>  (4610) 
X

>  <MOL_WT>  (4610) 
176.263

>  <LOGP>  (4610) 
1.0917999999999994

>  <TPSA>  (4610) 
15.27

>  <POPULARITY>  (4610) 
16.2

>  <PROTECTED>  (4610) 
TRUE

>  <SMILES>  (4610) 
N2CCN(CC2)Cc1ccccc1

>  <INCHIKEY>  (4610) 
IQXXEPZFOOTTBA-UHFFFAOYSA-N

$$$$
piperazinoacetyl
     RDKit          2D

 10 10  0  0  0  0  0  0  0  0999 V2000
   -3.0048   -0.4910    0.0000 N   0  0  0  0  0  0  0  0  0  0  0  0
   -2.7213    0.9820    0.0000 C   0  0  0  0  0  0  0  0  0  0  0  0
   -1.3040    1.4730    0.0000 C   0  0  0  0  0  0  0  0  0  0  0  0
   -0.1701    0.4910    0.0000 N   0  0  0  0  0  0  0  0  0  0  0  0
   -0.4536   -0.9820    0.0000 C   0  0  0  0  0  0  0  0  0  0  0  0
   -1.8709   -1.4730    0.0000 C   0  0  0  0  0  0  0  0  0  0  0  0
    1.2473    0.9820    0.0000 C   0  0  0  0  0  0  0  0  0  0  0  0
    2.3812   -0.0000    0.0000 C   0  0  0  0  0  0  0  0  0  0  0  0
    2.0977   -1.4730    0.0000 O   0  0  0  0  0  0  0  0  0  0  0  0
    3.7985    0.4910    0.0000 O   0  0  0  0  0  0  0  0  0  0  0  0
  1  2  1  0
  2  3  1  0
  3  4  1  0
  4  5  1  0
  5  6  1  0
  4  7  1  0
  7  8  1  0
  8  9  2  0
  8 10  1  0
  6  1  1  0
M  END
>  <rName>  (4611) 
piperazinoacetyl

>  <PQ_SYMBOL>  (4611) 
piperazinoacetyl

>  <FULL_NAME>  (4611) 
2-piperazin-1-ylacetic acid

>  <IUPAC_CONDENSED>  (4611) 
piperazinoacetyl

>  <IUPAC>  (4611) 
2-(piperazin-1-yl)acetic acid

>  <TYPE>  (4611) 
N-term cap

>  <CLASS>  (4611) 
n_cap

>  <ANALOG>  (4611) 
X

>  <MOL_WT>  (4611) 
144.174

>  <LOGP>  (4611) 
-1.0237999999999992

>  <TPSA>  (4611) 
52.57000000000001

>  <POPULARITY>  (4611) 
16.1

>  <PROTECTED>  (4611) 
TRUE

>  <SMILES>  (4611) 
N1CCN(CC1)CC(=O)O

>  <INCHIKEY>  (4611) 
WRJZKSHNBALIGH-UHFFFAOYSA-N

$$$$
piperidin-3-ylAc
     RDKit          2D

 10 10  0  0  0  0  0  0  0  0999 V2000
    2.7213   -0.9820    0.0000 N   0  0  0  0  0  0  0  0  0  0  0  0
    1.3040   -1.4730    0.0000 C   0  0  0  0  0  0  0  0  0  0  0  0
    0.1701   -0.4910    0.0000 C   0  0  0  0  0  0  0  0  0  0  0  0
    0.4536    0.9820    0.0000 C   0  0  0  0  0  0  0  0  0  0  0  0
    1.8709    1.4730    0.0000 C   0  0  0  0  0  0  0  0  0  0  0  0
    3.0048    0.4910    0.0000 C   0  0  0  0  0  0  0  0  0  0  0  0
   -1.2473   -0.9820    0.0000 C   0  0  0  0  0  0  0  0  0  0  0  0
   -2.3812    0.0000    0.0000 C   0  0  0  0  0  0  0  0  0  0  0  0
   -2.0977    1.4730    0.0000 O   0  0  0  0  0  0  0  0  0  0  0  0
   -3.7985   -0.4910    0.0000 O   0  0  0  0  0  0  0  0  0  0  0  0
  1  2  1  0
  2  3  1  0
  3  4  1  0
  4  5  1  0
  5  6  1  0
  3  7  1  0
  7  8  1  0
  8  9  2  0
  8 10  1  0
  6  1  1  0
M  END
>  <rName>  (4612) 
piperidin-3-ylAc

>  <PQ_SYMBOL>  (4612) 
piperidin-3-ylAc

>  <FULL_NAME>  (4612) 
3-Piperidineacetic acid

>  <IUPAC_CONDENSED>  (4612) 
piperidin-3-ylAc

>  <IUPAC>  (4612) 
2-(piperidin-3-yl)acetic acid

>  <TYPE>  (4612) 
Backbone

>  <CLASS>  (4612) 
gamma

>  <ANALOG>  (4612) 
Pro

>  <MOL_WT>  (4612) 
143.186

>  <LOGP>  (4612) 
0.46069999999999983

>  <TPSA>  (4612) 
49.33

>  <POPULARITY>  (4612) 
11.8

>  <PROTECTED>  (4612) 
TRUE

>  <SMILES>  (4612) 
N1CC(CCC1)CC(=O)O

>  <INCHIKEY>  (4612) 
WKXRHAACRPUBIC-UHFFFAOYSA-N

$$$$
piperidin-3-ylAc_22diF
     RDKit          2D

 12 12  0  0  0  0  0  0  0  0999 V2000
    2.7500   -1.2990    0.0000 N   0  0  0  0  0  0  0  0  0  0  0  0
    1.2500   -1.2990    0.0000 C   0  0  0  0  0  0  0  0  0  0  0  0
    0.5000    0.0000    0.0000 C   0  0  0  0  0  0  0  0  0  0  0  0
    1.2500    1.2990    0.0000 C   0  0  0  0  0  0  0  0  0  0  0  0
    2.7500    1.2990    0.0000 C   0  0  0  0  0  0  0  0  0  0  0  0
    3.5000    0.0000    0.0000 C   0  0  0  0  0  0  0  0  0  0  0  0
   -1.0000    0.0000    0.0000 C   0  0  0  0  0  0  0  0  0  0  0  0
   -1.0000    1.5000    0.0000 F   0  0  0  0  0  0  0  0  0  0  0  0
   -1.0000   -1.5000    0.0000 F   0  0  0  0  0  0  0  0  0  0  0  0
   -2.5000    0.0000    0.0000 C   0  0  0  0  0  0  0  0  0  0  0  0
   -3.2500    1.2990    0.0000 O   0  0  0  0  0  0  0  0  0  0  0  0
   -3.2500   -1.2990    0.0000 O   0  0  0  0  0  0  0  0  0  0  0  0
  1  2  1  0
  2  3  1  0
  3  4  1  0
  4  5  1  0
  5  6  1  0
  3  7  1  0
  7  8  1  0
  7  9  1  0
  7 10  1  0
 10 11  2  0
 10 12  1  0
  6  1  1  0
M  END
>  <rName>  (4613) 
piperidin-3-ylAc_22diF

>  <PQ_SYMBOL>  (4613) 
piperidin-3-ylAc_22diF

>  <FULL_NAME>  (4613) 
2,2-Difluoro-2-(piperidin-3-yl)acetic acid

>  <IUPAC_CONDENSED>  (4613) 
piperidin-3-ylAc(2,2-diF)

>  <IUPAC>  (4613) 
2,2-difluoro-2-(piperidin-3-yl)acetic acid

>  <TYPE>  (4613) 
Backbone

>  <CLASS>  (4613) 
gamma

>  <ANALOG>  (4613) 
Pro

>  <MOL_WT>  (4613) 
179.166

>  <LOGP>  (4613) 
0.7059

>  <TPSA>  (4613) 
49.33

>  <POPULARITY>  (4613) 
3.2

>  <PROTECTED>  (4613) 
TRUE

>  <SMILES>  (4613) 
N1CC(CCC1)C(F)(F)C(=O)O

>  <INCHIKEY>  (4613) 
RNQWONMXDVCHSO-UHFFFAOYSA-N

$$$$
piperidin-3-ylAc_22diMe
     RDKit          2D

 12 12  0  0  0  0  0  0  0  0999 V2000
    2.7500   -1.2990    0.0000 N   0  0  0  0  0  0  0  0  0  0  0  0
    1.2500   -1.2990    0.0000 C   0  0  0  0  0  0  0  0  0  0  0  0
    0.5000    0.0000    0.0000 C   0  0  0  0  0  0  0  0  0  0  0  0
    1.2500    1.2990    0.0000 C   0  0  0  0  0  0  0  0  0  0  0  0
    2.7500    1.2990    0.0000 C   0  0  0  0  0  0  0  0  0  0  0  0
    3.5000    0.0000    0.0000 C   0  0  0  0  0  0  0  0  0  0  0  0
   -1.0000    0.0000    0.0000 C   0  0  0  0  0  0  0  0  0  0  0  0
   -1.0000   -1.5000    0.0000 C   0  0  0  0  0  0  0  0  0  0  0  0
   -1.0000    1.5000    0.0000 C   0  0  0  0  0  0  0  0  0  0  0  0
   -2.5000    0.0000    0.0000 C   0  0  0  0  0  0  0  0  0  0  0  0
   -3.2500    1.2990    0.0000 O   0  0  0  0  0  0  0  0  0  0  0  0
   -3.2500   -1.2990    0.0000 O   0  0  0  0  0  0  0  0  0  0  0  0
  1  2  1  0
  2  3  1  0
  3  4  1  0
  4  5  1  0
  5  6  1  0
  3  7  1  0
  7  8  1  0
  7  9  1  0
  7 10  1  0
 10 11  2  0
 10 12  1  0
  6  1  1  0
M  END
>  <rName>  (4614) 
piperidin-3-ylAc_22diMe

>  <PQ_SYMBOL>  (4614) 
piperidin-3-ylAc_22diMe

>  <FULL_NAME>  (4614) 
2-Methyl-2-(piperidin-3-yl)propanoic acid

>  <IUPAC_CONDENSED>  (4614) 
piperidin-3-ylAc(2,2-diMe)

>  <IUPAC>  (4614) 
2-methyl-2-(piperidin-3-yl)propanoic acid

>  <TYPE>  (4614) 
Backbone

>  <CLASS>  (4614) 
gamma

>  <ANALOG>  (4614) 
Pro

>  <MOL_WT>  (4614) 
171.24

>  <LOGP>  (4614) 
1.0967999999999998

>  <TPSA>  (4614) 
49.33

>  <POPULARITY>  (4614) 
5.7

>  <PROTECTED>  (4614) 
TRUE

>  <SMILES>  (4614) 
N1CC(CCC1)C(C)(C)C(=O)O

>  <INCHIKEY>  (4614) 
ZMIONHLHHCOZBE-UHFFFAOYSA-N

$$$$
piperidin-3-yl_3CN_Pr
     RDKit          2D

 13 13  0  0  0  0  0  0  0  0999 V2000
    2.7457   -1.6734    0.0000 N   0  0  0  0  0  0  0  0  0  0  0  0
    1.2842   -1.3355    0.0000 C   0  0  0  0  0  0  0  0  0  0  0  0
    0.8461    0.0991    0.0000 C   0  0  0  0  0  0  0  0  0  0  0  0
   -0.0562    1.2973    0.0000 C   0  0  0  0  0  0  0  0  0  0  0  0
   -0.9585    2.4956    0.0000 N   0  0  0  0  0  0  0  0  0  0  0  0
    1.8695    1.1958    0.0000 C   0  0  0  0  0  0  0  0  0  0  0  0
    3.3310    0.8578    0.0000 C   0  0  0  0  0  0  0  0  0  0  0  0
    3.7690   -0.5768    0.0000 C   0  0  0  0  0  0  0  0  0  0  0  0
   -0.4906   -0.5815    0.0000 C   0  0  0  0  0  0  0  0  0  0  0  0
   -1.7483    0.2359    0.0000 C   0  0  0  0  0  0  0  0  0  0  0  0
   -3.0851   -0.4446    0.0000 C   0  0  0  0  0  0  0  0  0  0  0  0
   -3.1641   -1.9425    0.0000 O   0  0  0  0  0  0  0  0  0  0  0  0
   -4.3428    0.3728    0.0000 O   0  0  0  0  0  0  0  0  0  0  0  0
  1  2  1  0
  2  3  1  0
  3  4  1  0
  4  5  3  0
  3  6  1  0
  6  7  1  0
  7  8  1  0
  3  9  1  0
  9 10  1  0
 10 11  1  0
 11 12  2  0
 11 13  1  0
  8  1  1  0
M  END
>  <rName>  (4615) 
piperidin-3-yl_3CN_Pr

>  <PQ_SYMBOL>  (4615) 
piperidin-3-yl_3CN_Pr

>  <FULL_NAME>  (4615) 
3-(3-Cyanopiperidin-3-yl)propanoic acid

>  <IUPAC_CONDENSED>  (4615) 
piperidin-3-yl(3-CN)Pr

>  <IUPAC>  (4615) 
3-(3-(nitrilomethyl)piperidin-3-yl)propanoic acid

>  <TYPE>  (4615) 
Backbone

>  <CLASS>  (4615) 
delta

>  <ANALOG>  (4615) 
Pro

>  <MOL_WT>  (4615) 
182.22299999999998

>  <LOGP>  (4615) 
0.74458

>  <TPSA>  (4615) 
73.12

>  <POPULARITY>  (4615) 
2.9

>  <PROTECTED>  (4615) 
TRUE

>  <SMILES>  (4615) 
N1CC(C#N)(CCC1)CCC(=O)O

>  <INCHIKEY>  (4615) 
UPNJAASXOUTHHW-UHFFFAOYSA-N

$$$$
piperidin-3-yl_3OH_Ac
     RDKit          2D

 11 11  0  0  0  0  0  0  0  0999 V2000
    2.3541   -1.4274    0.0000 N   0  0  0  0  0  0  0  0  0  0  0  0
    0.8595   -1.3002    0.0000 C   0  0  0  0  0  0  0  0  0  0  0  0
    0.2224    0.0578    0.0000 C   0  0  0  0  0  0  0  0  0  0  0  0
   -0.8408    1.1159    0.0000 O   0  0  0  0  0  0  0  0  0  0  0  0
    1.0798    1.2885    0.0000 C   0  0  0  0  0  0  0  0  0  0  0  0
    2.5744    1.1613    0.0000 C   0  0  0  0  0  0  0  0  0  0  0  0
    3.2116   -0.1967    0.0000 C   0  0  0  0  0  0  0  0  0  0  0  0
   -1.0043   -0.8055    0.0000 C   0  0  0  0  0  0  0  0  0  0  0  0
   -2.3653   -0.1748    0.0000 C   0  0  0  0  0  0  0  0  0  0  0  0
   -2.4995    1.3192    0.0000 O   0  0  0  0  0  0  0  0  0  0  0  0
   -3.5920   -1.0381    0.0000 O   0  0  0  0  0  0  0  0  0  0  0  0
  1  2  1  0
  2  3  1  0
  3  4  1  0
  3  5  1  0
  5  6  1  0
  6  7  1  0
  3  8  1  0
  8  9  1  0
  9 10  2  0
  9 11  1  0
  7  1  1  0
M  END
>  <rName>  (4616) 
piperidin-3-yl_3OH_Ac

>  <PQ_SYMBOL>  (4616) 
piperidin-3-yl_3OH_Ac

>  <FULL_NAME>  (4616) 
2-(3-Hydroxypiperidin-3-yl)acetic acid

>  <IUPAC_CONDENSED>  (4616) 
piperidin-3-yl(3-OH)Ac

>  <IUPAC>  (4616) 
2-(3-hydroxypiperidin-3-yl)acetic acid

>  <TYPE>  (4616) 
Backbone

>  <CLASS>  (4616) 
gamma

>  <ANALOG>  (4616) 
Pro

>  <MOL_WT>  (4616) 
159.185

>  <LOGP>  (4616) 
-0.42440000000000083

>  <TPSA>  (4616) 
69.56

>  <POPULARITY>  (4616) 
5.9

>  <PROTECTED>  (4616) 
TRUE

>  <SMILES>  (4616) 
N1CC(O)(CCC1)CC(=O)O

>  <INCHIKEY>  (4616) 
JUWWLOHRRDUFPX-UHFFFAOYSA-N

$$$$
piperidin-3R-ylAc
     RDKit          2D

 10 10  0  0  0  0  0  0  0  0999 V2000
    2.7213   -0.9820    0.0000 N   0  0  0  0  0  0  0  0  0  0  0  0
    1.3040   -1.4730    0.0000 C   0  0  0  0  0  0  0  0  0  0  0  0
    0.1701   -0.4910    0.0000 C   0  0  0  0  0  0  0  0  0  0  0  0
    0.4536    0.9820    0.0000 C   0  0  0  0  0  0  0  0  0  0  0  0
    1.8709    1.4730    0.0000 C   0  0  0  0  0  0  0  0  0  0  0  0
    3.0048    0.4910    0.0000 C   0  0  0  0  0  0  0  0  0  0  0  0
   -1.2473   -0.9820    0.0000 C   0  0  0  0  0  0  0  0  0  0  0  0
   -2.3812    0.0000    0.0000 C   0  0  0  0  0  0  0  0  0  0  0  0
   -2.0977    1.4730    0.0000 O   0  0  0  0  0  0  0  0  0  0  0  0
   -3.7985   -0.4910    0.0000 O   0  0  0  0  0  0  0  0  0  0  0  0
  1  2  1  0
  2  3  1  0
  3  4  1  0
  4  5  1  0
  5  6  1  0
  3  7  1  1
  7  8  1  0
  8  9  2  0
  8 10  1  0
  6  1  1  0
M  END
>  <rName>  (4617) 
piperidin-3R-ylAc

>  <PQ_SYMBOL>  (4617) 
piperidin-3R-ylAc

>  <FULL_NAME>  (4617) 
2-[(3R)-piperidin-3-yl]acetic acid

>  <IUPAC_CONDENSED>  (4617) 
piperidin-3R-ylAc

>  <IUPAC>  (4617) 
2-((3R)-piperidin-3-yl)acetic acid

>  <TYPE>  (4617) 
Backbone

>  <CLASS>  (4617) 
gamma

>  <ANALOG>  (4617) 
Pro

>  <MOL_WT>  (4617) 
143.186

>  <LOGP>  (4617) 
0.46069999999999983

>  <TPSA>  (4617) 
49.33

>  <POPULARITY>  (4617) 
11.2

>  <PROTECTED>  (4617) 
TRUE

>  <SMILES>  (4617) 
N1C[C@H](CCC1)CC(=O)O

>  <INCHIKEY>  (4617) 
WKXRHAACRPUBIC-ZCFIWIBFSA-N

$$$$
piperidin-3R-ylPr
     RDKit          2D

 11 11  0  0  0  0  0  0  0  0999 V2000
    3.2643   -1.0382    0.0000 N   0  0  0  0  0  0  0  0  0  0  0  0
    1.8057   -1.3883    0.0000 C   0  0  0  0  0  0  0  0  0  0  0  0
    0.7732   -0.3002    0.0000 C   0  0  0  0  0  0  0  0  0  0  0  0
    1.1993    1.1380    0.0000 C   0  0  0  0  0  0  0  0  0  0  0  0
    2.6579    1.4881    0.0000 C   0  0  0  0  0  0  0  0  0  0  0  0
    3.6904    0.4000    0.0000 C   0  0  0  0  0  0  0  0  0  0  0  0
   -0.6853   -0.6503    0.0000 C   0  0  0  0  0  0  0  0  0  0  0  0
   -1.7178    0.4378    0.0000 C   0  0  0  0  0  0  0  0  0  0  0  0
   -3.1764    0.0877    0.0000 C   0  0  0  0  0  0  0  0  0  0  0  0
   -3.6025   -1.3505    0.0000 O   0  0  0  0  0  0  0  0  0  0  0  0
   -4.2089    1.1758    0.0000 O   0  0  0  0  0  0  0  0  0  0  0  0
  1  2  1  0
  2  3  1  0
  3  4  1  0
  4  5  1  0
  5  6  1  0
  3  7  1  1
  7  8  1  0
  8  9  1  0
  9 10  2  0
  9 11  1  0
  6  1  1  0
M  END
>  <rName>  (4618) 
piperidin-3R-ylPr

>  <PQ_SYMBOL>  (4618) 
piperidin-3R-ylPr

>  <FULL_NAME>  (4618) 
3-[(3R)-piperidin-3-yl]propanoic acid

>  <IUPAC_CONDENSED>  (4618) 
piperidin-3R-ylPr

>  <IUPAC>  (4618) 
3-((3R)-piperidin-3-yl)propanoic acid

>  <TYPE>  (4618) 
Backbone

>  <CLASS>  (4618) 
delta

>  <ANALOG>  (4618) 
Pro

>  <MOL_WT>  (4618) 
157.21300000000002

>  <LOGP>  (4618) 
0.8507999999999998

>  <TPSA>  (4618) 
49.33

>  <POPULARITY>  (4618) 
10.3

>  <PROTECTED>  (4618) 
TRUE

>  <SMILES>  (4618) 
N1C[C@H](CCC1)CCC(=O)O

>  <INCHIKEY>  (4618) 
FCDZOPQSMGHRMK-SSDOTTSWSA-N

$$$$
piperidin-3S-ylAc
     RDKit          2D

 10 10  0  0  0  0  0  0  0  0999 V2000
    2.7213   -0.9820    0.0000 N   0  0  0  0  0  0  0  0  0  0  0  0
    1.3040   -1.4730    0.0000 C   0  0  0  0  0  0  0  0  0  0  0  0
    0.1701   -0.4910    0.0000 C   0  0  0  0  0  0  0  0  0  0  0  0
    0.4536    0.9820    0.0000 C   0  0  0  0  0  0  0  0  0  0  0  0
    1.8709    1.4730    0.0000 C   0  0  0  0  0  0  0  0  0  0  0  0
    3.0048    0.4910    0.0000 C   0  0  0  0  0  0  0  0  0  0  0  0
   -1.2473   -0.9820    0.0000 C   0  0  0  0  0  0  0  0  0  0  0  0
   -2.3812    0.0000    0.0000 C   0  0  0  0  0  0  0  0  0  0  0  0
   -2.0977    1.4730    0.0000 O   0  0  0  0  0  0  0  0  0  0  0  0
   -3.7985   -0.4910    0.0000 O   0  0  0  0  0  0  0  0  0  0  0  0
  1  2  1  0
  2  3  1  0
  3  4  1  0
  4  5  1  0
  5  6  1  0
  3  7  1  6
  7  8  1  0
  8  9  2  0
  8 10  1  0
  6  1  1  0
M  END
>  <rName>  (4619) 
piperidin-3S-ylAc

>  <PQ_SYMBOL>  (4619) 
piperidin-3S-ylAc

>  <FULL_NAME>  (4619) 
2-[(3S)-piperidin-3-yl]acetic acid

>  <IUPAC_CONDENSED>  (4619) 
piperidin-3S-ylAc

>  <IUPAC>  (4619) 
2-((3S)-piperidin-3-yl)acetic acid

>  <TYPE>  (4619) 
Backbone

>  <CLASS>  (4619) 
gamma

>  <ANALOG>  (4619) 
Pro

>  <MOL_WT>  (4619) 
143.186

>  <LOGP>  (4619) 
0.46069999999999983

>  <TPSA>  (4619) 
49.33

>  <POPULARITY>  (4619) 
11.7

>  <PROTECTED>  (4619) 
TRUE

>  <SMILES>  (4619) 
N1C[C@@H](CCC1)CC(=O)O

>  <INCHIKEY>  (4619) 
WKXRHAACRPUBIC-LURJTMIESA-N

$$$$
piperidin-3S-ylPr
     RDKit          2D

 11 11  0  0  0  0  0  0  0  0999 V2000
    3.2643   -1.0382    0.0000 N   0  0  0  0  0  0  0  0  0  0  0  0
    1.8057   -1.3883    0.0000 C   0  0  0  0  0  0  0  0  0  0  0  0
    0.7732   -0.3002    0.0000 C   0  0  0  0  0  0  0  0  0  0  0  0
    1.1993    1.1380    0.0000 C   0  0  0  0  0  0  0  0  0  0  0  0
    2.6579    1.4881    0.0000 C   0  0  0  0  0  0  0  0  0  0  0  0
    3.6904    0.4000    0.0000 C   0  0  0  0  0  0  0  0  0  0  0  0
   -0.6853   -0.6503    0.0000 C   0  0  0  0  0  0  0  0  0  0  0  0
   -1.7178    0.4378    0.0000 C   0  0  0  0  0  0  0  0  0  0  0  0
   -3.1764    0.0877    0.0000 C   0  0  0  0  0  0  0  0  0  0  0  0
   -3.6025   -1.3505    0.0000 O   0  0  0  0  0  0  0  0  0  0  0  0
   -4.2089    1.1758    0.0000 O   0  0  0  0  0  0  0  0  0  0  0  0
  1  2  1  0
  2  3  1  0
  3  4  1  0
  4  5  1  0
  5  6  1  0
  3  7  1  6
  7  8  1  0
  8  9  1  0
  9 10  2  0
  9 11  1  0
  6  1  1  0
M  END
>  <rName>  (4620) 
piperidin-3S-ylPr

>  <PQ_SYMBOL>  (4620) 
piperidin-3S-ylPr

>  <FULL_NAME>  (4620) 
3-[(3S)-3-piperidyl]propanoic acid

>  <IUPAC_CONDENSED>  (4620) 
piperidin-3S-ylPr

>  <IUPAC>  (4620) 
3-((3S)-piperidin-3-yl)propanoic acid

>  <TYPE>  (4620) 
Backbone

>  <CLASS>  (4620) 
delta

>  <ANALOG>  (4620) 
Pro

>  <MOL_WT>  (4620) 
157.21300000000002

>  <LOGP>  (4620) 
0.8507999999999998

>  <TPSA>  (4620) 
49.33

>  <POPULARITY>  (4620) 
14.3

>  <PROTECTED>  (4620) 
TRUE

>  <SMILES>  (4620) 
N1C[C@@H](CCC1)CCC(=O)O

>  <INCHIKEY>  (4620) 
FCDZOPQSMGHRMK-ZETCQYMHSA-N

$$$$
piperidin-4-yl4-OHAc_22diF
     RDKit          2D

 13 13  0  0  0  0  0  0  0  0999 V2000
    3.2633   -0.7447    0.0000 N   0  0  0  0  0  0  0  0  0  0  0  0
    2.0443   -1.6188    0.0000 C   0  0  0  0  0  0  0  0  0  0  0  0
    0.6778   -1.0001    0.0000 C   0  0  0  0  0  0  0  0  0  0  0  0
    0.5304    0.4926    0.0000 C   0  0  0  0  0  0  0  0  0  0  0  0
   -0.1187    1.8449    0.0000 O   0  0  0  0  0  0  0  0  0  0  0  0
    1.7494    1.3667    0.0000 C   0  0  0  0  0  0  0  0  0  0  0  0
    3.1159    0.7480    0.0000 C   0  0  0  0  0  0  0  0  0  0  0  0
   -0.9141    0.0882    0.0000 C   0  0  0  0  0  0  0  0  0  0  0  0
   -1.3185    1.5326    0.0000 F   0  0  0  0  0  0  0  0  0  0  0  0
   -0.5097   -1.3563    0.0000 F   0  0  0  0  0  0  0  0  0  0  0  0
   -2.3585   -0.3162    0.0000 C   0  0  0  0  0  0  0  0  0  0  0  0
   -3.4310    0.7325    0.0000 O   0  0  0  0  0  0  0  0  0  0  0  0
   -2.7305   -1.7694    0.0000 O   0  0  0  0  0  0  0  0  0  0  0  0
  1  2  1  0
  2  3  1  0
  3  4  1  0
  4  5  1  0
  4  6  1  0
  6  7  1  0
  4  8  1  0
  8  9  1  0
  8 10  1  0
  8 11  1  0
 11 12  2  0
 11 13  1  0
  7  1  1  0
M  END
>  <rName>  (4621) 
piperidin-4-yl4-OHAc_22diF

>  <PQ_SYMBOL>  (4621) 
piperidin-4-yl4-OHAc_22diF

>  <FULL_NAME>  (4621) 
2,2-Difluoro-2-(4-hydroxypiperidin-4-yl)acetic acid

>  <IUPAC_CONDENSED>  (4621) 
piperidin-4-yl(4-OH)Ac(2,2-diF)

>  <IUPAC>  (4621) 
2,2-difluoro-2-(4-hydroxypiperidin-4-yl)acetic acid

>  <TYPE>  (4621) 
Backbone

>  <CLASS>  (4621) 
delta

>  <ANALOG>  (4621) 
Pro

>  <MOL_WT>  (4621) 
195.16499999999996

>  <LOGP>  (4621) 
-0.17919999999999986

>  <TPSA>  (4621) 
69.56

>  <POPULARITY>  (4621) 
3.6

>  <PROTECTED>  (4621) 
TRUE

>  <SMILES>  (4621) 
N1CCC(O)(CC1)C(F)(F)C(=O)O

>  <INCHIKEY>  (4621) 
ARMPKEDTYPCZSW-UHFFFAOYSA-N

$$$$
piperidin-4-yl4-OHAc_2OH
     RDKit          2D

 12 12  0  0  0  0  0  0  0  0999 V2000
    3.2794   -0.1753    0.0000 N   0  0  0  0  0  0  0  0  0  0  0  0
    2.3593   -1.3600    0.0000 C   0  0  0  0  0  0  0  0  0  0  0  0
    0.8733   -1.1554    0.0000 C   0  0  0  0  0  0  0  0  0  0  0  0
    0.3074    0.2337    0.0000 C   0  0  0  0  0  0  0  0  0  0  0  0
   -0.6994    1.3456    0.0000 O   0  0  0  0  0  0  0  0  0  0  0  0
    1.2275    1.4184    0.0000 C   0  0  0  0  0  0  0  0  0  0  0  0
    2.7135    1.2138    0.0000 C   0  0  0  0  0  0  0  0  0  0  0  0
   -0.9624   -0.5647    0.0000 C   0  0  0  0  0  0  0  0  0  0  0  0
   -0.9058   -2.0637    0.0000 O   0  0  0  0  0  0  0  0  0  0  0  0
   -2.2888    0.1357    0.0000 C   0  0  0  0  0  0  0  0  0  0  0  0
   -2.3454    1.6346    0.0000 O   0  0  0  0  0  0  0  0  0  0  0  0
   -3.5586   -0.6628    0.0000 O   0  0  0  0  0  0  0  0  0  0  0  0
  1  2  1  0
  2  3  1  0
  3  4  1  0
  4  5  1  0
  4  6  1  0
  6  7  1  0
  4  8  1  0
  8  9  1  0
  8 10  1  0
 10 11  2  0
 10 12  1  0
  7  1  1  0
M  END
>  <rName>  (4622) 
piperidin-4-yl4-OHAc_2OH

>  <PQ_SYMBOL>  (4622) 
piperidin-4-yl4-OHAc_2OH

>  <FULL_NAME>  (4622) 
2-Hydroxy-2-(4-hydroxypiperidin-4-yl)acetic acid

>  <IUPAC_CONDENSED>  (4622) 
piperidin-4-yl(4-OH)Ac(2-OH)

>  <IUPAC>  (4622) 
2-hydroxy-2-(4-hydroxypiperidin-4-yl)acetic acid

>  <TYPE>  (4622) 
Backbone

>  <CLASS>  (4622) 
delta

>  <ANALOG>  (4622) 
Pro

>  <MOL_WT>  (4622) 
175.184

>  <LOGP>  (4622) 
-1.4536000000000004

>  <TPSA>  (4622) 
89.79

>  <POPULARITY>  (4622) 
5.2

>  <PROTECTED>  (4622) 
TRUE

>  <SMILES>  (4622) 
N1CCC(O)(CC1)C(O)C(=O)O

>  <INCHIKEY>  (4622) 
GGYWTWKRZZFFHJ-UHFFFAOYSA-N

$$$$
piperidin-4-ylAc
     RDKit          2D

 10 10  0  0  0  0  0  0  0  0999 V2000
   -3.0048   -0.4910    0.0000 N   0  0  0  0  0  0  0  0  0  0  0  0
   -2.7213    0.9820    0.0000 C   0  0  0  0  0  0  0  0  0  0  0  0
   -1.3040    1.4730    0.0000 C   0  0  0  0  0  0  0  0  0  0  0  0
   -0.1701    0.4910    0.0000 C   0  0  0  0  0  0  0  0  0  0  0  0
   -0.4536   -0.9820    0.0000 C   0  0  0  0  0  0  0  0  0  0  0  0
   -1.8709   -1.4730    0.0000 C   0  0  0  0  0  0  0  0  0  0  0  0
    1.2473    0.9820    0.0000 C   0  0  0  0  0  0  0  0  0  0  0  0
    2.3812   -0.0000    0.0000 C   0  0  0  0  0  0  0  0  0  0  0  0
    2.0977   -1.4730    0.0000 O   0  0  0  0  0  0  0  0  0  0  0  0
    3.7985    0.4910    0.0000 O   0  0  0  0  0  0  0  0  0  0  0  0
  1  2  1  0
  2  3  1  0
  3  4  1  0
  4  5  1  0
  5  6  1  0
  4  7  1  0
  7  8  1  0
  8  9  2  0
  8 10  1  0
  6  1  1  0
M  END
>  <rName>  (4623) 
piperidin-4-ylAc

>  <PQ_SYMBOL>  (4623) 
piperidin-4-ylAc

>  <FULL_NAME>  (4623) 
2-(piperidin-4-yl)acetic acid

>  <IUPAC_CONDENSED>  (4623) 
piperidin-4-ylAc

>  <IUPAC>  (4623) 
2-(piperidin-4-yl)acetic acid

>  <TYPE>  (4623) 
Backbone

>  <CLASS>  (4623) 
delta

>  <ANALOG>  (4623) 
Pro

>  <MOL_WT>  (4623) 
143.186

>  <LOGP>  (4623) 
0.46069999999999983

>  <TPSA>  (4623) 
49.33

>  <POPULARITY>  (4623) 
16.7

>  <PROTECTED>  (4623) 
TRUE

>  <SMILES>  (4623) 
N1CCC(CC1)CC(=O)O

>  <INCHIKEY>  (4623) 
YFNOTMRKVGZZNF-UHFFFAOYSA-N

$$$$
piperidin-4-ylAc_22diF
     RDKit          2D

 12 12  0  0  0  0  0  0  0  0999 V2000
    3.5000   -0.0000    0.0000 N   0  0  0  0  0  0  0  0  0  0  0  0
    2.7500   -1.2990    0.0000 C   0  0  0  0  0  0  0  0  0  0  0  0
    1.2500   -1.2990    0.0000 C   0  0  0  0  0  0  0  0  0  0  0  0
    0.5000    0.0000    0.0000 C   0  0  0  0  0  0  0  0  0  0  0  0
    1.2500    1.2990    0.0000 C   0  0  0  0  0  0  0  0  0  0  0  0
    2.7500    1.2990    0.0000 C   0  0  0  0  0  0  0  0  0  0  0  0
   -1.0000    0.0000    0.0000 C   0  0  0  0  0  0  0  0  0  0  0  0
   -1.0000    1.5000    0.0000 F   0  0  0  0  0  0  0  0  0  0  0  0
   -1.0000   -1.5000    0.0000 F   0  0  0  0  0  0  0  0  0  0  0  0
   -2.5000   -0.0000    0.0000 C   0  0  0  0  0  0  0  0  0  0  0  0
   -3.2500    1.2990    0.0000 O   0  0  0  0  0  0  0  0  0  0  0  0
   -3.2500   -1.2990    0.0000 O   0  0  0  0  0  0  0  0  0  0  0  0
  1  2  1  0
  2  3  1  0
  3  4  1  0
  4  5  1  0
  5  6  1  0
  4  7  1  0
  7  8  1  0
  7  9  1  0
  7 10  1  0
 10 11  2  0
 10 12  1  0
  6  1  1  0
M  END
>  <rName>  (4624) 
piperidin-4-ylAc_22diF

>  <PQ_SYMBOL>  (4624) 
piperidin-4-ylAc_22diF

>  <FULL_NAME>  (4624) 
2,2-Difluoro-2-(piperidin-4-yl)acetic acid

>  <IUPAC_CONDENSED>  (4624) 
piperidin-4-ylAc(2,2-diF)

>  <IUPAC>  (4624) 
2,2-difluoro-2-(piperidin-4-yl)acetic acid

>  <TYPE>  (4624) 
Backbone

>  <CLASS>  (4624) 
delta

>  <ANALOG>  (4624) 
Pro

>  <MOL_WT>  (4624) 
179.166

>  <LOGP>  (4624) 
0.7059

>  <TPSA>  (4624) 
49.33

>  <POPULARITY>  (4624) 
4.3

>  <PROTECTED>  (4624) 
TRUE

>  <SMILES>  (4624) 
N1CCC(CC1)C(F)(F)C(=O)O

>  <INCHIKEY>  (4624) 
BTPDZFIFJJXMEH-UHFFFAOYSA-N

$$$$
piperidin-4-ylAc_22diMe
     RDKit          2D

 12 12  0  0  0  0  0  0  0  0999 V2000
    3.5000   -0.0000    0.0000 N   0  0  0  0  0  0  0  0  0  0  0  0
    2.7500   -1.2990    0.0000 C   0  0  0  0  0  0  0  0  0  0  0  0
    1.2500   -1.2990    0.0000 C   0  0  0  0  0  0  0  0  0  0  0  0
    0.5000    0.0000    0.0000 C   0  0  0  0  0  0  0  0  0  0  0  0
    1.2500    1.2990    0.0000 C   0  0  0  0  0  0  0  0  0  0  0  0
    2.7500    1.2990    0.0000 C   0  0  0  0  0  0  0  0  0  0  0  0
   -1.0000    0.0000    0.0000 C   0  0  0  0  0  0  0  0  0  0  0  0
   -1.0000   -1.5000    0.0000 C   0  0  0  0  0  0  0  0  0  0  0  0
   -1.0000    1.5000    0.0000 C   0  0  0  0  0  0  0  0  0  0  0  0
   -2.5000   -0.0000    0.0000 C   0  0  0  0  0  0  0  0  0  0  0  0
   -3.2500    1.2990    0.0000 O   0  0  0  0  0  0  0  0  0  0  0  0
   -3.2500   -1.2990    0.0000 O   0  0  0  0  0  0  0  0  0  0  0  0
  1  2  1  0
  2  3  1  0
  3  4  1  0
  4  5  1  0
  5  6  1  0
  4  7  1  0
  7  8  1  0
  7  9  1  0
  7 10  1  0
 10 11  2  0
 10 12  1  0
  6  1  1  0
M  END
>  <rName>  (4625) 
piperidin-4-ylAc_22diMe

>  <PQ_SYMBOL>  (4625) 
piperidin-4-ylAc_22diMe

>  <FULL_NAME>  (4625) 
2-Methyl-2-(piperidin-4-yl)propanoic acid

>  <IUPAC_CONDENSED>  (4625) 
piperidin-4-ylAc(2,2-diMe)

>  <IUPAC>  (4625) 
2-methyl-2-(piperidin-4-yl)propanoic acid

>  <TYPE>  (4625) 
Backbone

>  <CLASS>  (4625) 
delta

>  <ANALOG>  (4625) 
Pro

>  <MOL_WT>  (4625) 
171.24

>  <LOGP>  (4625) 
1.0967999999999998

>  <TPSA>  (4625) 
49.33

>  <POPULARITY>  (4625) 
9.2

>  <PROTECTED>  (4625) 
TRUE

>  <SMILES>  (4625) 
N1CCC(CC1)C(C)(C)C(=O)O

>  <INCHIKEY>  (4625) 
JVKWPAGLRNGSIO-UHFFFAOYSA-N

$$$$
piperidin-4-ylAc_2F
     RDKit          2D

 11 11  0  0  0  0  0  0  0  0999 V2000
   -3.1987   -0.4035    0.0000 N   0  0  0  0  0  0  0  0  0  0  0  0
   -2.7726    1.0347    0.0000 C   0  0  0  0  0  0  0  0  0  0  0  0
   -1.3141    1.3849    0.0000 C   0  0  0  0  0  0  0  0  0  0  0  0
   -0.2816    0.2968    0.0000 C   0  0  0  0  0  0  0  0  0  0  0  0
   -0.7077   -1.1415    0.0000 C   0  0  0  0  0  0  0  0  0  0  0  0
   -2.1662   -1.4916    0.0000 C   0  0  0  0  0  0  0  0  0  0  0  0
    1.1770    0.6469    0.0000 C   0  0  0  0  0  0  0  0  0  0  0  0
    1.6031    2.0851    0.0000 F   0  0  0  0  0  0  0  0  0  0  0  0
    2.2095   -0.4412    0.0000 C   0  0  0  0  0  0  0  0  0  0  0  0
    1.7834   -1.8794    0.0000 O   0  0  0  0  0  0  0  0  0  0  0  0
    3.6680   -0.0911    0.0000 O   0  0  0  0  0  0  0  0  0  0  0  0
  1  2  1  0
  2  3  1  0
  3  4  1  0
  4  5  1  0
  5  6  1  0
  4  7  1  0
  7  8  1  0
  7  9  1  0
  9 10  2  0
  9 11  1  0
  6  1  1  0
M  END
>  <rName>  (4626) 
piperidin-4-ylAc_2F

>  <PQ_SYMBOL>  (4626) 
piperidin-4-ylAc_2F

>  <FULL_NAME>  (4626) 
2-Fluoro-2-(piperidin-4-yl)acetic acid

>  <IUPAC_CONDENSED>  (4626) 
piperidin-4-ylAc(2-F)

>  <IUPAC>  (4626) 
2-fluoro-2-(piperidin-4-yl)acetic acid

>  <TYPE>  (4626) 
Backbone

>  <CLASS>  (4626) 
delta

>  <ANALOG>  (4626) 
Pro

>  <MOL_WT>  (4626) 
161.17600000000002

>  <LOGP>  (4626) 
0.4087

>  <TPSA>  (4626) 
49.33

>  <POPULARITY>  (4626) 
4.4

>  <PROTECTED>  (4626) 
TRUE

>  <SMILES>  (4626) 
N1CCC(CC1)C(F)C(=O)O

>  <INCHIKEY>  (4626) 
QAIAGJYPQQYENU-UHFFFAOYSA-N

$$$$
piperidin-4-ylAc_2Me
     RDKit          2D

 11 11  0  0  0  0  0  0  0  0999 V2000
    3.1987   -0.4035    0.0000 N   0  0  0  0  0  0  0  0  0  0  0  0
    2.1662   -1.4916    0.0000 C   0  0  0  0  0  0  0  0  0  0  0  0
    0.7077   -1.1415    0.0000 C   0  0  0  0  0  0  0  0  0  0  0  0
    0.2816    0.2968    0.0000 C   0  0  0  0  0  0  0  0  0  0  0  0
    1.3141    1.3849    0.0000 C   0  0  0  0  0  0  0  0  0  0  0  0
    2.7726    1.0347    0.0000 C   0  0  0  0  0  0  0  0  0  0  0  0
   -1.1770    0.6469    0.0000 C   0  0  0  0  0  0  0  0  0  0  0  0
   -1.6031    2.0851    0.0000 C   0  0  0  0  0  0  0  0  0  0  0  0
   -2.2095   -0.4412    0.0000 C   0  0  0  0  0  0  0  0  0  0  0  0
   -1.7834   -1.8794    0.0000 O   0  0  0  0  0  0  0  0  0  0  0  0
   -3.6680   -0.0911    0.0000 O   0  0  0  0  0  0  0  0  0  0  0  0
  1  2  1  0
  2  3  1  0
  3  4  1  0
  4  5  1  0
  5  6  1  0
  4  7  1  0
  7  8  1  0
  7  9  1  0
  9 10  2  0
  9 11  1  0
  6  1  1  0
M  END
>  <rName>  (4627) 
piperidin-4-ylAc_2Me

>  <PQ_SYMBOL>  (4627) 
piperidin-4-ylAc_2Me

>  <FULL_NAME>  (4627) 
2-(Piperidin-4-yl)propanoic acid

>  <IUPAC_CONDENSED>  (4627) 
piperidin-4-ylAc(2-Me)

>  <IUPAC>  (4627) 
2-(piperidin-4-yl)propanoic acid

>  <TYPE>  (4627) 
Backbone

>  <CLASS>  (4627) 
delta

>  <ANALOG>  (4627) 
Pro

>  <MOL_WT>  (4627) 
157.213

>  <LOGP>  (4627) 
0.7066999999999999

>  <TPSA>  (4627) 
49.33

>  <POPULARITY>  (4627) 
12.0

>  <PROTECTED>  (4627) 
TRUE

>  <SMILES>  (4627) 
N1CCC(CC1)C(C)C(=O)O

>  <INCHIKEY>  (4627) 
ZSFHGXOMOOJAGZ-UHFFFAOYSA-N

$$$$
piperidin-4-ylAc_2OH
     RDKit          2D

 11 11  0  0  0  0  0  0  0  0999 V2000
   -3.1987   -0.4035    0.0000 N   0  0  0  0  0  0  0  0  0  0  0  0
   -2.7726    1.0347    0.0000 C   0  0  0  0  0  0  0  0  0  0  0  0
   -1.3141    1.3849    0.0000 C   0  0  0  0  0  0  0  0  0  0  0  0
   -0.2816    0.2968    0.0000 C   0  0  0  0  0  0  0  0  0  0  0  0
   -0.7077   -1.1415    0.0000 C   0  0  0  0  0  0  0  0  0  0  0  0
   -2.1662   -1.4916    0.0000 C   0  0  0  0  0  0  0  0  0  0  0  0
    1.1770    0.6469    0.0000 C   0  0  0  0  0  0  0  0  0  0  0  0
    1.6031    2.0851    0.0000 O   0  0  0  0  0  0  0  0  0  0  0  0
    2.2095   -0.4412    0.0000 C   0  0  0  0  0  0  0  0  0  0  0  0
    1.7834   -1.8794    0.0000 O   0  0  0  0  0  0  0  0  0  0  0  0
    3.6680   -0.0911    0.0000 O   0  0  0  0  0  0  0  0  0  0  0  0
  1  2  1  0
  2  3  1  0
  3  4  1  0
  4  5  1  0
  5  6  1  0
  4  7  1  0
  7  8  1  0
  7  9  1  0
  9 10  2  0
  9 11  1  0
  6  1  1  0
M  END
>  <rName>  (4628) 
piperidin-4-ylAc_2OH

>  <PQ_SYMBOL>  (4628) 
piperidin-4-ylAc_2OH

>  <FULL_NAME>  (4628) 
2-Hydroxy-2-(piperidin-4-yl)acetic acid

>  <IUPAC_CONDENSED>  (4628) 
piperidin-4-ylAc(2-OH)

>  <IUPAC>  (4628) 
2-hydroxy-2-(piperidin-4-yl)acetic acid

>  <TYPE>  (4628) 
Backbone

>  <CLASS>  (4628) 
delta

>  <ANALOG>  (4628) 
Pro

>  <MOL_WT>  (4628) 
159.185

>  <LOGP>  (4628) 
-0.5685000000000002

>  <TPSA>  (4628) 
69.56

>  <POPULARITY>  (4628) 
11.2

>  <PROTECTED>  (4628) 
TRUE

>  <SMILES>  (4628) 
N1CCC(CC1)C(O)C(=O)O

>  <INCHIKEY>  (4628) 
KDBOBQCTMQRDBV-UHFFFAOYSA-N

$$$$
piperidin-4-ylAc_2OMe
     RDKit          2D

 12 12  0  0  0  0  0  0  0  0999 V2000
   -3.5067   -0.0081    0.0000 N   0  0  0  0  0  0  0  0  0  0  0  0
   -2.8414    1.3363    0.0000 C   0  0  0  0  0  0  0  0  0  0  0  0
   -1.3445    1.4324    0.0000 C   0  0  0  0  0  0  0  0  0  0  0  0
   -0.5128    0.1840    0.0000 C   0  0  0  0  0  0  0  0  0  0  0  0
   -1.1781   -1.1604    0.0000 C   0  0  0  0  0  0  0  0  0  0  0  0
   -2.6750   -1.2564    0.0000 C   0  0  0  0  0  0  0  0  0  0  0  0
    0.9841    0.2801    0.0000 C   0  0  0  0  0  0  0  0  0  0  0  0
    1.6493    1.6245    0.0000 O   0  0  0  0  0  0  0  0  0  0  0  0
    3.1463    1.7206    0.0000 C   0  0  0  0  0  0  0  0  0  0  0  0
    1.8157   -0.9682    0.0000 C   0  0  0  0  0  0  0  0  0  0  0  0
    1.1505   -2.3126    0.0000 O   0  0  0  0  0  0  0  0  0  0  0  0
    3.3127   -0.8721    0.0000 O   0  0  0  0  0  0  0  0  0  0  0  0
  1  2  1  0
  2  3  1  0
  3  4  1  0
  4  5  1  0
  5  6  1  0
  4  7  1  0
  7  8  1  0
  8  9  1  0
  7 10  1  0
 10 11  2  0
 10 12  1  0
  6  1  1  0
M  END
>  <rName>  (4629) 
piperidin-4-ylAc_2OMe

>  <PQ_SYMBOL>  (4629) 
piperidin-4-ylAc_2OMe

>  <FULL_NAME>  (4629) 
2-Methoxy-2-(piperidin-4-yl)acetic acid

>  <IUPAC_CONDENSED>  (4629) 
piperidin-4-ylAc(2-OMe)

>  <IUPAC>  (4629) 
2-methoxy-2-(piperidin-4-yl)acetic acid

>  <TYPE>  (4629) 
Backbone

>  <CLASS>  (4629) 
delta

>  <ANALOG>  (4629) 
Pro

>  <MOL_WT>  (4629) 
173.212

>  <LOGP>  (4629) 
0.08559999999999962

>  <TPSA>  (4629) 
58.56

>  <POPULARITY>  (4629) 
11.1

>  <PROTECTED>  (4629) 
TRUE

>  <SMILES>  (4629) 
N1CCC(CC1)C(OC)C(=O)O

>  <INCHIKEY>  (4629) 
RKPIWBBFIWZFQI-UHFFFAOYSA-N

$$$$
piperidin-4-ylPr
     RDKit          2D

 11 11  0  0  0  0  0  0  0  0999 V2000
   -3.6904   -0.4000    0.0000 N   0  0  0  0  0  0  0  0  0  0  0  0
   -3.2643    1.0382    0.0000 C   0  0  0  0  0  0  0  0  0  0  0  0
   -1.8057    1.3883    0.0000 C   0  0  0  0  0  0  0  0  0  0  0  0
   -0.7732    0.3002    0.0000 C   0  0  0  0  0  0  0  0  0  0  0  0
   -1.1993   -1.1380    0.0000 C   0  0  0  0  0  0  0  0  0  0  0  0
   -2.6579   -1.4881    0.0000 C   0  0  0  0  0  0  0  0  0  0  0  0
    0.6853    0.6503    0.0000 C   0  0  0  0  0  0  0  0  0  0  0  0
    1.7178   -0.4378    0.0000 C   0  0  0  0  0  0  0  0  0  0  0  0
    3.1764   -0.0877    0.0000 C   0  0  0  0  0  0  0  0  0  0  0  0
    3.6025    1.3505    0.0000 O   0  0  0  0  0  0  0  0  0  0  0  0
    4.2089   -1.1758    0.0000 O   0  0  0  0  0  0  0  0  0  0  0  0
  1  2  1  0
  2  3  1  0
  3  4  1  0
  4  5  1  0
  5  6  1  0
  4  7  1  0
  7  8  1  0
  8  9  1  0
  9 10  2  0
  9 11  1  0
  6  1  1  0
M  END
>  <rName>  (4630) 
piperidin-4-ylPr

>  <PQ_SYMBOL>  (4630) 
piperidin-4-ylPr

>  <FULL_NAME>  (4630) 
3-(Piperidin-4-yl)propanoic acid

>  <IUPAC_CONDENSED>  (4630) 
piperidin-4-ylPr

>  <IUPAC>  (4630) 
3-(piperidin-4-yl)propanoic acid

>  <TYPE>  (4630) 
Backbone

>  <CLASS>  (4630) 
epsilon

>  <ANALOG>  (4630) 
Pro

>  <MOL_WT>  (4630) 
157.21300000000002

>  <LOGP>  (4630) 
0.8507999999999998

>  <TPSA>  (4630) 
49.33

>  <POPULARITY>  (4630) 
13.8

>  <PROTECTED>  (4630) 
TRUE

>  <SMILES>  (4630) 
N1CCC(CC1)CCC(=O)O

>  <INCHIKEY>  (4630) 
AUYQMCCWFNSFGV-UHFFFAOYSA-N

$$$$
piperidin-4-ylPr_22diMe
     RDKit          2D

 13 13  0  0  0  0  0  0  0  0999 V2000
   -3.7556   -0.7261    0.0000 N   0  0  0  0  0  0  0  0  0  0  0  0
   -3.6532    0.7704    0.0000 C   0  0  0  0  0  0  0  0  0  0  0  0
   -2.3060    1.4300    0.0000 C   0  0  0  0  0  0  0  0  0  0  0  0
   -1.0612    0.5930    0.0000 C   0  0  0  0  0  0  0  0  0  0  0  0
   -1.1636   -0.9035    0.0000 C   0  0  0  0  0  0  0  0  0  0  0  0
   -2.5108   -1.5631    0.0000 C   0  0  0  0  0  0  0  0  0  0  0  0
    0.2860    1.2526    0.0000 C   0  0  0  0  0  0  0  0  0  0  0  0
    1.5308    0.4157    0.0000 C   0  0  0  0  0  0  0  0  0  0  0  0
    0.6939   -0.8291    0.0000 C   0  0  0  0  0  0  0  0  0  0  0  0
    2.3677    1.6605    0.0000 C   0  0  0  0  0  0  0  0  0  0  0  0
    2.7757   -0.4212    0.0000 C   0  0  0  0  0  0  0  0  0  0  0  0
    4.1229    0.2384    0.0000 O   0  0  0  0  0  0  0  0  0  0  0  0
    2.6733   -1.9177    0.0000 O   0  0  0  0  0  0  0  0  0  0  0  0
  1  2  1  0
  2  3  1  0
  3  4  1  0
  4  5  1  0
  5  6  1  0
  4  7  1  0
  7  8  1  0
  8  9  1  0
  8 10  1  0
  8 11  1  0
 11 12  2  0
 11 13  1  0
  6  1  1  0
M  END
>  <rName>  (4631) 
piperidin-4-ylPr_22diMe

>  <PQ_SYMBOL>  (4631) 
piperidin-4-ylPr_22diMe

>  <FULL_NAME>  (4631) 
2,2-Dimethyl-3-piperidin-4-ylpropanoic acid

>  <IUPAC_CONDENSED>  (4631) 
piperidin-4-ylPr(2,2-diMe)

>  <IUPAC>  (4631) 
2,2-dimethyl-3-(piperidin-4-yl)propanoic acid

>  <TYPE>  (4631) 
Backbone

>  <CLASS>  (4631) 
epsilon

>  <ANALOG>  (4631) 
Pro

>  <MOL_WT>  (4631) 
185.267

>  <LOGP>  (4631) 
1.4869

>  <TPSA>  (4631) 
49.33

>  <POPULARITY>  (4631) 
6.2

>  <PROTECTED>  (4631) 
TRUE

>  <SMILES>  (4631) 
N1CCC(CC1)CC(C)(C)C(=O)O

>  <INCHIKEY>  (4631) 
DYEUAKIFJJCKFT-UHFFFAOYSA-N

$$$$
piperidin-4-ylPr_2F
     RDKit          2D

 12 12  0  0  0  0  0  0  0  0999 V2000
   -3.7882   -0.3665    0.0000 N   0  0  0  0  0  0  0  0  0  0  0  0
   -3.4088    1.0848    0.0000 C   0  0  0  0  0  0  0  0  0  0  0  0
   -1.9624    1.4819    0.0000 C   0  0  0  0  0  0  0  0  0  0  0  0
   -0.8952    0.4278    0.0000 C   0  0  0  0  0  0  0  0  0  0  0  0
   -1.2745   -1.0235    0.0000 C   0  0  0  0  0  0  0  0  0  0  0  0
   -2.7210   -1.4206    0.0000 C   0  0  0  0  0  0  0  0  0  0  0  0
    0.5513    0.8249    0.0000 C   0  0  0  0  0  0  0  0  0  0  0  0
    1.6184   -0.2292    0.0000 C   0  0  0  0  0  0  0  0  0  0  0  0
    1.2391   -1.6805    0.0000 F   0  0  0  0  0  0  0  0  0  0  0  0
    3.0649    0.1679    0.0000 C   0  0  0  0  0  0  0  0  0  0  0  0
    3.4442    1.6191    0.0000 O   0  0  0  0  0  0  0  0  0  0  0  0
    4.1321   -0.8862    0.0000 O   0  0  0  0  0  0  0  0  0  0  0  0
  1  2  1  0
  2  3  1  0
  3  4  1  0
  4  5  1  0
  5  6  1  0
  4  7  1  0
  7  8  1  0
  8  9  1  0
  8 10  1  0
 10 11  2  0
 10 12  1  0
  6  1  1  0
M  END
>  <rName>  (4632) 
piperidin-4-ylPr_2F

>  <PQ_SYMBOL>  (4632) 
piperidin-4-ylPr_2F

>  <FULL_NAME>  (4632) 
2-Fluoro-3-(piperidin-4-yl)propanoicacid

>  <IUPAC_CONDENSED>  (4632) 
piperidin-4-ylPr(2-F)

>  <IUPAC>  (4632) 
2-fluoro-3-(piperidin-4-yl)propanoic acid

>  <TYPE>  (4632) 
Backbone

>  <CLASS>  (4632) 
epsilon

>  <ANALOG>  (4632) 
Pro

>  <MOL_WT>  (4632) 
175.203

>  <LOGP>  (4632) 
0.7988

>  <TPSA>  (4632) 
49.33

>  <POPULARITY>  (4632) 
3.1

>  <PROTECTED>  (4632) 
TRUE

>  <SMILES>  (4632) 
N1CCC(CC1)CC(F)C(=O)O

>  <INCHIKEY>  (4632) 
ZVDIFWAAFNYXCJ-UHFFFAOYSA-N

$$$$
piperidin-4-ylPr_2Me
     RDKit          2D

 12 12  0  0  0  0  0  0  0  0999 V2000
   -3.2476   -0.7500    0.0000 N   0  0  0  0  0  0  0  0  0  0  0  0
   -3.2476    0.7500    0.0000 C   0  0  0  0  0  0  0  0  0  0  0  0
   -1.9486    1.5000    0.0000 C   0  0  0  0  0  0  0  0  0  0  0  0
   -0.6495    0.7500    0.0000 C   0  0  0  0  0  0  0  0  0  0  0  0
   -0.6495   -0.7500    0.0000 C   0  0  0  0  0  0  0  0  0  0  0  0
   -1.9486   -1.5000    0.0000 C   0  0  0  0  0  0  0  0  0  0  0  0
    0.6495    1.5000    0.0000 C   0  0  0  0  0  0  0  0  0  0  0  0
    1.9486    0.7500    0.0000 C   0  0  0  0  0  0  0  0  0  0  0  0
    3.2476    1.5000    0.0000 C   0  0  0  0  0  0  0  0  0  0  0  0
    1.9486   -0.7500    0.0000 C   0  0  0  0  0  0  0  0  0  0  0  0
    0.6495   -1.5000    0.0000 O   0  0  0  0  0  0  0  0  0  0  0  0
    3.2476   -1.5000    0.0000 O   0  0  0  0  0  0  0  0  0  0  0  0
  1  2  1  0
  2  3  1  0
  3  4  1  0
  4  5  1  0
  5  6  1  0
  4  7  1  0
  7  8  1  0
  8  9  1  0
  8 10  1  0
 10 11  2  0
 10 12  1  0
  6  1  1  0
M  END
>  <rName>  (4633) 
piperidin-4-ylPr_2Me

>  <PQ_SYMBOL>  (4633) 
piperidin-4-ylPr_2Me

>  <FULL_NAME>  (4633) 
2-Methyl-3-(piperidin-4-yl)propanoic acid

>  <IUPAC_CONDENSED>  (4633) 
piperidin-4-ylPr(2-Me)

>  <IUPAC>  (4633) 
2-((piperidin-4-yl)methyl)propanoic acid

>  <TYPE>  (4633) 
Backbone

>  <CLASS>  (4633) 
epsilon

>  <ANALOG>  (4633) 
Pro

>  <MOL_WT>  (4633) 
171.24

>  <LOGP>  (4633) 
1.0967999999999998

>  <TPSA>  (4633) 
49.33

>  <POPULARITY>  (4633) 
9.2

>  <PROTECTED>  (4633) 
TRUE

>  <SMILES>  (4633) 
N1CCC(CC1)CC(C)C(=O)O

>  <INCHIKEY>  (4633) 
MVFMEHOBPSVMRI-UHFFFAOYSA-N

$$$$
piperidin-4-ylPr_2Me_2R
     RDKit          2D

 12 12  0  0  0  0  0  0  0  0999 V2000
   -3.2476   -0.7500    0.0000 N   0  0  0  0  0  0  0  0  0  0  0  0
   -3.2476    0.7500    0.0000 C   0  0  0  0  0  0  0  0  0  0  0  0
   -1.9486    1.5000    0.0000 C   0  0  0  0  0  0  0  0  0  0  0  0
   -0.6495    0.7500    0.0000 C   0  0  0  0  0  0  0  0  0  0  0  0
   -0.6495   -0.7500    0.0000 C   0  0  0  0  0  0  0  0  0  0  0  0
   -1.9486   -1.5000    0.0000 C   0  0  0  0  0  0  0  0  0  0  0  0
    0.6495    1.5000    0.0000 C   0  0  0  0  0  0  0  0  0  0  0  0
    1.9486    0.7500    0.0000 C   0  0  0  0  0  0  0  0  0  0  0  0
    3.2476    1.5000    0.0000 C   0  0  0  0  0  0  0  0  0  0  0  0
    1.9486   -0.7500    0.0000 C   0  0  0  0  0  0  0  0  0  0  0  0
    0.6495   -1.5000    0.0000 O   0  0  0  0  0  0  0  0  0  0  0  0
    3.2476   -1.5000    0.0000 O   0  0  0  0  0  0  0  0  0  0  0  0
  1  2  1  0
  2  3  1  0
  3  4  1  0
  4  5  1  0
  5  6  1  0
  4  7  1  0
  7  8  1  0
  8  9  1  1
  8 10  1  0
 10 11  2  0
 10 12  1  0
  6  1  1  0
M  END
>  <rName>  (4634) 
piperidin-4-ylPr_2Me_2R

>  <PQ_SYMBOL>  (4634) 
piperidin-4-ylPr_2Me_2R

>  <FULL_NAME>  (4634) 
(2R)-2-methyl-3-piperidin-4-ylpropanoic acid

>  <IUPAC_CONDENSED>  (4634) 
piperidin-4-ylPr(2-Me,2R)

>  <IUPAC>  (4634) 
(2R)-2-((piperidin-4-yl)methyl)propanoic acid

>  <TYPE>  (4634) 
Backbone

>  <CLASS>  (4634) 
epsilon

>  <ANALOG>  (4634) 
Pro

>  <MOL_WT>  (4634) 
171.24

>  <LOGP>  (4634) 
1.0967999999999998

>  <TPSA>  (4634) 
49.33

>  <POPULARITY>  (4634) 
6.9

>  <PROTECTED>  (4634) 
TRUE

>  <SMILES>  (4634) 
N1CCC(CC1)C[C@@H](C)C(=O)O

>  <INCHIKEY>  (4634) 
MVFMEHOBPSVMRI-SSDOTTSWSA-N

$$$$
piperidin-4-ylPr_2Me_2S
     RDKit          2D

 12 12  0  0  0  0  0  0  0  0999 V2000
   -3.2476   -0.7500    0.0000 N   0  0  0  0  0  0  0  0  0  0  0  0
   -3.2476    0.7500    0.0000 C   0  0  0  0  0  0  0  0  0  0  0  0
   -1.9486    1.5000    0.0000 C   0  0  0  0  0  0  0  0  0  0  0  0
   -0.6495    0.7500    0.0000 C   0  0  0  0  0  0  0  0  0  0  0  0
   -0.6495   -0.7500    0.0000 C   0  0  0  0  0  0  0  0  0  0  0  0
   -1.9486   -1.5000    0.0000 C   0  0  0  0  0  0  0  0  0  0  0  0
    0.6495    1.5000    0.0000 C   0  0  0  0  0  0  0  0  0  0  0  0
    1.9486    0.7500    0.0000 C   0  0  0  0  0  0  0  0  0  0  0  0
    3.2476    1.5000    0.0000 C   0  0  0  0  0  0  0  0  0  0  0  0
    1.9486   -0.7500    0.0000 C   0  0  0  0  0  0  0  0  0  0  0  0
    0.6495   -1.5000    0.0000 O   0  0  0  0  0  0  0  0  0  0  0  0
    3.2476   -1.5000    0.0000 O   0  0  0  0  0  0  0  0  0  0  0  0
  1  2  1  0
  2  3  1  0
  3  4  1  0
  4  5  1  0
  5  6  1  0
  4  7  1  0
  7  8  1  0
  8  9  1  6
  8 10  1  0
 10 11  2  0
 10 12  1  0
  6  1  1  0
M  END
>  <rName>  (4635) 
piperidin-4-ylPr_2Me_2S

>  <PQ_SYMBOL>  (4635) 
piperidin-4-ylPr_2Me_2S

>  <FULL_NAME>  (4635) 
(2S)-2-methyl-3-piperidin-4-ylpropanoic acid

>  <IUPAC_CONDENSED>  (4635) 
piperidin-4-ylPr(2-Me,2S)

>  <IUPAC>  (4635) 
(2S)-2-((piperidin-4-yl)methyl)propanoic acid

>  <TYPE>  (4635) 
Backbone

>  <CLASS>  (4635) 
epsilon

>  <ANALOG>  (4635) 
Pro

>  <MOL_WT>  (4635) 
171.24

>  <LOGP>  (4635) 
1.0967999999999998

>  <TPSA>  (4635) 
49.33

>  <POPULARITY>  (4635) 
6.9

>  <PROTECTED>  (4635) 
TRUE

>  <SMILES>  (4635) 
N1CCC(CC1)C[C@H](C)C(=O)O

>  <INCHIKEY>  (4635) 
MVFMEHOBPSVMRI-ZETCQYMHSA-N

$$$$
piperidin-4-ylPr_2OH
     RDKit          2D

 12 12  0  0  0  0  0  0  0  0999 V2000
   -3.7882   -0.3665    0.0000 N   0  0  0  0  0  0  0  0  0  0  0  0
   -3.4088    1.0848    0.0000 C   0  0  0  0  0  0  0  0  0  0  0  0
   -1.9624    1.4819    0.0000 C   0  0  0  0  0  0  0  0  0  0  0  0
   -0.8952    0.4278    0.0000 C   0  0  0  0  0  0  0  0  0  0  0  0
   -1.2745   -1.0235    0.0000 C   0  0  0  0  0  0  0  0  0  0  0  0
   -2.7210   -1.4206    0.0000 C   0  0  0  0  0  0  0  0  0  0  0  0
    0.5513    0.8249    0.0000 C   0  0  0  0  0  0  0  0  0  0  0  0
    1.6184   -0.2292    0.0000 C   0  0  0  0  0  0  0  0  0  0  0  0
    1.2391   -1.6805    0.0000 O   0  0  0  0  0  0  0  0  0  0  0  0
    3.0649    0.1679    0.0000 C   0  0  0  0  0  0  0  0  0  0  0  0
    3.4442    1.6191    0.0000 O   0  0  0  0  0  0  0  0  0  0  0  0
    4.1321   -0.8862    0.0000 O   0  0  0  0  0  0  0  0  0  0  0  0
  1  2  1  0
  2  3  1  0
  3  4  1  0
  4  5  1  0
  5  6  1  0
  4  7  1  0
  7  8  1  0
  8  9  1  0
  8 10  1  0
 10 11  2  0
 10 12  1  0
  6  1  1  0
M  END
>  <rName>  (4636) 
piperidin-4-ylPr_2OH

>  <PQ_SYMBOL>  (4636) 
piperidin-4-ylPr_2OH

>  <FULL_NAME>  (4636) 
2-Hydroxy-3-(piperidin-4-yl)propanoic acid

>  <IUPAC_CONDENSED>  (4636) 
piperidin-4-ylPr(2-OH)

>  <IUPAC>  (4636) 
2-hydroxy-3-(piperidin-4-yl)propanoic acid

>  <TYPE>  (4636) 
Backbone

>  <CLASS>  (4636) 
epsilon

>  <ANALOG>  (4636) 
Pro

>  <MOL_WT>  (4636) 
173.212

>  <LOGP>  (4636) 
-0.17840000000000034

>  <TPSA>  (4636) 
69.56

>  <POPULARITY>  (4636) 
6.7

>  <PROTECTED>  (4636) 
TRUE

>  <SMILES>  (4636) 
N1CCC(CC1)CC(O)C(=O)O

>  <INCHIKEY>  (4636) 
USCJUPJSNZEUPO-UHFFFAOYSA-N

$$$$
piperidin-4-ylPr_33diF
     RDKit          2D

 13 13  0  0  0  0  0  0  0  0999 V2000
    3.7938   -0.5154    0.0000 N   0  0  0  0  0  0  0  0  0  0  0  0
    2.7569   -1.5993    0.0000 C   0  0  0  0  0  0  0  0  0  0  0  0
    1.2998   -1.2433    0.0000 C   0  0  0  0  0  0  0  0  0  0  0  0
    0.8795    0.1966    0.0000 C   0  0  0  0  0  0  0  0  0  0  0  0
    1.9163    1.2805    0.0000 C   0  0  0  0  0  0  0  0  0  0  0  0
    3.3735    0.9246    0.0000 C   0  0  0  0  0  0  0  0  0  0  0  0
   -0.5777    0.5526    0.0000 C   0  0  0  0  0  0  0  0  0  0  0  0
   -0.9337   -0.9046    0.0000 F   0  0  0  0  0  0  0  0  0  0  0  0
   -0.2217    2.0097    0.0000 F   0  0  0  0  0  0  0  0  0  0  0  0
   -2.0348    0.9086    0.0000 C   0  0  0  0  0  0  0  0  0  0  0  0
   -3.0717   -0.1754    0.0000 C   0  0  0  0  0  0  0  0  0  0  0  0
   -2.6514   -1.6153    0.0000 O   0  0  0  0  0  0  0  0  0  0  0  0
   -4.5288    0.1806    0.0000 O   0  0  0  0  0  0  0  0  0  0  0  0
  1  2  1  0
  2  3  1  0
  3  4  1  0
  4  5  1  0
  5  6  1  0
  4  7  1  0
  7  8  1  0
  7  9  1  0
  7 10  1  0
 10 11  1  0
 11 12  2  0
 11 13  1  0
  6  1  1  0
M  END
>  <rName>  (4637) 
piperidin-4-ylPr_33diF

>  <PQ_SYMBOL>  (4637) 
piperidin-4-ylPr_33diF

>  <FULL_NAME>  (4637) 
3,3-Difluoro-3-(piperidin-4-yl)propanoic acid

>  <IUPAC_CONDENSED>  (4637) 
piperidin-4-ylPr(3,3-diF)

>  <IUPAC>  (4637) 
3,3-difluoro-3-(piperidin-4-yl)propanoic acid

>  <TYPE>  (4637) 
Backbone

>  <CLASS>  (4637) 
epsilon

>  <ANALOG>  (4637) 
Pro

>  <MOL_WT>  (4637) 
193.19299999999998

>  <LOGP>  (4637) 
1.0959999999999999

>  <TPSA>  (4637) 
49.33

>  <POPULARITY>  (4637) 
3.4

>  <PROTECTED>  (4637) 
TRUE

>  <SMILES>  (4637) 
N1CCC(CC1)C(F)(F)CC(=O)O

>  <INCHIKEY>  (4637) 
ZMWHBMRKYWVJNF-UHFFFAOYSA-N

$$$$
piperidin-4-ylPr_3Me
     RDKit          2D

 12 12  0  0  0  0  0  0  0  0999 V2000
    3.7992   -0.4545    0.0000 N   0  0  0  0  0  0  0  0  0  0  0  0
    2.8016   -1.5746    0.0000 C   0  0  0  0  0  0  0  0  0  0  0  0
    1.3327   -1.2707    0.0000 C   0  0  0  0  0  0  0  0  0  0  0  0
    0.8615    0.1534    0.0000 C   0  0  0  0  0  0  0  0  0  0  0  0
    1.8591    1.2735    0.0000 C   0  0  0  0  0  0  0  0  0  0  0  0
    3.3280    0.9696    0.0000 C   0  0  0  0  0  0  0  0  0  0  0  0
   -0.6074    0.4573    0.0000 C   0  0  0  0  0  0  0  0  0  0  0  0
   -1.0786    1.8814    0.0000 C   0  0  0  0  0  0  0  0  0  0  0  0
   -1.6051   -0.6628    0.0000 C   0  0  0  0  0  0  0  0  0  0  0  0
   -3.0740   -0.3588    0.0000 C   0  0  0  0  0  0  0  0  0  0  0  0
   -3.5452    1.0652    0.0000 O   0  0  0  0  0  0  0  0  0  0  0  0
   -4.0716   -1.4790    0.0000 O   0  0  0  0  0  0  0  0  0  0  0  0
  1  2  1  0
  2  3  1  0
  3  4  1  0
  4  5  1  0
  5  6  1  0
  4  7  1  0
  7  8  1  0
  7  9  1  0
  9 10  1  0
 10 11  2  0
 10 12  1  0
  6  1  1  0
M  END
>  <rName>  (4638) 
piperidin-4-ylPr_3Me

>  <PQ_SYMBOL>  (4638) 
piperidin-4-ylPr_3Me

>  <FULL_NAME>  (4638) 
3-(Piperidin-4-yl)butanoic acid

>  <IUPAC_CONDENSED>  (4638) 
piperidin-4-ylPr(3-Me)

>  <IUPAC>  (4638) 
3-(piperidin-4-yl)butanoic acid

>  <TYPE>  (4638) 
Backbone

>  <CLASS>  (4638) 
epsilon

>  <ANALOG>  (4638) 
Pro

>  <MOL_WT>  (4638) 
171.24

>  <LOGP>  (4638) 
1.0967999999999998

>  <TPSA>  (4638) 
49.33

>  <POPULARITY>  (4638) 
7.4

>  <PROTECTED>  (4638) 
TRUE

>  <SMILES>  (4638) 
N1CCC(CC1)C(C)CC(=O)O

>  <INCHIKEY>  (4638) 
IWWZSCISJMQRGU-UHFFFAOYSA-N

$$$$
piperidin-4-yl_22diMe_Ac
     RDKit          2D

 12 12  0  0  0  0  0  0  0  0999 V2000
   -2.6011    0.5445    0.0000 N   0  0  0  0  0  0  0  0  0  0  0  0
   -1.9920    1.9153    0.0000 C   0  0  0  0  0  0  0  0  0  0  0  0
   -0.5004    2.0732    0.0000 C   0  0  0  0  0  0  0  0  0  0  0  0
    0.3823    0.8604    0.0000 C   0  0  0  0  0  0  0  0  0  0  0  0
   -0.2268   -0.5104    0.0000 C   0  0  0  0  0  0  0  0  0  0  0  0
   -1.7184   -0.6684    0.0000 C   0  0  0  0  0  0  0  0  0  0  0  0
   -1.3038   -2.1099    0.0000 C   0  0  0  0  0  0  0  0  0  0  0  0
   -3.0661   -1.3270    0.0000 C   0  0  0  0  0  0  0  0  0  0  0  0
    1.8739    1.0184    0.0000 C   0  0  0  0  0  0  0  0  0  0  0  0
    2.7566   -0.1944    0.0000 C   0  0  0  0  0  0  0  0  0  0  0  0
    2.1475   -1.5652    0.0000 O   0  0  0  0  0  0  0  0  0  0  0  0
    4.2482   -0.0365    0.0000 O   0  0  0  0  0  0  0  0  0  0  0  0
  1  2  1  0
  2  3  1  0
  3  4  1  0
  4  5  1  0
  5  6  1  0
  6  7  1  0
  6  8  1  0
  4  9  1  0
  9 10  1  0
 10 11  2  0
 10 12  1  0
  6  1  1  0
M  END
>  <rName>  (4639) 
piperidin-4-yl_22diMe_Ac

>  <PQ_SYMBOL>  (4639) 
piperidin-4-yl_22diMe_Ac

>  <FULL_NAME>  (4639) 
2-(2,2-Dimethylpiperidin-4-yl)acetic acid

>  <IUPAC_CONDENSED>  (4639) 
piperidin-4-yl(2,2-diMe)Ac

>  <IUPAC>  (4639) 
2-(2,2-dimethylpiperidin-4-yl)acetic acid

>  <TYPE>  (4639) 
Backbone

>  <CLASS>  (4639) 
delta

>  <ANALOG>  (4639) 
Pro

>  <MOL_WT>  (4639) 
171.24

>  <LOGP>  (4639) 
1.2392999999999998

>  <TPSA>  (4639) 
49.33

>  <POPULARITY>  (4639) 
5.0

>  <PROTECTED>  (4639) 
TRUE

>  <SMILES>  (4639) 
N1CCC(CC1(C)C)CC(=O)O

>  <INCHIKEY>  (4639) 
CCLXSEBEYQHZPL-UHFFFAOYSA-N

$$$$
piperidin-4-yl_33diF_Ac
     RDKit          2D

 12 12  0  0  0  0  0  0  0  0999 V2000
   -3.0722   -0.2281    0.0000 N   0  0  0  0  0  0  0  0  0  0  0  0
   -2.8012    1.2472    0.0000 C   0  0  0  0  0  0  0  0  0  0  0  0
   -1.3881    1.7502    0.0000 C   0  0  0  0  0  0  0  0  0  0  0  0
   -0.2459    0.7780    0.0000 C   0  0  0  0  0  0  0  0  0  0  0  0
   -0.5168   -0.6974    0.0000 C   0  0  0  0  0  0  0  0  0  0  0  0
    0.9832   -0.7080    0.0000 F   0  0  0  0  0  0  0  0  0  0  0  0
   -0.2668   -2.1764    0.0000 F   0  0  0  0  0  0  0  0  0  0  0  0
   -1.9299   -1.2004    0.0000 C   0  0  0  0  0  0  0  0  0  0  0  0
    1.1672    1.2810    0.0000 C   0  0  0  0  0  0  0  0  0  0  0  0
    2.3095    0.3087    0.0000 C   0  0  0  0  0  0  0  0  0  0  0  0
    2.0385   -1.1666    0.0000 O   0  0  0  0  0  0  0  0  0  0  0  0
    3.7226    0.8118    0.0000 O   0  0  0  0  0  0  0  0  0  0  0  0
  1  2  1  0
  2  3  1  0
  3  4  1  0
  4  5  1  0
  5  6  1  0
  5  7  1  0
  5  8  1  0
  4  9  1  0
  9 10  1  0
 10 11  2  0
 10 12  1  0
  8  1  1  0
M  END
>  <rName>  (4640) 
piperidin-4-yl_33diF_Ac

>  <PQ_SYMBOL>  (4640) 
piperidin-4-yl_33diF_Ac

>  <FULL_NAME>  (4640) 
2-(3,3-Difluoropiperidin-4-yl)acetic acid

>  <IUPAC_CONDENSED>  (4640) 
piperidin-4-yl(3,3-diF)Ac

>  <IUPAC>  (4640) 
2-(3,3-difluoropiperidin-4-yl)acetic acid

>  <TYPE>  (4640) 
Backbone

>  <CLASS>  (4640) 
delta

>  <ANALOG>  (4640) 
Pro

>  <MOL_WT>  (4640) 
179.166

>  <LOGP>  (4640) 
0.7059000000000002

>  <TPSA>  (4640) 
49.33

>  <POPULARITY>  (4640) 
4.0

>  <PROTECTED>  (4640) 
TRUE

>  <SMILES>  (4640) 
N1CCC(C(F)(F)C1)CC(=O)O

>  <INCHIKEY>  (4640) 
IXQAJCDYAJQNSL-UHFFFAOYSA-N

$$$$
piperidin-4-yl_33diMe_Ac
     RDKit          2D

 12 12  0  0  0  0  0  0  0  0999 V2000
   -2.6383   -1.3666    0.0000 N   0  0  0  0  0  0  0  0  0  0  0  0
   -2.5953    0.1328    0.0000 C   0  0  0  0  0  0  0  0  0  0  0  0
   -1.2754    0.8453    0.0000 C   0  0  0  0  0  0  0  0  0  0  0  0
   -2.2063    2.0215    0.0000 C   0  0  0  0  0  0  0  0  0  0  0  0
   -0.2787    1.9663    0.0000 C   0  0  0  0  0  0  0  0  0  0  0  0
    0.0017    0.0585    0.0000 C   0  0  0  0  0  0  0  0  0  0  0  0
   -0.0413   -1.4409    0.0000 C   0  0  0  0  0  0  0  0  0  0  0  0
   -1.3612   -2.1534    0.0000 C   0  0  0  0  0  0  0  0  0  0  0  0
    1.3216    0.7710    0.0000 C   0  0  0  0  0  0  0  0  0  0  0  0
    2.5987   -0.0159    0.0000 C   0  0  0  0  0  0  0  0  0  0  0  0
    2.5557   -1.5153    0.0000 O   0  0  0  0  0  0  0  0  0  0  0  0
    3.9187    0.6966    0.0000 O   0  0  0  0  0  0  0  0  0  0  0  0
  1  2  1  0
  2  3  1  0
  3  4  1  0
  3  5  1  0
  3  6  1  0
  6  7  1  0
  7  8  1  0
  6  9  1  0
  9 10  1  0
 10 11  2  0
 10 12  1  0
  8  1  1  0
M  END
>  <rName>  (4641) 
piperidin-4-yl_33diMe_Ac

>  <PQ_SYMBOL>  (4641) 
piperidin-4-yl_33diMe_Ac

>  <FULL_NAME>  (4641) 
2-(3,3-Dimethylpiperidin-4-yl)acetic acid

>  <IUPAC_CONDENSED>  (4641) 
piperidin-4-yl(3,3-diMe)Ac

>  <IUPAC>  (4641) 
2-(3,3-dimethylpiperidin-4-yl)acetic acid

>  <TYPE>  (4641) 
Backbone

>  <CLASS>  (4641) 
delta

>  <ANALOG>  (4641) 
Pro

>  <MOL_WT>  (4641) 
171.23999999999998

>  <LOGP>  (4641) 
1.0967999999999998

>  <TPSA>  (4641) 
49.33

>  <POPULARITY>  (4641) 
5.4

>  <PROTECTED>  (4641) 
TRUE

>  <SMILES>  (4641) 
N1CC(C)(C)C(CC1)CC(=O)O

>  <INCHIKEY>  (4641) 
IQVJHBAGRXBNEH-UHFFFAOYSA-N

$$$$
piperidin-4-yl_3Et_3R_4S_Ac
     RDKit          2D

 12 12  0  0  0  0  0  0  0  0999 V2000
   -2.2000   -1.9495    0.0000 N   0  0  0  0  0  0  0  0  0  0  0  0
   -2.4459   -0.4698    0.0000 C   0  0  0  0  0  0  0  0  0  0  0  0
   -1.2874    0.4830    0.0000 C   0  0  0  0  0  0  0  0  0  0  0  0
   -1.5333    1.9627    0.0000 C   0  0  0  0  0  0  0  0  0  0  0  0
   -2.9377    2.4896    0.0000 C   0  0  0  0  0  0  0  0  0  0  0  0
    0.1170   -0.0439    0.0000 C   0  0  0  0  0  0  0  0  0  0  0  0
    0.3629   -1.5236    0.0000 C   0  0  0  0  0  0  0  0  0  0  0  0
   -0.7956   -2.4764    0.0000 C   0  0  0  0  0  0  0  0  0  0  0  0
    1.2756    0.9089    0.0000 C   0  0  0  0  0  0  0  0  0  0  0  0
    2.6800    0.3820    0.0000 C   0  0  0  0  0  0  0  0  0  0  0  0
    2.9258   -1.0977    0.0000 O   0  0  0  0  0  0  0  0  0  0  0  0
    3.8385    1.3348    0.0000 O   0  0  0  0  0  0  0  0  0  0  0  0
  1  2  1  0
  2  3  1  0
  3  4  1  6
  4  5  1  0
  3  6  1  0
  6  7  1  0
  7  8  1  0
  6  9  1  6
  9 10  1  0
 10 11  2  0
 10 12  1  0
  8  1  1  0
M  END
>  <rName>  (4642) 
piperidin-4-yl_3Et_3R_4S_Ac

>  <PQ_SYMBOL>  (4642) 
piperidin-4-yl_3Et_3R_4S_Ac

>  <FULL_NAME>  (4642) 
2-[(3R,4S)-3-ethylpiperidin-4-yl]acetic acid

>  <IUPAC_CONDENSED>  (4642) 
piperidin-4-yl(3-Et,3R,4S)Ac

>  <IUPAC>  (4642) 
2-((3R,4S)-3-ethylpiperidin-4-yl)acetic acid

>  <TYPE>  (4642) 
Backbone

>  <CLASS>  (4642) 
delta

>  <ANALOG>  (4642) 
Ala

>  <MOL_WT>  (4642) 
171.24

>  <LOGP>  (4642) 
1.0967999999999998

>  <TPSA>  (4642) 
49.33

>  <POPULARITY>  (4642) 
6.7

>  <PROTECTED>  (4642) 
TRUE

>  <SMILES>  (4642) 
N1C[C@H](CC)[C@@H](CC1)CC(=O)O

>  <INCHIKEY>  (4642) 
KADOSLYSZOBSFM-YUMQZZPRSA-N

$$$$
piperidin-4-yl_4CN_Pr
     RDKit          2D

 13 13  0  0  0  0  0  0  0  0999 V2000
    3.7690   -0.5768    0.0000 N   0  0  0  0  0  0  0  0  0  0  0  0
    2.7457   -1.6734    0.0000 C   0  0  0  0  0  0  0  0  0  0  0  0
    1.2842   -1.3355    0.0000 C   0  0  0  0  0  0  0  0  0  0  0  0
    0.8461    0.0991    0.0000 C   0  0  0  0  0  0  0  0  0  0  0  0
   -0.0562    1.2973    0.0000 C   0  0  0  0  0  0  0  0  0  0  0  0
   -0.9585    2.4956    0.0000 N   0  0  0  0  0  0  0  0  0  0  0  0
    1.8695    1.1958    0.0000 C   0  0  0  0  0  0  0  0  0  0  0  0
    3.3310    0.8578    0.0000 C   0  0  0  0  0  0  0  0  0  0  0  0
   -0.4906   -0.5815    0.0000 C   0  0  0  0  0  0  0  0  0  0  0  0
   -1.7483    0.2359    0.0000 C   0  0  0  0  0  0  0  0  0  0  0  0
   -3.0851   -0.4446    0.0000 C   0  0  0  0  0  0  0  0  0  0  0  0
   -3.1641   -1.9425    0.0000 O   0  0  0  0  0  0  0  0  0  0  0  0
   -4.3428    0.3728    0.0000 O   0  0  0  0  0  0  0  0  0  0  0  0
  1  2  1  0
  2  3  1  0
  3  4  1  0
  4  5  1  0
  5  6  3  0
  4  7  1  0
  7  8  1  0
  4  9  1  0
  9 10  1  0
 10 11  1  0
 11 12  2  0
 11 13  1  0
  8  1  1  0
M  END
>  <rName>  (4643) 
piperidin-4-yl_4CN_Pr

>  <PQ_SYMBOL>  (4643) 
piperidin-4-yl_4CN_Pr

>  <FULL_NAME>  (4643) 
3-(4-Cyanopiperidin-4-yl)propanoic acid

>  <IUPAC_CONDENSED>  (4643) 
piperidin-4-yl(4-CN)Pr

>  <IUPAC>  (4643) 
3-(4-(nitrilomethyl)piperidin-4-yl)propanoic acid

>  <TYPE>  (4643) 
Backbone

>  <CLASS>  (4643) 
epsilon

>  <ANALOG>  (4643) 
Pro

>  <MOL_WT>  (4643) 
182.22299999999998

>  <LOGP>  (4643) 
0.74458

>  <TPSA>  (4643) 
73.12

>  <POPULARITY>  (4643) 
2.9

>  <PROTECTED>  (4643) 
TRUE

>  <SMILES>  (4643) 
N1CCC(C#N)(CC1)CCC(=O)O

>  <INCHIKEY>  (4643) 
AGGKXGUAQZEQDN-UHFFFAOYSA-N

$$$$
piperidin-4-yl_4F_Ac
     RDKit          2D

 11 11  0  0  0  0  0  0  0  0999 V2000
    3.2116   -0.1967    0.0000 N   0  0  0  0  0  0  0  0  0  0  0  0
    2.3541   -1.4274    0.0000 C   0  0  0  0  0  0  0  0  0  0  0  0
    0.8595   -1.3002    0.0000 C   0  0  0  0  0  0  0  0  0  0  0  0
    0.2224    0.0578    0.0000 C   0  0  0  0  0  0  0  0  0  0  0  0
   -0.8408    1.1159    0.0000 F   0  0  0  0  0  0  0  0  0  0  0  0
    1.0798    1.2885    0.0000 C   0  0  0  0  0  0  0  0  0  0  0  0
    2.5744    1.1613    0.0000 C   0  0  0  0  0  0  0  0  0  0  0  0
   -1.0043   -0.8055    0.0000 C   0  0  0  0  0  0  0  0  0  0  0  0
   -2.3653   -0.1748    0.0000 C   0  0  0  0  0  0  0  0  0  0  0  0
   -2.4995    1.3192    0.0000 O   0  0  0  0  0  0  0  0  0  0  0  0
   -3.5920   -1.0381    0.0000 O   0  0  0  0  0  0  0  0  0  0  0  0
  1  2  1  0
  2  3  1  0
  3  4  1  0
  4  5  1  0
  4  6  1  0
  6  7  1  0
  4  8  1  0
  8  9  1  0
  9 10  2  0
  9 11  1  0
  7  1  1  0
M  END
>  <rName>  (4644) 
piperidin-4-yl_4F_Ac

>  <PQ_SYMBOL>  (4644) 
piperidin-4-yl_4F_Ac

>  <FULL_NAME>  (4644) 
2-(4-Fluoropiperidin-4-yl)acetic acid

>  <IUPAC_CONDENSED>  (4644) 
piperidin-4-yl(4-F)Ac

>  <IUPAC>  (4644) 
2-(4-fluoropiperidin-4-yl)acetic acid

>  <TYPE>  (4644) 
Backbone

>  <CLASS>  (4644) 
delta

>  <ANALOG>  (4644) 
Pro

>  <MOL_WT>  (4644) 
161.17600000000002

>  <LOGP>  (4644) 
0.5528

>  <TPSA>  (4644) 
49.33

>  <POPULARITY>  (4644) 
3.1

>  <PROTECTED>  (4644) 
TRUE

>  <SMILES>  (4644) 
N1CCC(F)(CC1)CC(=O)O

>  <INCHIKEY>  (4644) 
YNWYVUUYVGDJSO-UHFFFAOYSA-N

$$$$
piperidin-4-yl_4OH_Ac
     RDKit          2D

 11 11  0  0  0  0  0  0  0  0999 V2000
    3.2116   -0.1967    0.0000 N   0  0  0  0  0  0  0  0  0  0  0  0
    2.3541   -1.4274    0.0000 C   0  0  0  0  0  0  0  0  0  0  0  0
    0.8595   -1.3002    0.0000 C   0  0  0  0  0  0  0  0  0  0  0  0
    0.2224    0.0578    0.0000 C   0  0  0  0  0  0  0  0  0  0  0  0
   -0.8408    1.1159    0.0000 O   0  0  0  0  0  0  0  0  0  0  0  0
    1.0798    1.2885    0.0000 C   0  0  0  0  0  0  0  0  0  0  0  0
    2.5744    1.1613    0.0000 C   0  0  0  0  0  0  0  0  0  0  0  0
   -1.0043   -0.8055    0.0000 C   0  0  0  0  0  0  0  0  0  0  0  0
   -2.3653   -0.1748    0.0000 C   0  0  0  0  0  0  0  0  0  0  0  0
   -2.4995    1.3192    0.0000 O   0  0  0  0  0  0  0  0  0  0  0  0
   -3.5920   -1.0381    0.0000 O   0  0  0  0  0  0  0  0  0  0  0  0
  1  2  1  0
  2  3  1  0
  3  4  1  0
  4  5  1  0
  4  6  1  0
  6  7  1  0
  4  8  1  0
  8  9  1  0
  9 10  2  0
  9 11  1  0
  7  1  1  0
M  END
>  <rName>  (4645) 
piperidin-4-yl_4OH_Ac

>  <PQ_SYMBOL>  (4645) 
piperidin-4-yl_4OH_Ac

>  <FULL_NAME>  (4645) 
2-(4-Hydroxypiperidin-4-yl)acetic acid

>  <IUPAC_CONDENSED>  (4645) 
piperidin-4-yl(4-OH)Ac

>  <IUPAC>  (4645) 
2-(4-hydroxypiperidin-4-yl)acetic acid

>  <TYPE>  (4645) 
Backbone

>  <CLASS>  (4645) 
delta

>  <ANALOG>  (4645) 
Pro

>  <MOL_WT>  (4645) 
159.185

>  <LOGP>  (4645) 
-0.4244000000000004

>  <TPSA>  (4645) 
69.56

>  <POPULARITY>  (4645) 
9.2

>  <PROTECTED>  (4645) 
TRUE

>  <SMILES>  (4645) 
N1CCC(O)(CC1)CC(=O)O

>  <INCHIKEY>  (4645) 
LOVXIGLSLONCIB-UHFFFAOYSA-N

$$$$
piperidine-2-CO2H_4MeOMe_2R_4S
     RDKit          2D

 12 12  0  0  0  0  0  0  0  0999 V2000
   -1.4713   -1.5434    0.0000 N   0  0  0  0  0  0  0  0  0  0  0  0
   -1.5149   -0.0441    0.0000 C   0  0  0  0  0  0  0  0  0  0  0  0
   -0.2382    0.7434    0.0000 C   0  0  0  0  0  0  0  0  0  0  0  0
    1.0821    0.0315    0.0000 C   0  0  0  0  0  0  0  0  0  0  0  0
    1.1257   -1.4679    0.0000 C   0  0  0  0  0  0  0  0  0  0  0  0
   -0.1510   -2.2553    0.0000 C   0  0  0  0  0  0  0  0  0  0  0  0
    2.3588    0.8189    0.0000 C   0  0  0  0  0  0  0  0  0  0  0  0
    3.6791    0.1070    0.0000 O   0  0  0  0  0  0  0  0  0  0  0  0
    4.9557    0.8945    0.0000 C   0  0  0  0  0  0  0  0  0  0  0  0
   -2.8352    0.6679    0.0000 C   0  0  0  0  0  0  0  0  0  0  0  0
   -4.1119   -0.1196    0.0000 O   0  0  0  0  0  0  0  0  0  0  0  0
   -2.8788    2.1672    0.0000 O   0  0  0  0  0  0  0  0  0  0  0  0
  1  2  1  0
  2  3  1  0
  3  4  1  0
  4  5  1  0
  5  6  1  0
  4  7  1  1
  7  8  1  0
  8  9  1  0
  2 10  1  1
 10 11  2  0
 10 12  1  0
  6  1  1  0
M  END
>  <rName>  (4646) 
piperidine-2-CO2H_4MeOMe_2R_4S

>  <PQ_SYMBOL>  (4646) 
piperidine-2-CO2H_4MeOMe_2R_4S

>  <FULL_NAME>  (4646) 
COC[C@H]1CCN[C@@H](C(=O)O)C1

>  <IUPAC_CONDENSED>  (4646) 
piperidine-2-CO2H(4-MeOMe,2R,4S)

>  <IUPAC>  (4646) 
(2R,4S)-4-(methoxymethyl)piperidine-2-carboxylic acid

>  <TYPE>  (4646) 
Backbone

>  <CLASS>  (4646) 
alpha

>  <ANALOG>  (4646) 
Pro

>  <MOL_WT>  (4646) 
173.212

>  <LOGP>  (4646) 
0.08559999999999962

>  <TPSA>  (4646) 
58.56

>  <POPULARITY>  (4646) 
3.6

>  <PROTECTED>  (4646) 
TRUE

>  <SMILES>  (4646) 
N1[C@H](C[C@H](CC1)COC)C(=O)O

>  <INCHIKEY>  (4646) 
PUNHXVVDFATXRE-NKWVEPMBSA-N

$$$$
piperidine-3-CO2H_3MeOMe
     RDKit          2D

 12 12  0  0  0  0  0  0  0  0999 V2000
    1.1578   -2.1698    0.0000 N   0  0  0  0  0  0  0  0  0  0  0  0
   -0.0469   -1.2761    0.0000 C   0  0  0  0  0  0  0  0  0  0  0  0
    0.1247    0.2140    0.0000 C   0  0  0  0  0  0  0  0  0  0  0  0
    1.5010    0.8105    0.0000 C   0  0  0  0  0  0  0  0  0  0  0  0
    2.7057   -0.0832    0.0000 C   0  0  0  0  0  0  0  0  0  0  0  0
    2.5341   -1.5734    0.0000 C   0  0  0  0  0  0  0  0  0  0  0  0
   -1.3726    0.1243    0.0000 C   0  0  0  0  0  0  0  0  0  0  0  0
   -2.0436   -1.2173    0.0000 O   0  0  0  0  0  0  0  0  0  0  0  0
   -3.5409   -1.3070    0.0000 C   0  0  0  0  0  0  0  0  0  0  0  0
   -0.2237    1.6730    0.0000 C   0  0  0  0  0  0  0  0  0  0  0  0
    0.8657    2.7042    0.0000 O   0  0  0  0  0  0  0  0  0  0  0  0
   -1.6614    2.1008    0.0000 O   0  0  0  0  0  0  0  0  0  0  0  0
  1  2  1  0
  2  3  1  0
  3  4  1  0
  4  5  1  0
  5  6  1  0
  3  7  1  0
  7  8  1  0
  8  9  1  0
  3 10  1  0
 10 11  2  0
 10 12  1  0
  6  1  1  0
M  END
>  <rName>  (4647) 
piperidine-3-CO2H_3MeOMe

>  <PQ_SYMBOL>  (4647) 
piperidine-3-CO2H_3MeOMe

>  <FULL_NAME>  (4647) 
3-(Methoxymethyl)piperidine-3-carboxylic acid

>  <IUPAC_CONDENSED>  (4647) 
piperidine-3-CO2H(3-MeOMe)

>  <IUPAC>  (4647) 
3-(methoxymethyl)piperidine-3-carboxylic acid

>  <TYPE>  (4647) 
Backbone

>  <CLASS>  (4647) 
beta

>  <ANALOG>  (4647) 
Pro

>  <MOL_WT>  (4647) 
173.212

>  <LOGP>  (4647) 
0.08719999999999989

>  <TPSA>  (4647) 
58.56

>  <POPULARITY>  (4647) 
5.6

>  <PROTECTED>  (4647) 
TRUE

>  <SMILES>  (4647) 
N1CC(CCC1)(COC)C(=O)O

>  <INCHIKEY>  (4647) 
XBAMEUGXJUVNBY-UHFFFAOYSA-N

$$$$
piperidine-3-CO2H_44diF
     RDKit          2D

 11 11  0  0  0  0  0  0  0  0999 V2000
    1.9188   -1.7458    0.0000 N   0  0  0  0  0  0  0  0  0  0  0  0
    0.4190   -1.7228    0.0000 C   0  0  0  0  0  0  0  0  0  0  0  0
   -0.3110   -0.4124    0.0000 C   0  0  0  0  0  0  0  0  0  0  0  0
    0.4588    0.8750    0.0000 C   0  0  0  0  0  0  0  0  0  0  0  0
   -0.9427    1.4096    0.0000 F   0  0  0  0  0  0  0  0  0  0  0  0
    0.7419    2.3480    0.0000 F   0  0  0  0  0  0  0  0  0  0  0  0
    1.9587    0.8520    0.0000 C   0  0  0  0  0  0  0  0  0  0  0  0
    2.6887   -0.4584    0.0000 C   0  0  0  0  0  0  0  0  0  0  0  0
   -1.8108   -0.3894    0.0000 C   0  0  0  0  0  0  0  0  0  0  0  0
   -2.5806   -1.6768    0.0000 O   0  0  0  0  0  0  0  0  0  0  0  0
   -2.5408    0.9210    0.0000 O   0  0  0  0  0  0  0  0  0  0  0  0
  1  2  1  0
  2  3  1  0
  3  4  1  0
  4  5  1  0
  4  6  1  0
  4  7  1  0
  7  8  1  0
  3  9  1  0
  9 10  2  0
  9 11  1  0
  8  1  1  0
M  END
>  <rName>  (4648) 
piperidine-3-CO2H_44diF

>  <PQ_SYMBOL>  (4648) 
piperidine-3-CO2H_44diF

>  <FULL_NAME>  (4648) 
4,4-Difluoropiperidine-3-carboxylic acid

>  <IUPAC_CONDENSED>  (4648) 
piperidine-3-CO2H(4,4-diF)

>  <IUPAC>  (4648) 
4,4-difluoropiperidine-3-carboxylic acid

>  <TYPE>  (4648) 
Backbone

>  <CLASS>  (4648) 
beta

>  <ANALOG>  (4648) 
Pro

>  <MOL_WT>  (4648) 
165.139

>  <LOGP>  (4648) 
0.3158

>  <TPSA>  (4648) 
49.33

>  <POPULARITY>  (4648) 
3.8

>  <PROTECTED>  (4648) 
TRUE

>  <SMILES>  (4648) 
N1CC(C(F)(F)CC1)C(=O)O

>  <INCHIKEY>  (4648) 
KTLZLSOELJHEMZ-UHFFFAOYSA-N

$$$$
piperidine-3-CO2H_44diMe
     RDKit          2D

 11 11  0  0  0  0  0  0  0  0999 V2000
    1.9188   -1.7458    0.0000 N   0  0  0  0  0  0  0  0  0  0  0  0
    0.4190   -1.7228    0.0000 C   0  0  0  0  0  0  0  0  0  0  0  0
   -0.3110   -0.4124    0.0000 C   0  0  0  0  0  0  0  0  0  0  0  0
    0.4588    0.8750    0.0000 C   0  0  0  0  0  0  0  0  0  0  0  0
   -0.9427    1.4096    0.0000 C   0  0  0  0  0  0  0  0  0  0  0  0
    0.7419    2.3480    0.0000 C   0  0  0  0  0  0  0  0  0  0  0  0
    1.9587    0.8520    0.0000 C   0  0  0  0  0  0  0  0  0  0  0  0
    2.6887   -0.4584    0.0000 C   0  0  0  0  0  0  0  0  0  0  0  0
   -1.8108   -0.3894    0.0000 C   0  0  0  0  0  0  0  0  0  0  0  0
   -2.5806   -1.6768    0.0000 O   0  0  0  0  0  0  0  0  0  0  0  0
   -2.5408    0.9210    0.0000 O   0  0  0  0  0  0  0  0  0  0  0  0
  1  2  1  0
  2  3  1  0
  3  4  1  0
  4  5  1  0
  4  6  1  0
  4  7  1  0
  7  8  1  0
  3  9  1  0
  9 10  2  0
  9 11  1  0
  8  1  1  0
M  END
>  <rName>  (4649) 
piperidine-3-CO2H_44diMe

>  <PQ_SYMBOL>  (4649) 
piperidine-3-CO2H_44diMe

>  <FULL_NAME>  (4649) 
4,4-Dimethylpiperidine-3-carboxylic acid

>  <IUPAC_CONDENSED>  (4649) 
piperidine-3-CO2H(4,4-diMe)

>  <IUPAC>  (4649) 
4,4-dimethylpiperidine-3-carboxylic acid

>  <TYPE>  (4649) 
Backbone

>  <CLASS>  (4649) 
beta

>  <ANALOG>  (4649) 
Pro

>  <MOL_WT>  (4649) 
157.213

>  <LOGP>  (4649) 
0.7066999999999999

>  <TPSA>  (4649) 
49.33

>  <POPULARITY>  (4649) 
6.0

>  <PROTECTED>  (4649) 
TRUE

>  <SMILES>  (4649) 
N1CC(C(C)(C)CC1)C(=O)O

>  <INCHIKEY>  (4649) 
CUBYRZGUSVVPJA-UHFFFAOYSA-N

$$$$
piperidine-3-CO2H_4NH2_3R_4R
     RDKit          2D

 10 10  0  0  0  0  0  0  0  0999 V2000
   -0.4166   -2.3203    0.0000 N   0  0  0  0  0  0  0  0  0  0  0  0
    0.3975   -1.0604    0.0000 C   0  0  0  0  0  0  0  0  0  0  0  0
   -0.2866    0.2745    0.0000 C   0  0  0  0  0  0  0  0  0  0  0  0
    0.5274    1.5344    0.0000 C   0  0  0  0  0  0  0  0  0  0  0  0
    2.0255    1.4594    0.0000 N   0  0  0  0  0  0  0  0  0  0  0  0
    2.7096    0.1244    0.0000 C   0  0  0  0  0  0  0  0  0  0  0  0
    1.8956   -1.1355    0.0000 C   0  0  0  0  0  0  0  0  0  0  0  0
   -1.7848    0.3495    0.0000 C   0  0  0  0  0  0  0  0  0  0  0  0
   -2.5988   -0.9104    0.0000 O   0  0  0  0  0  0  0  0  0  0  0  0
   -2.4688    1.6844    0.0000 O   0  0  0  0  0  0  0  0  0  0  0  0
  2  1  1  1
  2  3  1  0
  3  4  1  0
  4  5  1  0
  5  6  1  0
  6  7  1  0
  3  8  1  6
  8  9  2  0
  8 10  1  0
  7  2  1  0
M  END
>  <rName>  (4650) 
piperidine-3-CO2H_4NH2_3R_4R

>  <PQ_SYMBOL>  (4650) 
piperidine-3-CO2H_4NH2_3R_4R

>  <FULL_NAME>  (4650) 
rel-(3R,4R)-4-Amino-3-piperidinecarboxylic acid

>  <IUPAC_CONDENSED>  (4650) 
piperidine-3-CO2H(4-NH2,3R,4R)

>  <IUPAC>  (4650) 
(3R,4R)-4-aminopiperidine-3-carboxylic acid

>  <TYPE>  (4650) 
Backbone

>  <CLASS>  (4650) 
beta

>  <ANALOG>  (4650) 
X

>  <MOL_WT>  (4650) 
144.174

>  <LOGP>  (4650) 
-0.9921999999999997

>  <TPSA>  (4650) 
75.35

>  <POPULARITY>  (4650) 
2.2

>  <PROTECTED>  (4650) 
TRUE

>  <SMILES>  (4650) 
N[C@H]1[C@@H](CNCC1)C(=O)O

>  <INCHIKEY>  (4650) 
GIAOPBVWVXJZQO-RFZPGFLSSA-N

$$$$
piperidine-3-CO2H_4NH2_3R_4S
     RDKit          2D

 10 10  0  0  0  0  0  0  0  0999 V2000
   -0.4166   -2.3203    0.0000 N   0  0  0  0  0  0  0  0  0  0  0  0
    0.3975   -1.0604    0.0000 C   0  0  0  0  0  0  0  0  0  0  0  0
   -0.2866    0.2745    0.0000 C   0  0  0  0  0  0  0  0  0  0  0  0
    0.5274    1.5344    0.0000 C   0  0  0  0  0  0  0  0  0  0  0  0
    2.0255    1.4594    0.0000 N   0  0  0  0  0  0  0  0  0  0  0  0
    2.7096    0.1244    0.0000 C   0  0  0  0  0  0  0  0  0  0  0  0
    1.8956   -1.1355    0.0000 C   0  0  0  0  0  0  0  0  0  0  0  0
   -1.7848    0.3495    0.0000 C   0  0  0  0  0  0  0  0  0  0  0  0
   -2.5988   -0.9104    0.0000 O   0  0  0  0  0  0  0  0  0  0  0  0
   -2.4688    1.6844    0.0000 O   0  0  0  0  0  0  0  0  0  0  0  0
  2  1  1  6
  2  3  1  0
  3  4  1  0
  4  5  1  0
  5  6  1  0
  6  7  1  0
  3  8  1  6
  8  9  2  0
  8 10  1  0
  7  2  1  0
M  END
>  <rName>  (4651) 
piperidine-3-CO2H_4NH2_3R_4S

>  <PQ_SYMBOL>  (4651) 
piperidine-3-CO2H_4NH2_3R_4S

>  <FULL_NAME>  (4651) 
(+/-)cis-4-Aminonipecotic acid

>  <IUPAC_CONDENSED>  (4651) 
piperidine-3-CO2H(4-NH2,3R,4S)

>  <IUPAC>  (4651) 
(3R,4S)-4-aminopiperidine-3-carboxylic acid

>  <TYPE>  (4651) 
Backbone

>  <CLASS>  (4651) 
beta

>  <ANALOG>  (4651) 
X

>  <MOL_WT>  (4651) 
144.174

>  <LOGP>  (4651) 
-0.9921999999999997

>  <TPSA>  (4651) 
75.35

>  <POPULARITY>  (4651) 
2.2

>  <PROTECTED>  (4651) 
TRUE

>  <SMILES>  (4651) 
N[C@@H]1[C@@H](CNCC1)C(=O)O

>  <INCHIKEY>  (4651) 
GIAOPBVWVXJZQO-UHNVWZDZSA-N

$$$$
piperidine-3-CO2H_4NH2_3S_4S
     RDKit          2D

 10 10  0  0  0  0  0  0  0  0999 V2000
   -0.4166   -2.3203    0.0000 N   0  0  0  0  0  0  0  0  0  0  0  0
    0.3975   -1.0604    0.0000 C   0  0  0  0  0  0  0  0  0  0  0  0
   -0.2866    0.2745    0.0000 C   0  0  0  0  0  0  0  0  0  0  0  0
    0.5274    1.5344    0.0000 C   0  0  0  0  0  0  0  0  0  0  0  0
    2.0255    1.4594    0.0000 N   0  0  0  0  0  0  0  0  0  0  0  0
    2.7096    0.1244    0.0000 C   0  0  0  0  0  0  0  0  0  0  0  0
    1.8956   -1.1355    0.0000 C   0  0  0  0  0  0  0  0  0  0  0  0
   -1.7848    0.3495    0.0000 C   0  0  0  0  0  0  0  0  0  0  0  0
   -2.5988   -0.9104    0.0000 O   0  0  0  0  0  0  0  0  0  0  0  0
   -2.4688    1.6844    0.0000 O   0  0  0  0  0  0  0  0  0  0  0  0
  2  1  1  6
  2  3  1  0
  3  4  1  0
  4  5  1  0
  5  6  1  0
  6  7  1  0
  3  8  1  1
  8  9  2  0
  8 10  1  0
  7  2  1  0
M  END
>  <rName>  (4652) 
piperidine-3-CO2H_4NH2_3S_4S

>  <PQ_SYMBOL>  (4652) 
piperidine-3-CO2H_4NH2_3S_4S

>  <FULL_NAME>  (4652) 
(3S,4S)-4-aminopiperidine-3-carboxylic acid

>  <IUPAC_CONDENSED>  (4652) 
piperidine-3-CO2H(4-NH2,3S,4S)

>  <IUPAC>  (4652) 
(3S,4S)-4-aminopiperidine-3-carboxylic acid

>  <TYPE>  (4652) 
Backbone

>  <CLASS>  (4652) 
beta

>  <ANALOG>  (4652) 
X

>  <MOL_WT>  (4652) 
144.174

>  <LOGP>  (4652) 
-0.9921999999999997

>  <TPSA>  (4652) 
75.35

>  <POPULARITY>  (4652) 
2.2

>  <PROTECTED>  (4652) 
TRUE

>  <SMILES>  (4652) 
N[C@@H]1[C@H](CNCC1)C(=O)O

>  <INCHIKEY>  (4652) 
GIAOPBVWVXJZQO-WHFBIAKZSA-N

$$$$
piperidine-3-CO2H_55diF
     RDKit          2D

 11 11  0  0  0  0  0  0  0  0999 V2000
    0.8710   -2.0806    0.0000 N   0  0  0  0  0  0  0  0  0  0  0  0
   -0.5576   -1.6234    0.0000 C   0  0  0  0  0  0  0  0  0  0  0  0
   -0.8760   -0.1576    0.0000 C   0  0  0  0  0  0  0  0  0  0  0  0
    0.2343    0.8510    0.0000 C   0  0  0  0  0  0  0  0  0  0  0  0
    1.6629    0.3938    0.0000 C   0  0  0  0  0  0  0  0  0  0  0  0
    1.8650    1.8801    0.0000 F   0  0  0  0  0  0  0  0  0  0  0  0
    3.1617    0.4528    0.0000 F   0  0  0  0  0  0  0  0  0  0  0  0
    1.9813   -1.0720    0.0000 C   0  0  0  0  0  0  0  0  0  0  0  0
   -2.3046    0.2996    0.0000 C   0  0  0  0  0  0  0  0  0  0  0  0
   -3.4149   -0.7091    0.0000 O   0  0  0  0  0  0  0  0  0  0  0  0
   -2.6230    1.7654    0.0000 O   0  0  0  0  0  0  0  0  0  0  0  0
  1  2  1  0
  2  3  1  0
  3  4  1  0
  4  5  1  0
  5  6  1  0
  5  7  1  0
  5  8  1  0
  3  9  1  0
  9 10  2  0
  9 11  1  0
  8  1  1  0
M  END
>  <rName>  (4653) 
piperidine-3-CO2H_55diF

>  <PQ_SYMBOL>  (4653) 
piperidine-3-CO2H_55diF

>  <FULL_NAME>  (4653) 
5,5-Difluoropiperidine-3-carboxylic acid

>  <IUPAC_CONDENSED>  (4653) 
piperidine-3-CO2H(5,5-diF)

>  <IUPAC>  (4653) 
5,5-difluoropiperidine-3-carboxylic acid

>  <TYPE>  (4653) 
Backbone

>  <CLASS>  (4653) 
beta

>  <ANALOG>  (4653) 
Pro

>  <MOL_WT>  (4653) 
165.139

>  <LOGP>  (4653) 
0.3158

>  <TPSA>  (4653) 
49.33

>  <POPULARITY>  (4653) 
5.2

>  <PROTECTED>  (4653) 
TRUE

>  <SMILES>  (4653) 
N1CC(CC(F)(F)C1)C(=O)O

>  <INCHIKEY>  (4653) 
WYXRBEZTQNOEHT-UHFFFAOYSA-N

$$$$
piperidine-4-CO2H_22diMe
     RDKit          2D

 11 11  0  0  0  0  0  0  0  0999 V2000
    1.9813   -1.0720    0.0000 N   0  0  0  0  0  0  0  0  0  0  0  0
    0.8710   -2.0806    0.0000 C   0  0  0  0  0  0  0  0  0  0  0  0
   -0.5576   -1.6234    0.0000 C   0  0  0  0  0  0  0  0  0  0  0  0
   -0.8760   -0.1576    0.0000 C   0  0  0  0  0  0  0  0  0  0  0  0
    0.2343    0.8510    0.0000 C   0  0  0  0  0  0  0  0  0  0  0  0
    1.6629    0.3938    0.0000 C   0  0  0  0  0  0  0  0  0  0  0  0
    1.8650    1.8801    0.0000 C   0  0  0  0  0  0  0  0  0  0  0  0
    3.1617    0.4528    0.0000 C   0  0  0  0  0  0  0  0  0  0  0  0
   -2.3046    0.2996    0.0000 C   0  0  0  0  0  0  0  0  0  0  0  0
   -3.4149   -0.7091    0.0000 O   0  0  0  0  0  0  0  0  0  0  0  0
   -2.6230    1.7654    0.0000 O   0  0  0  0  0  0  0  0  0  0  0  0
  1  2  1  0
  2  3  1  0
  3  4  1  0
  4  5  1  0
  5  6  1  0
  6  7  1  0
  6  8  1  0
  4  9  1  0
  9 10  2  0
  9 11  1  0
  6  1  1  0
M  END
>  <rName>  (4654) 
piperidine-4-CO2H_22diMe

>  <PQ_SYMBOL>  (4654) 
piperidine-4-CO2H_22diMe

>  <FULL_NAME>  (4654) 
2,2-Dimethylpiperidine-4-carboxylic acid

>  <IUPAC_CONDENSED>  (4654) 
piperidine-4-CO2H(2,2-diMe)

>  <IUPAC>  (4654) 
2,2-dimethylpiperidine-4-carboxylic acid

>  <TYPE>  (4654) 
Backbone

>  <CLASS>  (4654) 
gamma

>  <ANALOG>  (4654) 
Pro

>  <MOL_WT>  (4654) 
157.213

>  <LOGP>  (4654) 
0.8492

>  <TPSA>  (4654) 
49.33

>  <POPULARITY>  (4654) 
5.6

>  <PROTECTED>  (4654) 
TRUE

>  <SMILES>  (4654) 
N1CCC(CC1(C)C)C(=O)O

>  <INCHIKEY>  (4654) 
ZDTBGMBGMQVBNM-UHFFFAOYSA-N

$$$$
piperidine-4-CO2H_33diF
     RDKit          2D

 11 11  0  0  0  0  0  0  0  0999 V2000
    2.6887   -0.4584    0.0000 N   0  0  0  0  0  0  0  0  0  0  0  0
    1.9188   -1.7458    0.0000 C   0  0  0  0  0  0  0  0  0  0  0  0
    0.4190   -1.7228    0.0000 C   0  0  0  0  0  0  0  0  0  0  0  0
   -0.3110   -0.4124    0.0000 C   0  0  0  0  0  0  0  0  0  0  0  0
    0.4588    0.8750    0.0000 C   0  0  0  0  0  0  0  0  0  0  0  0
   -0.9427    1.4096    0.0000 F   0  0  0  0  0  0  0  0  0  0  0  0
    0.7419    2.3480    0.0000 F   0  0  0  0  0  0  0  0  0  0  0  0
    1.9587    0.8520    0.0000 C   0  0  0  0  0  0  0  0  0  0  0  0
   -1.8108   -0.3894    0.0000 C   0  0  0  0  0  0  0  0  0  0  0  0
   -2.5806   -1.6768    0.0000 O   0  0  0  0  0  0  0  0  0  0  0  0
   -2.5408    0.9210    0.0000 O   0  0  0  0  0  0  0  0  0  0  0  0
  1  2  1  0
  2  3  1  0
  3  4  1  0
  4  5  1  0
  5  6  1  0
  5  7  1  0
  5  8  1  0
  4  9  1  0
  9 10  2  0
  9 11  1  0
  8  1  1  0
M  END
>  <rName>  (4655) 
piperidine-4-CO2H_33diF

>  <PQ_SYMBOL>  (4655) 
piperidine-4-CO2H_33diF

>  <FULL_NAME>  (4655) 
3,3-Difluoropiperidine-4-carboxylic acid

>  <IUPAC_CONDENSED>  (4655) 
piperidine-4-CO2H(3,3-diF)

>  <IUPAC>  (4655) 
3,3-difluoropiperidine-4-carboxylic acid

>  <TYPE>  (4655) 
Backbone

>  <CLASS>  (4655) 
gamma

>  <ANALOG>  (4655) 
Pro

>  <MOL_WT>  (4655) 
165.139

>  <LOGP>  (4655) 
0.3158

>  <TPSA>  (4655) 
49.33

>  <POPULARITY>  (4655) 
5.0

>  <PROTECTED>  (4655) 
TRUE

>  <SMILES>  (4655) 
N1CCC(C(F)(F)C1)C(=O)O

>  <INCHIKEY>  (4655) 
DSWSNADCSHIEOB-UHFFFAOYSA-N

$$$$
piperidine-4-CO2H_33diF_4Me
     RDKit          2D

 12 12  0  0  0  0  0  0  0  0999 V2000
   -2.7324   -0.0952    0.0000 N   0  0  0  0  0  0  0  0  0  0  0  0
   -2.3233    1.3479    0.0000 C   0  0  0  0  0  0  0  0  0  0  0  0
   -0.8689    1.7152    0.0000 C   0  0  0  0  0  0  0  0  0  0  0  0
    0.1763    0.6393    0.0000 C   0  0  0  0  0  0  0  0  0  0  0  0
    1.0543    1.8555    0.0000 C   0  0  0  0  0  0  0  0  0  0  0  0
   -0.2328   -0.8038    0.0000 C   0  0  0  0  0  0  0  0  0  0  0  0
    0.7267   -1.0224    0.0000 F   0  0  0  0  0  0  0  0  0  0  0  0
   -0.1237   -2.2998    0.0000 F   0  0  0  0  0  0  0  0  0  0  0  0
   -1.6872   -1.1711    0.0000 C   0  0  0  0  0  0  0  0  0  0  0  0
    1.5264   -0.0142    0.0000 C   0  0  0  0  0  0  0  0  0  0  0  0
    2.7675    0.8283    0.0000 O   0  0  0  0  0  0  0  0  0  0  0  0
    1.7172   -0.9797    0.0000 O   0  0  0  0  0  0  0  0  0  0  0  0
  1  2  1  0
  2  3  1  0
  3  4  1  0
  4  5  1  0
  4  6  1  0
  6  7  1  0
  6  8  1  0
  6  9  1  0
  4 10  1  0
 10 11  2  0
 10 12  1  0
  9  1  1  0
M  END
>  <rName>  (4656) 
piperidine-4-CO2H_33diF_4Me

>  <PQ_SYMBOL>  (4656) 
piperidine-4-CO2H_33diF_4Me

>  <FULL_NAME>  (4656) 
3,3-Difluoro-4-methylpiperidine-4-carboxylic acid

>  <IUPAC_CONDENSED>  (4656) 
piperidine-4-CO2H(3,3-diF,4-Me)

>  <IUPAC>  (4656) 
3,3-difluoro-4-methylpiperidine-4-carboxylic acid

>  <TYPE>  (4656) 
Backbone

>  <CLASS>  (4656) 
gamma

>  <ANALOG>  (4656) 
Pro

>  <MOL_WT>  (4656) 
179.166

>  <LOGP>  (4656) 
0.7059

>  <TPSA>  (4656) 
49.33

>  <POPULARITY>  (4656) 
4.2

>  <PROTECTED>  (4656) 
TRUE

>  <SMILES>  (4656) 
N1CCC(C)(C(F)(F)C1)C(=O)O

>  <INCHIKEY>  (4656) 
NUDSDYPIJYQINR-UHFFFAOYSA-N

$$$$
piperidine-4-CO2H_33diMe
     RDKit          2D

 11 11  0  0  0  0  0  0  0  0999 V2000
   -2.6887   -0.4584    0.0000 N   0  0  0  0  0  0  0  0  0  0  0  0
   -1.9587    0.8520    0.0000 C   0  0  0  0  0  0  0  0  0  0  0  0
   -0.4588    0.8750    0.0000 C   0  0  0  0  0  0  0  0  0  0  0  0
   -0.7419    2.3480    0.0000 C   0  0  0  0  0  0  0  0  0  0  0  0
    0.9427    1.4096    0.0000 C   0  0  0  0  0  0  0  0  0  0  0  0
    0.3110   -0.4124    0.0000 C   0  0  0  0  0  0  0  0  0  0  0  0
   -0.4190   -1.7228    0.0000 C   0  0  0  0  0  0  0  0  0  0  0  0
   -1.9188   -1.7458    0.0000 C   0  0  0  0  0  0  0  0  0  0  0  0
    1.8108   -0.3894    0.0000 C   0  0  0  0  0  0  0  0  0  0  0  0
    2.5408    0.9210    0.0000 O   0  0  0  0  0  0  0  0  0  0  0  0
    2.5806   -1.6768    0.0000 O   0  0  0  0  0  0  0  0  0  0  0  0
  1  2  1  0
  2  3  1  0
  3  4  1  0
  3  5  1  0
  3  6  1  0
  6  7  1  0
  7  8  1  0
  6  9  1  0
  9 10  2  0
  9 11  1  0
  8  1  1  0
M  END
>  <rName>  (4657) 
piperidine-4-CO2H_33diMe

>  <PQ_SYMBOL>  (4657) 
piperidine-4-CO2H_33diMe

>  <FULL_NAME>  (4657) 
3,3-Dimethylpiperidine-4-carboxylic acid

>  <IUPAC_CONDENSED>  (4657) 
piperidine-4-CO2H(3,3-diMe)

>  <IUPAC>  (4657) 
3,3-dimethylpiperidine-4-carboxylic acid

>  <TYPE>  (4657) 
Backbone

>  <CLASS>  (4657) 
gamma

>  <ANALOG>  (4657) 
Pro

>  <MOL_WT>  (4657) 
157.213

>  <LOGP>  (4657) 
0.7066999999999999

>  <TPSA>  (4657) 
49.33

>  <POPULARITY>  (4657) 
6.4

>  <PROTECTED>  (4657) 
TRUE

>  <SMILES>  (4657) 
N1CC(C)(C)C(CC1)C(=O)O

>  <INCHIKEY>  (4657) 
QMWYVKHPUYWFFV-UHFFFAOYSA-N

$$$$
piperidine-4-CO2H_4CF2Me
     RDKit          2D

 13 13  0  0  0  0  0  0  0  0999 V2000
   -3.0579   -0.2127    0.0000 N   0  0  0  0  0  0  0  0  0  0  0  0
   -2.4373    1.1529    0.0000 C   0  0  0  0  0  0  0  0  0  0  0  0
   -0.9444    1.2983    0.0000 C   0  0  0  0  0  0  0  0  0  0  0  0
   -0.0720    0.0780    0.0000 C   0  0  0  0  0  0  0  0  0  0  0  0
   -0.6926   -1.2876    0.0000 C   0  0  0  0  0  0  0  0  0  0  0  0
   -2.1855   -1.4329    0.0000 C   0  0  0  0  0  0  0  0  0  0  0  0
    1.1651   -0.7702    0.0000 C   0  0  0  0  0  0  0  0  0  0  0  0
    2.4022   -1.6185    0.0000 C   0  0  0  0  0  0  0  0  0  0  0  0
    0.3168   -2.0073    0.0000 F   0  0  0  0  0  0  0  0  0  0  0  0
    1.8888    0.0495    0.0000 F   0  0  0  0  0  0  0  0  0  0  0  0
    0.9782    1.1490    0.0000 C   0  0  0  0  0  0  0  0  0  0  0  0
    2.0625    1.0075    0.0000 O   0  0  0  0  0  0  0  0  0  0  0  0
    0.5758    2.5941    0.0000 O   0  0  0  0  0  0  0  0  0  0  0  0
  1  2  1  0
  2  3  1  0
  3  4  1  0
  4  5  1  0
  5  6  1  0
  4  7  1  0
  7  8  1  0
  7  9  1  0
  7 10  1  0
  4 11  1  0
 11 12  2  0
 11 13  1  0
  6  1  1  0
M  END
>  <rName>  (4658) 
piperidine-4-CO2H_4CF2Me

>  <PQ_SYMBOL>  (4658) 
piperidine-4-CO2H_4CF2Me

>  <FULL_NAME>  (4658) 
4-(1,1-Difluoroethyl)piperidine-4-carboxylic acid

>  <IUPAC_CONDENSED>  (4658) 
piperidine-4-CO2H(4-CF2Me)

>  <IUPAC>  (4658) 
4-(1,1-difluoroethyl)piperidine-4-carboxylic acid

>  <TYPE>  (4658) 
Backbone

>  <CLASS>  (4658) 
gamma

>  <ANALOG>  (4658) 
Pro

>  <MOL_WT>  (4658) 
193.19299999999998

>  <LOGP>  (4658) 
1.0959999999999999

>  <TPSA>  (4658) 
49.33

>  <POPULARITY>  (4658) 
2.9

>  <PROTECTED>  (4658) 
TRUE

>  <SMILES>  (4658) 
N1CCC(CC1)(C(C)(F)F)C(=O)O

>  <INCHIKEY>  (4658) 
ZCSVDAGMOBWRGU-UHFFFAOYSA-N

$$$$
piperidine-4-CO2H_4MeOMe
     RDKit          2D

 12 12  0  0  0  0  0  0  0  0999 V2000
    2.5341   -1.5734    0.0000 N   0  0  0  0  0  0  0  0  0  0  0  0
    1.1578   -2.1698    0.0000 C   0  0  0  0  0  0  0  0  0  0  0  0
   -0.0469   -1.2761    0.0000 C   0  0  0  0  0  0  0  0  0  0  0  0
    0.1247    0.2140    0.0000 C   0  0  0  0  0  0  0  0  0  0  0  0
    1.5010    0.8105    0.0000 C   0  0  0  0  0  0  0  0  0  0  0  0
    2.7057   -0.0832    0.0000 C   0  0  0  0  0  0  0  0  0  0  0  0
   -1.3726    0.1243    0.0000 C   0  0  0  0  0  0  0  0  0  0  0  0
   -2.0436   -1.2173    0.0000 O   0  0  0  0  0  0  0  0  0  0  0  0
   -3.5409   -1.3070    0.0000 C   0  0  0  0  0  0  0  0  0  0  0  0
   -0.2237    1.6730    0.0000 C   0  0  0  0  0  0  0  0  0  0  0  0
   -1.6614    2.1008    0.0000 O   0  0  0  0  0  0  0  0  0  0  0  0
    0.8657    2.7042    0.0000 O   0  0  0  0  0  0  0  0  0  0  0  0
  1  2  1  0
  2  3  1  0
  3  4  1  0
  4  5  1  0
  5  6  1  0
  4  7  1  0
  7  8  1  0
  8  9  1  0
  4 10  1  0
 10 11  2  0
 10 12  1  0
  6  1  1  0
M  END
>  <rName>  (4659) 
piperidine-4-CO2H_4MeOMe

>  <PQ_SYMBOL>  (4659) 
piperidine-4-CO2H_4MeOMe

>  <FULL_NAME>  (4659) 
4-(Methoxymethyl)piperidine-4-carboxylic acid

>  <IUPAC_CONDENSED>  (4659) 
piperidine-4-CO2H(4-MeOMe)

>  <IUPAC>  (4659) 
4-(methoxymethyl)piperidine-4-carboxylic acid

>  <TYPE>  (4659) 
Backbone

>  <CLASS>  (4659) 
gamma

>  <ANALOG>  (4659) 
Pro

>  <MOL_WT>  (4659) 
173.212

>  <LOGP>  (4659) 
0.08719999999999989

>  <TPSA>  (4659) 
58.56

>  <POPULARITY>  (4659) 
5.5

>  <PROTECTED>  (4659) 
TRUE

>  <SMILES>  (4659) 
N1CCC(CC1)(COC)C(=O)O

>  <INCHIKEY>  (4659) 
WAUZGQVUPPBDED-UHFFFAOYSA-N

$$$$
piperidino
     RDKit          2D

  6  6  0  0  0  0  0  0  0  0999 V2000
    1.5000    0.0000    0.0000 N   0  0  0  0  0  0  0  0  0  0  0  0
    0.7500   -1.2990    0.0000 C   0  0  0  0  0  0  0  0  0  0  0  0
   -0.7500   -1.2990    0.0000 C   0  0  0  0  0  0  0  0  0  0  0  0
   -1.5000    0.0000    0.0000 C   0  0  0  0  0  0  0  0  0  0  0  0
   -0.7500    1.2990    0.0000 C   0  0  0  0  0  0  0  0  0  0  0  0
    0.7500    1.2990    0.0000 C   0  0  0  0  0  0  0  0  0  0  0  0
  1  2  1  0
  2  3  1  0
  3  4  1  0
  4  5  1  0
  5  6  1  0
  6  1  1  0
M  END
>  <rName>  (4660) 
piperidino

>  <PQ_SYMBOL>  (4660) 
piperidino

>  <FULL_NAME>  (4660) 
Piperidine

>  <IUPAC_CONDENSED>  (4660) 
piperidino

>  <IUPAC>  (4660) 
piperidine

>  <TYPE>  (4660) 
C-term cap

>  <CLASS>  (4660) 
c_cap

>  <ANALOG>  (4660) 
X

>  <MOL_WT>  (4660) 
85.15

>  <LOGP>  (4660) 
0.7599

>  <TPSA>  (4660) 
12.03

>  <POPULARITY>  (4660) 
17.1

>  <PROTECTED>  (4660) 
TRUE

>  <SMILES>  (4660) 
N1CCCCC1

>  <INCHIKEY>  (4660) 
NQRYJNQNLNOLGT-UHFFFAOYSA-N

$$$$
piperidino_4NHAc_4Ph
     RDKit          2D

 16 17  0  0  0  0  0  0  0  0999 V2000
    2.4995   -2.4831    0.0000 N   0  0  0  0  0  0  0  0  0  0  0  0
    1.0400   -2.8296    0.0000 C   0  0  0  0  0  0  0  0  0  0  0  0
    0.0103   -1.7389    0.0000 C   0  0  0  0  0  0  0  0  0  0  0  0
    0.4400   -0.3017    0.0000 C   0  0  0  0  0  0  0  0  0  0  0  0
    1.8994    0.0447    0.0000 C   0  0  0  0  0  0  0  0  0  0  0  0
    2.9292   -1.0460    0.0000 C   0  0  0  0  0  0  0  0  0  0  0  0
    0.3522    1.1957    0.0000 N   0  0  0  0  0  0  0  0  0  0  0  0
    1.6052    2.0204    0.0000 C   0  0  0  0  0  0  0  0  0  0  0  0
    2.9459    1.3477    0.0000 O   0  0  0  0  0  0  0  0  0  0  0  0
    1.5175    3.5178    0.0000 C   0  0  0  0  0  0  0  0  0  0  0  0
   -1.0499   -0.1281    0.0000 C   0  0  0  0  0  0  0  0  0  0  0  0
   -1.6445    1.2490    0.0000 C   0  0  0  0  0  0  0  0  0  0  0  0
   -3.1345    1.4226    0.0000 C   0  0  0  0  0  0  0  0  0  0  0  0
   -4.0298    0.2191    0.0000 C   0  0  0  0  0  0  0  0  0  0  0  0
   -3.4352   -1.1580    0.0000 C   0  0  0  0  0  0  0  0  0  0  0  0
   -1.9453   -1.3316    0.0000 C   0  0  0  0  0  0  0  0  0  0  0  0
  1  2  1  0
  2  3  1  0
  3  4  1  0
  4  5  1  0
  5  6  1  0
  4  7  1  0
  7  8  1  0
  8  9  2  0
  8 10  1  0
  4 11  1  0
 11 12  2  0
 12 13  1  0
 13 14  2  0
 14 15  1  0
 15 16  2  0
 16 11  1  0
  6  1  1  0
M  END
>  <rName>  (4661) 
piperidino_4NHAc_4Ph

>  <PQ_SYMBOL>  (4661) 
piperidino_4NHAc_4Ph

>  <FULL_NAME>  (4661) 
N-(4-Phenylpiperidin-4-yl)acetamide

>  <IUPAC_CONDENSED>  (4661) 
piperidino(4-NHAc,4-Ph)

>  <IUPAC>  (4661) 
N-(4-phenylpiperidin-4-yl)acetamide

>  <TYPE>  (4661) 
C-term cap

>  <CLASS>  (4661) 
c_cap

>  <ANALOG>  (4661) 
X

>  <MOL_WT>  (4661) 
218.3

>  <LOGP>  (4661) 
1.4013999999999998

>  <TPSA>  (4661) 
41.129999999999995

>  <POPULARITY>  (4661) 
8.2

>  <PROTECTED>  (4661) 
TRUE

>  <SMILES>  (4661) 
N2CCC(CC2)(NC(=O)C)c1ccccc1

>  <INCHIKEY>  (4661) 
RSWVTFKEQVIXPQ-UHFFFAOYSA-N

$$$$
piperidino_4Ph_2CF3
     RDKit          2D

 16 17  0  0  0  0  0  0  0  0999 V2000
    3.9572    0.1072    0.0000 N   0  0  0  0  0  0  0  0  0  0  0  0
    3.0115   -1.0571    0.0000 C   0  0  0  0  0  0  0  0  0  0  0  0
    1.5303   -0.8203    0.0000 C   0  0  0  0  0  0  0  0  0  0  0  0
    0.9948    0.5809    0.0000 C   0  0  0  0  0  0  0  0  0  0  0  0
    1.9405    1.7452    0.0000 C   0  0  0  0  0  0  0  0  0  0  0  0
    3.4217    1.5084    0.0000 C   0  0  0  0  0  0  0  0  0  0  0  0
   -0.4863    0.8178    0.0000 C   0  0  0  0  0  0  0  0  0  0  0  0
   -1.0218    2.2189    0.0000 C   0  0  0  0  0  0  0  0  0  0  0  0
   -2.5030    2.4558    0.0000 C   0  0  0  0  0  0  0  0  0  0  0  0
   -3.4487    1.2915    0.0000 C   0  0  0  0  0  0  0  0  0  0  0  0
   -2.9132   -0.1097    0.0000 C   0  0  0  0  0  0  0  0  0  0  0  0
   -1.4321   -0.3465    0.0000 C   0  0  0  0  0  0  0  0  0  0  0  0
   -0.8966   -1.7477    0.0000 C   0  0  0  0  0  0  0  0  0  0  0  0
   -0.3611   -3.1489    0.0000 F   0  0  0  0  0  0  0  0  0  0  0  0
   -2.2978   -2.2832    0.0000 F   0  0  0  0  0  0  0  0  0  0  0  0
    0.5046   -1.2122    0.0000 F   0  0  0  0  0  0  0  0  0  0  0  0
  1  2  1  0
  2  3  1  0
  3  4  1  0
  4  5  1  0
  5  6  1  0
  4  7  1  0
  7  8  2  0
  8  9  1  0
  9 10  2  0
 10 11  1  0
 11 12  2  0
 12 13  1  0
 13 14  1  0
 13 15  1  0
 13 16  1  0
 12  7  1  0
  6  1  1  0
M  END
>  <rName>  (4662) 
piperidino_4Ph_2CF3

>  <PQ_SYMBOL>  (4662) 
piperidino_4Ph_2CF3

>  <FULL_NAME>  (4662) 
4-(2-trifluoromethyl-phenyl)-piperidine

>  <IUPAC_CONDENSED>  (4662) 
piperidino(4-Ph(2-CF3))

>  <IUPAC>  (4662) 
4-(2-(trifluoromethyl)phenyl)piperidine

>  <TYPE>  (4662) 
C-term cap

>  <CLASS>  (4662) 
c_cap

>  <ANALOG>  (4662) 
X

>  <MOL_WT>  (4662) 
229.24499999999998

>  <LOGP>  (4662) 
3.1724000000000014

>  <TPSA>  (4662) 
12.03

>  <POPULARITY>  (4662) 
7.6

>  <PROTECTED>  (4662) 
TRUE

>  <SMILES>  (4662) 
N2CCC(CC2)c1ccccc1C(F)(F)F

>  <INCHIKEY>  (4662) 
KFWQOXAWVPAOKE-UHFFFAOYSA-N

$$$$
piperidino_4Ph_4OPh
     RDKit          2D

 19 21  0  0  0  0  0  0  0  0999 V2000
   -6.1519   -0.8640    0.0000 N   0  0  0  0  0  0  0  0  0  0  0  0
   -5.7785    0.5888    0.0000 C   0  0  0  0  0  0  0  0  0  0  0  0
   -4.3336    0.9917    0.0000 C   0  0  0  0  0  0  0  0  0  0  0  0
   -3.2622   -0.0581    0.0000 C   0  0  0  0  0  0  0  0  0  0  0  0
   -3.6357   -1.5108    0.0000 C   0  0  0  0  0  0  0  0  0  0  0  0
   -5.0805   -1.9138    0.0000 C   0  0  0  0  0  0  0  0  0  0  0  0
   -1.8174    0.3449    0.0000 C   0  0  0  0  0  0  0  0  0  0  0  0
   -0.7459   -0.7049    0.0000 C   0  0  0  0  0  0  0  0  0  0  0  0
    0.6989   -0.3019    0.0000 C   0  0  0  0  0  0  0  0  0  0  0  0
    1.0724    1.1508    0.0000 C   0  0  0  0  0  0  0  0  0  0  0  0
    0.0009    2.2006    0.0000 C   0  0  0  0  0  0  0  0  0  0  0  0
   -1.4439    1.7977    0.0000 C   0  0  0  0  0  0  0  0  0  0  0  0
    2.5172    1.5538    0.0000 O   0  0  0  0  0  0  0  0  0  0  0  0
    3.5886    0.5040    0.0000 C   0  0  0  0  0  0  0  0  0  0  0  0
    3.2152   -0.9488    0.0000 C   0  0  0  0  0  0  0  0  0  0  0  0
    4.2866   -1.9986    0.0000 C   0  0  0  0  0  0  0  0  0  0  0  0
    5.7314   -1.5956    0.0000 C   0  0  0  0  0  0  0  0  0  0  0  0
    6.1049   -0.1428    0.0000 C   0  0  0  0  0  0  0  0  0  0  0  0
    5.0335    0.9070    0.0000 C   0  0  0  0  0  0  0  0  0  0  0  0
  1  2  1  0
  2  3  1  0
  3  4  1  0
  4  5  1  0
  5  6  1  0
  4  7  1  0
  7  8  1  0
  8  9  2  0
  9 10  1  0
 10 11  2  0
 11 12  1  0
 10 13  1  0
 13 14  1  0
 14 15  2  0
 15 16  1  0
 16 17  2  0
 17 18  1  0
 18 19  2  0
 19 14  1  0
 12  7  2  0
  6  1  1  0
M  END
>  <rName>  (4663) 
piperidino_4Ph_4OPh

>  <PQ_SYMBOL>  (4663) 
piperidino_4Ph_4OPh

>  <FULL_NAME>  (4663) 
4-(4-Phenoxyphenyl)-piperidine

>  <IUPAC_CONDENSED>  (4663) 
piperidino(4-Ph(4-OPh))

>  <IUPAC>  (4663) 
4-(4-phenoxyphenyl)piperidine

>  <TYPE>  (4663) 
C-term cap

>  <CLASS>  (4663) 
c_cap

>  <ANALOG>  (4663) 
X

>  <MOL_WT>  (4663) 
253.34500000000003

>  <LOGP>  (4663) 
3.9459000000000026

>  <TPSA>  (4663) 
21.259999999999998

>  <POPULARITY>  (4663) 
5.4

>  <PROTECTED>  (4663) 
TRUE

>  <SMILES>  (4663) 
N3CCC(CC3)c2ccc(cc2)Oc1ccccc1

>  <INCHIKEY>  (4663) 
MTMOLUVQNWNTBV-UHFFFAOYSA-N

$$$$
prop-2-ynyl-Gly-
     RDKit          2D

  8  7  0  0  0  0  0  0  0  0999 V2000
    0.3245    0.0130    0.0000 N   0  0  0  0  0  0  0  0  0  0  0  0
    1.5925    0.8143    0.0000 C   0  0  0  0  0  0  0  0  0  0  0  0
    2.9205    0.1168    0.0000 C   0  0  0  0  0  0  0  0  0  0  0  0
    4.2485   -0.5807    0.0000 C   0  0  0  0  0  0  0  0  0  0  0  0
   -1.0035    0.7105    0.0000 C   0  0  0  0  0  0  0  0  0  0  0  0
   -2.2715   -0.0908    0.0000 C   0  0  0  0  0  0  0  0  0  0  0  0
   -2.2116   -1.5896    0.0000 O   0  0  0  0  0  0  0  0  0  0  0  0
   -3.5995    0.6067    0.0000 O   0  0  0  0  0  0  0  0  0  0  0  0
  1  2  1  0
  2  3  1  0
  3  4  3  0
  1  5  1  0
  5  6  1  0
  6  7  2  0
  6  8  1  0
M  END
>  <rName>  (4664) 
prop-2-ynyl-Gly-

>  <PQ_SYMBOL>  (4664) 
prop-2-ynyl-Gly-

>  <FULL_NAME>  (4664) 
2-(prop-2-ynylamino)acetic acid

>  <IUPAC_CONDENSED>  (4664) 
prop-2-ynyl-Gly-

>  <IUPAC>  (4664) 
2-((prop-2-yn-1-yl)amino)acetic acid

>  <TYPE>  (4664) 
N-term cap

>  <CLASS>  (4664) 
n_cap

>  <ANALOG>  (4664) 
X

>  <MOL_WT>  (4664) 
113.11599999999999

>  <LOGP>  (4664) 
-0.7062000000000002

>  <TPSA>  (4664) 
49.33

>  <POPULARITY>  (4664) 
9.3

>  <PROTECTED>  (4664) 
TRUE

>  <SMILES>  (4664) 
N(CC#C)CC(=O)O

>  <INCHIKEY>  (4664) 
XSJLQGMTIHCDSS-UHFFFAOYSA-N

$$$$
pyrid-2-ylmethyl-bAla
     RDKit          2D

 13 13  0  0  0  0  0  0  0  0999 V2000
   -0.5884    0.1150    0.0000 N   0  0  0  0  0  0  0  0  0  0  0  0
    0.5426   -0.8703    0.0000 C   0  0  0  0  0  0  0  0  0  0  0  0
    1.9614   -0.3834    0.0000 C   0  0  0  0  0  0  0  0  0  0  0  0
    2.2491    1.0888    0.0000 C   0  0  0  0  0  0  0  0  0  0  0  0
    3.6679    1.5757    0.0000 C   0  0  0  0  0  0  0  0  0  0  0  0
    4.7990    0.5904    0.0000 C   0  0  0  0  0  0  0  0  0  0  0  0
    4.5112   -0.8817    0.0000 C   0  0  0  0  0  0  0  0  0  0  0  0
    3.0925   -1.3686    0.0000 N   0  0  0  0  0  0  0  0  0  0  0  0
   -2.0072   -0.3719    0.0000 C   0  0  0  0  0  0  0  0  0  0  0  0
   -3.1382    0.6134    0.0000 C   0  0  0  0  0  0  0  0  0  0  0  0
   -4.5570    0.1265    0.0000 C   0  0  0  0  0  0  0  0  0  0  0  0
   -4.8448   -1.3456    0.0000 O   0  0  0  0  0  0  0  0  0  0  0  0
   -5.6881    1.1118    0.0000 O   0  0  0  0  0  0  0  0  0  0  0  0
  1  2  1  0
  2  3  1  0
  3  4  2  0
  4  5  1  0
  5  6  2  0
  6  7  1  0
  7  8  2  0
  1  9  1  0
  9 10  1  0
 10 11  1  0
 11 12  2  0
 11 13  1  0
  8  3  1  0
M  END
>  <rName>  (4665) 
pyrid-2-ylmethyl-bAla

>  <PQ_SYMBOL>  (4665) 
pyrid-2-ylmethyl-bAla

>  <FULL_NAME>  (4665) 
3-[(Pyridin-2-ylmethyl)amino]propanoic acid

>  <IUPAC_CONDENSED>  (4665) 
pyrid-2-ylmethyl-bAla

>  <IUPAC>  (4665) 
3-(((pyridin-2-yl)methyl)amino)propanoic acid

>  <TYPE>  (4665) 
Backbone

>  <CLASS>  (4665) 
beta

>  <ANALOG>  (4665) 
Gly

>  <MOL_WT>  (4665) 
180.20699999999997

>  <LOGP>  (4665) 
0.6459000000000001

>  <TPSA>  (4665) 
62.22

>  <POPULARITY>  (4665) 
10.0

>  <PROTECTED>  (4665) 
TRUE

>  <SMILES>  (4665) 
N(Cc1(ccccn1))CCC(=O)O

>  <INCHIKEY>  (4665) 
PFABWZAHJPWPGS-UHFFFAOYSA-N

$$$$
pyrid-3-ylmethyl-bAla
     RDKit          2D

 13 13  0  0  0  0  0  0  0  0999 V2000
   -0.5884    0.1150    0.0000 N   0  0  0  0  0  0  0  0  0  0  0  0
    0.5426   -0.8703    0.0000 C   0  0  0  0  0  0  0  0  0  0  0  0
    1.9614   -0.3834    0.0000 C   0  0  0  0  0  0  0  0  0  0  0  0
    2.2491    1.0888    0.0000 C   0  0  0  0  0  0  0  0  0  0  0  0
    3.6679    1.5757    0.0000 C   0  0  0  0  0  0  0  0  0  0  0  0
    4.7990    0.5904    0.0000 C   0  0  0  0  0  0  0  0  0  0  0  0
    4.5112   -0.8817    0.0000 N   0  0  0  0  0  0  0  0  0  0  0  0
    3.0925   -1.3686    0.0000 C   0  0  0  0  0  0  0  0  0  0  0  0
   -2.0072   -0.3719    0.0000 C   0  0  0  0  0  0  0  0  0  0  0  0
   -3.1382    0.6134    0.0000 C   0  0  0  0  0  0  0  0  0  0  0  0
   -4.5570    0.1265    0.0000 C   0  0  0  0  0  0  0  0  0  0  0  0
   -4.8448   -1.3456    0.0000 O   0  0  0  0  0  0  0  0  0  0  0  0
   -5.6881    1.1118    0.0000 O   0  0  0  0  0  0  0  0  0  0  0  0
  1  2  1  0
  2  3  1  0
  3  4  2  0
  4  5  1  0
  5  6  2  0
  6  7  1  0
  7  8  2  0
  1  9  1  0
  9 10  1  0
 10 11  1  0
 11 12  2  0
 11 13  1  0
  8  3  1  0
M  END
>  <rName>  (4666) 
pyrid-3-ylmethyl-bAla

>  <PQ_SYMBOL>  (4666) 
pyrid-3-ylmethyl-bAla

>  <FULL_NAME>  (4666) 
3-[(Pyridin-3-ylmethyl)amino]propanoic acid

>  <IUPAC_CONDENSED>  (4666) 
pyrid-3-ylmethyl-bAla

>  <IUPAC>  (4666) 
3-(((pyridin-3-yl)methyl)amino)propanoic acid

>  <TYPE>  (4666) 
Backbone

>  <CLASS>  (4666) 
beta

>  <ANALOG>  (4666) 
Gly

>  <MOL_WT>  (4666) 
180.20699999999997

>  <LOGP>  (4666) 
0.6459000000000001

>  <TPSA>  (4666) 
62.22

>  <POPULARITY>  (4666) 
9.9

>  <PROTECTED>  (4666) 
TRUE

>  <SMILES>  (4666) 
N(Cc1(cccnc1))CCC(=O)O

>  <INCHIKEY>  (4666) 
FWAMEGKRKNQPON-UHFFFAOYSA-N

$$$$
pyrrolidin-2-ylPr
     RDKit          2D

 10 10  0  0  0  0  0  0  0  0999 V2000
   -1.6644   -1.1391    0.0000 N   0  0  0  0  0  0  0  0  0  0  0  0
   -1.1088    0.2543    0.0000 C   0  0  0  0  0  0  0  0  0  0  0  0
   -2.2623    1.2132    0.0000 C   0  0  0  0  0  0  0  0  0  0  0  0
   -3.5307    0.4124    0.0000 C   0  0  0  0  0  0  0  0  0  0  0  0
   -3.1612   -1.0413    0.0000 C   0  0  0  0  0  0  0  0  0  0  0  0
    0.3449    0.6238    0.0000 C   0  0  0  0  0  0  0  0  0  0  0  0
    1.3919   -0.4504    0.0000 C   0  0  0  0  0  0  0  0  0  0  0  0
    2.8456   -0.0808    0.0000 C   0  0  0  0  0  0  0  0  0  0  0  0
    3.2525    1.3629    0.0000 O   0  0  0  0  0  0  0  0  0  0  0  0
    3.8925   -1.1550    0.0000 O   0  0  0  0  0  0  0  0  0  0  0  0
  1  2  1  0
  2  3  1  0
  3  4  1  0
  4  5  1  0
  2  6  1  0
  6  7  1  0
  7  8  1  0
  8  9  2  0
  8 10  1  0
  5  1  1  0
M  END
>  <rName>  (4667) 
pyrrolidin-2-ylPr

>  <PQ_SYMBOL>  (4667) 
pyrrolidin-2-ylPr

>  <FULL_NAME>  (4667) 
3-Pyrrolidin-2-yl-propionic acid

>  <IUPAC_CONDENSED>  (4667) 
pyrrolidin-2-ylPr

>  <IUPAC>  (4667) 
3-(pyrrolidin-2-yl)propanoic acid

>  <TYPE>  (4667) 
Backbone

>  <CLASS>  (4667) 
gamma

>  <ANALOG>  (4667) 
Pro

>  <MOL_WT>  (4667) 
143.186

>  <LOGP>  (4667) 
0.6032

>  <TPSA>  (4667) 
49.33

>  <POPULARITY>  (4667) 
10.9

>  <PROTECTED>  (4667) 
TRUE

>  <SMILES>  (4667) 
N1C(CCC1)CCC(=O)O

>  <INCHIKEY>  (4667) 
HIDODKLFTVMWQL-UHFFFAOYSA-N

$$$$
pyrrolidin-2S-ylPr
     RDKit          2D

 10 10  0  0  0  0  0  0  0  0999 V2000
   -1.6644   -1.1391    0.0000 N   0  0  0  0  0  0  0  0  0  0  0  0
   -1.1088    0.2543    0.0000 C   0  0  0  0  0  0  0  0  0  0  0  0
   -2.2623    1.2132    0.0000 C   0  0  0  0  0  0  0  0  0  0  0  0
   -3.5307    0.4124    0.0000 C   0  0  0  0  0  0  0  0  0  0  0  0
   -3.1612   -1.0413    0.0000 C   0  0  0  0  0  0  0  0  0  0  0  0
    0.3449    0.6238    0.0000 C   0  0  0  0  0  0  0  0  0  0  0  0
    1.3919   -0.4504    0.0000 C   0  0  0  0  0  0  0  0  0  0  0  0
    2.8456   -0.0808    0.0000 C   0  0  0  0  0  0  0  0  0  0  0  0
    3.2525    1.3629    0.0000 O   0  0  0  0  0  0  0  0  0  0  0  0
    3.8925   -1.1550    0.0000 O   0  0  0  0  0  0  0  0  0  0  0  0
  1  2  1  0
  2  3  1  0
  3  4  1  0
  4  5  1  0
  2  6  1  1
  6  7  1  0
  7  8  1  0
  8  9  2  0
  8 10  1  0
  5  1  1  0
M  END
>  <rName>  (4668) 
pyrrolidin-2S-ylPr

>  <PQ_SYMBOL>  (4668) 
pyrrolidin-2S-ylPr

>  <FULL_NAME>  (4668) 
(S)-3-(pyrrolidin-2-yl)propanoic acid

>  <IUPAC_CONDENSED>  (4668) 
pyrrolidin-2S-ylPr

>  <IUPAC>  (4668) 
3-((2S)-pyrrolidin-2-yl)propanoic acid

>  <TYPE>  (4668) 
Backbone

>  <CLASS>  (4668) 
gamma

>  <ANALOG>  (4668) 
Pro

>  <MOL_WT>  (4668) 
143.186

>  <LOGP>  (4668) 
0.6032

>  <TPSA>  (4668) 
49.33

>  <POPULARITY>  (4668) 
11.6

>  <PROTECTED>  (4668) 
TRUE

>  <SMILES>  (4668) 
N1[C@@H](CCC1)CCC(=O)O

>  <INCHIKEY>  (4668) 
HIDODKLFTVMWQL-LURJTMIESA-N

$$$$
pyrrolidin-3-yl3-OHAc_22diF
     RDKit          2D

 12 12  0  0  0  0  0  0  0  0999 V2000
   -3.1764    0.0142    0.0000 N   0  0  0  0  0  0  0  0  0  0  0  0
   -2.1437   -1.0737    0.0000 C   0  0  0  0  0  0  0  0  0  0  0  0
   -0.7899   -0.4278    0.0000 C   0  0  0  0  0  0  0  0  0  0  0  0
   -0.2890   -1.8417    0.0000 O   0  0  0  0  0  0  0  0  0  0  0  0
   -0.9859    1.0594    0.0000 C   0  0  0  0  0  0  0  0  0  0  0  0
   -2.4608    1.3325    0.0000 C   0  0  0  0  0  0  0  0  0  0  0  0
    0.6686   -0.0774    0.0000 C   0  0  0  0  0  0  0  0  0  0  0  0
    1.0190   -1.5359    0.0000 F   0  0  0  0  0  0  0  0  0  0  0  0
    0.3182    1.3811    0.0000 F   0  0  0  0  0  0  0  0  0  0  0  0
    2.1271    0.2729    0.0000 C   0  0  0  0  0  0  0  0  0  0  0  0
    3.1598   -0.8150    0.0000 O   0  0  0  0  0  0  0  0  0  0  0  0
    2.5530    1.7112    0.0000 O   0  0  0  0  0  0  0  0  0  0  0  0
  1  2  1  0
  2  3  1  0
  3  4  1  0
  3  5  1  0
  5  6  1  0
  3  7  1  0
  7  8  1  0
  7  9  1  0
  7 10  1  0
 10 11  2  0
 10 12  1  0
  6  1  1  0
M  END
>  <rName>  (4669) 
pyrrolidin-3-yl3-OHAc_22diF

>  <PQ_SYMBOL>  (4669) 
pyrrolidin-3-yl3-OHAc_22diF

>  <FULL_NAME>  (4669) 
2,2-Difluoro-2-(3-hydroxypyrrolidin-3-yl)acetic acid

>  <IUPAC_CONDENSED>  (4669) 
pyrrolidin-3-yl(3-OH)Ac(2,2-diF)

>  <IUPAC>  (4669) 
2,2-difluoro-2-(3-hydroxypyrrolidin-3-yl)acetic acid

>  <TYPE>  (4669) 
Backbone

>  <CLASS>  (4669) 
gamma

>  <ANALOG>  (4669) 
Pro

>  <MOL_WT>  (4669) 
181.138

>  <LOGP>  (4669) 
-0.5693000000000001

>  <TPSA>  (4669) 
69.56

>  <POPULARITY>  (4669) 
3.0

>  <PROTECTED>  (4669) 
TRUE

>  <SMILES>  (4669) 
N1CC(O)(CC1)C(F)(F)C(=O)O

>  <INCHIKEY>  (4669) 
SVZDDBSVYYYHRH-UHFFFAOYSA-N

$$$$
pyrrolidin-3-ylAc
     RDKit          2D

  9  9  0  0  0  0  0  0  0  0999 V2000
   -2.3794   -1.0606    0.0000 N   0  0  0  0  0  0  0  0  0  0  0  0
   -0.8806   -1.0024    0.0000 C   0  0  0  0  0  0  0  0  0  0  0  0
   -0.4728    0.4411    0.0000 C   0  0  0  0  0  0  0  0  0  0  0  0
   -1.7196    1.2750    0.0000 C   0  0  0  0  0  0  0  0  0  0  0  0
   -2.8980    0.3469    0.0000 C   0  0  0  0  0  0  0  0  0  0  0  0
    0.9347    0.9597    0.0000 C   0  0  0  0  0  0  0  0  0  0  0  0
    2.0876   -0.0000    0.0000 C   0  0  0  0  0  0  0  0  0  0  0  0
    1.8329   -1.4782    0.0000 O   0  0  0  0  0  0  0  0  0  0  0  0
    3.4951    0.5186    0.0000 O   0  0  0  0  0  0  0  0  0  0  0  0
  1  2  1  0
  2  3  1  0
  3  4  1  0
  4  5  1  0
  3  6  1  0
  6  7  1  0
  7  8  2  0
  7  9  1  0
  5  1  1  0
M  END
>  <rName>  (4670) 
pyrrolidin-3-ylAc

>  <PQ_SYMBOL>  (4670) 
pyrrolidin-3-ylAc

>  <FULL_NAME>  (4670) 
2-(pyrrolidin-3-yl)acetic acid

>  <IUPAC_CONDENSED>  (4670) 
pyrrolidin-3-ylAc

>  <IUPAC>  (4670) 
2-(pyrrolidin-3-yl)acetic acid

>  <TYPE>  (4670) 
Backbone

>  <CLASS>  (4670) 
gamma

>  <ANALOG>  (4670) 
Pro

>  <MOL_WT>  (4670) 
129.15900000000002

>  <LOGP>  (4670) 
0.07059999999999994

>  <TPSA>  (4670) 
49.33

>  <POPULARITY>  (4670) 
12.8

>  <PROTECTED>  (4670) 
TRUE

>  <SMILES>  (4670) 
N1CC(CC1)CC(=O)O

>  <INCHIKEY>  (4670) 
OUENRUZPZZFMCA-UHFFFAOYSA-N

$$$$
pyrrolidin-3-ylAc_22diF
     RDKit          2D

 11 11  0  0  0  0  0  0  0  0999 V2000
   -3.0919   -0.7500    0.0000 N   0  0  0  0  0  0  0  0  0  0  0  0
   -1.6653   -1.2135    0.0000 C   0  0  0  0  0  0  0  0  0  0  0  0
   -0.7836   -0.0000    0.0000 C   0  0  0  0  0  0  0  0  0  0  0  0
   -1.6653    1.2135    0.0000 C   0  0  0  0  0  0  0  0  0  0  0  0
   -3.0919    0.7500    0.0000 C   0  0  0  0  0  0  0  0  0  0  0  0
    0.7164    0.0000    0.0000 C   0  0  0  0  0  0  0  0  0  0  0  0
    0.7164   -1.5000    0.0000 F   0  0  0  0  0  0  0  0  0  0  0  0
    0.7164    1.5000    0.0000 F   0  0  0  0  0  0  0  0  0  0  0  0
    2.2164   -0.0000    0.0000 C   0  0  0  0  0  0  0  0  0  0  0  0
    2.9664   -1.2990    0.0000 O   0  0  0  0  0  0  0  0  0  0  0  0
    2.9664    1.2990    0.0000 O   0  0  0  0  0  0  0  0  0  0  0  0
  1  2  1  0
  2  3  1  0
  3  4  1  0
  4  5  1  0
  3  6  1  0
  6  7  1  0
  6  8  1  0
  6  9  1  0
  9 10  2  0
  9 11  1  0
  5  1  1  0
M  END
>  <rName>  (4671) 
pyrrolidin-3-ylAc_22diF

>  <PQ_SYMBOL>  (4671) 
pyrrolidin-3-ylAc_22diF

>  <FULL_NAME>  (4671) 
2,2-Difluoro-2-(pyrrolidin-3-YL)acetic acid

>  <IUPAC_CONDENSED>  (4671) 
pyrrolidin-3-ylAc(2,2-diF)

>  <IUPAC>  (4671) 
2,2-difluoro-2-(pyrrolidin-3-yl)acetic acid

>  <TYPE>  (4671) 
Backbone

>  <CLASS>  (4671) 
gamma

>  <ANALOG>  (4671) 
Pro

>  <MOL_WT>  (4671) 
165.139

>  <LOGP>  (4671) 
0.3158

>  <TPSA>  (4671) 
49.33

>  <POPULARITY>  (4671) 
3.1

>  <PROTECTED>  (4671) 
TRUE

>  <SMILES>  (4671) 
N1CC(CC1)C(F)(F)C(=O)O

>  <INCHIKEY>  (4671) 
ABARNWJWQOCSTO-UHFFFAOYSA-N

$$$$
pyrrolidin-3-ylAc_2F
     RDKit          2D

 10 10  0  0  0  0  0  0  0  0999 V2000
   -2.6103   -1.0630    0.0000 N   0  0  0  0  0  0  0  0  0  0  0  0
   -1.1126   -1.1464    0.0000 C   0  0  0  0  0  0  0  0  0  0  0  0
   -0.5705    0.2522    0.0000 C   0  0  0  0  0  0  0  0  0  0  0  0
   -1.7331    1.2000    0.0000 C   0  0  0  0  0  0  0  0  0  0  0  0
   -2.9938    0.3872    0.0000 C   0  0  0  0  0  0  0  0  0  0  0  0
    0.8797    0.6358    0.0000 C   0  0  0  0  0  0  0  0  0  0  0  0
    1.2726    2.0834    0.0000 F   0  0  0  0  0  0  0  0  0  0  0  0
    1.9369   -0.4284    0.0000 C   0  0  0  0  0  0  0  0  0  0  0  0
    1.5439   -1.8760    0.0000 O   0  0  0  0  0  0  0  0  0  0  0  0
    3.3870   -0.0449    0.0000 O   0  0  0  0  0  0  0  0  0  0  0  0
  1  2  1  0
  2  3  1  0
  3  4  1  0
  4  5  1  0
  3  6  1  0
  6  7  1  0
  6  8  1  0
  8  9  2  0
  8 10  1  0
  5  1  1  0
M  END
>  <rName>  (4672) 
pyrrolidin-3-ylAc_2F

>  <PQ_SYMBOL>  (4672) 
pyrrolidin-3-ylAc_2F

>  <FULL_NAME>  (4672) 
2-Fluoro-2-(pyrrolidin-3-yl)acetic acid

>  <IUPAC_CONDENSED>  (4672) 
pyrrolidin-3-ylAc(2-F)

>  <IUPAC>  (4672) 
2-fluoro-2-(pyrrolidin-3-yl)acetic acid

>  <TYPE>  (4672) 
Backbone

>  <CLASS>  (4672) 
gamma

>  <ANALOG>  (4672) 
Pro

>  <MOL_WT>  (4672) 
147.149

>  <LOGP>  (4672) 
0.018600000000000116

>  <TPSA>  (4672) 
49.33

>  <POPULARITY>  (4672) 
3.6

>  <PROTECTED>  (4672) 
TRUE

>  <SMILES>  (4672) 
N1CC(CC1)C(F)C(=O)O

>  <INCHIKEY>  (4672) 
CTEMSSGOSBPTLU-UHFFFAOYSA-N

$$$$
pyrrolidin-3-ylAc_2OH
     RDKit          2D

 10 10  0  0  0  0  0  0  0  0999 V2000
   -2.6103   -1.0630    0.0000 N   0  0  0  0  0  0  0  0  0  0  0  0
   -1.1126   -1.1464    0.0000 C   0  0  0  0  0  0  0  0  0  0  0  0
   -0.5705    0.2522    0.0000 C   0  0  0  0  0  0  0  0  0  0  0  0
   -1.7331    1.2000    0.0000 C   0  0  0  0  0  0  0  0  0  0  0  0
   -2.9938    0.3872    0.0000 C   0  0  0  0  0  0  0  0  0  0  0  0
    0.8797    0.6358    0.0000 C   0  0  0  0  0  0  0  0  0  0  0  0
    1.2726    2.0834    0.0000 O   0  0  0  0  0  0  0  0  0  0  0  0
    1.9369   -0.4284    0.0000 C   0  0  0  0  0  0  0  0  0  0  0  0
    1.5439   -1.8760    0.0000 O   0  0  0  0  0  0  0  0  0  0  0  0
    3.3870   -0.0449    0.0000 O   0  0  0  0  0  0  0  0  0  0  0  0
  1  2  1  0
  2  3  1  0
  3  4  1  0
  4  5  1  0
  3  6  1  0
  6  7  1  0
  6  8  1  0
  8  9  2  0
  8 10  1  0
  5  1  1  0
M  END
>  <rName>  (4673) 
pyrrolidin-3-ylAc_2OH

>  <PQ_SYMBOL>  (4673) 
pyrrolidin-3-ylAc_2OH

>  <FULL_NAME>  (4673) 
2-Hydroxy-2-(pyrrolidin-3-yl)acetic acid

>  <IUPAC_CONDENSED>  (4673) 
pyrrolidin-3-ylAc(2-OH)

>  <IUPAC>  (4673) 
2-hydroxy-2-(pyrrolidin-3-yl)acetic acid

>  <TYPE>  (4673) 
Backbone

>  <CLASS>  (4673) 
gamma

>  <ANALOG>  (4673) 
Pro

>  <MOL_WT>  (4673) 
145.158

>  <LOGP>  (4673) 
-0.9586000000000001

>  <TPSA>  (4673) 
69.56

>  <POPULARITY>  (4673) 
6.3

>  <PROTECTED>  (4673) 
TRUE

>  <SMILES>  (4673) 
N1CC(CC1)C(O)C(=O)O

>  <INCHIKEY>  (4673) 
SVVJSLPGDIZWAF-UHFFFAOYSA-N

$$$$
pyrrolidin-3-ylPr
     RDKit          2D

 10 10  0  0  0  0  0  0  0  0999 V2000
   -3.1612   -1.0413    0.0000 N   0  0  0  0  0  0  0  0  0  0  0  0
   -1.6644   -1.1391    0.0000 C   0  0  0  0  0  0  0  0  0  0  0  0
   -1.1088    0.2543    0.0000 C   0  0  0  0  0  0  0  0  0  0  0  0
   -2.2623    1.2132    0.0000 C   0  0  0  0  0  0  0  0  0  0  0  0
   -3.5307    0.4124    0.0000 C   0  0  0  0  0  0  0  0  0  0  0  0
    0.3449    0.6238    0.0000 C   0  0  0  0  0  0  0  0  0  0  0  0
    1.3919   -0.4504    0.0000 C   0  0  0  0  0  0  0  0  0  0  0  0
    2.8456   -0.0808    0.0000 C   0  0  0  0  0  0  0  0  0  0  0  0
    3.2525    1.3629    0.0000 O   0  0  0  0  0  0  0  0  0  0  0  0
    3.8925   -1.1550    0.0000 O   0  0  0  0  0  0  0  0  0  0  0  0
  1  2  1  0
  2  3  1  0
  3  4  1  0
  4  5  1  0
  3  6  1  0
  6  7  1  0
  7  8  1  0
  8  9  2  0
  8 10  1  0
  5  1  1  0
M  END
>  <rName>  (4674) 
pyrrolidin-3-ylPr

>  <PQ_SYMBOL>  (4674) 
pyrrolidin-3-ylPr

>  <FULL_NAME>  (4674) 
3-(Pyrrolidin-3-yl)propanoic acid

>  <IUPAC_CONDENSED>  (4674) 
pyrrolidin-3-ylPr

>  <IUPAC>  (4674) 
3-(pyrrolidin-3-yl)propanoic acid

>  <TYPE>  (4674) 
Backbone

>  <CLASS>  (4674) 
delta

>  <ANALOG>  (4674) 
Pro

>  <MOL_WT>  (4674) 
143.186

>  <LOGP>  (4674) 
0.46069999999999983

>  <TPSA>  (4674) 
49.33

>  <POPULARITY>  (4674) 
12.5

>  <PROTECTED>  (4674) 
TRUE

>  <SMILES>  (4674) 
N1CC(CC1)CCC(=O)O

>  <INCHIKEY>  (4674) 
VQCUMONTEGWEIX-UHFFFAOYSA-N

$$$$
pyrrolidin-3-yl_22diMe_Ac
     RDKit          2D

 11 11  0  0  0  0  0  0  0  0999 V2000
   -2.3834   -0.5782    0.0000 N   0  0  0  0  0  0  0  0  0  0  0  0
   -0.8837   -0.6093    0.0000 C   0  0  0  0  0  0  0  0  0  0  0  0
    0.5767   -0.9516    0.0000 C   0  0  0  0  0  0  0  0  0  0  0  0
   -1.0715   -2.0975    0.0000 C   0  0  0  0  0  0  0  0  0  0  0  0
   -0.3907    0.8073    0.0000 C   0  0  0  0  0  0  0  0  0  0  0  0
   -1.5856    1.7140    0.0000 C   0  0  0  0  0  0  0  0  0  0  0  0
   -2.8172    0.8578    0.0000 C   0  0  0  0  0  0  0  0  0  0  0  0
    1.0453    1.2411    0.0000 C   0  0  0  0  0  0  0  0  0  0  0  0
    2.1389    0.2144    0.0000 C   0  0  0  0  0  0  0  0  0  0  0  0
    1.7966   -1.2460    0.0000 O   0  0  0  0  0  0  0  0  0  0  0  0
    3.5748    0.6482    0.0000 O   0  0  0  0  0  0  0  0  0  0  0  0
  1  2  1  0
  2  3  1  0
  2  4  1  0
  2  5  1  0
  5  6  1  0
  6  7  1  0
  5  8  1  0
  8  9  1  0
  9 10  2  0
  9 11  1  0
  7  1  1  0
M  END
>  <rName>  (4675) 
pyrrolidin-3-yl_22diMe_Ac

>  <PQ_SYMBOL>  (4675) 
pyrrolidin-3-yl_22diMe_Ac

>  <FULL_NAME>  (4675) 
2-(2,2-Dimethylpyrrolidin-3-yl)acetic acid

>  <IUPAC_CONDENSED>  (4675) 
pyrrolidin-3-yl(2,2-diMe)Ac

>  <IUPAC>  (4675) 
2-(2,2-dimethylpyrrolidin-3-yl)acetic acid

>  <TYPE>  (4675) 
Backbone

>  <CLASS>  (4675) 
gamma

>  <ANALOG>  (4675) 
Pro

>  <MOL_WT>  (4675) 
157.213

>  <LOGP>  (4675) 
0.8492

>  <TPSA>  (4675) 
49.33

>  <POPULARITY>  (4675) 
6.0

>  <PROTECTED>  (4675) 
TRUE

>  <SMILES>  (4675) 
N1C(C)(C)C(CC1)CC(=O)O

>  <INCHIKEY>  (4675) 
PIQKYXCKJJCWAP-UHFFFAOYSA-N

$$$$
pyrrolidin-3-yl_3Me_Ac
     RDKit          2D

 10 10  0  0  0  0  0  0  0  0999 V2000
   -1.3312   -1.6337    0.0000 N   0  0  0  0  0  0  0  0  0  0  0  0
   -0.1267   -0.7398    0.0000 C   0  0  0  0  0  0  0  0  0  0  0  0
   -0.6046    0.6820    0.0000 C   0  0  0  0  0  0  0  0  0  0  0  0
   -0.7765    2.1721    0.0000 C   0  0  0  0  0  0  0  0  0  0  0  0
   -2.1045    0.6668    0.0000 C   0  0  0  0  0  0  0  0  0  0  0  0
   -2.5536   -0.7644    0.0000 C   0  0  0  0  0  0  0  0  0  0  0  0
    0.8594    1.0087    0.0000 C   0  0  0  0  0  0  0  0  0  0  0  0
    1.8743   -0.0958    0.0000 C   0  0  0  0  0  0  0  0  0  0  0  0
    1.4252   -1.5270    0.0000 O   0  0  0  0  0  0  0  0  0  0  0  0
    3.3383    0.2309    0.0000 O   0  0  0  0  0  0  0  0  0  0  0  0
  1  2  1  0
  2  3  1  0
  3  4  1  0
  3  5  1  0
  5  6  1  0
  3  7  1  0
  7  8  1  0
  8  9  2  0
  8 10  1  0
  6  1  1  0
M  END
>  <rName>  (4676) 
pyrrolidin-3-yl_3Me_Ac

>  <PQ_SYMBOL>  (4676) 
pyrrolidin-3-yl_3Me_Ac

>  <FULL_NAME>  (4676) 
2-(3-Methylpyrrolidin-3-yl)acetic acid

>  <IUPAC_CONDENSED>  (4676) 
pyrrolidin-3-yl(3-Me)Ac

>  <IUPAC>  (4676) 
2-(3-methylpyrrolidin-3-yl)acetic acid

>  <TYPE>  (4676) 
Backbone

>  <CLASS>  (4676) 
gamma

>  <ANALOG>  (4676) 
Pro

>  <MOL_WT>  (4676) 
143.186

>  <LOGP>  (4676) 
0.46069999999999983

>  <TPSA>  (4676) 
49.33

>  <POPULARITY>  (4676) 
7.5

>  <PROTECTED>  (4676) 
TRUE

>  <SMILES>  (4676) 
N1CC(C)(CC1)CC(=O)O

>  <INCHIKEY>  (4676) 
PGRDLAWOKXWIPP-UHFFFAOYSA-N

$$$$
pyrrolidin-3-yl_3OH_Ac
     RDKit          2D

 10 10  0  0  0  0  0  0  0  0999 V2000
   -2.8824   -0.5210    0.0000 N   0  0  0  0  0  0  0  0  0  0  0  0
   -1.5223   -1.1536    0.0000 C   0  0  0  0  0  0  0  0  0  0  0  0
   -0.5004   -0.0556    0.0000 C   0  0  0  0  0  0  0  0  0  0  0  0
    0.4848   -1.1867    0.0000 O   0  0  0  0  0  0  0  0  0  0  0  0
   -1.2289    1.2556    0.0000 C   0  0  0  0  0  0  0  0  0  0  0  0
   -2.7010    0.9680    0.0000 C   0  0  0  0  0  0  0  0  0  0  0  0
    0.7275    0.8059    0.0000 C   0  0  0  0  0  0  0  0  0  0  0  0
    2.0876    0.1733    0.0000 C   0  0  0  0  0  0  0  0  0  0  0  0
    2.2197   -1.3209    0.0000 O   0  0  0  0  0  0  0  0  0  0  0  0
    3.3155    1.0349    0.0000 O   0  0  0  0  0  0  0  0  0  0  0  0
  1  2  1  0
  2  3  1  0
  3  4  1  0
  3  5  1  0
  5  6  1  0
  3  7  1  0
  7  8  1  0
  8  9  2  0
  8 10  1  0
  6  1  1  0
M  END
>  <rName>  (4677) 
pyrrolidin-3-yl_3OH_Ac

>  <PQ_SYMBOL>  (4677) 
pyrrolidin-3-yl_3OH_Ac

>  <FULL_NAME>  (4677) 
2-(3-Hydroxypyrrolidin-3-yl)acetic acid

>  <IUPAC_CONDENSED>  (4677) 
pyrrolidin-3-yl(3-OH)Ac

>  <IUPAC>  (4677) 
2-(3-hydroxypyrrolidin-3-yl)acetic acid

>  <TYPE>  (4677) 
Backbone

>  <CLASS>  (4677) 
gamma

>  <ANALOG>  (4677) 
Pro

>  <MOL_WT>  (4677) 
145.15800000000002

>  <LOGP>  (4677) 
-0.8145000000000007

>  <TPSA>  (4677) 
69.56

>  <POPULARITY>  (4677) 
5.9

>  <PROTECTED>  (4677) 
TRUE

>  <SMILES>  (4677) 
N1CC(O)(CC1)CC(=O)O

>  <INCHIKEY>  (4677) 
GNWBOYCNQMXZSN-UHFFFAOYSA-N

$$$$
pyrrolidin-3-yl_44diMe_Ac
     RDKit          2D

 11 11  0  0  0  0  0  0  0  0999 V2000
   -1.6854   -1.9061    0.0000 N   0  0  0  0  0  0  0  0  0  0  0  0
   -0.2349   -1.5240    0.0000 C   0  0  0  0  0  0  0  0  0  0  0  0
   -0.1501   -0.0264    0.0000 C   0  0  0  0  0  0  0  0  0  0  0  0
   -1.5482    0.5170    0.0000 C   0  0  0  0  0  0  0  0  0  0  0  0
   -2.8027    1.3393    0.0000 C   0  0  0  0  0  0  0  0  0  0  0  0
   -0.8615    1.8507    0.0000 C   0  0  0  0  0  0  0  0  0  0  0  0
   -2.4971   -0.6447    0.0000 C   0  0  0  0  0  0  0  0  0  0  0  0
    1.1114    0.7852    0.0000 C   0  0  0  0  0  0  0  0  0  0  0  0
    2.4450    0.0986    0.0000 C   0  0  0  0  0  0  0  0  0  0  0  0
    2.5172   -1.3997    0.0000 O   0  0  0  0  0  0  0  0  0  0  0  0
    3.7064    0.9102    0.0000 O   0  0  0  0  0  0  0  0  0  0  0  0
  1  2  1  0
  2  3  1  0
  3  4  1  0
  4  5  1  0
  4  6  1  0
  4  7  1  0
  3  8  1  0
  8  9  1  0
  9 10  2  0
  9 11  1  0
  7  1  1  0
M  END
>  <rName>  (4678) 
pyrrolidin-3-yl_44diMe_Ac

>  <PQ_SYMBOL>  (4678) 
pyrrolidin-3-yl_44diMe_Ac

>  <FULL_NAME>  (4678) 
2-(4,4-Dimethylpyrrolidin-3-yl)acetic acid

>  <IUPAC_CONDENSED>  (4678) 
pyrrolidin-3-yl(4,4-diMe)Ac

>  <IUPAC>  (4678) 
2-(4,4-dimethylpyrrolidin-3-yl)acetic acid

>  <TYPE>  (4678) 
Backbone

>  <CLASS>  (4678) 
gamma

>  <ANALOG>  (4678) 
Pro

>  <MOL_WT>  (4678) 
157.213

>  <LOGP>  (4678) 
0.7066999999999999

>  <TPSA>  (4678) 
49.33

>  <POPULARITY>  (4678) 
5.6

>  <PROTECTED>  (4678) 
TRUE

>  <SMILES>  (4678) 
N1CC(C(C)(C)C1)CC(=O)O

>  <INCHIKEY>  (4678) 
SOOPUAMNNLVQAV-UHFFFAOYSA-N

$$$$
pyrrolidin-3-yl_4OH_3R_4S_Ac
     RDKit          2D

 10 10  0  0  0  0  0  0  0  0999 V2000
   -1.9650   -1.6662    0.0000 N   0  0  0  0  0  0  0  0  0  0  0  0
   -0.4938   -1.3740    0.0000 C   0  0  0  0  0  0  0  0  0  0  0  0
   -0.3170    0.1155    0.0000 C   0  0  0  0  0  0  0  0  0  0  0  0
   -1.6790    0.7439    0.0000 C   0  0  0  0  0  0  0  0  0  0  0  0
   -1.9712    2.2152    0.0000 O   0  0  0  0  0  0  0  0  0  0  0  0
   -2.6975   -0.3572    0.0000 C   0  0  0  0  0  0  0  0  0  0  0  0
    0.9920    0.8480    0.0000 C   0  0  0  0  0  0  0  0  0  0  0  0
    2.2809    0.0807    0.0000 C   0  0  0  0  0  0  0  0  0  0  0  0
    2.2608   -1.4192    0.0000 O   0  0  0  0  0  0  0  0  0  0  0  0
    3.5898    0.8132    0.0000 O   0  0  0  0  0  0  0  0  0  0  0  0
  1  2  1  0
  2  3  1  0
  3  4  1  0
  4  5  1  1
  4  6  1  0
  3  7  1  6
  7  8  1  0
  8  9  2  0
  8 10  1  0
  6  1  1  0
M  END
>  <rName>  (4679) 
pyrrolidin-3-yl_4OH_3R_4S_Ac

>  <PQ_SYMBOL>  (4679) 
pyrrolidin-3-yl_4OH_3R_4S_Ac

>  <FULL_NAME>  (4679) 
2-((3R,4S)-4-Hydroxypyrrolidin-3-yl)acetic acid

>  <IUPAC_CONDENSED>  (4679) 
pyrrolidin-3-yl(4-OH,3R,4S)Ac

>  <IUPAC>  (4679) 
2-((3R,4S)-4-hydroxypyrrolidin-3-yl)acetic acid

>  <TYPE>  (4679) 
Backbone

>  <CLASS>  (4679) 
gamma

>  <ANALOG>  (4679) 
Pro

>  <MOL_WT>  (4679) 
145.15800000000002

>  <LOGP>  (4679) 
-0.9586000000000006

>  <TPSA>  (4679) 
69.56

>  <POPULARITY>  (4679) 
5.5

>  <PROTECTED>  (4679) 
TRUE

>  <SMILES>  (4679) 
N1C[C@H]([C@H](O)C1)CC(=O)O

>  <INCHIKEY>  (4679) 
FXBPDLIUWKOKNS-RFZPGFLSSA-N

$$$$
pyrrolidin-3-yl_5Me_Ac
     RDKit          2D

 10 10  0  0  0  0  0  0  0  0999 V2000
   -1.8720   -1.2532    0.0000 N   0  0  0  0  0  0  0  0  0  0  0  0
   -0.3795   -1.1032    0.0000 C   0  0  0  0  0  0  0  0  0  0  0  0
   -0.0610    0.3626    0.0000 C   0  0  0  0  0  0  0  0  0  0  0  0
   -1.3566    1.1185    0.0000 C   0  0  0  0  0  0  0  0  0  0  0  0
   -2.4758    0.1199    0.0000 C   0  0  0  0  0  0  0  0  0  0  0  0
   -3.9416    0.4384    0.0000 C   0  0  0  0  0  0  0  0  0  0  0  0
    1.3121    0.9665    0.0000 C   0  0  0  0  0  0  0  0  0  0  0  0
    2.5216    0.0793    0.0000 C   0  0  0  0  0  0  0  0  0  0  0  0
    2.3580   -1.4118    0.0000 O   0  0  0  0  0  0  0  0  0  0  0  0
    3.8947    0.6831    0.0000 O   0  0  0  0  0  0  0  0  0  0  0  0
  1  2  1  0
  2  3  1  0
  3  4  1  0
  4  5  1  0
  5  6  1  0
  3  7  1  0
  7  8  1  0
  8  9  2  0
  8 10  1  0
  5  1  1  0
M  END
>  <rName>  (4680) 
pyrrolidin-3-yl_5Me_Ac

>  <PQ_SYMBOL>  (4680) 
pyrrolidin-3-yl_5Me_Ac

>  <FULL_NAME>  (4680) 
2-(5-Methylpyrrolidin-3-yl)acetic acid

>  <IUPAC_CONDENSED>  (4680) 
pyrrolidin-3-yl(5-Me)Ac

>  <IUPAC>  (4680) 
2-(5-methylpyrrolidin-3-yl)acetic acid

>  <TYPE>  (4680) 
Backbone

>  <CLASS>  (4680) 
gamma

>  <ANALOG>  (4680) 
Pro

>  <MOL_WT>  (4680) 
143.186

>  <LOGP>  (4680) 
0.4591

>  <TPSA>  (4680) 
49.33

>  <POPULARITY>  (4680) 
8.9

>  <PROTECTED>  (4680) 
TRUE

>  <SMILES>  (4680) 
N1CC(CC1C)CC(=O)O

>  <INCHIKEY>  (4680) 
KWMUNJBQKNUYKO-UHFFFAOYSA-N

$$$$
pyrrolidin-3R-ylAc
     RDKit          2D

  9  9  0  0  0  0  0  0  0  0999 V2000
   -2.3794   -1.0606    0.0000 N   0  0  0  0  0  0  0  0  0  0  0  0
   -0.8806   -1.0024    0.0000 C   0  0  0  0  0  0  0  0  0  0  0  0
   -0.4728    0.4411    0.0000 C   0  0  0  0  0  0  0  0  0  0  0  0
   -1.7196    1.2750    0.0000 C   0  0  0  0  0  0  0  0  0  0  0  0
   -2.8980    0.3469    0.0000 C   0  0  0  0  0  0  0  0  0  0  0  0
    0.9347    0.9597    0.0000 C   0  0  0  0  0  0  0  0  0  0  0  0
    2.0876   -0.0000    0.0000 C   0  0  0  0  0  0  0  0  0  0  0  0
    1.8329   -1.4782    0.0000 O   0  0  0  0  0  0  0  0  0  0  0  0
    3.4951    0.5186    0.0000 O   0  0  0  0  0  0  0  0  0  0  0  0
  1  2  1  0
  2  3  1  0
  3  4  1  0
  4  5  1  0
  3  6  1  6
  6  7  1  0
  7  8  2  0
  7  9  1  0
  5  1  1  0
M  END
>  <rName>  (4681) 
pyrrolidin-3R-ylAc

>  <PQ_SYMBOL>  (4681) 
pyrrolidin-3R-ylAc

>  <FULL_NAME>  (4681) 
(R)-3-Pyrrolidineacetic acid

>  <IUPAC_CONDENSED>  (4681) 
pyrrolidin-3R-ylAc

>  <IUPAC>  (4681) 
2-((3R)-pyrrolidin-3-yl)acetic acid

>  <TYPE>  (4681) 
Backbone

>  <CLASS>  (4681) 
gamma

>  <ANALOG>  (4681) 
Pro

>  <MOL_WT>  (4681) 
129.15900000000002

>  <LOGP>  (4681) 
0.07059999999999994

>  <TPSA>  (4681) 
49.33

>  <POPULARITY>  (4681) 
10.9

>  <PROTECTED>  (4681) 
TRUE

>  <SMILES>  (4681) 
N1C[C@H](CC1)CC(=O)O

>  <INCHIKEY>  (4681) 
OUENRUZPZZFMCA-RXMQYKEDSA-N

$$$$
pyrrolidin-3R-ylPr
     RDKit          2D

 10 10  0  0  0  0  0  0  0  0999 V2000
   -3.1612   -1.0413    0.0000 N   0  0  0  0  0  0  0  0  0  0  0  0
   -1.6644   -1.1391    0.0000 C   0  0  0  0  0  0  0  0  0  0  0  0
   -1.1088    0.2543    0.0000 C   0  0  0  0  0  0  0  0  0  0  0  0
   -2.2623    1.2132    0.0000 C   0  0  0  0  0  0  0  0  0  0  0  0
   -3.5307    0.4124    0.0000 C   0  0  0  0  0  0  0  0  0  0  0  0
    0.3449    0.6238    0.0000 C   0  0  0  0  0  0  0  0  0  0  0  0
    1.3919   -0.4504    0.0000 C   0  0  0  0  0  0  0  0  0  0  0  0
    2.8456   -0.0808    0.0000 C   0  0  0  0  0  0  0  0  0  0  0  0
    3.2525    1.3629    0.0000 O   0  0  0  0  0  0  0  0  0  0  0  0
    3.8925   -1.1550    0.0000 O   0  0  0  0  0  0  0  0  0  0  0  0
  1  2  1  0
  2  3  1  0
  3  4  1  0
  4  5  1  0
  3  6  1  1
  6  7  1  0
  7  8  1  0
  8  9  2  0
  8 10  1  0
  5  1  1  0
M  END
>  <rName>  (4682) 
pyrrolidin-3R-ylPr

>  <PQ_SYMBOL>  (4682) 
pyrrolidin-3R-ylPr

>  <FULL_NAME>  (4682) 
3-[(3R)-pyrrolidin-3-yl]propanoic acid

>  <IUPAC_CONDENSED>  (4682) 
pyrrolidin-3R-ylPr

>  <IUPAC>  (4682) 
3-((3R)-pyrrolidin-3-yl)propanoic acid

>  <TYPE>  (4682) 
Backbone

>  <CLASS>  (4682) 
delta

>  <ANALOG>  (4682) 
Pro

>  <MOL_WT>  (4682) 
143.186

>  <LOGP>  (4682) 
0.46069999999999983

>  <TPSA>  (4682) 
49.33

>  <POPULARITY>  (4682) 
9.3

>  <PROTECTED>  (4682) 
TRUE

>  <SMILES>  (4682) 
N1C[C@@H](CC1)CCC(=O)O

>  <INCHIKEY>  (4682) 
VQCUMONTEGWEIX-ZCFIWIBFSA-N

$$$$
pyrrolidin-3S-ylAc
     RDKit          2D

  9  9  0  0  0  0  0  0  0  0999 V2000
   -2.3794   -1.0606    0.0000 N   0  0  0  0  0  0  0  0  0  0  0  0
   -0.8806   -1.0024    0.0000 C   0  0  0  0  0  0  0  0  0  0  0  0
   -0.4728    0.4411    0.0000 C   0  0  0  0  0  0  0  0  0  0  0  0
   -1.7196    1.2750    0.0000 C   0  0  0  0  0  0  0  0  0  0  0  0
   -2.8980    0.3469    0.0000 C   0  0  0  0  0  0  0  0  0  0  0  0
    0.9347    0.9597    0.0000 C   0  0  0  0  0  0  0  0  0  0  0  0
    2.0876   -0.0000    0.0000 C   0  0  0  0  0  0  0  0  0  0  0  0
    1.8329   -1.4782    0.0000 O   0  0  0  0  0  0  0  0  0  0  0  0
    3.4951    0.5186    0.0000 O   0  0  0  0  0  0  0  0  0  0  0  0
  1  2  1  0
  2  3  1  0
  3  4  1  0
  4  5  1  0
  3  6  1  1
  6  7  1  0
  7  8  2  0
  7  9  1  0
  5  1  1  0
M  END
>  <rName>  (4683) 
pyrrolidin-3S-ylAc

>  <PQ_SYMBOL>  (4683) 
pyrrolidin-3S-ylAc

>  <FULL_NAME>  (4683) 
(S)-2-(Pyrrolidin-3-yl)acetic acid

>  <IUPAC_CONDENSED>  (4683) 
pyrrolidin-3S-ylAc

>  <IUPAC>  (4683) 
2-((3S)-pyrrolidin-3-yl)acetic acid

>  <TYPE>  (4683) 
Backbone

>  <CLASS>  (4683) 
gamma

>  <ANALOG>  (4683) 
Pro

>  <MOL_WT>  (4683) 
129.15900000000002

>  <LOGP>  (4683) 
0.07059999999999994

>  <TPSA>  (4683) 
49.33

>  <POPULARITY>  (4683) 
11.9

>  <PROTECTED>  (4683) 
TRUE

>  <SMILES>  (4683) 
N1C[C@@H](CC1)CC(=O)O

>  <INCHIKEY>  (4683) 
OUENRUZPZZFMCA-YFKPBYRVSA-N

$$$$
pyrrolidin-3S-ylPr
     RDKit          2D

 10 10  0  0  0  0  0  0  0  0999 V2000
   -3.1612   -1.0413    0.0000 N   0  0  0  0  0  0  0  0  0  0  0  0
   -1.6644   -1.1391    0.0000 C   0  0  0  0  0  0  0  0  0  0  0  0
   -1.1088    0.2543    0.0000 C   0  0  0  0  0  0  0  0  0  0  0  0
   -2.2623    1.2132    0.0000 C   0  0  0  0  0  0  0  0  0  0  0  0
   -3.5307    0.4124    0.0000 C   0  0  0  0  0  0  0  0  0  0  0  0
    0.3449    0.6238    0.0000 C   0  0  0  0  0  0  0  0  0  0  0  0
    1.3919   -0.4504    0.0000 C   0  0  0  0  0  0  0  0  0  0  0  0
    2.8456   -0.0808    0.0000 C   0  0  0  0  0  0  0  0  0  0  0  0
    3.2525    1.3629    0.0000 O   0  0  0  0  0  0  0  0  0  0  0  0
    3.8925   -1.1550    0.0000 O   0  0  0  0  0  0  0  0  0  0  0  0
  1  2  1  0
  2  3  1  0
  3  4  1  0
  4  5  1  0
  3  6  1  6
  6  7  1  0
  7  8  1  0
  8  9  2  0
  8 10  1  0
  5  1  1  0
M  END
>  <rName>  (4684) 
pyrrolidin-3S-ylPr

>  <PQ_SYMBOL>  (4684) 
pyrrolidin-3S-ylPr

>  <FULL_NAME>  (4684) 
3-[(3S)-pyrrolidin-3-yl]propanoic acid

>  <IUPAC_CONDENSED>  (4684) 
pyrrolidin-3S-ylPr

>  <IUPAC>  (4684) 
3-((3S)-pyrrolidin-3-yl)propanoic acid

>  <TYPE>  (4684) 
Backbone

>  <CLASS>  (4684) 
delta

>  <ANALOG>  (4684) 
Pro

>  <MOL_WT>  (4684) 
143.186

>  <LOGP>  (4684) 
0.46069999999999983

>  <TPSA>  (4684) 
49.33

>  <POPULARITY>  (4684) 
11.7

>  <PROTECTED>  (4684) 
TRUE

>  <SMILES>  (4684) 
N1C[C@H](CC1)CCC(=O)O

>  <INCHIKEY>  (4684) 
VQCUMONTEGWEIX-LURJTMIESA-N

$$$$
pyrrolidine-3-CO2H_3CF2Me
     RDKit          2D

 12 12  0  0  0  0  0  0  0  0999 V2000
   -2.5278   -0.9166    0.0000 N   0  0  0  0  0  0  0  0  0  0  0  0
   -1.0627   -1.2381    0.0000 C   0  0  0  0  0  0  0  0  0  0  0  0
   -0.3042    0.0560    0.0000 C   0  0  0  0  0  0  0  0  0  0  0  0
   -1.3005    1.1773    0.0000 C   0  0  0  0  0  0  0  0  0  0  0  0
   -2.6748    0.5762    0.0000 C   0  0  0  0  0  0  0  0  0  0  0  0
    0.9036   -0.8336    0.0000 C   0  0  0  0  0  0  0  0  0  0  0  0
    2.1113   -1.7232    0.0000 C   0  0  0  0  0  0  0  0  0  0  0  0
    0.0139   -2.0413    0.0000 F   0  0  0  0  0  0  0  0  0  0  0  0
    1.8307    0.1476    0.0000 F   0  0  0  0  0  0  0  0  0  0  0  0
    0.7068    1.1641    0.0000 C   0  0  0  0  0  0  0  0  0  0  0  0
    2.0509    1.0377    0.0000 O   0  0  0  0  0  0  0  0  0  0  0  0
    0.2527    2.5937    0.0000 O   0  0  0  0  0  0  0  0  0  0  0  0
  1  2  1  0
  2  3  1  0
  3  4  1  0
  4  5  1  0
  3  6  1  0
  6  7  1  0
  6  8  1  0
  6  9  1  0
  3 10  1  0
 10 11  2  0
 10 12  1  0
  5  1  1  0
M  END
>  <rName>  (4685) 
pyrrolidine-3-CO2H_3CF2Me

>  <PQ_SYMBOL>  (4685) 
pyrrolidine-3-CO2H_3CF2Me

>  <FULL_NAME>  (4685) 
CC(F)(F)C1(C(=O)O)CCNC1

>  <IUPAC_CONDENSED>  (4685) 
pyrrolidine-3-CO2H(3-CF2Me)

>  <IUPAC>  (4685) 
3-(1,1-difluoroethyl)pyrrolidine-3-carboxylic acid

>  <TYPE>  (4685) 
Backbone

>  <CLASS>  (4685) 
beta

>  <ANALOG>  (4685) 
Pro

>  <MOL_WT>  (4685) 
179.166

>  <LOGP>  (4685) 
0.7059

>  <TPSA>  (4685) 
49.33

>  <POPULARITY>  (4685) 
2.8

>  <PROTECTED>  (4685) 
TRUE

>  <SMILES>  (4685) 
N1CC(CC1)(C(C)(F)F)C(=O)O

>  <INCHIKEY>  (4685) 
BJZJXUZLNAJCFL-UHFFFAOYSA-N

$$$$
pyrrolidine-3-CO2H_3F_44diMe
     RDKit          2D

 11 11  0  0  0  0  0  0  0  0999 V2000
   -2.3986   -0.9242    0.0000 N   0  0  0  0  0  0  0  0  0  0  0  0
   -1.1098   -1.6917    0.0000 C   0  0  0  0  0  0  0  0  0  0  0  0
    0.0184   -0.7032    0.0000 C   0  0  0  0  0  0  0  0  0  0  0  0
    0.8836   -1.9285    0.0000 F   0  0  0  0  0  0  0  0  0  0  0  0
   -0.5732    0.6753    0.0000 C   0  0  0  0  0  0  0  0  0  0  0  0
   -0.8652    2.1466    0.0000 C   0  0  0  0  0  0  0  0  0  0  0  0
    0.6579    1.2293    0.0000 C   0  0  0  0  0  0  0  0  0  0  0  0
   -2.0669    0.5386    0.0000 C   0  0  0  0  0  0  0  0  0  0  0  0
    1.3274    0.0292    0.0000 C   0  0  0  0  0  0  0  0  0  0  0  0
    1.5101    1.3668    0.0000 O   0  0  0  0  0  0  0  0  0  0  0  0
    2.6162   -0.7382    0.0000 O   0  0  0  0  0  0  0  0  0  0  0  0
  1  2  1  0
  2  3  1  0
  3  4  1  0
  3  5  1  0
  5  6  1  0
  5  7  1  0
  5  8  1  0
  3  9  1  0
  9 10  2  0
  9 11  1  0
  8  1  1  0
M  END
>  <rName>  (4686) 
pyrrolidine-3-CO2H_3F_44diMe

>  <PQ_SYMBOL>  (4686) 
pyrrolidine-3-CO2H_3F_44diMe

>  <FULL_NAME>  (4686) 
3-Fluoro-4,4-dimethylpyrrolidine-3-carboxylic acid

>  <IUPAC_CONDENSED>  (4686) 
pyrrolidine-3-CO2H(3-F,4,4-diMe)

>  <IUPAC>  (4686) 
3-fluoro-4,4-dimethylpyrrolidine-3-carboxylic acid

>  <TYPE>  (4686) 
Backbone

>  <CLASS>  (4686) 
beta

>  <ANALOG>  (4686) 
Pro

>  <MOL_WT>  (4686) 
161.176

>  <LOGP>  (4686) 
0.4087

>  <TPSA>  (4686) 
49.33

>  <POPULARITY>  (4686) 
4.2

>  <PROTECTED>  (4686) 
TRUE

>  <SMILES>  (4686) 
N1CC(F)(C(C)(C)C1)C(=O)O

>  <INCHIKEY>  (4686) 
VFFDAMIEZBYUOJ-UHFFFAOYSA-N

$$$$
pyrrolidine-3-CO2H_3MeOMe
     RDKit          2D

 11 11  0  0  0  0  0  0  0  0999 V2000
   -2.8699   -0.1947    0.0000 N   0  0  0  0  0  0  0  0  0  0  0  0
   -1.5393   -0.8874    0.0000 C   0  0  0  0  0  0  0  0  0  0  0  0
   -0.4695    0.1640    0.0000 C   0  0  0  0  0  0  0  0  0  0  0  0
   -1.1388    1.5064    0.0000 C   0  0  0  0  0  0  0  0  0  0  0  0
   -2.6223    1.2847    0.0000 C   0  0  0  0  0  0  0  0  0  0  0  0
    0.7956    0.9700    0.0000 C   0  0  0  0  0  0  0  0  0  0  0  0
    2.1261    0.2773    0.0000 O   0  0  0  0  0  0  0  0  0  0  0  0
    3.3912    1.0833    0.0000 C   0  0  0  0  0  0  0  0  0  0  0  0
    0.4643   -1.0099    0.0000 C   0  0  0  0  0  0  0  0  0  0  0  0
    1.9478   -0.7882    0.0000 O   0  0  0  0  0  0  0  0  0  0  0  0
   -0.0854   -2.4055    0.0000 O   0  0  0  0  0  0  0  0  0  0  0  0
  1  2  1  0
  2  3  1  0
  3  4  1  0
  4  5  1  0
  3  6  1  0
  6  7  1  0
  7  8  1  0
  3  9  1  0
  9 10  2  0
  9 11  1  0
  5  1  1  0
M  END
>  <rName>  (4687) 
pyrrolidine-3-CO2H_3MeOMe

>  <PQ_SYMBOL>  (4687) 
pyrrolidine-3-CO2H_3MeOMe

>  <FULL_NAME>  (4687) 
3-(Methoxymethyl)pyrrolidine-3-carboxylic acid

>  <IUPAC_CONDENSED>  (4687) 
pyrrolidine-3-CO2H(3-MeOMe)

>  <IUPAC>  (4687) 
3-(methoxymethyl)pyrrolidine-3-carboxylic acid

>  <TYPE>  (4687) 
Backbone

>  <CLASS>  (4687) 
beta

>  <ANALOG>  (4687) 
Pro

>  <MOL_WT>  (4687) 
159.185

>  <LOGP>  (4687) 
-0.3029

>  <TPSA>  (4687) 
58.56

>  <POPULARITY>  (4687) 
6.4

>  <PROTECTED>  (4687) 
TRUE

>  <SMILES>  (4687) 
N1CC(CC1)(COC)C(=O)O

>  <INCHIKEY>  (4687) 
UUNNQLNQGNNXKE-UHFFFAOYSA-N

$$$$
pyrrolidine-3-CO2H_3Me_44diF
     RDKit          2D

 11 11  0  0  0  0  0  0  0  0999 V2000
   -0.9752   -2.0997    0.0000 N   0  0  0  0  0  0  0  0  0  0  0  0
    0.3899   -1.4779    0.0000 C   0  0  0  0  0  0  0  0  0  0  0  0
    0.2204    0.0125    0.0000 C   0  0  0  0  0  0  0  0  0  0  0  0
    0.3645    1.5056    0.0000 C   0  0  0  0  0  0  0  0  0  0  0  0
   -1.2494    0.3118    0.0000 C   0  0  0  0  0  0  0  0  0  0  0  0
   -2.6249    0.9102    0.0000 F   0  0  0  0  0  0  0  0  0  0  0  0
   -0.7981    1.7423    0.0000 F   0  0  0  0  0  0  0  0  0  0  0  0
   -1.9883   -0.9935    0.0000 C   0  0  0  0  0  0  0  0  0  0  0  0
    1.7204    0.0253    0.0000 C   0  0  0  0  0  0  0  0  0  0  0  0
    2.4593    1.3307    0.0000 O   0  0  0  0  0  0  0  0  0  0  0  0
    2.4814   -1.2673    0.0000 O   0  0  0  0  0  0  0  0  0  0  0  0
  1  2  1  0
  2  3  1  0
  3  4  1  0
  3  5  1  0
  5  6  1  0
  5  7  1  0
  5  8  1  0
  3  9  1  0
  9 10  2  0
  9 11  1  0
  8  1  1  0
M  END
>  <rName>  (4688) 
pyrrolidine-3-CO2H_3Me_44diF

>  <PQ_SYMBOL>  (4688) 
pyrrolidine-3-CO2H_3Me_44diF

>  <FULL_NAME>  (4688) 
4,4-Difluoro-3-methylpyrrolidine-3-carboxylic acid

>  <IUPAC_CONDENSED>  (4688) 
pyrrolidine-3-CO2H(3-Me,4,4-diF)

>  <IUPAC>  (4688) 
4,4-difluoro-3-methylpyrrolidine-3-carboxylic acid

>  <TYPE>  (4688) 
Backbone

>  <CLASS>  (4688) 
beta

>  <ANALOG>  (4688) 
Pro

>  <MOL_WT>  (4688) 
165.139

>  <LOGP>  (4688) 
0.3158

>  <TPSA>  (4688) 
49.33

>  <POPULARITY>  (4688) 
2.7

>  <PROTECTED>  (4688) 
TRUE

>  <SMILES>  (4688) 
N1CC(C)(C(F)(F)C1)C(=O)O

>  <INCHIKEY>  (4688) 
FETKBDCXIYMXCZ-UHFFFAOYSA-N

$$$$
pyrrolidine-3-CO2H_3Me_55diMe
     RDKit          2D

 11 11  0  0  0  0  0  0  0  0999 V2000
   -1.2078   -1.3429    0.0000 N   0  0  0  0  0  0  0  0  0  0  0  0
    0.2836   -1.1827    0.0000 C   0  0  0  0  0  0  0  0  0  0  0  0
    0.5921    0.2852    0.0000 C   0  0  0  0  0  0  0  0  0  0  0  0
    1.1990    1.6570    0.0000 C   0  0  0  0  0  0  0  0  0  0  0  0
   -0.7087    1.0322    0.0000 C   0  0  0  0  0  0  0  0  0  0  0  0
   -1.8211    0.0260    0.0000 C   0  0  0  0  0  0  0  0  0  0  0  0
   -3.1184   -0.7270    0.0000 C   0  0  0  0  0  0  0  0  0  0  0  0
   -2.7056    1.2374    0.0000 C   0  0  0  0  0  0  0  0  0  0  0  0
    2.0197   -0.1750    0.0000 C   0  0  0  0  0  0  0  0  0  0  0  0
    3.1321    0.8313    0.0000 O   0  0  0  0  0  0  0  0  0  0  0  0
    2.3350   -1.6415    0.0000 O   0  0  0  0  0  0  0  0  0  0  0  0
  1  2  1  0
  2  3  1  0
  3  4  1  0
  3  5  1  0
  5  6  1  0
  6  7  1  0
  6  8  1  0
  3  9  1  0
  9 10  2  0
  9 11  1  0
  6  1  1  0
M  END
>  <rName>  (4689) 
pyrrolidine-3-CO2H_3Me_55diMe

>  <PQ_SYMBOL>  (4689) 
pyrrolidine-3-CO2H_3Me_55diMe

>  <FULL_NAME>  (4689) 
3,5,5-Trimethylpyrrolidine-3-carboxylic acid

>  <IUPAC_CONDENSED>  (4689) 
pyrrolidine-3-CO2H(3-Me,5,5-diMe)

>  <IUPAC>  (4689) 
3,5,5-trimethylpyrrolidine-3-carboxylic acid

>  <TYPE>  (4689) 
Backbone

>  <CLASS>  (4689) 
beta

>  <ANALOG>  (4689) 
Pro

>  <MOL_WT>  (4689) 
157.213

>  <LOGP>  (4689) 
0.8492

>  <TPSA>  (4689) 
49.33

>  <POPULARITY>  (4689) 
5.9

>  <PROTECTED>  (4689) 
TRUE

>  <SMILES>  (4689) 
N1CC(C)(CC1(C)C)C(=O)O

>  <INCHIKEY>  (4689) 
NVUBLNFXIPPHEV-UHFFFAOYSA-N

$$$$
pyrrolidine-3-CO2H_44diMe
     RDKit          2D

 10 10  0  0  0  0  0  0  0  0999 V2000
   -1.8707   -1.6216    0.0000 N   0  0  0  0  0  0  0  0  0  0  0  0
   -0.3795   -1.7836    0.0000 C   0  0  0  0  0  0  0  0  0  0  0  0
    0.2354   -0.4154    0.0000 C   0  0  0  0  0  0  0  0  0  0  0  0
   -0.8759    0.5922    0.0000 C   0  0  0  0  0  0  0  0  0  0  0  0
   -1.7533    1.8087    0.0000 C   0  0  0  0  0  0  0  0  0  0  0  0
    0.2423    1.5920    0.0000 C   0  0  0  0  0  0  0  0  0  0  0  0
   -2.1775   -0.1533    0.0000 C   0  0  0  0  0  0  0  0  0  0  0  0
    1.7037   -0.1086    0.0000 C   0  0  0  0  0  0  0  0  0  0  0  0
    2.1721    1.3164    0.0000 O   0  0  0  0  0  0  0  0  0  0  0  0
    2.7035   -1.2268    0.0000 O   0  0  0  0  0  0  0  0  0  0  0  0
  1  2  1  0
  2  3  1  0
  3  4  1  0
  4  5  1  0
  4  6  1  0
  4  7  1  0
  3  8  1  0
  8  9  2  0
  8 10  1  0
  7  1  1  0
M  END
>  <rName>  (4690) 
pyrrolidine-3-CO2H_44diMe

>  <PQ_SYMBOL>  (4690) 
pyrrolidine-3-CO2H_44diMe

>  <FULL_NAME>  (4690) 
4,4-Dimethyl-pyrrolidine-3-carboxylic acid

>  <IUPAC_CONDENSED>  (4690) 
pyrrolidine-3-CO2H(4,4-diMe)

>  <IUPAC>  (4690) 
4,4-dimethylpyrrolidine-3-carboxylic acid

>  <TYPE>  (4690) 
Backbone

>  <CLASS>  (4690) 
beta

>  <ANALOG>  (4690) 
Pro

>  <MOL_WT>  (4690) 
143.186

>  <LOGP>  (4690) 
0.31659999999999994

>  <TPSA>  (4690) 
49.33

>  <POPULARITY>  (4690) 
7.2

>  <PROTECTED>  (4690) 
TRUE

>  <SMILES>  (4690) 
N1CC(C(C)(C)C1)C(=O)O

>  <INCHIKEY>  (4690) 
FWOHOVIXBANHEB-UHFFFAOYSA-N

$$$$
pyrrolidine-3-CO2H_55diMe
     RDKit          2D

 10 10  0  0  0  0  0  0  0  0999 V2000
   -1.3929   -1.3319    0.0000 N   0  0  0  0  0  0  0  0  0  0  0  0
    0.0971   -1.5050    0.0000 C   0  0  0  0  0  0  0  0  0  0  0  0
    0.7221   -0.1414    0.0000 C   0  0  0  0  0  0  0  0  0  0  0  0
   -0.3816    0.8744    0.0000 C   0  0  0  0  0  0  0  0  0  0  0  0
   -1.6888    0.1386    0.0000 C   0  0  0  0  0  0  0  0  0  0  0  0
   -3.1203   -0.3093    0.0000 C   0  0  0  0  0  0  0  0  0  0  0  0
   -2.2839    1.5155    0.0000 C   0  0  0  0  0  0  0  0  0  0  0  0
    2.1926    0.1544    0.0000 C   0  0  0  0  0  0  0  0  0  0  0  0
    2.6717    1.5759    0.0000 O   0  0  0  0  0  0  0  0  0  0  0  0
    3.1841   -0.9712    0.0000 O   0  0  0  0  0  0  0  0  0  0  0  0
  1  2  1  0
  2  3  1  0
  3  4  1  0
  4  5  1  0
  5  6  1  0
  5  7  1  0
  3  8  1  0
  8  9  2  0
  8 10  1  0
  5  1  1  0
M  END
>  <rName>  (4691) 
pyrrolidine-3-CO2H_55diMe

>  <PQ_SYMBOL>  (4691) 
pyrrolidine-3-CO2H_55diMe

>  <FULL_NAME>  (4691) 
5,5-Dimethylpyrrolidine-3-carboxylic acid

>  <IUPAC_CONDENSED>  (4691) 
pyrrolidine-3-CO2H(5,5-diMe)

>  <IUPAC>  (4691) 
5,5-dimethylpyrrolidine-3-carboxylic acid

>  <TYPE>  (4691) 
Backbone

>  <CLASS>  (4691) 
beta

>  <ANALOG>  (4691) 
Pro

>  <MOL_WT>  (4691) 
143.186

>  <LOGP>  (4691) 
0.4591

>  <TPSA>  (4691) 
49.33

>  <POPULARITY>  (4691) 
9.2

>  <PROTECTED>  (4691) 
TRUE

>  <SMILES>  (4691) 
N1CC(CC1(C)C)C(=O)O

>  <INCHIKEY>  (4691) 
LTVCDYJGFRJIDI-UHFFFAOYSA-N

$$$$
pyrrolo34-disoxazole3aR6aS-3-CO2H
     RDKit          2D

 11 12  0  0  0  0  0  0  0  0999 V2000
   -2.6838   -1.3162    0.0000 N   0  0  0  0  0  0  0  0  0  0  0  0
   -1.2132   -1.6117    0.0000 C   0  0  0  0  0  0  0  0  0  0  0  0
   -0.4778   -0.3044    0.0000 C   0  0  0  0  0  0  0  0  0  0  0  0
    0.8857    0.3210    0.0000 C   0  0  0  0  0  0  0  0  0  0  0  0
    0.7122    1.8109    0.0000 N   0  0  0  0  0  0  0  0  0  0  0  0
   -0.7584    2.1064    0.0000 O   0  0  0  0  0  0  0  0  0  0  0  0
   -1.4938    0.7991    0.0000 C   0  0  0  0  0  0  0  0  0  0  0  0
   -2.8573    0.1737    0.0000 C   0  0  0  0  0  0  0  0  0  0  0  0
    2.1930   -0.4145    0.0000 C   0  0  0  0  0  0  0  0  0  0  0  0
    3.4836    0.3500    0.0000 O   0  0  0  0  0  0  0  0  0  0  0  0
    2.2097   -1.9144    0.0000 O   0  0  0  0  0  0  0  0  0  0  0  0
  1  2  1  0
  3  2  1  1
  3  4  1  0
  4  5  2  0
  5  6  1  0
  6  7  1  0
  7  8  1  1
  4  9  1  0
  9 10  2  0
  9 11  1  0
  7  3  1  0
  8  1  1  0
M  END
>  <rName>  (4692) 
pyrrolo34-disoxazole3aR6aS-3-CO2H

>  <PQ_SYMBOL>  (4692) 
pyrrolo34-disoxazole3aR6aS-3-CO2H

>  <FULL_NAME>  (4692) 
(3aR,6aS)-3a,5,6,6a-tetrahydro-4H-pyrrolo[3,4-d]isoxazole-3-carboxylic acid

>  <IUPAC_CONDENSED>  (4692) 
pyrrolo[3,4-d]isoxazole(3aR,6aS)-3-CO2H

>  <IUPAC>  (4692) 
(1S,5R)-2-oxa-3,7-diazabicyclo[3.3.0]oct-3-ene-4-carboxylic acid

>  <TYPE>  (4692) 
Backbone

>  <CLASS>  (4692) 
gamma

>  <ANALOG>  (4692) 
Pro

>  <MOL_WT>  (4692) 
156.141

>  <LOGP>  (4692) 
-0.9548000000000001

>  <TPSA>  (4692) 
70.92

>  <POPULARITY>  (4692) 
5.7

>  <PROTECTED>  (4692) 
TRUE

>  <SMILES>  (4692) 
N2C[C@@H]1C(=NO[C@@H]1C2)C(=O)O

>  <INCHIKEY>  (4692) 
SJFKEUIEXKCMQN-IUYQGCFVSA-N

$$$$
quinazolinedione-3-acetyl
     RDKit          2D

 16 17  0  0  0  0  0  0  0  0999 V2000
    4.1874    0.4399    0.0000 C   0  0  0  0  0  0  0  0  0  0  0  0
    3.3978   -0.8355    0.0000 C   0  0  0  0  0  0  0  0  0  0  0  0
    1.8985   -0.7894    0.0000 C   0  0  0  0  0  0  0  0  0  0  0  0
    1.1090   -2.0648    0.0000 N   0  0  0  0  0  0  0  0  0  0  0  0
   -0.3903   -2.0187    0.0000 C   0  0  0  0  0  0  0  0  0  0  0  0
   -1.1799   -3.2941    0.0000 O   0  0  0  0  0  0  0  0  0  0  0  0
   -1.1001   -0.6972    0.0000 N   0  0  0  0  0  0  0  0  0  0  0  0
   -0.3105    0.5781    0.0000 C   0  0  0  0  0  0  0  0  0  0  0  0
   -1.0203    1.8996    0.0000 O   0  0  0  0  0  0  0  0  0  0  0  0
    1.1888    0.5321    0.0000 C   0  0  0  0  0  0  0  0  0  0  0  0
    1.9783    1.8074    0.0000 C   0  0  0  0  0  0  0  0  0  0  0  0
    3.4776    1.7614    0.0000 C   0  0  0  0  0  0  0  0  0  0  0  0
   -2.5994   -0.6512    0.0000 C   0  0  0  0  0  0  0  0  0  0  0  0
   -3.3091    0.6703    0.0000 C   0  0  0  0  0  0  0  0  0  0  0  0
   -2.5195    1.9457    0.0000 O   0  0  0  0  0  0  0  0  0  0  0  0
   -4.8084    0.7164    0.0000 O   0  0  0  0  0  0  0  0  0  0  0  0
  1  2  1  0
  2  3  2  0
  3  4  1  0
  4  5  1  0
  5  6  2  0
  5  7  1  0
  7  8  1  0
  8  9  2  0
  8 10  1  0
 10 11  2  0
 11 12  1  0
  7 13  1  0
 13 14  1  0
 14 15  2  0
 14 16  1  0
 10  3  1  0
 12  1  2  0
M  END
>  <rName>  (4693) 
quinazolinedione-3-acetyl

>  <PQ_SYMBOL>  (4693) 
quinazolinedione-3-acetyl

>  <FULL_NAME>  (4693) 
2-(2,4-dioxo-1H-quinazolin-3-yl)acetic acid

>  <IUPAC_CONDENSED>  (4693) 
quinazolinedione-3-acetyl

>  <IUPAC>  (4693) 
2-(3,5-dioxo-2,4-diazabicyclo[4.4.0]deca-1(6),7,9-trien-4-yl)acetic acid

>  <TYPE>  (4693) 
N-term cap

>  <CLASS>  (4693) 
n_cap

>  <ANALOG>  (4693) 
X

>  <MOL_WT>  (4693) 
220.18399999999997

>  <LOGP>  (4693) 
-0.22560000000000008

>  <TPSA>  (4693) 
92.16000000000001

>  <POPULARITY>  (4693) 
8.5

>  <PROTECTED>  (4693) 
TRUE

>  <SMILES>  (4693) 
c2cc1[nH]c(=O)n(c(=O)c1cc2)CC(=O)O

>  <INCHIKEY>  (4693) 
RQQGYSJFFRKGNY-UHFFFAOYSA-N

$$$$
quinazolinedione-Phe
     RDKit          2D

 23 25  0  0  0  0  0  0  0  0999 V2000
    5.9733    0.8048    0.0000 C   0  0  0  0  0  0  0  0  0  0  0  0
    5.2141   -0.4888    0.0000 C   0  0  0  0  0  0  0  0  0  0  0  0
    3.7141   -0.4782    0.0000 C   0  0  0  0  0  0  0  0  0  0  0  0
    2.9549   -1.7719    0.0000 N   0  0  0  0  0  0  0  0  0  0  0  0
    1.4549   -1.7612    0.0000 C   0  0  0  0  0  0  0  0  0  0  0  0
    0.6957   -3.0549    0.0000 O   0  0  0  0  0  0  0  0  0  0  0  0
    0.7142   -0.4569    0.0000 N   0  0  0  0  0  0  0  0  0  0  0  0
    1.4734    0.8368    0.0000 C   0  0  0  0  0  0  0  0  0  0  0  0
    0.7326    2.1411    0.0000 O   0  0  0  0  0  0  0  0  0  0  0  0
    2.9733    0.8261    0.0000 C   0  0  0  0  0  0  0  0  0  0  0  0
    3.7325    2.1198    0.0000 C   0  0  0  0  0  0  0  0  0  0  0  0
    5.2325    2.1092    0.0000 C   0  0  0  0  0  0  0  0  0  0  0  0
   -0.7858   -0.4463    0.0000 C   0  0  0  0  0  0  0  0  0  0  0  0
   -1.5266    0.8581    0.0000 C   0  0  0  0  0  0  0  0  0  0  0  0
   -3.0265    0.8687    0.0000 C   0  0  0  0  0  0  0  0  0  0  0  0
   -3.7673    2.1730    0.0000 C   0  0  0  0  0  0  0  0  0  0  0  0
   -5.2672    2.1837    0.0000 C   0  0  0  0  0  0  0  0  0  0  0  0
   -6.0264    0.8900    0.0000 C   0  0  0  0  0  0  0  0  0  0  0  0
   -5.2857   -0.4143    0.0000 C   0  0  0  0  0  0  0  0  0  0  0  0
   -3.7857   -0.4250    0.0000 C   0  0  0  0  0  0  0  0  0  0  0  0
   -1.5450   -1.7400    0.0000 C   0  0  0  0  0  0  0  0  0  0  0  0
   -0.8042   -3.0443    0.0000 O   0  0  0  0  0  0  0  0  0  0  0  0
   -3.0450   -1.7293    0.0000 O   0  0  0  0  0  0  0  0  0  0  0  0
  1  2  1  0
  2  3  2  0
  3  4  1  0
  4  5  1  0
  5  6  2  0
  5  7  1  0
  7  8  1  0
  8  9  2  0
  8 10  1  0
 10 11  2  0
 11 12  1  0
  7 13  1  0
 13 14  1  6
 14 15  1  0
 15 16  2  0
 16 17  1  0
 17 18  2  0
 18 19  1  0
 19 20  2  0
 13 21  1  0
 21 22  2  0
 21 23  1  0
 20 15  1  0
 10  3  1  0
 12  1  2  0
M  END
>  <rName>  (4694) 
quinazolinedione-Phe

>  <PQ_SYMBOL>  (4694) 
quinazolinedione-Phe

>  <FULL_NAME>  (4694) 
(2S)-2-(2,4-dioxo-1H-quinazolin-3-yl)-3-phenylpropanoic acid

>  <IUPAC_CONDENSED>  (4694) 
quinazolinedione-Phe

>  <IUPAC>  (4694) 
(2S)-2-(3,5-dioxo-2,4-diazabicyclo[4.4.0]deca-1(6),7,9-trien-4-yl)-3-phenylpropanoic acid

>  <TYPE>  (4694) 
N-term cap

>  <CLASS>  (4694) 
n_cap

>  <ANALOG>  (4694) 
X

>  <MOL_WT>  (4694) 
310.309

>  <LOGP>  (4694) 
1.5582

>  <TPSA>  (4694) 
92.16000000000001

>  <POPULARITY>  (4694) 
11.3

>  <PROTECTED>  (4694) 
TRUE

>  <SMILES>  (4694) 
c3cc2[nH]c(=O)n(c(=O)c2cc3)[C@@H](Cc1(ccccc1))C(=O)O

>  <INCHIKEY>  (4694) 
JSHKCLVDTGIHEU-AWEZNQCLSA-N

$$$$
spiro33heptan-1-yl_3amino_Ac
     RDKit          2D

 12 13  0  0  0  0  0  0  0  0999 V2000
    2.8060   -2.0172    0.0000 N   0  0  0  0  0  0  0  0  0  0  0  0
    1.5428   -1.2084    0.0000 C   0  0  0  0  0  0  0  0  0  0  0  0
    0.0776   -1.5296    0.0000 C   0  0  0  0  0  0  0  0  0  0  0  0
   -0.2437   -0.0645    0.0000 C   0  0  0  0  0  0  0  0  0  0  0  0
    1.2215    0.2568    0.0000 C   0  0  0  0  0  0  0  0  0  0  0  0
    2.6867    0.5781    0.0000 C   0  0  0  0  0  0  0  0  0  0  0  0
    2.3654    2.0433    0.0000 C   0  0  0  0  0  0  0  0  0  0  0  0
    0.9002    1.7220    0.0000 C   0  0  0  0  0  0  0  0  0  0  0  0
   -1.5070    0.7444    0.0000 C   0  0  0  0  0  0  0  0  0  0  0  0
   -2.8391    0.0548    0.0000 C   0  0  0  0  0  0  0  0  0  0  0  0
   -2.9079   -1.4436    0.0000 O   0  0  0  0  0  0  0  0  0  0  0  0
   -4.1023    0.8637    0.0000 O   0  0  0  0  0  0  0  0  0  0  0  0
  1  2  1  0
  2  3  1  0
  3  4  1  0
  4  5  1  0
  5  6  1  0
  6  7  1  0
  7  8  1  0
  4  9  1  0
  9 10  1  0
 10 11  2  0
 10 12  1  0
  5  2  1  0
  8  5  1  0
M  END
>  <rName>  (4695) 
spiro33heptan-1-yl_3amino_Ac

>  <PQ_SYMBOL>  (4695) 
spiro33heptan-1-yl_3amino_Ac

>  <FULL_NAME>  (4695) 
2-{3-Aminospiro[3.3]heptan-1-yl}acetic acid

>  <IUPAC_CONDENSED>  (4695) 
spiro[3.3]heptan-1-yl(3-amino)Ac

>  <IUPAC>  (4695) 
2-(3-aminospiro[3.3]heptan-1-yl)acetic acid

>  <TYPE>  (4695) 
Backbone

>  <CLASS>  (4695) 
delta

>  <ANALOG>  (4695) 
X

>  <MOL_WT>  (4695) 
169.22400000000002

>  <LOGP>  (4695) 
0.9785999999999997

>  <TPSA>  (4695) 
63.32000000000001

>  <POPULARITY>  (4695) 
2.7

>  <PROTECTED>  (4695) 
TRUE

>  <SMILES>  (4695) 
NC1CC(C12(CCC2))CC(=O)O

>  <INCHIKEY>  (4695) 
QROHPVVHCDYBCV-UHFFFAOYSA-N

$$$$
spiroindene-piperidine
     RDKit          2D

 14 16  0  0  0  0  0  0  0  0999 V2000
    3.3489   -1.1308    0.0000 N   0  0  0  0  0  0  0  0  0  0  0  0
    2.0256   -1.8372    0.0000 C   0  0  0  0  0  0  0  0  0  0  0  0
    0.7522   -1.0444    0.0000 C   0  0  0  0  0  0  0  0  0  0  0  0
    0.8021    0.4548    0.0000 C   0  0  0  0  0  0  0  0  0  0  0  0
    2.1254    1.1611    0.0000 C   0  0  0  0  0  0  0  0  0  0  0  0
    3.3988    0.3684    0.0000 C   0  0  0  0  0  0  0  0  0  0  0  0
   -0.5877   -0.1095    0.0000 C   0  0  0  0  0  0  0  0  0  0  0  0
   -1.0984   -1.5198    0.0000 C   0  0  0  0  0  0  0  0  0  0  0  0
   -2.5752   -1.7828    0.0000 C   0  0  0  0  0  0  0  0  0  0  0  0
   -3.5413   -0.6353    0.0000 C   0  0  0  0  0  0  0  0  0  0  0  0
   -3.0306    0.7751    0.0000 C   0  0  0  0  0  0  0  0  0  0  0  0
   -1.5538    1.0380    0.0000 C   0  0  0  0  0  0  0  0  0  0  0  0
   -0.7610    2.3114    0.0000 C   0  0  0  0  0  0  0  0  0  0  0  0
    0.6950    1.9509    0.0000 C   0  0  0  0  0  0  0  0  0  0  0  0
  1  2  1  0
  2  3  1  0
  3  4  1  0
  4  5  1  0
  5  6  1  0
  4  7  1  0
  7  8  2  0
  8  9  1  0
  9 10  2  0
 10 11  1  0
 11 12  2  0
 12 13  1  0
 13 14  1  0
 12  7  1  0
 14  4  1  0
  6  1  1  0
M  END
>  <rName>  (4696) 
spiroindene-piperidine

>  <PQ_SYMBOL>  (4696) 
spiroindene-piperidine

>  <FULL_NAME>  (4696) 
2,3-Dihydrospiro[indene-1,4'-piperidine]

>  <IUPAC_CONDENSED>  (4696) 
spiro[indene-piperidine]

>  <IUPAC>  (4696) 
spiro[indane-1,4'-piperidine]

>  <TYPE>  (4696) 
C-term cap

>  <CLASS>  (4696) 
c_cap

>  <ANALOG>  (4696) 
X

>  <MOL_WT>  (4696) 
187.28599999999997

>  <LOGP>  (4696) 
2.2540000000000004

>  <TPSA>  (4696) 
12.03

>  <POPULARITY>  (4696) 
7.8

>  <PROTECTED>  (4696) 
TRUE

>  <SMILES>  (4696) 
N3CCC2(CC3)c1ccccc1CC2

>  <INCHIKEY>  (4696) 
ZBYFQSPEUIVDTF-UHFFFAOYSA-N

$$$$
thietane-11-dioxide-3-yl_3amino_Ac
     RDKit          2D

 11 11  0  0  0  0  0  0  0  0999 V2000
    0.8663   -1.3201    0.0000 N   0  0  0  0  0  0  0  0  0  0  0  0
   -0.0619   -0.1418    0.0000 C   0  0  0  0  0  0  0  0  0  0  0  0
   -1.2402   -1.0700    0.0000 C   0  0  0  0  0  0  0  0  0  0  0  0
   -2.1684    0.1083    0.0000 S   0  0  0  0  0  0  0  0  0  0  0  0
   -3.3467   -0.8199    0.0000 O   0  0  0  0  0  0  0  0  0  0  0  0
   -3.0966    1.2866    0.0000 O   0  0  0  0  0  0  0  0  0  0  0  0
   -0.9901    1.0365    0.0000 C   0  0  0  0  0  0  0  0  0  0  0  0
    1.1164    0.7864    0.0000 C   0  0  0  0  0  0  0  0  0  0  0  0
    2.5094    0.2301    0.0000 C   0  0  0  0  0  0  0  0  0  0  0  0
    2.7241   -1.2545    0.0000 O   0  0  0  0  0  0  0  0  0  0  0  0
    3.6877    1.1583    0.0000 O   0  0  0  0  0  0  0  0  0  0  0  0
  1  2  1  0
  2  3  1  0
  3  4  1  0
  4  5  2  0
  4  6  2  0
  4  7  1  0
  2  8  1  0
  8  9  1  0
  9 10  2  0
  9 11  1  0
  7  2  1  0
M  END
>  <rName>  (4697) 
thietane-11-dioxide-3-yl_3amino_Ac

>  <PQ_SYMBOL>  (4697) 
thietane-11-dioxide-3-yl_3amino_Ac

>  <FULL_NAME>  (4697) 
2-(3-Amino-1,1-dioxo-1lambda6-thietan-3-yl)acetic acid

>  <IUPAC_CONDENSED>  (4697) 
thietane-1,1-dioxide-3-yl(3-amino)Ac

>  <IUPAC>  (4697) 
2-(3-amino-1,1-dioxo-1lambda^6-thiacyclobutan-3-yl)acetic acid

>  <TYPE>  (4697) 
Backbone

>  <CLASS>  (4697) 
beta

>  <ANALOG>  (4697) 
X

>  <MOL_WT>  (4697) 
179.19699999999997

>  <LOGP>  (4697) 
-1.413

>  <TPSA>  (4697) 
97.46000000000001

>  <POPULARITY>  (4697) 
4.8

>  <PROTECTED>  (4697) 
TRUE

>  <SMILES>  (4697) 
NC1(CS(=O)(=O)C1)CC(=O)O

>  <INCHIKEY>  (4697) 
ISSWPXBHTZBQKU-UHFFFAOYSA-N

$$$$
thiolane-11-dioxide-3-yl_3amino_Ac
     RDKit          2D

 12 12  0  0  0  0  0  0  0  0999 V2000
    1.0102   -1.1271    0.0000 N   0  0  0  0  0  0  0  0  0  0  0  0
    0.1549    0.1051    0.0000 C   0  0  0  0  0  0  0  0  0  0  0  0
   -0.4256    1.4883    0.0000 C   0  0  0  0  0  0  0  0  0  0  0  0
   -1.9204    1.3636    0.0000 C   0  0  0  0  0  0  0  0  0  0  0  0
   -2.2638   -0.0965    0.0000 S   0  0  0  0  0  0  0  0  0  0  0  0
   -2.9033   -1.4534    0.0000 O   0  0  0  0  0  0  0  0  0  0  0  0
   -3.6801    0.3976    0.0000 O   0  0  0  0  0  0  0  0  0  0  0  0
   -0.9812   -0.8743    0.0000 C   0  0  0  0  0  0  0  0  0  0  0  0
    1.4697    0.8270    0.0000 C   0  0  0  0  0  0  0  0  0  0  0  0
    2.7523    0.0492    0.0000 C   0  0  0  0  0  0  0  0  0  0  0  0
    2.7200   -1.4505    0.0000 O   0  0  0  0  0  0  0  0  0  0  0  0
    4.0672    0.7710    0.0000 O   0  0  0  0  0  0  0  0  0  0  0  0
  1  2  1  0
  2  3  1  0
  3  4  1  0
  4  5  1  0
  5  6  2  0
  5  7  2  0
  5  8  1  0
  2  9  1  0
  9 10  1  0
 10 11  2  0
 10 12  1  0
  8  2  1  0
M  END
>  <rName>  (4698) 
thiolane-11-dioxide-3-yl_3amino_Ac

>  <PQ_SYMBOL>  (4698) 
thiolane-11-dioxide-3-yl_3amino_Ac

>  <FULL_NAME>  (4698) 
2-(3-Amino-1,1-dioxidotetrahydrothiophen-3-yl)acetic acid

>  <IUPAC_CONDENSED>  (4698) 
thiolane-1,1-dioxide-3-yl(3-amino)Ac

>  <IUPAC>  (4698) 
2-(3-amino-1,1-dioxothiolan-3-yl)acetic acid

>  <TYPE>  (4698) 
Backbone

>  <CLASS>  (4698) 
beta

>  <ANALOG>  (4698) 
X

>  <MOL_WT>  (4698) 
193.22399999999996

>  <LOGP>  (4698) 
-1.0229000000000004

>  <TPSA>  (4698) 
97.46000000000001

>  <POPULARITY>  (4698) 
3.5

>  <PROTECTED>  (4698) 
TRUE

>  <SMILES>  (4698) 
NC1(CCS(=O)(=O)C1)CC(=O)O

>  <INCHIKEY>  (4698) 
QXVYZMWKLNCBBU-UHFFFAOYSA-N

$$$$
thiomorpholin-3-ylAc
     RDKit          2D

 10 10  0  0  0  0  0  0  0  0999 V2000
    1.3040   -1.4730    0.0000 N   0  0  0  0  0  0  0  0  0  0  0  0
    0.1701   -0.4910    0.0000 C   0  0  0  0  0  0  0  0  0  0  0  0
    0.4536    0.9820    0.0000 C   0  0  0  0  0  0  0  0  0  0  0  0
    1.8709    1.4730    0.0000 S   0  0  0  0  0  0  0  0  0  0  0  0
    3.0048    0.4910    0.0000 C   0  0  0  0  0  0  0  0  0  0  0  0
    2.7213   -0.9820    0.0000 C   0  0  0  0  0  0  0  0  0  0  0  0
   -1.2473   -0.9820    0.0000 C   0  0  0  0  0  0  0  0  0  0  0  0
   -2.3812   -0.0000    0.0000 C   0  0  0  0  0  0  0  0  0  0  0  0
   -2.0977    1.4730    0.0000 O   0  0  0  0  0  0  0  0  0  0  0  0
   -3.7985   -0.4910    0.0000 O   0  0  0  0  0  0  0  0  0  0  0  0
  1  2  1  0
  2  3  1  0
  3  4  1  0
  4  5  1  0
  5  6  1  0
  2  7  1  0
  7  8  1  0
  8  9  2  0
  8 10  1  0
  6  1  1  0
M  END
>  <rName>  (4699) 
thiomorpholin-3-ylAc

>  <PQ_SYMBOL>  (4699) 
thiomorpholin-3-ylAc

>  <FULL_NAME>  (4699) 
2-(Thiomorpholin-3-yl)acetic acid

>  <IUPAC_CONDENSED>  (4699) 
thiomorpholin-3-ylAc

>  <IUPAC>  (4699) 
2-(thiomorpholin-3-yl)acetic acid

>  <TYPE>  (4699) 
Backbone

>  <CLASS>  (4699) 
beta

>  <ANALOG>  (4699) 
Pro

>  <MOL_WT>  (4699) 
161.226

>  <LOGP>  (4699) 
0.16609999999999986

>  <TPSA>  (4699) 
49.33

>  <POPULARITY>  (4699) 
5.0

>  <PROTECTED>  (4699) 
TRUE

>  <SMILES>  (4699) 
N1C(CSCC1)CC(=O)O

>  <INCHIKEY>  (4699) 
LGAAALNRLPZWHG-UHFFFAOYSA-N

$$$$
thiomorpholine-11-dioxide-2-CO2H
     RDKit          2D

 11 11  0  0  0  0  0  0  0  0999 V2000
    1.9188   -1.7458    0.0000 N   0  0  0  0  0  0  0  0  0  0  0  0
    0.4190   -1.7228    0.0000 C   0  0  0  0  0  0  0  0  0  0  0  0
   -0.3110   -0.4124    0.0000 C   0  0  0  0  0  0  0  0  0  0  0  0
    0.4588    0.8750    0.0000 S   0  0  0  0  0  0  0  0  0  0  0  0
   -0.9427    1.4096    0.0000 O   0  0  0  0  0  0  0  0  0  0  0  0
    0.7419    2.3480    0.0000 O   0  0  0  0  0  0  0  0  0  0  0  0
    1.9587    0.8520    0.0000 C   0  0  0  0  0  0  0  0  0  0  0  0
    2.6887   -0.4584    0.0000 C   0  0  0  0  0  0  0  0  0  0  0  0
   -1.8108   -0.3894    0.0000 C   0  0  0  0  0  0  0  0  0  0  0  0
   -2.5806   -1.6768    0.0000 O   0  0  0  0  0  0  0  0  0  0  0  0
   -2.5408    0.9210    0.0000 O   0  0  0  0  0  0  0  0  0  0  0  0
  1  2  1  0
  2  3  1  0
  3  4  1  0
  4  5  2  0
  4  6  2  0
  4  7  1  0
  7  8  1  0
  3  9  1  0
  9 10  2  0
  9 11  1  0
  8  1  1  0
M  END
>  <rName>  (4700) 
thiomorpholine-11-dioxide-2-CO2H

>  <PQ_SYMBOL>  (4700) 
thiomorpholine-11-dioxide-2-CO2H

>  <FULL_NAME>  (4700) 
1,1-Dioxo-1lambda6-thiomorpholine-2-carboxylic acid

>  <IUPAC_CONDENSED>  (4700) 
thiomorpholine-1,1-dioxide-2-CO2H

>  <IUPAC>  (4700) 
1,1-dioxothiomorpholine-2-carboxylic acid

>  <TYPE>  (4700) 
Backbone

>  <CLASS>  (4700) 
beta

>  <ANALOG>  (4700) 
Pro

>  <MOL_WT>  (4700) 
179.19699999999997

>  <LOGP>  (4700) 
-1.5423999999999993

>  <TPSA>  (4700) 
83.47

>  <POPULARITY>  (4700) 
5.7

>  <PROTECTED>  (4700) 
TRUE

>  <SMILES>  (4700) 
N1CC(S(=O)(=O)CC1)C(=O)O

>  <INCHIKEY>  (4700) 
FSAJNBTYVVGXJJ-UHFFFAOYSA-N

$$$$
thiomorpholine-11-dioxide-2-CO2H_66diMe
     RDKit          2D

 13 13  0  0  0  0  0  0  0  0999 V2000
    0.8381   -2.3966    0.0000 N   0  0  0  0  0  0  0  0  0  0  0  0
   -0.5838   -1.9189    0.0000 C   0  0  0  0  0  0  0  0  0  0  0  0
   -0.8811   -0.4487    0.0000 C   0  0  0  0  0  0  0  0  0  0  0  0
    0.2436    0.5439    0.0000 S   0  0  0  0  0  0  0  0  0  0  0  0
   -0.9292    1.4791    0.0000 O   0  0  0  0  0  0  0  0  0  0  0  0
    0.9610    1.8612    0.0000 O   0  0  0  0  0  0  0  0  0  0  0  0
    1.6655    0.0662    0.0000 C   0  0  0  0  0  0  0  0  0  0  0  0
    1.8890    1.5494    0.0000 C   0  0  0  0  0  0  0  0  0  0  0  0
    3.1650    0.1036    0.0000 C   0  0  0  0  0  0  0  0  0  0  0  0
    1.9627   -1.4041    0.0000 C   0  0  0  0  0  0  0  0  0  0  0  0
   -2.3030    0.0291    0.0000 C   0  0  0  0  0  0  0  0  0  0  0  0
   -3.4276   -0.9635    0.0000 O   0  0  0  0  0  0  0  0  0  0  0  0
   -2.6002    1.4993    0.0000 O   0  0  0  0  0  0  0  0  0  0  0  0
  1  2  1  0
  2  3  1  0
  3  4  1  0
  4  5  2  0
  4  6  2  0
  4  7  1  0
  7  8  1  0
  7  9  1  0
  7 10  1  0
  3 11  1  0
 11 12  2  0
 11 13  1  0
 10  1  1  0
M  END
>  <rName>  (4701) 
thiomorpholine-11-dioxide-2-CO2H_66diMe

>  <PQ_SYMBOL>  (4701) 
thiomorpholine-11-dioxide-2-CO2H_66diMe

>  <FULL_NAME>  (4701) 
6,6-Dimethyl-1,1-dioxo-1lambda6-thiomorpholine-2-carboxylic acid

>  <IUPAC_CONDENSED>  (4701) 
thiomorpholine-1,1-dioxide-2-CO2H(6,6-diMe)

>  <IUPAC>  (4701) 
6,6-dimethyl-1,1-dioxothiomorpholine-2-carboxylic acid

>  <TYPE>  (4701) 
Backbone

>  <CLASS>  (4701) 
beta

>  <ANALOG>  (4701) 
Pro

>  <MOL_WT>  (4701) 
207.25099999999998

>  <LOGP>  (4701) 
-0.7637999999999998

>  <TPSA>  (4701) 
83.47

>  <POPULARITY>  (4701) 
2.7

>  <PROTECTED>  (4701) 
TRUE

>  <SMILES>  (4701) 
N1CC(S(=O)(=O)C(C)(C)C1)C(=O)O

>  <INCHIKEY>  (4701) 
YURIGLZTWVDJIN-UHFFFAOYSA-N

$$$$
thiomorpholine-11-dioxide-2-ylAc
     RDKit          2D

 12 12  0  0  0  0  0  0  0  0999 V2000
    2.8012   -1.2472    0.0000 N   0  0  0  0  0  0  0  0  0  0  0  0
    1.3881   -1.7502    0.0000 C   0  0  0  0  0  0  0  0  0  0  0  0
    0.2459   -0.7780    0.0000 C   0  0  0  0  0  0  0  0  0  0  0  0
    0.5168    0.6974    0.0000 S   0  0  0  0  0  0  0  0  0  0  0  0
   -0.9832    0.7080    0.0000 O   0  0  0  0  0  0  0  0  0  0  0  0
    0.2668    2.1764    0.0000 O   0  0  0  0  0  0  0  0  0  0  0  0
    1.9299    1.2004    0.0000 C   0  0  0  0  0  0  0  0  0  0  0  0
    3.0722    0.2281    0.0000 C   0  0  0  0  0  0  0  0  0  0  0  0
   -1.1672   -1.2810    0.0000 C   0  0  0  0  0  0  0  0  0  0  0  0
   -2.3095   -0.3087    0.0000 C   0  0  0  0  0  0  0  0  0  0  0  0
   -2.0385    1.1666    0.0000 O   0  0  0  0  0  0  0  0  0  0  0  0
   -3.7226   -0.8118    0.0000 O   0  0  0  0  0  0  0  0  0  0  0  0
  1  2  1  0
  2  3  1  0
  3  4  1  0
  4  5  2  0
  4  6  2  0
  4  7  1  0
  7  8  1  0
  3  9  1  0
  9 10  1  0
 10 11  2  0
 10 12  1  0
  8  1  1  0
M  END
>  <rName>  (4702) 
thiomorpholine-11-dioxide-2-ylAc

>  <PQ_SYMBOL>  (4702) 
thiomorpholine-11-dioxide-2-ylAc

>  <FULL_NAME>  (4702) 
2-(1,1-Dioxo-1lambda6-thiomorpholin-2-yl)acetic acid

>  <IUPAC_CONDENSED>  (4702) 
thiomorpholine-1,1-dioxide-2-ylAc

>  <IUPAC>  (4702) 
2-(1,1-dioxothiomorpholin-2-yl)acetic acid

>  <TYPE>  (4702) 
Backbone

>  <CLASS>  (4702) 
gamma

>  <ANALOG>  (4702) 
Pro

>  <MOL_WT>  (4702) 
193.22399999999996

>  <LOGP>  (4702) 
-1.1522999999999997

>  <TPSA>  (4702) 
83.47

>  <POPULARITY>  (4702) 
3.9

>  <PROTECTED>  (4702) 
TRUE

>  <SMILES>  (4702) 
N1CC(S(=O)(=O)CC1)CC(=O)O

>  <INCHIKEY>  (4702) 
PYISWZMXXJKSQB-UHFFFAOYSA-N

$$$$
thiomorpholine-11-dioxide-3-ylAc
     RDKit          2D

 12 12  0  0  0  0  0  0  0  0999 V2000
    0.5004   -2.0732    0.0000 N   0  0  0  0  0  0  0  0  0  0  0  0
   -0.3823   -0.8604    0.0000 C   0  0  0  0  0  0  0  0  0  0  0  0
    0.2268    0.5104    0.0000 C   0  0  0  0  0  0  0  0  0  0  0  0
    1.7184    0.6684    0.0000 S   0  0  0  0  0  0  0  0  0  0  0  0
    1.3038    2.1099    0.0000 O   0  0  0  0  0  0  0  0  0  0  0  0
    3.0661    1.3270    0.0000 O   0  0  0  0  0  0  0  0  0  0  0  0
    2.6011   -0.5445    0.0000 C   0  0  0  0  0  0  0  0  0  0  0  0
    1.9920   -1.9153    0.0000 C   0  0  0  0  0  0  0  0  0  0  0  0
   -1.8739   -1.0184    0.0000 C   0  0  0  0  0  0  0  0  0  0  0  0
   -2.7566    0.1944    0.0000 C   0  0  0  0  0  0  0  0  0  0  0  0
   -2.1475    1.5652    0.0000 O   0  0  0  0  0  0  0  0  0  0  0  0
   -4.2482    0.0365    0.0000 O   0  0  0  0  0  0  0  0  0  0  0  0
  1  2  1  0
  2  3  1  0
  3  4  1  0
  4  5  2  0
  4  6  2  0
  4  7  1  0
  7  8  1  0
  2  9  1  0
  9 10  1  0
 10 11  2  0
 10 12  1  0
  8  1  1  0
M  END
>  <rName>  (4703) 
thiomorpholine-11-dioxide-3-ylAc

>  <PQ_SYMBOL>  (4703) 
thiomorpholine-11-dioxide-3-ylAc

>  <FULL_NAME>  (4703) 
2-(1,1-Dioxo-1lambda6-thiomorpholin-3-yl)acetic acid

>  <IUPAC_CONDENSED>  (4703) 
thiomorpholine-1,1-dioxide-3-ylAc

>  <IUPAC>  (4703) 
2-(1,1-dioxothiomorpholin-3-yl)acetic acid

>  <TYPE>  (4703) 
Backbone

>  <CLASS>  (4703) 
beta

>  <ANALOG>  (4703) 
Pro

>  <MOL_WT>  (4703) 
193.22399999999996

>  <LOGP>  (4703) 
-1.1522999999999997

>  <TPSA>  (4703) 
83.47

>  <POPULARITY>  (4703) 
4.3

>  <PROTECTED>  (4703) 
TRUE

>  <SMILES>  (4703) 
N1C(CS(=O)(=O)CC1)CC(=O)O

>  <INCHIKEY>  (4703) 
PCUGNWPHLMMPCS-UHFFFAOYSA-N

$$$$
thymin-1-acetyl
     RDKit          2D

 13 13  0  0  0  0  0  0  0  0999 V2000
   -3.9357   -0.2465    0.0000 O   0  0  0  0  0  0  0  0  0  0  0  0
   -2.4558   -0.0015    0.0000 C   0  0  0  0  0  0  0  0  0  0  0  0
   -1.9281    1.4026    0.0000 N   0  0  0  0  0  0  0  0  0  0  0  0
   -0.4482    1.6477    0.0000 C   0  0  0  0  0  0  0  0  0  0  0  0
    0.0795    3.0518    0.0000 O   0  0  0  0  0  0  0  0  0  0  0  0
    0.5039    0.4886    0.0000 N   0  0  0  0  0  0  0  0  0  0  0  0
   -0.0238   -0.9155    0.0000 C   0  0  0  0  0  0  0  0  0  0  0  0
   -1.5037   -1.1606    0.0000 C   0  0  0  0  0  0  0  0  0  0  0  0
   -2.0314   -2.5647    0.0000 C   0  0  0  0  0  0  0  0  0  0  0  0
    1.9837    0.7336    0.0000 C   0  0  0  0  0  0  0  0  0  0  0  0
    2.9359   -0.4255    0.0000 C   0  0  0  0  0  0  0  0  0  0  0  0
    2.4081   -1.8296    0.0000 O   0  0  0  0  0  0  0  0  0  0  0  0
    4.4157   -0.1804    0.0000 O   0  0  0  0  0  0  0  0  0  0  0  0
  1  2  2  0
  2  3  1  0
  3  4  1  0
  4  5  2  0
  4  6  1  0
  6  7  1  0
  7  8  2  0
  8  9  1  0
  6 10  1  0
 10 11  1  0
 11 12  2  0
 11 13  1  0
  8  2  1  0
M  END
>  <rName>  (4704) 
thymin-1-acetyl

>  <PQ_SYMBOL>  (4704) 
thymin-1-acetyl

>  <FULL_NAME>  (4704) 
2-(5-methyl-2,4-dioxopyrimidin-1-yl)acetic acid

>  <IUPAC_CONDENSED>  (4704) 
thymin-1-acetyl

>  <IUPAC>  (4704) 
2-(5-methyl-2,4-dioxo-1,3-diazacyclohex-5-en-1-yl)acetic acid

>  <TYPE>  (4704) 
N-term cap

>  <CLASS>  (4704) 
n_cap

>  <ANALOG>  (4704) 
X

>  <MOL_WT>  (4704) 
184.15099999999998

>  <LOGP>  (4704) 
-1.07038

>  <TPSA>  (4704) 
92.16000000000001

>  <POPULARITY>  (4704) 
8.2

>  <PROTECTED>  (4704) 
TRUE

>  <SMILES>  (4704) 
O=c1[nH]c(=O)n(cc1C)CC(=O)O

>  <INCHIKEY>  (4704) 
TZDMCKHDYUDRMB-UHFFFAOYSA-N

$$$$
trans-3-aminomethyl-cyclobutane-1-CO2H
     RDKit          2D

  9  9  0  0  0  0  0  0  0  0999 V2000
   -3.7885    0.7154    0.0000 N   0  0  0  0  0  0  0  0  0  0  0  0
   -2.8914   -0.4868    0.0000 C   0  0  0  0  0  0  0  0  0  0  0  0
   -1.4017   -0.3109    0.0000 C   0  0  0  0  0  0  0  0  0  0  0  0
   -0.4728    0.8669    0.0000 C   0  0  0  0  0  0  0  0  0  0  0  0
    0.7050   -0.0621    0.0000 C   0  0  0  0  0  0  0  0  0  0  0  0
   -0.2240   -1.2398    0.0000 C   0  0  0  0  0  0  0  0  0  0  0  0
    2.1946    0.1138    0.0000 C   0  0  0  0  0  0  0  0  0  0  0  0
    2.7871    1.4918    0.0000 O   0  0  0  0  0  0  0  0  0  0  0  0
    3.0918   -1.0883    0.0000 O   0  0  0  0  0  0  0  0  0  0  0  0
  1  2  1  0
  3  2  1  1
  3  4  1  0
  4  5  1  0
  5  6  1  0
  5  7  1  6
  7  8  2  0
  7  9  1  0
  6  3  1  0
M  END
>  <rName>  (4705) 
trans-3-aminomethyl-cyclobutane-1-CO2H

>  <PQ_SYMBOL>  (4705) 
trans-3-aminomethyl-cyclobutane-1-CO2H

>  <FULL_NAME>  (4705) 
3-(Aminomethyl)cyclobutanecarboxylic acid

>  <IUPAC_CONDENSED>  (4705) 
trans-3-aminomethyl-cyclobutane-1-CO2H

>  <IUPAC>  (4705) 
3-(aminomethyl)cyclobutane-1-carboxylic acid

>  <TYPE>  (4705) 
Backbone

>  <CLASS>  (4705) 
delta

>  <ANALOG>  (4705) 
Ala

>  <MOL_WT>  (4705) 
129.159

>  <LOGP>  (4705) 
0.05590000000000023

>  <TPSA>  (4705) 
63.32000000000001

>  <POPULARITY>  (4705) 
6.8

>  <PROTECTED>  (4705) 
TRUE

>  <SMILES>  (4705) 
NC[C@H]1C[C@@H](C1)C(=O)O

>  <INCHIKEY>  (4705) 
INKSBOBJGZMVTL-URHBZAFASA-N

$$$$
trans-Ac4c_3F
     RDKit          2D

  9  9  0  0  0  0  0  0  0  0999 V2000
    1.0010   -1.6755    0.0000 N   0  0  0  0  0  0  0  0  0  0  0  0
    0.1997   -0.4075    0.0000 C   0  0  0  0  0  0  0  0  0  0  0  0
   -1.0683   -1.2088    0.0000 C   0  0  0  0  0  0  0  0  0  0  0  0
   -1.8696    0.0593    0.0000 C   0  0  0  0  0  0  0  0  0  0  0  0
   -3.3328    0.3893    0.0000 F   0  0  0  0  0  0  0  0  0  0  0  0
   -0.6015    0.8606    0.0000 C   0  0  0  0  0  0  0  0  0  0  0  0
    1.4678    0.3938    0.0000 C   0  0  0  0  0  0  0  0  0  0  0  0
    1.4079    1.8926    0.0000 O   0  0  0  0  0  0  0  0  0  0  0  0
    2.7958   -0.3037    0.0000 O   0  0  0  0  0  0  0  0  0  0  0  0
  2  1  1  1
  2  3  1  0
  3  4  1  0
  4  5  1  6
  4  6  1  0
  2  7  1  0
  7  8  2  0
  7  9  1  0
  6  2  1  0
M  END
>  <rName>  (4706) 
trans-Ac4c_3F

>  <PQ_SYMBOL>  (4706) 
trans-Ac4c_3F

>  <FULL_NAME>  (4706) 
Fluciclovine

>  <IUPAC_CONDENSED>  (4706) 
trans-Ac4c(3-F)

>  <IUPAC>  (4706) 
1-amino-3-fluorocyclobutane-1-carboxylic acid

>  <TYPE>  (4706) 
Backbone

>  <CLASS>  (4706) 
alpha

>  <ANALOG>  (4706) 
X

>  <MOL_WT>  (4706) 
133.122

>  <LOGP>  (4706) 
-0.09960000000000041

>  <TPSA>  (4706) 
63.32000000000001

>  <POPULARITY>  (4706) 
6.3

>  <PROTECTED>  (4706) 
TRUE

>  <SMILES>  (4706) 
N[C@]1(C[C@H](F)C1)C(=O)O

>  <INCHIKEY>  (4706) 
NTEDWGYJNHZKQW-IWLYVCSRSA-N

$$$$
trans-Ac4c_3MeOH
     RDKit          2D

 10 10  0  0  0  0  0  0  0  0999 V2000
    1.7158   -1.5519    0.0000 N   0  0  0  0  0  0  0  0  0  0  0  0
    0.6818   -0.4652    0.0000 C   0  0  0  0  0  0  0  0  0  0  0  0
   -0.4049   -1.4992    0.0000 C   0  0  0  0  0  0  0  0  0  0  0  0
   -1.4388   -0.4124    0.0000 C   0  0  0  0  0  0  0  0  0  0  0  0
   -2.9384   -0.3751    0.0000 C   0  0  0  0  0  0  0  0  0  0  0  0
   -3.6558    0.9422    0.0000 O   0  0  0  0  0  0  0  0  0  0  0  0
   -0.3521    0.6215    0.0000 C   0  0  0  0  0  0  0  0  0  0  0  0
    1.7686    0.5687    0.0000 C   0  0  0  0  0  0  0  0  0  0  0  0
    1.4165    2.0268    0.0000 O   0  0  0  0  0  0  0  0  0  0  0  0
    3.2073    0.1446    0.0000 O   0  0  0  0  0  0  0  0  0  0  0  0
  2  1  1  1
  2  3  1  0
  3  4  1  0
  4  5  1  6
  5  6  1  0
  4  7  1  0
  2  8  1  0
  8  9  2  0
  8 10  1  0
  7  2  1  0
M  END
>  <rName>  (4707) 
trans-Ac4c_3MeOH

>  <PQ_SYMBOL>  (4707) 
trans-Ac4c_3MeOH

>  <FULL_NAME>  (4707) 
1-amino-3-(hydroxymethyl)cyclobutane-1-carboxylic acid

>  <IUPAC_CONDENSED>  (4707) 
trans-Ac4c(3-MeOH)

>  <IUPAC>  (4707) 
(1R,3S)-1-amino-3-(hydroxymethyl)cyclobutane-1-carboxylic acid

>  <TYPE>  (4707) 
N-term cap

>  <CLASS>  (4707) 
n_cap

>  <ANALOG>  (4707) 
X

>  <MOL_WT>  (4707) 
145.15800000000002

>  <LOGP>  (4707) 
-0.8292000000000004

>  <TPSA>  (4707) 
83.55

>  <POPULARITY>  (4707) 
7.1

>  <PROTECTED>  (4707) 
TRUE

>  <SMILES>  (4707) 
N[C@]1(C[C@H](CO)C1)C(=O)O

>  <INCHIKEY>  (4707) 
URCBHRLIPUAWTF-DTXYKFKXSA-N

$$$$
trans-Ac4c_3OH
     RDKit          2D

  9  9  0  0  0  0  0  0  0  0999 V2000
    1.0010   -1.6755    0.0000 N   0  0  0  0  0  0  0  0  0  0  0  0
    0.1997   -0.4075    0.0000 C   0  0  0  0  0  0  0  0  0  0  0  0
   -1.0683   -1.2088    0.0000 C   0  0  0  0  0  0  0  0  0  0  0  0
   -1.8696    0.0593    0.0000 C   0  0  0  0  0  0  0  0  0  0  0  0
   -3.3328    0.3893    0.0000 O   0  0  0  0  0  0  0  0  0  0  0  0
   -0.6015    0.8606    0.0000 C   0  0  0  0  0  0  0  0  0  0  0  0
    1.4678    0.3938    0.0000 C   0  0  0  0  0  0  0  0  0  0  0  0
    1.4079    1.8926    0.0000 O   0  0  0  0  0  0  0  0  0  0  0  0
    2.7958   -0.3037    0.0000 O   0  0  0  0  0  0  0  0  0  0  0  0
  2  1  1  6
  2  3  1  0
  3  4  1  0
  4  5  1  1
  4  6  1  0
  2  7  1  0
  7  8  2  0
  7  9  1  0
  6  2  1  0
M  END
>  <rName>  (4708) 
trans-Ac4c_3OH

>  <PQ_SYMBOL>  (4708) 
trans-Ac4c_3OH

>  <FULL_NAME>  (4708) 
trans-1-Amino-3-hydroxycyclobutanecarboxylic acid

>  <IUPAC_CONDENSED>  (4708) 
trans-Ac4c(3-OH)

>  <IUPAC>  (4708) 
(1R,3S)-1-amino-3-hydroxycyclobutane-1-carboxylic acid

>  <TYPE>  (4708) 
Backbone

>  <CLASS>  (4708) 
alpha

>  <ANALOG>  (4708) 
Ser

>  <MOL_WT>  (4708) 
131.131

>  <LOGP>  (4708) 
-1.0768000000000006

>  <TPSA>  (4708) 
83.55

>  <POPULARITY>  (4708) 
4.9

>  <PROTECTED>  (4708) 
TRUE

>  <SMILES>  (4708) 
N[C@@]1(C[C@@H](O)C1)C(=O)O

>  <INCHIKEY>  (4708) 
OEQBVNDAVKXWBS-IWLYVCSRSA-N

$$$$
trans-Ac6c_4amino
     RDKit          2D

 11 11  0  0  0  0  0  0  0  0999 V2000
    1.6249   -1.5175    0.0000 N   0  0  0  0  0  0  0  0  0  0  0  0
    0.6516   -0.3762    0.0000 C   0  0  0  0  0  0  0  0  0  0  0  0
   -0.3034   -1.5329    0.0000 C   0  0  0  0  0  0  0  0  0  0  0  0
   -1.7826   -1.2842    0.0000 C   0  0  0  0  0  0  0  0  0  0  0  0
   -2.3069    0.1212    0.0000 C   0  0  0  0  0  0  0  0  0  0  0  0
   -3.7861    0.3699    0.0000 N   0  0  0  0  0  0  0  0  0  0  0  0
   -1.3519    1.2779    0.0000 C   0  0  0  0  0  0  0  0  0  0  0  0
    0.1274    1.0292    0.0000 C   0  0  0  0  0  0  0  0  0  0  0  0
    1.9446    0.3841    0.0000 C   0  0  0  0  0  0  0  0  0  0  0  0
    1.9327    1.8841    0.0000 O   0  0  0  0  0  0  0  0  0  0  0  0
    3.2496   -0.3555    0.0000 O   0  0  0  0  0  0  0  0  0  0  0  0
  2  1  1  1
  2  3  1  0
  3  4  1  0
  4  5  1  0
  5  6  1  6
  5  7  1  0
  7  8  1  0
  2  9  1  0
  9 10  2  0
  9 11  1  0
  8  2  1  0
M  END
>  <rName>  (4709) 
trans-Ac6c_4amino

>  <PQ_SYMBOL>  (4709) 
trans-Ac6c_4amino

>  <FULL_NAME>  (4709) 
trans-Ac6c(4-amino)

>  <IUPAC_CONDENSED>  (4709) 
trans-Ac6c(4-amino)

>  <IUPAC>  (4709) 
(1r,4r)-1,4-diaminocyclohexane-1-carboxylic acid

>  <TYPE>  (4709) 
Backbone

>  <CLASS>  (4709) 
alpha

>  <ANALOG>  (4709) 
Lys

>  <MOL_WT>  (4709) 
158.20100000000002

>  <LOGP>  (4709) 
-0.33020000000000055

>  <TPSA>  (4709) 
89.34

>  <POPULARITY>  (4709) 
2.2

>  <PROTECTED>  (4709) 
TRUE

>  <SMILES>  (4709) 
N[C@]1(CC[C@H](N)CC1)C(=O)O

>  <INCHIKEY>  (4709) 
NXXVAESNIUKCIV-KBTIHESUSA-N

$$$$
trans-bAlacyclobutane_1R_2R
     RDKit          2D

  8  8  0  0  0  0  0  0  0  0999 V2000
    1.7473   -1.8123    0.0000 N   0  0  0  0  0  0  0  0  0  0  0  0
    1.3130   -0.3765    0.0000 C   0  0  0  0  0  0  0  0  0  0  0  0
   -0.0093    0.3316    0.0000 C   0  0  0  0  0  0  0  0  0  0  0  0
    0.6988    1.6539    0.0000 C   0  0  0  0  0  0  0  0  0  0  0  0
    2.0211    0.9458    0.0000 C   0  0  0  0  0  0  0  0  0  0  0  0
   -1.4451   -0.1027    0.0000 C   0  0  0  0  0  0  0  0  0  0  0  0
   -1.7868   -1.5633    0.0000 O   0  0  0  0  0  0  0  0  0  0  0  0
   -2.5391    0.9235    0.0000 O   0  0  0  0  0  0  0  0  0  0  0  0
  2  1  1  1
  2  3  1  0
  3  4  1  0
  4  5  1  0
  3  6  1  6
  6  7  2  0
  6  8  1  0
  5  2  1  0
M  END
>  <rName>  (4710) 
trans-bAlacyclobutane_1R_2R

>  <PQ_SYMBOL>  (4710) 
trans-bAlacyclobutane_1R_2R

>  <FULL_NAME>  (4710) 
2-Aminocyclobutanecarboxylic acid, trans-

>  <IUPAC_CONDENSED>  (4710) 
trans-bAla(cyclobutane)(1R,2R)

>  <IUPAC>  (4710) 
(1R,2R)-2-aminocyclobutanecarboxylic acid

>  <TYPE>  (4710) 
Backbone

>  <CLASS>  (4710) 
beta

>  <ANALOG>  (4710) 
Ala

>  <MOL_WT>  (4710) 
115.13199999999999

>  <LOGP>  (4710) 
-0.19170000000000004

>  <TPSA>  (4710) 
63.32000000000001

>  <POPULARITY>  (4710) 
5.4

>  <PROTECTED>  (4710) 
TRUE

>  <SMILES>  (4710) 
N[C@H]1[C@@H](CC1)C(=O)O

>  <INCHIKEY>  (4710) 
NSQMWZLLTGEDQU-QWWZWVQMSA-N

$$$$
trans-bAlacyclobutane_1S_2S
     RDKit          2D

  8  8  0  0  0  0  0  0  0  0999 V2000
    1.7473   -1.8123    0.0000 N   0  0  0  0  0  0  0  0  0  0  0  0
    1.3130   -0.3765    0.0000 C   0  0  0  0  0  0  0  0  0  0  0  0
   -0.0093    0.3316    0.0000 C   0  0  0  0  0  0  0  0  0  0  0  0
    0.6988    1.6539    0.0000 C   0  0  0  0  0  0  0  0  0  0  0  0
    2.0211    0.9458    0.0000 C   0  0  0  0  0  0  0  0  0  0  0  0
   -1.4451   -0.1027    0.0000 C   0  0  0  0  0  0  0  0  0  0  0  0
   -1.7868   -1.5633    0.0000 O   0  0  0  0  0  0  0  0  0  0  0  0
   -2.5391    0.9235    0.0000 O   0  0  0  0  0  0  0  0  0  0  0  0
  2  1  1  6
  2  3  1  0
  3  4  1  0
  4  5  1  0
  3  6  1  1
  6  7  2  0
  6  8  1  0
  5  2  1  0
M  END
>  <rName>  (4711) 
trans-bAlacyclobutane_1S_2S

>  <PQ_SYMBOL>  (4711) 
trans-bAlacyclobutane_1S_2S

>  <FULL_NAME>  (4711) 
(1S,2S)-2-Aminocyclobutanecarboxylic acid

>  <IUPAC_CONDENSED>  (4711) 
trans-bAla(cyclobutane)(1S,2S)

>  <IUPAC>  (4711) 
trans-(1S,2S)-2-aminocyclobutane-1-carboxylic acid

>  <TYPE>  (4711) 
Backbone

>  <CLASS>  (4711) 
beta

>  <ANALOG>  (4711) 
Ala

>  <MOL_WT>  (4711) 
115.13199999999999

>  <LOGP>  (4711) 
-0.19170000000000004

>  <TPSA>  (4711) 
63.32000000000001

>  <POPULARITY>  (4711) 
2.2

>  <PROTECTED>  (4711) 
TRUE

>  <SMILES>  (4711) 
N[C@@H]1[C@H](CC1)C(=O)O

>  <INCHIKEY>  (4711) 
NSQMWZLLTGEDQU-IMJSIDKUSA-N

$$$$
uracil-1-acetyl
     RDKit          2D

 12 12  0  0  0  0  0  0  0  0999 V2000
    4.0187   -0.9554    0.0000 O   0  0  0  0  0  0  0  0  0  0  0  0
    2.5795   -0.5324    0.0000 C   0  0  0  0  0  0  0  0  0  0  0  0
    1.4937   -1.5673    0.0000 C   0  0  0  0  0  0  0  0  0  0  0  0
    0.0546   -1.1443    0.0000 C   0  0  0  0  0  0  0  0  0  0  0  0
   -0.2987    0.3135    0.0000 N   0  0  0  0  0  0  0  0  0  0  0  0
    0.7871    1.3483    0.0000 C   0  0  0  0  0  0  0  0  0  0  0  0
    0.4338    2.8061    0.0000 O   0  0  0  0  0  0  0  0  0  0  0  0
    2.2262    0.9254    0.0000 N   0  0  0  0  0  0  0  0  0  0  0  0
   -1.7379    0.7364    0.0000 C   0  0  0  0  0  0  0  0  0  0  0  0
   -2.8237   -0.2985    0.0000 C   0  0  0  0  0  0  0  0  0  0  0  0
   -2.4704   -1.7563    0.0000 O   0  0  0  0  0  0  0  0  0  0  0  0
   -4.2629    0.1245    0.0000 O   0  0  0  0  0  0  0  0  0  0  0  0
  1  2  2  0
  2  3  1  0
  3  4  2  0
  4  5  1  0
  5  6  1  0
  6  7  2  0
  6  8  1  0
  5  9  1  0
  9 10  1  0
 10 11  2  0
 10 12  1  0
  8  2  1  0
M  END
>  <rName>  (4712) 
uracil-1-acetyl

>  <PQ_SYMBOL>  (4712) 
uracil-1-acetyl

>  <FULL_NAME>  (4712) 
2-(2,4-dioxopyrimidin-1-yl)acetic acid

>  <IUPAC_CONDENSED>  (4712) 
uracil-1-acetyl

>  <IUPAC>  (4712) 
2-(2,4-dioxo-1,3-diazacyclohex-5-en-1-yl)acetic acid

>  <TYPE>  (4712) 
N-term cap

>  <CLASS>  (4712) 
n_cap

>  <ANALOG>  (4712) 
X

>  <MOL_WT>  (4712) 
170.124

>  <LOGP>  (4712) 
-1.3787999999999996

>  <TPSA>  (4712) 
92.16000000000001

>  <POPULARITY>  (4712) 
15.1

>  <PROTECTED>  (4712) 
TRUE

>  <SMILES>  (4712) 
O=c1ccn(c(=O)[nH]1)CC(=O)O

>  <INCHIKEY>  (4712) 
ZFNQFXDDQAEAFI-UHFFFAOYSA-N

$$$$
uracil-6-carbonyl
     RDKit          2D

 11 11  0  0  0  0  0  0  0  0999 V2000
    2.1818    0.0000    0.0000 N   0  0  0  0  0  0  0  0  0  0  0  0
    1.4318   -1.2990    0.0000 C   0  0  0  0  0  0  0  0  0  0  0  0
    2.1818   -2.5981    0.0000 O   0  0  0  0  0  0  0  0  0  0  0  0
   -0.0682   -1.2990    0.0000 C   0  0  0  0  0  0  0  0  0  0  0  0
   -0.8182    0.0000    0.0000 C   0  0  0  0  0  0  0  0  0  0  0  0
   -0.0682    1.2990    0.0000 N   0  0  0  0  0  0  0  0  0  0  0  0
    1.4318    1.2990    0.0000 C   0  0  0  0  0  0  0  0  0  0  0  0
    2.1818    2.5981    0.0000 O   0  0  0  0  0  0  0  0  0  0  0  0
   -2.3182    0.0000    0.0000 C   0  0  0  0  0  0  0  0  0  0  0  0
   -3.0682   -1.2990    0.0000 O   0  0  0  0  0  0  0  0  0  0  0  0
   -3.0682    1.2990    0.0000 O   0  0  0  0  0  0  0  0  0  0  0  0
  1  2  1  0
  2  3  2  0
  2  4  1  0
  4  5  2  0
  5  6  1  0
  6  7  1  0
  7  8  2  0
  5  9  1  0
  9 10  2  0
  9 11  1  0
  7  1  1  0
M  END
>  <rName>  (4713) 
uracil-6-carbonyl

>  <PQ_SYMBOL>  (4713) 
uracil-6-carbonyl

>  <FULL_NAME>  (4713) 
2,4-dioxo-1H-pyrimidine-6-carboxylic acid

>  <IUPAC_CONDENSED>  (4713) 
uracil-6-carbonyl

>  <IUPAC>  (4713) 
2,6-dioxo-1,3-diazacyclohex-4-ene-4-carboxylic acid

>  <TYPE>  (4713) 
N-term cap

>  <CLASS>  (4713) 
n_cap

>  <ANALOG>  (4713) 
X

>  <MOL_WT>  (4713) 
156.097

>  <LOGP>  (4713) 
-1.2386000000000001

>  <TPSA>  (4713) 
103.02

>  <POPULARITY>  (4713) 
11.4

>  <PROTECTED>  (4713) 
TRUE

>  <SMILES>  (4713) 
[nH]1c(=O)cc([nH]c1=O)C(=O)O

>  <INCHIKEY>  (4713) 
PXQPEWDEAKTCGB-UHFFFAOYSA-N

$$$$
valacyclovir
     RDKit          2D

 23 24  0  0  0  0  0  0  0  0999 V2000
   -6.4863   -2.1442    0.0000 N   0  0  0  0  0  0  0  0  0  0  0  0
   -6.5389   -0.6451    0.0000 C   0  0  0  0  0  0  0  0  0  0  0  0
   -7.8635    0.0588    0.0000 C   0  0  0  0  0  0  0  0  0  0  0  0
   -9.1354   -0.7364    0.0000 C   0  0  0  0  0  0  0  0  0  0  0  0
   -7.9162    1.5579    0.0000 C   0  0  0  0  0  0  0  0  0  0  0  0
   -5.2671    0.1500    0.0000 C   0  0  0  0  0  0  0  0  0  0  0  0
   -5.3197    1.6491    0.0000 O   0  0  0  0  0  0  0  0  0  0  0  0
   -3.9425   -0.5539    0.0000 O   0  0  0  0  0  0  0  0  0  0  0  0
   -2.6706    0.2413    0.0000 C   0  0  0  0  0  0  0  0  0  0  0  0
   -1.3460   -0.4626    0.0000 C   0  0  0  0  0  0  0  0  0  0  0  0
   -0.0741    0.3326    0.0000 O   0  0  0  0  0  0  0  0  0  0  0  0
    1.2505   -0.3713    0.0000 C   0  0  0  0  0  0  0  0  0  0  0  0
    2.5224    0.4238    0.0000 N   0  0  0  0  0  0  0  0  0  0  0  0
    3.9133   -0.1378    0.0000 C   0  0  0  0  0  0  0  0  0  0  0  0
    4.4266   -1.5472    0.0000 N   0  0  0  0  0  0  0  0  0  0  0  0
    5.9039   -1.8073    0.0000 C   0  0  0  0  0  0  0  0  0  0  0  0
    6.4172   -3.2168    0.0000 N   0  0  0  0  0  0  0  0  0  0  0  0
    6.8678   -0.6580    0.0000 N   0  0  0  0  0  0  0  0  0  0  0  0
    6.3545    0.7514    0.0000 C   0  0  0  0  0  0  0  0  0  0  0  0
    7.3184    1.9007    0.0000 O   0  0  0  0  0  0  0  0  0  0  0  0
    4.8772    1.0115    0.0000 C   0  0  0  0  0  0  0  0  0  0  0  0
    4.0820    2.2834    0.0000 N   0  0  0  0  0  0  0  0  0  0  0  0
    2.6267    1.9202    0.0000 C   0  0  0  0  0  0  0  0  0  0  0  0
  2  1  1  1
  2  3  1  0
  3  4  1  0
  3  5  1  0
  2  6  1  0
  6  7  2  0
  6  8  1  0
  8  9  1  0
  9 10  1  0
 10 11  1  0
 11 12  1  0
 12 13  1  0
 13 14  1  0
 14 15  1  0
 15 16  2  0
 16 17  1  0
 16 18  1  0
 18 19  1  0
 19 20  2  0
 19 21  1  0
 21 22  1  0
 22 23  2  0
 21 14  2  0
 23 13  1  0
M  END
>  <rName>  (4714) 
valacyclovir

>  <PQ_SYMBOL>  (4714) 
valacyclovir

>  <FULL_NAME>  (4714) 
2-[(2-amino-6-oxo-1H-purin-9-yl)methoxy]ethyl (2S)-2-amino-3-methylbutanoate

>  <IUPAC_CONDENSED>  (4714) 
valacyclovir

>  <IUPAC>  (4714) 
2-(((3-amino-5-oxo-2,4,7,9-tetraazabicyclo[4.3.0]nona-1(6),2,7-trien-9-yl)methyl)oxy)ethyl (2S)-2-amino-3-methylbutanoate

>  <TYPE>  (4714) 
C-term cap

>  <CLASS>  (4714) 
c_cap

>  <ANALOG>  (4714) 
X

>  <MOL_WT>  (4714) 
324.341

>  <LOGP>  (4714) 
-0.7975999999999985

>  <TPSA>  (4714) 
151.14

>  <POPULARITY>  (4714) 
8.2

>  <PROTECTED>  (4714) 
TRUE

>  <SMILES>  (4714) 
N[C@@H](C(C)C)C(=O)OCCOCn2c1nc(N)[nH]c(=O)c1nc2

>  <INCHIKEY>  (4714) 
HDOVUKNUBWVHOX-QMMMGPOBSA-N

$$$$
vinyl-Pro
     RDKit          2D

 10 10  0  0  0  0  0  0  0  0999 V2000
   -2.9143   -1.6284    0.0000 C   0  0  0  0  0  0  0  0  0  0  0  0
   -1.4299   -1.4129    0.0000 C   0  0  0  0  0  0  0  0  0  0  0  0
   -0.8743   -0.0196    0.0000 N   0  0  0  0  0  0  0  0  0  0  0  0
    0.5795    0.3498    0.0000 C   0  0  0  0  0  0  0  0  0  0  0  0
    0.6774    1.8466    0.0000 C   0  0  0  0  0  0  0  0  0  0  0  0
   -0.7159    2.4022    0.0000 C   0  0  0  0  0  0  0  0  0  0  0  0
   -1.6749    1.2488    0.0000 C   0  0  0  0  0  0  0  0  0  0  0  0
    1.7329   -0.6092    0.0000 C   0  0  0  0  0  0  0  0  0  0  0  0
    3.1402   -0.0898    0.0000 O   0  0  0  0  0  0  0  0  0  0  0  0
    1.4791   -2.0876    0.0000 O   0  0  0  0  0  0  0  0  0  0  0  0
  1  2  2  0
  2  3  1  0
  3  4  1  0
  4  5  1  0
  5  6  1  0
  6  7  1  0
  4  8  1  1
  8  9  2  0
  8 10  1  0
  7  3  1  0
M  END
>  <rName>  (4715) 
vinyl-Pro

>  <PQ_SYMBOL>  (4715) 
vinyl-Pro

>  <FULL_NAME>  (4715) 
1-ethenyl-L-proline

>  <IUPAC_CONDENSED>  (4715) 
vinyl-Pro

>  <IUPAC>  (4715) 
(2S)-1-ethenylpyrrolidine-2-carboxylic acid

>  <TYPE>  (4715) 
N-term cap

>  <CLASS>  (4715) 
n_cap

>  <ANALOG>  (4715) 
X

>  <MOL_WT>  (4715) 
141.17000000000002

>  <LOGP>  (4715) 
0.6788999999999998

>  <TPSA>  (4715) 
40.540000000000006

>  <POPULARITY>  (4715) 
11.0

>  <PROTECTED>  (4715) 
FALSE

>  <SMILES>  (4715) 
C=CN1[C@@H](CCC1)C(=O)O

>  <INCHIKEY>  (4715) 
XOTIFFOSEYHBBR-LURJTMIESA-N

$$$$
xiHyl
     RDKit          2D

 11 10  0  0  0  0  0  0  0  0999 V2000
    1.7502   -1.9632    0.0000 N   0  0  0  0  0  0  0  0  0  0  0  0
    1.6777   -0.4649    0.0000 C   0  0  0  0  0  0  0  0  0  0  0  0
    0.3440    0.2214    0.0000 C   0  0  0  0  0  0  0  0  0  0  0  0
   -0.9173   -0.5905    0.0000 C   0  0  0  0  0  0  0  0  0  0  0  0
   -2.2511    0.0959    0.0000 C   0  0  0  0  0  0  0  0  0  0  0  0
   -2.3235    1.5941    0.0000 O   0  0  0  0  0  0  0  0  0  0  0  0
   -3.5123   -0.7160    0.0000 C   0  0  0  0  0  0  0  0  0  0  0  0
   -4.8461   -0.0297    0.0000 N   0  0  0  0  0  0  0  0  0  0  0  0
    2.9390    0.3470    0.0000 C   0  0  0  0  0  0  0  0  0  0  0  0
    2.8665    1.8452    0.0000 O   0  0  0  0  0  0  0  0  0  0  0  0
    4.2728   -0.3394    0.0000 O   0  0  0  0  0  0  0  0  0  0  0  0
  2  1  1  1
  2  3  1  0
  3  4  1  0
  4  5  1  0
  5  6  1  0
  5  7  1  0
  7  8  1  0
  2  9  1  0
  9 10  2  0
  9 11  1  0
M  END
>  <rName>  (4716) 
xiHyl

>  <PQ_SYMBOL>  (4716) 
xiHyl

>  <FULL_NAME>  (4716) 
(2S)-2,6-diamino-5-hydroxyhexanoic acid

>  <IUPAC_CONDENSED>  (4716) 
xiHyl

>  <IUPAC>  (4716) 
(2S)-2,6-diamino-5-hydroxyhexanoic acid

>  <TYPE>  (4716) 
Backbone

>  <CLASS>  (4716) 
alpha

>  <ANALOG>  (4716) 
Lys

>  <MOL_WT>  (4716) 
162.189

>  <LOGP>  (4716) 
-1.5018999999999991

>  <TPSA>  (4716) 
109.57000000000001

>  <POPULARITY>  (4716) 
3.9

>  <PROTECTED>  (4716) 
FALSE

>  <SMILES>  (4716) 
N[C@@H](CCC(O)CN)C(=O)O

>  <INCHIKEY>  (4716) 
YSMODUONRAFBET-AKGZTFGVSA-N

$$$$
xiHyp
     RDKit          2D

  9  9  0  0  0  0  0  0  0  0999 V2000
   -0.1792   -1.4541    0.0000 N   0  0  0  0  0  0  0  0  0  0  0  0
    0.4598   -0.0969    0.0000 C   0  0  0  0  0  0  0  0  0  0  0  0
   -0.6334    0.9301    0.0000 C   0  0  0  0  0  0  0  0  0  0  0  0
   -1.9481    0.2077    0.0000 C   0  0  0  0  0  0  0  0  0  0  0  0
   -3.3052    0.8467    0.0000 O   0  0  0  0  0  0  0  0  0  0  0  0
   -1.6673   -1.2657    0.0000 C   0  0  0  0  0  0  0  0  0  0  0  0
    1.9333    0.1838    0.0000 C   0  0  0  0  0  0  0  0  0  0  0  0
    2.4269    1.6003    0.0000 O   0  0  0  0  0  0  0  0  0  0  0  0
    2.9132   -0.9519    0.0000 O   0  0  0  0  0  0  0  0  0  0  0  0
  1  2  1  0
  2  3  1  0
  3  4  1  0
  4  5  1  0
  4  6  1  0
  2  7  1  1
  7  8  2  0
  7  9  1  0
  6  1  1  0
M  END
>  <rName>  (4717) 
xiHyp

>  <PQ_SYMBOL>  (4717) 
xiHyp

>  <FULL_NAME>  (4717) 
(2S)-4-hydroxypyrrolidine-2-carboxylic acid

>  <IUPAC_CONDENSED>  (4717) 
xiHyp

>  <IUPAC>  (4717) 
(2S)-4-hydroxypyrrolidine-2-carboxylic acid

>  <TYPE>  (4717) 
Backbone

>  <CLASS>  (4717) 
alpha

>  <ANALOG>  (4717) 
Pro

>  <MOL_WT>  (4717) 
131.131

>  <LOGP>  (4717) 
-1.2062000000000004

>  <TPSA>  (4717) 
69.56

>  <POPULARITY>  (4717) 
10.5

>  <PROTECTED>  (4717) 
FALSE

>  <SMILES>  (4717) 
N1[C@@H](CC(O)C1)C(=O)O

>  <INCHIKEY>  (4717) 
PMMYEEVYMWASQN-BKLSDQPFSA-N

$$$$
xiIle
     RDKit          2D

  9  8  0  0  0  0  0  0  0  0999 V2000
    0.0000    2.3333    0.0000 N   0  0  0  0  0  0  0  0  0  0  0  0
    0.0000    0.8333    0.0000 C   0  0  0  0  0  0  0  0  0  0  0  0
   -1.2990    0.0833    0.0000 C   0  0  0  0  0  0  0  0  0  0  0  0
   -2.5981    0.8333    0.0000 C   0  0  0  0  0  0  0  0  0  0  0  0
   -1.2990   -1.4167    0.0000 C   0  0  0  0  0  0  0  0  0  0  0  0
   -0.0000   -2.1667    0.0000 C   0  0  0  0  0  0  0  0  0  0  0  0
    1.2990    0.0833    0.0000 C   0  0  0  0  0  0  0  0  0  0  0  0
    1.2990   -1.4167    0.0000 O   0  0  0  0  0  0  0  0  0  0  0  0
    2.5981    0.8333    0.0000 O   0  0  0  0  0  0  0  0  0  0  0  0
  2  1  1  6
  2  3  1  0
  3  4  1  0
  3  5  1  0
  5  6  1  0
  2  7  1  0
  7  8  2  0
  7  9  1  0
M  END
>  <rName>  (4718) 
xiIle

>  <PQ_SYMBOL>  (4718) 
xiIle

>  <FULL_NAME>  (4718) 
(2S)-2-amino-3-methylpentanoic acid

>  <IUPAC_CONDENSED>  (4718) 
xiIle

>  <IUPAC>  (4718) 
(2S)-2-amino-3-methylpentanoic acid

>  <TYPE>  (4718) 
Backbone

>  <CLASS>  (4718) 
alpha

>  <ANALOG>  (4718) 
Ile

>  <MOL_WT>  (4718) 
131.175

>  <LOGP>  (4718) 
0.44439999999999985

>  <TPSA>  (4718) 
63.32000000000001

>  <POPULARITY>  (4718) 
12.4

>  <PROTECTED>  (4718) 
FALSE

>  <SMILES>  (4718) 
N[C@@H](C(C)CC)C(=O)O

>  <INCHIKEY>  (4718) 
AGPKZVBTJJNPAG-AKGZTFGVSA-N

$$$$
xiThr
     RDKit          2D

  8  7  0  0  0  0  0  0  0  0999 V2000
    0.0000   -2.0625    0.0000 N   0  0  0  0  0  0  0  0  0  0  0  0
    0.0000   -0.5625    0.0000 C   0  0  0  0  0  0  0  0  0  0  0  0
   -1.2990    0.1875    0.0000 C   0  0  0  0  0  0  0  0  0  0  0  0
   -1.2990    1.6875    0.0000 O   0  0  0  0  0  0  0  0  0  0  0  0
   -2.5981   -0.5625    0.0000 C   0  0  0  0  0  0  0  0  0  0  0  0
    1.2990    0.1875    0.0000 C   0  0  0  0  0  0  0  0  0  0  0  0
    1.2990    1.6875    0.0000 O   0  0  0  0  0  0  0  0  0  0  0  0
    2.5981   -0.5625    0.0000 O   0  0  0  0  0  0  0  0  0  0  0  0
  2  1  1  1
  2  3  1  0
  3  4  1  0
  3  5  1  0
  2  6  1  0
  6  7  2  0
  6  8  1  0
M  END
>  <rName>  (4719) 
xiThr

>  <PQ_SYMBOL>  (4719) 
xiThr

>  <FULL_NAME>  (4719) 
(2S)-2-amino-3-hydroxybutanoic acid

>  <IUPAC_CONDENSED>  (4719) 
xiThr

>  <IUPAC>  (4719) 
(2S)-2-amino-3-hydroxybutanoic acid

>  <TYPE>  (4719) 
Backbone

>  <CLASS>  (4719) 
alpha

>  <ANALOG>  (4719) 
Thr

>  <MOL_WT>  (4719) 
119.11999999999999

>  <LOGP>  (4719) 
-1.2209

>  <TPSA>  (4719) 
83.55

>  <POPULARITY>  (4719) 
11.2

>  <PROTECTED>  (4719) 
FALSE

>  <SMILES>  (4719) 
N[C@@H](C(O)C)C(=O)O

>  <INCHIKEY>  (4719) 
AYFVYJQAPQTCCC-NFJMKROFSA-N

$$$$
